#------------------------------------------------------------------------------
#$Date: 2019-11-23 12:40:31 +0200 (Sat, 23 Nov 2019) $
#$Revision: 233317 $
#$URL: file:///home/coder/svn-repositories/cod/cif/7/23/57/7235780.cif $
#------------------------------------------------------------------------------
#
# This file is available in the Crystallography Open Database (COD),
# http://www.crystallography.net/
#
# All data on this site have been placed in the public domain by the
# contributors.
#
data_7235780
loop_
_publ_author_name
'Liu, Wei'
'Li, Sheng-hua'
'Li, Yu-chuan'
'Yang, Yu-zhang'
'Yu, Yi'
'Pang, Si-ping'
_publ_section_title
;
 Nitrogen-rich salts based on polyamino substituted
 N,N&#x2032;-azo-1,2,4-triazole: a new family of high-performance
 energetic materials
;
_journal_issue                   38
_journal_name_full               'J. Mater. Chem. A'
_journal_page_first              15978
_journal_paper_doi               10.1039/C4TA03016H
_journal_volume                  2
_journal_year                    2014
_chemical_formula_moiety         'C4 H8 Cl2 N10 O8'
_chemical_formula_sum            'C4 H8 Cl2 N10 O8'
_chemical_formula_weight         395.10
_space_group_crystal_system      triclinic
_space_group_IT_number           2
_space_group_name_Hall           '-P 1'
_space_group_name_H-M_alt        'P -1'
_atom_sites_solution_hydrogens   difmap
_atom_sites_solution_primary     direct
_atom_sites_solution_secondary   difmap
_audit_creation_method           SHELXL-2013
_cell_angle_alpha                97.491(7)
_cell_angle_beta                 94.118(8)
_cell_angle_gamma                99.293(8)
_cell_formula_units_Z            1
_cell_length_a                   4.9462(9)
_cell_length_b                   7.1522(17)
_cell_length_c                   9.503(2)
_cell_measurement_reflns_used    1314
_cell_measurement_temperature    173(2)
_cell_measurement_theta_max      29.11
_cell_measurement_theta_min      2.17
_cell_volume                     327.45(12)
_computing_cell_refinement       CrystalClear
_computing_data_collection       'CrystalClear (Rigaku Inc., 2008)'
_computing_data_reduction        CrystalClear
_computing_molecular_graphics    'CrystalStructure 4.0'
_computing_publication_material  'CrystalStructure 4.0 (Rigaku, 2009)'
_computing_structure_refinement  'SHELXL-2013 (Sheldrick, 2013)'
_computing_structure_solution    'SHELXS97 (Sheldrick, 1997)'
_diffrn_ambient_temperature      173(2)
_diffrn_detector_area_resol_mean 7.314
_diffrn_measured_fraction_theta_full 0.965
_diffrn_measured_fraction_theta_max 0.928
_diffrn_measurement_device_type  'Rigaku Saturn70 CCD'
_diffrn_measurement_method       \w
_diffrn_radiation_type           MoK\a
_diffrn_radiation_wavelength     0.71075
_diffrn_reflns_av_R_equivalents  0.0294
_diffrn_reflns_av_unetI/netI     0.0468
_diffrn_reflns_Laue_measured_fraction_full 0.965
_diffrn_reflns_Laue_measured_fraction_max 0.928
_diffrn_reflns_limit_h_max       4
_diffrn_reflns_limit_h_min       -6
_diffrn_reflns_limit_k_max       9
_diffrn_reflns_limit_k_min       -9
_diffrn_reflns_limit_l_max       12
_diffrn_reflns_limit_l_min       -12
_diffrn_reflns_number            3241
_diffrn_reflns_point_group_measured_fraction_full 0.965
_diffrn_reflns_point_group_measured_fraction_max 0.928
_diffrn_reflns_theta_full        25.242
_diffrn_reflns_theta_max         29.110
_diffrn_reflns_theta_min         2.171
_exptl_absorpt_coefficient_mu    0.569
_exptl_absorpt_correction_T_max  0.893
_exptl_absorpt_correction_T_min  0.747
_exptl_absorpt_correction_type   multi-scan
_exptl_absorpt_process_details   'Jacobson, R. (1998) Private communication'
_exptl_crystal_colour            colorless
_exptl_crystal_density_diffrn    2.004
_exptl_crystal_density_method    'not measured'
_exptl_crystal_description       prism
_exptl_crystal_F_000             200
_exptl_crystal_size_max          0.240
_exptl_crystal_size_mid          0.220
_exptl_crystal_size_min          0.200
_refine_diff_density_max         0.451
_refine_diff_density_min         -0.406
_refine_diff_density_rms         0.066
_refine_ls_extinction_coef       0.37(4)
_refine_ls_extinction_expression Fc^*^=kFc[1+0.001xFc^2^\l^3^/sin(2\q)]^-1/4^
_refine_ls_extinction_method     SHELXL
_refine_ls_goodness_of_fit_ref   1.054
_refine_ls_hydrogen_treatment    refall
_refine_ls_matrix_type           full
_refine_ls_number_parameters     126
_refine_ls_number_reflns         1633
_refine_ls_number_restraints     0
_refine_ls_restrained_S_all      1.054
_refine_ls_R_factor_all          0.0330
_refine_ls_R_factor_gt           0.0301
_refine_ls_shift/su_max          0.000
_refine_ls_shift/su_mean         0.000
_refine_ls_structure_factor_coef Fsqd
_refine_ls_weighting_details
'w=1/[\s^2^(Fo^2^)+(0.0479P)^2^+0.0487P] where P=(Fo^2^+2Fc^2^)/3'
_refine_ls_weighting_scheme      calc
_refine_ls_wR_factor_gt          0.0857
_refine_ls_wR_factor_ref         0.0868
_reflns_Friedel_coverage         0.000
_reflns_number_gt                1464
_reflns_number_total             1633
_reflns_threshold_expression     'I > 2\s(I)'
_cod_data_source_file            c4ta03016h2.cif
_cod_data_source_block           added_by_encifer
_cod_database_code               7235780
_shelx_space_group_comment
; 
The symmetry employed for this shelxl refinement is uniquely defined 
by the following loop, which should always be used as a source of 
symmetry information in preference to the above space-group names. 
They are only intended as comments. 
;
_shelx_estimated_absorpt_t_min   0.876
_shelx_estimated_absorpt_t_max   0.895
_shelxl_version_number           2013-3
_shelx_res_file
; 
TITL  _r131227c 
CELL  0.71075 4.94620 7.15220 9.50290 97.491 94.118 99.293 
ZERR  1 0.00090 0.00170 0.00200 0.007 0.008 0.008 
LATT 1 
SFAC C  H  N  O  Cl 
UNIT 4 8 10 8 2 
L.S. 5 
ACTA 
BOND $H 
FMAP 2 
PLAN 5 
HTAB N4 O2_$3 
HTAB N4 Cl1_$3 
EQIV $3 -x+1, -y+1, -z+1 
HTAB C2 O4_$2 
HTAB C2 O3_$2 
EQIV $2 x+1, y, z-1 
HTAB N1 O2 
HTAB N1 O3_$1 
EQIV $1 -x, -y+2, -z+1 
SIZE 0.240 0.220 0.200 
CONF 
HTAB 
WPDB -2 
SHEL 99999.000000 0.000000 
TEMP -100 
WGHT    0.047900    0.048700 
EXTI    0.370830 
FVAR       2.67116 
CL1   5   -0.005909    0.744017    0.636633    11.00000    0.01395    0.01176 = 
         0.01188    0.00256    0.00326    0.00444 
O1    4   -0.124375    0.781953    0.504246    11.00000    0.03212    0.03109 = 
         0.01311    0.00733   -0.00188    0.00901 
O2    4    0.274357    0.715972    0.623261    11.00000    0.01593    0.02896 = 
         0.03448    0.00520    0.00846    0.01067 
O3    4   -0.007339    0.905154    0.745785    11.00000    0.02637    0.01807 = 
         0.01787   -0.00526    0.00152    0.00716 
O4    4   -0.159432    0.576207    0.678636    11.00000    0.02747    0.01661 = 
         0.03363    0.01112    0.00824   -0.00022 
N1    3    0.376555    0.827912    0.315230    11.00000    0.02222    0.01631 = 
         0.01273    0.00682    0.00683    0.00859 
N2    3    0.457980    0.976765    0.056541    11.00000    0.01670    0.01298 = 
         0.01151    0.00419    0.00074    0.00230 
N3    3    0.566593    0.822013    0.091545    11.00000    0.01586    0.01265 = 
         0.00997    0.00364    0.00284    0.00308 
N4    3    0.661935    0.613908    0.220167    11.00000    0.02087    0.01646 = 
         0.01056    0.00447    0.00466    0.00819 
N5    3    0.799348    0.585947    0.099485    11.00000    0.02152    0.02363 = 
         0.01288    0.00252    0.00572    0.00893 
C1    1    0.522210    0.758039    0.219347    11.00000    0.01305    0.01197 = 
         0.01047    0.00306    0.00067    0.00097 
C2    1    0.740602    0.713062    0.023472    11.00000    0.01944    0.02019 = 
         0.01222    0.00182    0.00465    0.00612 
H1    2    0.294483    0.910609    0.297202    11.00000    0.02268 
H1A   2    0.366160    0.787041    0.385581    11.00000    0.02658 
H2    2    0.802764    0.724553   -0.065557    11.00000    0.02300 
H4    2    0.667373    0.538891    0.285008    11.00000    0.03231 
HKLF 4 
  
REM   _r131227c 
REM R1 =  0.0301 for    1464 Fo > 4sig(Fo)  and  0.0330 for all    1633 data 
REM    126 parameters refined using      0 restraints 
  
END 
  
WGHT      0.0480      0.0482 
  
REM Instructions for potential hydrogen bonds 
HTAB N1 O3_$1 
HTAB N1 O2 
HTAB C2 O3_$2 
HTAB C2 O4_$2 
HTAB N4 Cl1_$3 
HTAB N4 O2_$3 
  
REM Highest difference peak  0.451,  deepest hole -0.406,  1-sigma level  0.066 
Q1    1   0.6613  0.7823  0.0559  11.00000  0.05    0.45 
Q2    1   0.5683  0.6822  0.2222  11.00000  0.05    0.40 
Q3    1   0.5158  0.8868  0.0731  11.00000  0.05    0.32 
Q4    1   0.3279  0.7299  0.6809  11.00000  0.05    0.31 
Q5    1   0.1410  0.7203  0.6244  11.00000  0.05    0.30 
;
_shelx_res_checksum              76757
_shelx_hkl_file
; 
   0   0  -1  739.08   22.59 
   0   0   1  736.46   22.64 
   0  -1   0   13.19    6.23 
   0   1   0    9.43    3.56 
   0  -1   1 1116.16   37.51 
   0   1  -1 1069.76   32.82 
   0   1  -1 1056.89   34.72 
   0   1  -1 1030.02   30.75 
   0  -1  -1   17.81    4.75 
   0   1   1   17.70    3.99 
   0   1   1    4.06    2.32 
   0   1   1    5.90    0.93 
  -1   0   0 1171.09   35.92 
   1   0   0 1219.00   37.00 
   1   0   0 1184.66   37.29 
   0   0   2 1556.33   48.09 
   0   0  -2 1617.54   48.80 
   1  -1   0  642.13   22.59 
   1  -1   0  666.72   23.05 
   1  -1   0  638.87   20.17 
  -1   1   0  672.90   23.03 
  -1   1   0  640.75   22.89 
   1   0   2 1639.46   50.18 
  -1   0  -2 1622.47   50.10 
   1   0   2 1676.68   51.11 
   1   0   2 1609.47   48.49 
   0   1  -3  836.88   28.34 
   0   1  -3  781.78   28.52 
   0  -1   3  794.70   24.07 
   0  -1   3  786.90   29.95 
   0   2  -2 1393.17   44.16 
   0   2  -2 1427.71   44.08 
   0  -2   2 1534.90   53.91 
   0   2  -2 1429.91   49.36 
  -1   2  -1 1235.24   40.70 
   1  -2   1 1185.85   36.65 
  -1   2  -1 1124.09   38.03 
  -1   2  -1 1173.10   37.33 
   1  -2   1 1163.54   37.72 
   1  -2   1 1201.29   41.59 
   1  -2  -1   27.65    3.75 
  -1   2   1   90.58    6.39 
   1  -2  -1   28.15    5.12 
  -1   2   1   26.50    4.42 
  -1   2   1   27.98    5.79 
   1  -2  -1   31.19    3.74 
  -1   0   3   60.07    7.16 
   1   0  -3   60.04    5.94 
   1   0  -3   64.40    6.31 
  -1   0   3   62.62    5.32 
   1   1   2 2498.04   75.91 
   1   1   2 2437.91   72.18 
  -1  -1  -2 2454.94   74.56 
   1   1   2 2490.35   77.80 
   0   1   3  993.80   35.11 
   0   1   3  980.08   32.16 
   0   1   3  979.34   34.42 
   1  -2   2  658.99   27.49 
   1  -2   2  629.26   23.32 
   1  -2   2  631.28   20.35 
  -1   2  -2  651.66   25.61 
  -1   2  -2  731.72   28.70 
  -1   2  -2  609.00   20.76 
   1   2   0  643.28   24.64 
   1   2   0  654.77   29.30 
  -1  -2   0  674.52   26.61 
  -1  -2   0  680.37   29.74 
   1   1  -3  466.50   21.17 
  -1  -1   3  440.30   17.58 
  -1  -1   3  429.34   20.67 
   1   1  -3  418.22   16.61 
   0  -2   3 6138.78  270.99 
   0   2  -3 5481.99  162.52 
  -1   2   2 3926.30  118.82 
   1   2  -2 7560.46  331.22 
  -1  -2  -1  254.22   16.67 
   1   2   1  222.12   16.23 
   1   2   1  237.23   13.31 
   2   0   0 2159.46   68.86 
   2   0   0 2140.47   65.83 
  -2   0   0 2220.34   68.57 
  -2   0   0 2022.29   59.73 
   2   0   0 1305.30   39.78 
  -2   0   1  459.48   18.35 
   2   0  -1  479.46   21.68 
   2   0  -1  441.70   18.29 
  -2   0   1  427.73   18.76 
   2   0  -1  492.82   17.82 
   0   0  -4  398.74   15.54 
   0   0  -4  410.34   18.29 
   0   0   4  422.98   17.17 
   0   0   4  396.22   20.94 
   0   0  -4  405.03   14.96 
   0  -3   1   29.13    8.06 
   0   3  -1   27.57    6.56 
   0   3  -1   25.67    4.01 
   0   3   0   46.92    4.80 
   0   3   0   44.27    7.92 
   0  -3   0   50.20   10.51 
   0  -1   4  895.54   35.64 
   0  -1   4  879.85   26.71 
   0   1  -4  905.59   31.29 
   0   1  -4  917.35   33.74 
   2  -1   1 1469.14   46.49 
  -2   1  -1 1403.64   44.82 
   2  -1   1 1452.34   48.95 
  -2   1  -1 1498.16   52.40 
   2   0   1 2289.86   69.55 
   2   0   1 2262.30   72.37 
   2   0   1 2326.05   69.01 
  -2   0  -1 2403.42   73.49 
  -2   0  -1 2434.53   77.05 
  -1   2  -3 4112.30  121.80 
   1  -2   3 4536.73  137.22 
  -1   3   0 1661.64   58.52 
  -1   3   0 1883.58   59.93 
   1  -3   0 1723.25   60.06 
   1  -3   0 1936.18   59.43 
  -1   3   0 1795.55   57.08 
   1  -3   0 1911.19   58.76 
   2   0  -2 1647.09   51.07 
  -2   0   2 1597.96   52.97 
  -2   0   2 1940.78   62.34 
  -1   3  -1   67.68    7.90 
   1  -3   1   61.06    6.19 
  -1   3  -1   55.10    8.92 
  -1   3  -1   62.26    7.08 
   1  -3   1   60.23    8.99 
  -1  -1  -3  208.43   12.86 
   1   1   3  235.27   14.60 
   1   1   3  240.68   10.93 
  -1  -1  -3  252.14   13.32 
   1   1   3  225.66   11.29 
   0   3  -2 2433.62   74.95 
   0  -3   2 2363.89   81.07 
   0   3  -2 2391.61   74.67 
   2  -1  -2 4591.23  135.65 
   1   0  -4   23.69    3.71 
  -1   0   4   54.63    7.70 
  -1   0   4   24.53    3.80 
   1   0  -4   25.60    5.11 
   1   2  -3  453.43   19.24 
  -1  -2   3  409.23   24.95 
  -1  -2   3  450.51   19.47 
  -2  -1   1 4999.94  148.40 
   0   3   1 1827.98   54.56 
   2   1  -1 4912.68  144.81 
   0   3   1 1875.14   59.51 
   0  -3  -1 1965.10   69.62 
   2   1   0 1397.67   47.86 
   2   1   0 1348.66   45.75 
  -2  -1   0 1362.58   46.48 
  -2  -1   0 1367.03   46.96 
   0  -2  -3  110.50   10.71 
   2  -2   0  551.92   23.21 
  -2   2   0  515.01   19.73 
  -2   2   0  531.59   24.55 
  -2   2   0  519.69   21.65 
   0   2   3  104.61    9.70 
   2  -2   0  524.43   18.68 
   1   2   2 5564.78  167.18 
   1   2   2 5463.84  165.18 
  -1   3   1  685.58   25.08 
  -1   3   1  722.86   32.25 
   1  -3  -1  672.21   23.36 
   1  -3  -1  637.45   29.05 
  -1   3   1  674.47   28.19 
   0  -1  -4 1268.20   37.88 
   0   1   4 1303.36   43.09 
   0   1   4 1257.95   44.34 
  -1   2   3 1759.75   57.84 
   1  -2  -3 1896.20   56.48 
  -1   2   3 1782.36   60.73 
   1  -2  -3 1874.25   64.56 
  -1  -1   4  610.35   22.94 
  -1  -1   4  540.52   26.90 
   1   1  -4  562.06   20.77 
   2  -2   1  596.13   23.49 
   2  -2   1  556.40   20.74 
  -2   2  -1  561.60   22.00 
  -2   2  -1  557.95   25.30 
   2  -2  -1  139.07    7.70 
  -2   2   1  132.62    9.03 
   2  -2  -1  139.42   10.29 
  -2   2   1  139.25   12.20 
  -2   2   1  191.80   12.60 
  -2   1  -2 2662.24   79.19 
  -2   1  -2 2591.17   96.85 
   2  -1   2 2731.77   80.78 
  -1   3  -2 3810.34  116.85 
   1  -3   2 3960.05  123.31 
  -1   3  -2 3696.29  111.17 
   0   2  -4  157.46   10.41 
   0  -2   4  161.62   16.46 
   0   2  -4  160.69    7.69 
   0  -2   4  162.73    8.44 
  -2  -1   2  697.79   27.98 
  -2  -1   2  724.17   31.07 
   2   1  -2  747.16   29.30 
   2   0   2  543.67   23.22 
  -2   0  -2  556.06   24.68 
  -2   0  -2  556.73   22.37 
   2   0   2  567.74   21.31 
   2   0   2  549.38   20.83 
   2   0   2  522.72   18.57 
   2   1   1 6973.48  304.49 
  -1   1   4 2770.86   85.71 
   1  -1  -4 2974.78   89.94 
  -1   1   4 2952.99   91.43 
   1   0   4 2164.94   69.82 
   1   0   4 2055.26   62.53 
   1   0   4 2133.74   62.67 
   1   0   4 2216.24   70.45 
  -1   0  -4 2211.55   68.83 
  -2   0   3   12.95    7.39 
   2   0  -3    9.33    3.58 
  -2   0   3    9.72    3.72 
   0   3  -3 3751.93  110.94 
   0  -3   3 3989.47  128.34 
  -1  -3   1  993.23   44.27 
  -2   2  -2   88.84    7.01 
  -2   2  -2   89.71   10.59 
  -2   2  -2   91.29    6.15 
   2  -2   2  116.75    7.61 
   2  -2   2   97.25    8.26 
   0  -3  -2  327.38   20.01 
   0   3   2  348.41   17.54 
   0   3   2  319.76   11.58 
  -2   2   2 1387.34   49.21 
  -2   2   2 1293.28   45.14 
   2  -2  -2 1459.11   48.74 
  -2   2   2 1298.82   42.23 
  -2   2   2 1251.04   42.55 
  -1  -3   0 1365.02   53.74 
  -1   3   2 3956.71  114.62 
  -1   3   2 3709.63  113.45 
   1  -3  -2 4063.80  126.23 
  -2   1   3 2627.42   84.34 
  -2   1   3 2698.54   83.73 
   2  -1  -3 2726.23   85.45 
  -2   1   3 2666.30   83.73 
  -1   2  -4 1535.05   51.95 
   1  -2   4 1816.29   64.69 
  -1   2  -4 1587.34   53.93 
  -1  -3   2 7739.32  344.52 
   1  -3   3  543.23   30.65 
  -1   3  -3  546.68   20.81 
  -1   3  -3  569.73   26.20 
   2   1  -3  448.05   21.57 
  -2  -1   3  428.14   20.52 
  -2  -1   3  488.04   25.51 
  -1  -2   4 6338.97  283.21 
   2   1   2  163.65   11.95 
  -2  -1  -2  162.89   15.43 
   2   1   2  170.85   11.21 
   2   1   2  167.95   10.60 
  -2  -1  -2  169.79   11.81 
  -2   1  -3  214.95   14.15 
  -2   1  -3  234.35   11.39 
   2  -1   3  212.19   10.27 
   2  -1   3  216.94   10.20 
   2  -1   3  229.46   12.63 
   0   0   5  816.02   27.21 
   0   0  -5  837.98   29.35 
   0   0   5  796.41   35.11 
   0   0  -5  802.88   25.46 
   1   2   3  850.56   28.04 
  -1  -2  -3  869.35   35.67 
  -1  -3  -1 1973.09   71.99 
  -2  -2   1 2996.74  100.71 
   2   2  -1 2978.94   95.86 
  -2  -2   1 2819.61   92.90 
   1   1   4  935.38   32.45 
   1   1   4  926.90   35.34 
   1   1   4  947.55   31.26 
  -1  -1  -4  891.22   33.11 
   2   2   0 1236.65   46.56 
  -2  -2   0 1200.50   47.07 
  -2  -2   0 1283.57   46.36 
  -2   3   0  745.65   31.50 
  -2   3   0  757.60   30.82 
   2  -3   0  792.81   30.52 
  -2   3   0  789.07   32.23 
   2   0   3  682.37   26.81 
  -2   0  -3  649.73   29.07 
   2   0   3  699.65   25.06 
  -2   0  -3  691.51   26.19 
   2   0   3  647.58   25.42 
   2  -3   1  758.33   30.92 
  -2   3  -1  754.66   29.48 
  -2   3  -1  768.36   33.93 
  -2   3  -1  763.64   29.79 
  -2  -2   2  365.52   20.20 
  -2  -2   2  364.33   24.21 
   1  -2  -4  213.81   10.88 
  -1   2   4  227.99   14.82 
  -1   2   4  233.71   17.39 
  -1   0   5  491.92   20.20 
   1   0  -5  420.24   18.36 
  -1   0   5  451.50   25.57 
  -1  -3   3 2059.15   68.68 
  -1  -3   3 2038.32   76.37 
   2  -3  -1  574.31   24.54 
  -2   3   1  539.67   25.72 
  -2   3   1  557.93   25.54 
  -2   3   1  520.47   26.41 
  -2   2  -3  367.63   20.64 
   2  -2   3  363.18   14.92 
  -2   2  -3  372.99   17.77 
   2  -2   3  381.53   19.17 
  -2   2  -3  355.90   16.08 
   0   3  -4   23.56    5.87 
   0   3  -4   27.73    4.90 
   0  -3   4   21.34    9.31 
   1   1  -5 2048.73   62.71 
  -2   2   3  154.13   12.95 
   2  -2  -3  153.12   10.36 
  -2   2   3  159.44   13.10 
  -1  -1   5 2106.05   64.87 
  -1  -1   5 2188.77   76.53 
  -2   2   3  165.05   14.19 
  -2   0   4  574.66   27.29 
  -2   0   4  586.88   25.60 
   2   2   1 1464.98   54.85 
  -2  -2  -1 1635.01   57.75 
  -2  -2  -1 1377.36   51.39 
   0   4  -1   72.33    7.51 
   0  -4   1   68.89   13.62 
   0   2  -5  255.90   15.08 
   0  -2   5  211.34   17.18 
   0  -2   5  247.70   11.55 
   0   2  -5  222.21    9.09 
   1  -3  -3 6645.30  314.45 
   0   1   5 2920.10   93.28 
   0   1   5 3025.38   90.57 
  -1   4  -1 2131.17   68.96 
   1  -4   1 2278.15   80.84 
  -1   4  -1 2206.72   70.31 
   0  -4   0 2794.05   98.77 
   0   4   0 2837.07   89.58 
   2  -3   2 4866.10  140.79 
  -2   3  -2 5012.17  151.81 
  -2   3  -2 5498.55  161.90 
   2  -3   2 4979.44  149.45 
  -1   4   0  439.90   22.03 
  -1   4   0  462.63   21.18 
   1  -4   0  484.23   27.60 
   1  -1   5  976.26   40.61 
  -1   1  -5  970.26   37.14 
  -2   1   4  729.06   31.43 
  -2   1   4  758.62   31.10 
  -1  -3  -2  983.44   43.62 
  -1   1   5 1795.04   63.70 
  -1   1   5 1677.18   55.44 
   0   4  -2 2602.15   82.02 
   0  -4   2 2659.06   95.69 
  -2  -1   4  117.39    9.94 
  -2  -1   4  139.05   15.79 
   1  -3   4 4232.42  134.67 
  -1   3  -4 4255.10  132.64 
  -2  -2   3 3300.33  109.95 
  -2  -2   3 3246.00  101.83 
   1   0   5  185.92   10.41 
  -1   0  -5  181.69   11.73 
   1   0   5  169.66    8.60 
   1   0   5  184.04    8.61 
   1   0   5  175.92   16.33 
  -1   4  -2  316.38   16.38 
  -1   4  -2  308.38   17.06 
   1  -4   2  302.20   22.84 
   2   1   3  829.58   33.37 
  -2  -1  -3  902.70   34.96 
   2   1   3  876.22   32.36 
  -2  -1  -3  854.08   32.79 
   2   1   3  850.54   33.92 
  -2  -1  -3  844.00   34.44 
  -1   4   1  733.63   32.31 
   1  -4  -1  720.88   34.29 
   1  -4  -1  729.52   25.66 
  -1   4   1  775.60   29.79 
   0  -4  -1 5810.57  182.73 
   0   4   1 5932.28  260.60 
  -1  -2   5   40.87    6.00 
   1   2  -5   37.72    4.99 
  -1  -2   5   37.34   12.29 
  -1   2  -5  667.42   29.62 
   1  -2   5  667.47   32.05 
  -2   1  -4 1740.73   61.54 
   2  -1   4 1772.59   59.09 
  -2   1  -4 1814.54   55.04 
   2  -1   4 1720.61   51.62 
   2  -1   4 1601.47   52.37 
  -1  -3   4  142.16   17.17 
  -1  -3   4  139.27   11.29 
  -3   1   0 1681.04   65.52 
  -3   1   0 1679.05   57.17 
  -2  -2  -2 8620.48  378.01 
  -3   1   1 6209.67  273.62 
   0  -4   3 2378.51   88.41 
   0   4  -3 2379.11   77.92 
   1   2   4   51.70    4.49 
  -1  -2  -4   63.28   10.28 
   3   0  -1  296.84   12.50 
  -3   0   1  323.43   19.07 
  -3   0   1  318.31   15.36 
   2  -3   3  194.22   11.86 
  -2   3  -3  189.49   13.54 
   2  -3   3  207.77   17.52 
  -2   3  -3  203.18   17.11 
  -2   3  -3  194.48   12.87 
  -3   0   0 1009.53   25.93 
  -3   0   0 1006.15   33.98 
   3   0   0 1069.83   26.69 
  -2   0  -4   28.75    6.69 
  -2   0  -4   32.84    4.96 
   2   0   4   28.04    4.98 
   2   0   4   27.72    5.62 
   2   0   4   25.48    3.98 
  -3   1  -1   20.73    5.99 
  -3   1  -1   17.92    7.63 
  -2   2  -4 4778.13  116.52 
   2  -2   4 5321.49  126.20 
  -2   2  -4 4769.76  107.78 
  -1   4  -3  842.19   32.13 
  -1   4  -3  787.67   25.48 
   1  -4   3  802.62   38.27 
   1   1   5 1730.40   43.07 
   1   1   5 1650.42   41.55 
   1   1   5 1578.63   46.17 
   1   1   5 1685.58   50.41 
  -1  -1  -5 1647.72   42.36 
  -3   1   2   11.20    3.82 
  -3   1   2   22.71    3.53 
  -3   1   2    9.53    7.32 
  -1  -4   1 4168.53  115.18 
  -3   0   2 5381.17  126.90 
  -3   0   2 5502.18  125.54 
  -1   4   2 1210.12   35.80 
   1  -4  -2 1156.34   29.82 
  -1   4   2 1185.77   40.81 
   1  -4  -2 1099.96   41.99 
  -3   2   0 1551.64   56.38 
  -3   2   0 1589.41   46.52 
   0  -3   510550.85  750.99 
   0   1  -6  271.54   18.25 
   0  -1   6  261.50   21.94 
   0  -1   6  248.09   13.31 
   0   1  -6  247.65   13.77 
  -2  -3   1   54.63    8.90 
  -3   0  -1 4408.44  110.81 
  -2  -3   1   48.30   14.09 
  -2  -2   4   44.14    9.34 
  -2  -2   4   37.23   13.18 
   0  -4  -2 1627.61   57.52 
   0   4   2 1413.30   43.28 
   0   4   2 1419.19   35.43 
   0   0  -6   13.06    2.44 
   0   0   6   16.96    9.57 
   0   0   6   14.66    3.27 
   0   0  -6   14.59    4.67 
  -2   3   3 1577.17   50.30 
   2  -3  -3 1713.56   48.79 
   2  -3  -3 1683.75   44.44 
  -3   2   1  137.81   13.95 
  -3   2   1  133.95    8.61 
  -3   2   1  134.76   14.21 
  -3   2   1  124.70    8.90 
   0   2   5 5473.65  124.93 
   0   2   5 5415.94  127.78 
  -1  -4   0 3171.38   93.44 
   1  -2  -5  643.98   19.32 
  -1   2   5  686.18   27.68 
  -1   2   5  687.46   29.98 
  -1  -3  -3 1019.82   40.42 
   1   3   3  898.30   26.29 
  -2   0   5   80.71   11.46 
  -2   0   5   86.77   10.51 
  -1  -4   2 1669.20   62.63 
  -1   3   4 4446.20  108.54 
   1  -3  -4 4020.59  113.22 
  -2  -3   0  404.77   26.23 
  -2  -3   0  395.35   29.76 
  -2   4   0  691.84   30.21 
   2  -4   0  636.05   27.54 
  -2   4   0  627.45   53.94 
  -3   2  -1 5181.34  128.64 
  -3   2  -1 5093.17  122.19 
  -2  -3   2 1575.84   57.46 
  -2  -3   2 1479.40   50.46 
  -2   4  -1 1188.88   40.71 
  -2   4  -1 1152.36   38.68 
   2  -4   1 1261.28   45.27 
   0  -3  -4    6.97    7.62 
   0   3   4    4.70    7.03 
   3   1  -1 2852.39   73.42 
  -3  -1   1 2489.07   66.02 
  -3  -1   1 2632.25   71.12 
  -1   0   6   13.54    9.41 
  -1   0   6    4.84    3.79 
  -2  -1   5    0.14    7.91 
  -2  -1   5    2.80    7.91 
  -1  -1   6 1679.35   44.00 
   1   1  -6 1589.27   41.32 
  -1  -1   6 1701.13   55.62 
  -3  -1   0  168.89   13.60 
  -3  -1   0  163.88   15.22 
   3   1   0  161.59   13.32 
  -3   1  -2 1797.27   55.48 
   3  -1   2 1774.31   38.17 
  -3   1  -2 1840.06   72.81 
  -2   1   5  748.97   31.79 
  -2   1   5  678.45   27.12 
  -1   3  -5  766.69   30.89 
  -1   3  -5  772.49   19.62 
   1  -3   5  808.78   36.76 
  -2   4   1   40.75   13.52 
   2  -4  -1   27.94    7.30 
  -2   4   1   41.49   13.31 
   0   2  -6 1082.86   35.82 
   0  -2   6 1105.04   27.47 
   0  -2   6 1128.99   44.97 
   0   4  -4 1192.71   39.23 
   0  -4   4 1303.07   53.65 
  -3   2   2 2812.15   74.77 
  -3   2   2 2670.44   65.23 
  -3   2   2 2836.58   68.86 
   2  -4   2   18.35    7.34 
  -2   4  -2   23.57    6.42 
  -2   4  -2   21.04    7.43 
  -2  -1  -4   17.05    5.44 
   2   1   4   18.71    4.33 
   2   1   4   17.23    5.94 
  -3  -1   2 2788.80   75.50 
   3   1  -2 2521.80   63.68 
  -3  -1   2 2613.92   70.42 
  -1  -4  -1 2209.07   73.07 
   2   2   3 2924.09   80.09 
  -2  -2  -3 2933.88   86.14 
   3   0  -3 4336.44   99.04 
  -3   0   3 4755.42  116.41 
  -3   0   3 4947.80  118.86 
  -2  -3  -1 1499.32   53.94 
  -1  -4   3  204.23   23.17 
  -3   1   3 1780.40   48.20 
  -3   1   3 1534.44   43.63 
  -3   1   3 1700.73   51.48 
  -3   0  -2  304.25   24.48 
   3   0   2  298.35   15.93 
  -3   0  -2  331.74   21.61 
   3   0   2  293.73   17.58 
  -2  -3   3 6256.47  449.98 
  -2  -3   3 6109.08  149.59 
  -1  -3   5 1974.11   59.74 
  -1  -3   5 1957.69   67.10 
  -2   3  -4 1658.57   53.93 
   2  -3   4 1703.13   55.65 
  -2   3  -4 1646.93   40.81 
  -3   2  -2  381.24   28.25 
   2  -3   4 1674.14   39.68 
  -3   2  -2  388.13   23.13 
   0   1   6 2380.87   63.73 
   0  -1  -6 2225.26   51.80 
   0   1   6 2369.17   67.35 
  -1   4  -4  744.24   31.17 
  -1   4  -4  647.64   21.57 
   1  -4   4  754.96   38.11 
  -3  -1  -1  455.94   28.65 
   3   1   1  403.18   24.41 
  -3  -1  -1  389.46   22.34 
  -1   1  -6  718.68   27.24 
   1  -1   6  754.28   34.15 
  -1   1   6 1404.89   41.49 
  -1   1   6 1473.45   58.05 
  -1   4   3 1269.82   32.55 
  -1   4   3 1179.31   43.06 
   1  -4  -3 1081.74   40.14 
   1  -4  -3 1204.88   29.09 
  -2   1  -5 4120.93  105.90 
   2  -1   5 4569.73  111.66 
   3  -3   0  413.16   20.64 
  -3   3   0  440.58   28.33 
  -3   3   0  478.02   25.52 
  -3   3   0  426.82   26.13 
   1   2  -6  318.13   18.24 
  -1  -2   6  304.55   18.84 
  -1  -2   6  349.99   31.03 
   1   0   6 4320.02  109.15 
  -1   0  -6 4251.46  102.59 
   2  -4  -2  153.11   14.77 
  -2   4   2  143.53   19.17 
  -2   4   2  159.09   18.07 
   0   4   3  844.25   32.39 
   0  -4  -3  856.98   37.95 
   0   4   3  811.25   20.02 
  -3  -1   3 2623.93   74.30 
  -3  -1   3 2494.40   70.05 
  -3   3  -1 2367.53   63.36 
  -3   3  -1 2323.89   72.28 
   3  -3   1 2295.53   53.00 
   1  -2   6 5130.47  129.12 
  -1   2  -6 5065.95  120.84 
  -3   3   1 3066.24   88.29 
  -3   3   1 3052.68   75.74 
  -3   3   1 3026.38   80.36 
  -3   3   1 3187.22   72.17 
   2  -4   3  349.22   27.78 
  -2   4  -3  343.23   24.95 
  -2   4  -3  335.08   21.78 
  -2  -2   5 1129.74   37.75 
  -2  -2   5 1029.50   44.91 
  -2   2  -5  690.16   32.08 
   2  -2   5  657.86   29.41 
   2  -2   5  658.12   15.73 
  -2   2  -5  660.41   16.36 
  -3   2   3 3028.88   74.11 
  -3   2   3 3011.81   83.91 
  -3   2   3 2909.22   77.74 
   1   2   5 1611.00   44.49 
   1   2   5 1513.52   35.95 
   1   2   5 1589.67   50.51 
   2  -3  -4    6.49    9.33 
  -2   3   4   26.53    8.39 
  -2   3   4   10.45    9.99 
  -2   0  -5   11.72    5.13 
   2   0   5   11.23    2.98 
   2   0   5   11.76    7.64 
   2  -2  -5   19.87    9.97 
  -2   2   5   17.51    7.52 
  -1   5  -1   63.60    8.46 
   1  -5   1   51.65   13.28 
  -2   2   5   18.08    7.37 
  -1   5  -1   59.92   11.10 
   3  -1   3 1082.74   29.85 
   3  -1   3 1025.48   28.60 
  -3   1  -3 1079.41   47.17 
  -3   1  -3 1191.23   39.21 
  -1  -4  -2  325.02   28.77 
   0  -5   1 3491.44  106.04 
   0   5  -1 3617.54   88.30 
  -2  -3  -2  142.06   15.36 
  -1   5   0  497.75   29.11 
   1  -5   0  525.65   37.59 
  -1   5   0  471.51   30.49 
  -1  -4   4 7019.61  505.19 
   1   3   4   15.46    2.62 
  -1  -3  -4   17.09   23.90 
  -2  -3   4  251.48   23.19 
  -2  -3   4  254.21   26.51 
   3   1   2   92.70   10.34 
  -3  -1  -2  111.09   12.49 
  -3  -1  -2  105.91   10.93 
   0  -5   0  874.07   43.54 
   0   5   0  958.51   31.26 
   0   5   0  965.88   34.89 
  -3   0   4   10.10    7.22 
  -3   0   4    5.24    5.45 
  -1   5  -2  398.75   25.11 
  -1   5  -2  419.81   25.30 
   1  -5   2  410.01   34.95 
   0   5  -2 3306.88   85.30 
   0  -5   2 3507.28  107.71 
  -3  -2   1  463.83   31.62 
   0   3  -6 2908.23   77.07 
   0   3  -6 3043.88   68.78 
   0  -3   6 3024.28   95.22 
  -3  -2   1  479.36   31.42 
  -3   3  -2 1127.61   28.97 
   3  -3   2 1227.72   34.59 
  -3   3  -2 1211.01   37.17 
  -3   3  -2 1215.80   45.43 
  -3   3   2 2250.45   61.34 
  -3   3   2 2133.09   54.87 
  -3   0  -3  623.33   53.04 
   3   0   3  631.46   48.04 
  -3   3   2 2215.69   64.68 
  -3   3   2 2164.89   62.38 
   3   0   3  598.37   46.24 
  -3   0  -3  660.00   26.38 
  -3   1   4  613.02   48.97 
  -3   1   4  687.00   29.92 
  -3  -2   0 2624.47   74.56 
   0  -4   5  730.13   42.07 
  -3  -2   0 2728.06   77.06 
   0   4  -5  666.32   28.56 
  -1   3   5 3038.01   82.58 
  -1   3   5 2869.87   79.17 
  -3  -2   2  396.24   29.45 
  -3  -2   2  423.76   28.58 
  -2   0   6   20.46    9.69 
  -2   0   6   18.94    5.80 
  -1   5   1 2427.24   63.53 
   1  -5  -1 2664.84   87.03 
  -1   5   1 2953.96   80.69 
  -1  -1  -6 2994.68   73.46 
   1   1   6 3047.69   76.03 
   1   1   6 2917.47   74.19 
   1   1   6 2857.67   80.02 
   1   1   6 3066.50   70.65 
   0  -3  -5   10.90   15.85 
   0   3   5   14.38    8.49 
  -1   2   6   16.71    5.65 
  -1   2   6   19.60    9.54 
   1  -2  -6   20.52    3.17 
   1  -2  -6   17.68    3.39 
  -2  -2  -4  319.98   22.03 
   2   2   4  331.06   20.22 
  -2  -1   6 1931.89   66.38 
  -2  -1   6 1899.04   54.09 
   0   2   6 1942.57   62.32 
   0   2   6 1954.18   61.50 
   0   5   1  991.42   30.03 
   0  -5  -1  970.60   47.14 
   2  -4  -3 1032.85   36.07 
  -2   4   3 1105.97   42.41 
  -2   4   3 1134.73   40.25 
   2  -4  -3 1138.79   32.49 
  -1   4  -5  654.99   20.97 
   1  -4   5  759.79   43.00 
  -3  -1   4  200.80   17.65 
  -3  -1   4  189.01   20.10 
  -1   4  -5  823.07   33.90 
  -1   4  -5  759.14   23.08 
   0  -1   7  270.01   14.03 
   0   1  -7  310.91   20.83 
   0  -1   7  296.72   26.56 
   0  -5   3   21.49   14.11 
   0   5  -3   22.85    8.72 
   1  -3   6 1932.02   68.16 
  -1   3  -6 1687.08   61.51 
  -1   5  -3   11.61    6.32 
  -2   3  -5 1544.32   35.90 
   1  -5   3    8.46    9.12 
  -2   3  -5 1627.67   55.95 
   2  -3   5 1629.51   54.86 
  -1   5  -3   10.20    8.22 
  -2   1   6  673.75   27.41 
  -2   1   6  623.57   52.80 
  -3  -2  -1  314.50   24.29 
   0   0   7 8637.71  617.04 
  -3  -2  -1  314.89   22.87 
  -2  -1  -5  998.52   43.04 
   2   1   5 1098.91   37.63 
  -2   4  -4 1351.02   37.36 
   2  -4   4 1468.06   53.75 
  -2   4  -4 1348.49   47.86 
  -1  -3   6 1049.46   36.31 
   1   3  -6 1091.93   38.36 
  -1  -3   6 1150.43   50.92 
  -3  -2   3 5794.29  146.35 
  -3  -2   3 5492.17  142.89 
  -2  -4   1  737.27   39.88 
   1  -4  -4  880.93   37.68 
  -1   4   4  758.08   65.12 
  -3   2   4 5763.70  139.31 
  -3   2   4 5748.02  134.02 
  -1  -1   7    5.51   14.65 
   1   0  -7  492.80   27.23 
  -1   0   7  514.72   34.75 
   1   1  -7    3.94    4.29 
   1   1  -7    0.91    4.29 
  -1  -1   7    1.54    3.53 
  -1   0   7  496.50   27.26 
  -2  -4   2  672.38   31.65 
  -2  -4   2  691.58   39.44 
  -3   3  -3 1323.93   38.85 
  -3   3  -3 1290.47   48.28 
  -3   3  -3 1340.97   34.91 
   0  -2   7  751.17   38.89 
   0  -2   7  759.64   19.76 
   0   2  -7  779.45   29.99 
  -2   5  -1  665.93   31.18 
  -2   5  -1  620.20   51.29 
   2  -5   1  647.26   33.70 
  -3   3   3  999.03   38.55 
  -3   3   3  898.52   32.65 
  -2  -4   0 3139.25   95.93 
   1   4   3  388.34   21.25 
  -1  -4  -3  393.46   30.59 
   0  -4  -4 1339.72   62.90 
   2  -5   0  590.94   50.04 
   0   4   4 1365.06   45.80 
  -2   5   0  598.05   49.30 
  -2   5   0  561.87   35.34 
  -2  -3  -3 1384.05   52.62 
  -3   1  -4  211.14   14.91 
  -1   5   2  714.08   24.97 
   1  -5  -2  752.00   37.48 
  -3  -1  -3   85.32    8.13 
  -3   1  -4  177.30   26.93 
   3  -1   4  178.64   13.75 
  -3  -1  -3   81.32   14.08 
   3  -1   4  172.13   13.26 
   1   4  -5  180.16   16.79 
  -3   4   0   16.10    7.24 
  -3   4   0   23.68   10.56 
  -3   4   0   16.05    5.34 
   3  -4   0   21.42    6.24 
  -1  -5   1  779.53   44.30 
   1   5  -1  759.02   28.84 
  -2  -3   5 1822.50   54.24 
  -2  -3   5 1956.86   71.38 
  -3   4  -1  452.28   26.49 
   3  -4   1  495.40   28.64 
  -3   4  -1  523.83   35.63 
  -3   4  -1  494.06   30.25 
  -2   5  -2   79.77   11.42 
   2  -5   2   73.80   13.35 
  -2   5  -2   81.05   11.16 
  -2  -2   6 1823.17   53.14 
   3  -2   4 3305.48   78.51 
   3  -2   4 3179.43   79.48 
  -3   2  -4 3273.65   95.81 
   3  -2   4 3265.54   81.37 
  -1  -5   2 2506.21   87.61 
  -3   2  -4 3402.02   80.59 
  -2  -2   6 2009.12   73.22 
   1   5  -2 2497.61   72.26 
   2  -3  -5 5396.65  124.14 
  -2   3   5 5238.62  138.66 
  -2   3   5 5183.89  125.91 
   0  -5  -2 4698.90  133.87 
   0   5   2 4526.70  118.38 
   0   5   2 4119.69   94.98 
   2  -1   6 1652.30   36.36 
  -2   1  -6 1749.17   61.14 
   2  -1   6 1663.85   55.28 
  -3   0   5 1496.30   50.01 
  -3   0   5 1455.52   51.51 
   3  -4  -1 5101.18  124.20 
  -2  -4   3  509.42   43.74 
  -2  -4   3  510.35   50.32 
  -3   4   1 4854.99  123.98 
  -3   4   1 4857.98  133.73 
   2  -5  -1    0.43    5.11 
  -2   5   1    7.84   13.50 
  -2   5   1    1.66    4.78 
  -1  -5   0 1859.02   72.28 
   1   5   0 1969.94   54.71 
   0  -5   4  816.32   50.96 
   0   5  -4  715.56   31.73 
   1  -1   7   35.31   13.71 
  -1   1  -7   28.79    6.58 
   0  -1  -7  400.04   31.18 
   0   1   7  420.95   40.19 
   0   1   7  370.22   33.56 
   1   2  -7  960.10   34.39 
  -1  -2   7  898.20   43.34 
  -1  -2   7  994.50   31.31 
  -1   1   7   13.73   11.67 
   1  -1  -7   17.14    4.21 
  -3  -2  -2 2350.13   69.15 
  -3  -2  -2 2152.93  103.33 
  -3   0  -4 1815.36   68.66 
  -3   0  -4 1951.53   62.12 
   3   0   4 1917.87   53.47 
   3   0   4 1745.93   53.21 
  -1   5  -4   20.89    6.02 
  -1   5  -4   23.57   23.63 
   1  -5   4   24.13   14.30 
  -3   1   5   83.95   13.78 
  -3   1   5   92.81   13.49 
  -2  -4  -1 1728.60   65.07 
  -2   2  -6   20.44    7.60 
   2  -2   6   12.64    9.23 
  -3  -2   4 3467.03  101.46 
  -3  -2   4 3569.35   97.36 
   3  -4   2 1327.12   43.53 
  -3   4  -2 1379.39   42.55 
  -3   4  -2 1258.36   48.44 
  -3   4  -2 1275.95   41.58 
  -2   2   6  126.46   15.78 
  -2   2   6  138.96   21.26 
   1   0   7 2446.71   56.92 
   1  -2   7  567.81   48.63 
  -1   2  -7  561.66   46.02 
  -2   0  -6  569.62   49.01 
   2   0   6  621.42   29.60 
  -1  -3  -5 2836.44   87.55 
   1   3   5 2809.16   75.01 
  -1   0  -7 2422.33   65.32 
   1   0   7 2674.44   83.08 
   1   0   7 2366.61   54.82 
   2   0   6  566.58   37.62 
  -1  -5   3    1.66   12.69 
   1   5  -3    0.38    7.83 
   1   2   6  965.70   53.78 
   0   4  -6  790.85   33.83 
   1   2   6  945.53   24.40 
   1   2   6 1019.20   36.51 
   0  -4   6  808.93   46.53 
   0   4  -6  817.94   26.08 
  -3  -1   5 1655.59   54.24 
  -3  -1   5 1730.32   63.33 
   2  -4  -4 1959.46   61.06 
   2  -4  -4 2156.12   54.90 
  -2   4   4 1899.26   65.37 
  -2   5  -3 1790.54   53.76 
  -2   5  -3 1644.45   56.97 
   2  -5   3 1805.79   65.51 
  -3   4   2  200.62   23.07 
   3  -4  -2  216.82   20.38 
  -3   4   2  209.27   26.79 
  -3  -3   1 2584.60   84.96 
  -3  -3   1 2573.31   82.10 
   1   5   1 2311.13   60.45 
  -1  -5  -1 2390.94   86.71 
   0  -3   7  323.73   37.26 
   0   3  -7  299.93   23.00 
   0   3  -7  306.12   29.39 
  -3  -3   2 4556.29  152.71 
  -3  -3   2 4576.57  128.41 
   2  -5  -2 5273.14  154.76 
  -2   5   2 5174.49  126.56 
  -2   5   2 5291.93  138.54 
   3  -3   4   12.80    4.14 
   3  -3   4   13.56    6.72 
  -3   3  -4   15.61   18.23 
  -3   3  -4   12.88    5.00 
  -3   3  -4    9.86    4.22 
   2  -4   5 2837.56   87.41 
  -2   4  -5 2677.12   63.72 
  -2   4  -5 2820.15   83.44 
  -4   1   1  976.17   38.83 
  -2  -4   4  363.99   39.21 
  -2  -4   4  364.85   33.99 
  -3  -3   0  768.81   39.63 
  -4   1   0   20.97    6.34 
  -3  -3   0  782.90   39.04 
  -1   4  -6 3274.67   75.09 
  -1   4  -6 3298.61   76.06 
   1  -4   6 3029.65   96.97 
  -1   4  -6 3333.04   94.67 
  -3   3   4  558.44   45.34 
  -3   3   4  599.47   30.61 
  -1   3   6  184.26   20.26 
  -1   5   3  124.33   11.41 
  -1   3   6  180.40   21.26 
  -1   5   3  128.77   20.15 
   1  -5  -3  129.53   18.09 
   2   2   5    7.09    3.37 
   2   2   5    9.29    8.34 
  -3   2   5  689.35   32.93 
  -3   2   5  838.99   36.42 
  -2   0   7 2612.34   82.77 
  -2   0   7 2514.48   69.15 
  -4   0   1    4.51    6.04 
  -4   0   1    4.84    3.08 
   4   0  -1    2.91    2.88 
   2  -3   6 1065.22   45.81 
  -2   3  -6 1041.85   43.69 
   0   3   6 1204.21   42.95 
   0   3   6 1182.84   46.98 
   3  -4   3  648.48   29.75 
  -3   4  -3  601.13   22.88 
  -3   4  -3  663.52   34.28 
  -3   4  -3  583.88   24.56 
  -2  -4  -2    3.97    8.16 
  -4   0   0 2104.90   64.89 
  -2  -1   7 1447.77   58.90 
  -4   2   0 1212.54   53.54 
  -4   2   0 1149.99   42.98 
  -2  -1   7 1257.12   41.37 
  -4   1   2  562.56   46.71 
  -4   1   2  494.82   37.92 
   1   4   4 1638.93   37.76 
   1   4   4 1894.91   60.16 
  -1  -4  -4 1811.16   65.46 
   0   5   3 1489.59   53.44 
   0   5   3 1466.79   36.88 
   0  -5  -3 1416.87   56.95 
  -4   1  -1  789.95   33.08 
   1  -4  -5  519.31   44.69 
  -1   4   5  564.77   45.19 
  -4   2   1  140.18   17.11 
  -3  -1  -4    6.68    7.22 
   3   1   4    3.47    5.34 
  -3  -3   3    4.99    8.27 
  -3  -3   3   12.81   19.61 
   1   5  -4  191.88   20.57 
  -2  -3  -4 1313.88   51.30 
  -1  -5   4  219.10   30.04 
   0  -5   5 8887.74  566.05 
   0   5  -5 8533.14  537.26 
  -1  -4   6 1860.21   60.42 
  -4   0   2  210.24   22.96 
  -1  -4   6 1627.10   67.42 
   1   4  -6 1721.77   56.01 
  -4   0   2  197.78   18.80 
  -1  -1  -7 1699.64   47.86 
  -1   3  -7  367.09   34.31 
   1   1   7 1764.32   61.84 
   1  -3   7  407.72   43.34 
   1   1   7 1809.06   49.05 
  -3  -2  -3  496.50   43.13 
  -3  -2  -3  500.47   43.01 
  -1  -3   7  243.33   30.69 
   1   3  -7  235.04   23.73 
  -1  -3   7  239.57   22.44 
  -1   2   7 3179.64   92.56 
  -1   2   7 3164.24   91.34 
   1  -2  -7 3099.26   70.55 
  -3  -3  -1  238.81   26.49 
  -3  -3  -1  247.44   26.82 
  -2  -3   6  247.70   24.18 
  -3   1  -5 2672.80   73.03 
   3  -1   5 2677.64   72.87 
  -3   1  -5 2599.93   76.85 
  -2  -1  -6 3679.70  100.55 
   2   1   6 3496.42  104.52 
  -4   2  -1 1279.48   62.40 
  -4   2  -1 1326.37   45.48 
  -1   5  -5 1404.75   52.33 
  -1   5  -5 1297.51   37.87 
   1  -5   5 1322.49   59.71 
  -2   1   7 1114.97   47.98 
  -2   1   7 1131.59   39.49 
   0   4   5 1045.13   41.78 
   0  -4  -5 1068.76   45.45 
   0   2   7 5446.00  143.38 
   0   2   7 5168.22  125.65 
  -3  -2   5 1308.67   59.72 
  -3  -2   5 1327.11   56.71 
  -1  -5  -2 5636.54  158.69 
  -3   2  -5  270.06   36.63 
  -3   2  -5  294.90   24.14 
   3  -2   5  288.23   27.30 
  -3   4   3 6936.83  438.62 
  -4   0  -1   15.50    9.03 
  -2   5  -4  332.26   32.99 
  -2   5  -4  341.33   29.42 
   2  -5   4  342.53   37.57 
  -4   2   2  198.21   21.63 
  -4   2   2  215.62   18.32 
  -1   6  -1   12.82   18.89 
  -1   6  -1    9.69    5.41 
   1  -6   1   11.43    9.29 
   0   1  -8    8.42    5.29 
   0  -1   8   15.93    2.88 
   0  -1   8   17.14   14.21 
  -3   0   6  512.63   43.71 
  -3   0   6  522.09   47.08 
  -1   6   0 3162.39   84.60 
  -1   6   0 2863.59   80.04 
   1  -6   0 3152.54  101.84 
  -1   6  -2   30.08    7.60 
  -1   6  -2   34.52   10.17 
   1  -6   2   37.99   17.68 
  -4   1   3  988.94   40.84 
  -4   1   3 1018.79   35.64 
   0   6  -1   18.19    9.07 
   0   6  -1   16.77    8.08 
   0  -6   1   16.72   11.47 
   2  -5  -3 1025.37   42.60 
  -2   5   3  906.10   40.11 
  -2   5   3  947.79   32.14 
   0   0  -8 1439.25   43.85 
  -4   1  -2 2809.67   79.17 
  -4   1  -2 2841.88   86.58 
   0   0   8 1439.96   37.93 
   0   0   8 1556.72   61.69 
  -3   0  -5 1598.55   58.09 
  -3   0  -5 1710.28   49.58 
   3   0   5 1767.46   54.42 
  -2  -2   7 3355.39  108.71 
  -4  -1   1 2860.69   93.90 
  -2  -2   7 2892.05   80.77 
  -4  -1   1 3195.34   85.52 
  -4   0   3 2312.84   67.33 
  -4   0   3 2296.86   72.64 
   0  -6   2 1284.16   61.29 
   0   6  -2 1361.39   47.43 
   0   6  -2 1361.22   45.89 
  -2   3   6  853.23   36.88 
  -2   3   6  790.05   36.97 
   1   1  -8  780.48   30.45 
  -1  -1   8  718.34   39.82 
  -3   1   6 1737.85   60.73 
  -1  -1   8  744.75   25.98 
  -3   1   6 1655.93   54.73 
  -2  -4   5  226.47   29.53 
  -2  -4   5  237.50   24.60 
  -3  -3   4   98.26   17.10 
  -3  -3   4  101.58   18.58 
   1   0  -8 4705.33  122.51 
  -1   0   8 4433.61  106.44 
  -1   0   8 4625.65  130.08 
   0   6   0 3341.85   84.55 
   0   6   0 2802.79   79.95 
   0  -6   0 3586.47  117.39 
  -4  -1   0  528.87   41.76 
  -4  -1   0  567.57   44.89 
  -4   2  -2  418.82   41.71 
   0  -2   8 3131.58   99.51 
   0   2  -8 3059.64   84.84 
  -4   2  -2  400.23   34.44 
  -3  -1   6 3225.09   91.21 
  -3  -1   6 3484.18  108.06 
  -4   3   0  880.75   40.27 
  -4   3   0  916.41   36.68 
  -3   5   0 1087.94   44.58 
  -3   5   0 1028.53   42.77 
   3  -5   0 1102.68   41.39 
  -4  -1   2 5366.55  133.81 
  -4  -1   2 5305.62  164.62 
  -3   5  -1  520.24   44.39 
   3  -5   1  548.57   46.48 
  -3   5  -1  518.64   46.77 
  -2   4   5  243.22   29.06 
  -2   4   5  273.97   27.33 
  -4   3   1    1.24    8.32 
  -4   3   1    2.08    6.38 
  -3   4  -4 5295.98  124.00 
   3  -4   4 5434.53  136.78 
  -3   4  -4 5183.49  151.16 
  -1   6   1   42.54    8.59 
  -1   6   1   44.37   15.18 
   1  -6  -1   36.89   10.47 
  -3  -3  -2 3034.81  103.08 
  -3  -3  -2 2891.37   87.08 
  -2   1  -7    5.35   12.66 
   2  -1   7    5.39    9.15 
  -3   3  -5 2508.61   80.41 
  -3   3  -5 2631.07   64.77 
   3  -3   5 2527.71   74.59 
   1  -6   3 3648.06  118.29 
  -1   6  -3 3629.79  102.28 
  -4   3  -1  125.18   15.30 
  -1   6  -3 3478.34   96.10 
  -4   3  -1  124.12   21.89 
  -4   0  -2  458.08   39.98 
  -4   2   3  546.34   43.00 
  -4   2   3  610.33   31.05 
  -1   5   4   85.65   17.01 
   1  -5  -4   73.83   14.04 
  -2  -4  -3  967.17   46.88 
   1   5  -5  420.03   37.97 
  -1  -5   5  396.11   43.56 
   0   6  -3  735.17   47.53 
   0  -6   3  783.91   52.29 
  -3   5   1 4323.78  113.99 
   0  -4   7 7115.16  455.87 
  -3   3   5  482.37   42.71 
   0   4  -7 7517.35  473.51 
  -3   5   1 4513.79  120.96 
   3  -5  -1 3991.69  102.25 
  -3   3   5  541.99   47.23 
  -2   2  -7  395.31   35.44 
   2  -2   7  405.34   38.36 
  -2  -5   1  990.25   52.00 
  -3   5  -2 2517.73   75.70 
  -3   5  -2 2485.42   79.00 
   3  -5   2 2599.55   76.94 
  -1  -2   8 1321.54   38.72 
  -2  -5   2  107.65   21.48 
   1   2  -8 1212.33   42.40 
  -1  -2   8 1291.14   58.71 
  -2   4  -6  166.04   20.60 
  -2   4  -6  165.37   13.08 
   2  -4   6  163.04   23.53 
   1   3   6 2600.79   79.79 
  -2   2   7 2338.19   69.47 
   1   3   6 2744.73   89.80 
  -2   2   7 2288.98   74.87 
  -4  -1  -1 1164.23   55.25 
  -4  -1  -1 1120.59   38.27 
   0  -6  -1 2391.13  122.66 
   0   6   1 4249.05  105.83 
  -4  -1   3    1.84    8.47 
  -4  -1   3    1.98    7.04 
  -1   1  -8    2.13    9.61 
   1  -1   8    2.57    9.29 
  -2   6  -1 1823.99   61.30 
   2  -6   1 1682.06   67.87 
  -4   3   2 2797.19   68.07 
  -2   6  -1 1809.94   61.36 
  -4   3   2 2981.95   86.29 
   1  -1  -8 3824.73   91.13 
  -1   1   8 3832.45   95.97 
  -1   1   8 3853.43  116.42 
   0  -5  -4  387.54   37.70 
   0   5   4  412.38   38.08 
   0   1   8    7.49    8.91 
   0  -1  -8    4.23    3.88 
   0   1   8    5.22    4.72 
  -2  -5   0  381.24   40.17 
  -2   0  -7 1150.96   40.68 
   2   0   7 1204.48   48.69 
   2  -6   0  613.26   41.35 
  -2   6   0  629.24   30.51 
  -2   6   0  652.28   34.02 
   1   5   3 1009.24   39.54 
  -1  -5  -3 1060.66   49.30 
   1   5   3  916.22   30.29 
  -3   4   4 6961.75  442.01 
  -3   2   6 2447.35   73.73 
  -3   4   4 6778.42  171.69 
  -3   2   6 2643.63   81.62 
   0   5  -6  334.31   32.53 
   0  -5   6  308.76   36.95 
  -4   1   4   84.82   13.95 
  -4   1   4   84.82   13.90 
  -3  -2  -4 2391.01   71.06 
  -4   3  -2 3976.30  128.92 
  -4   3  -2 3712.05   98.07 
  -1   4  -7  102.09   14.98 
   1   2   7 1979.58   57.36 
  -4   0   4 1166.91   46.27 
   1  -4   7   96.43   20.26 
  -4   0   4 1055.63   42.29 
   1   2   7 2044.66   71.07 
   1  -2   8  605.09   37.20 
  -1   2  -8  658.46   32.06 
   2  -6   2  177.90   25.02 
  -2   6  -2  180.35   27.58 
  -2   6  -2  177.57   22.52 
  -2  -5   3  602.10   40.08 
  -2   5  -5 1177.12   36.42 
   2  -5   5 1218.08   54.92 
  -2   5  -5 1254.22   50.21 
  -4   1  -3 1082.79   48.77 
  -4   1  -3 1209.38   43.34 
   3   1   5    8.45    5.64 
  -1   0  -8 2295.65   66.36 
   1   0   8 2373.85   78.26 
  -4   2  -3 1235.50   42.60 
  -4   2  -3 1405.53   56.61 
  -1  -4  -5  698.04   35.84 
   2   2   6    7.21    7.49 
   1   4   5  660.40   30.34 
   3  -5  -2  178.60   18.75 
  -3  -2   6   89.36   17.43 
  -3  -2   6   94.58   13.89 
  -3   5   2  185.36   25.73 
  -3   5   2  180.41   22.48 
   1  -5   6 6082.50  186.31 
  -1   5  -6 6103.41   92.84 
   0  -3   8 1424.27   69.60 
   0   3  -8 1250.14   49.21 
  -2  -3  -5  546.62   30.52 
  -1   6   2  116.89   12.50 
  -1   6   2  115.85   19.91 
   1  -6  -2  107.04   18.13 
   1  -6   4 1299.78   64.78 
  -1   6  -4 1228.88   50.00 
  -1   6  -4 1151.71   42.66 
  -3  -4   1  291.45   28.99 
  -3  -4   1  283.34   30.69 
  -3  -3   5 3152.82  111.53 
  -3  -3   5 2960.77   97.32 
   0  -6   4  103.23   22.27 
   0   6  -4   95.37   14.09 
  -3   5  -3  136.98   15.36 
   3  -5   3  142.83   18.64 
  -2   6   1  252.21   22.91 
  -3   5  -3  140.92   19.47 
  -2   6   1  247.95   27.91 
   2  -6  -1  284.37   30.20 
  -1  -4   7 5000.89  152.76 
  -2   3  -7  466.19   28.67 
   2  -3   7  497.38   34.18 
   1   4  -7 4911.89  144.79 
  -1  -4   7 4163.15  141.77 
  -3  -4   2   12.20   14.34 
  -1   3   7  333.29   32.88 
  -1   3   7  332.95   31.64 
   2  -5  -4  964.82   44.34 
  -2   5   4 1003.17   44.87 
  -1   4   6  750.75   37.84 
  -1   4   6  772.68   39.27 
  -2  -3   7  912.95   38.24 
  -2  -3   7 1052.23   55.63 
   1   6  -1 1254.40   65.78 
  -1  -6   1 1382.24   71.49 
  -2  -5  -1   79.50   17.89 
   1   6  -2  971.16   43.18 
  -1  -6   2 1019.81   60.54 
  -4  -1  -2 2152.26   62.75 
  -4  -1  -2 2113.39   73.41 
  -4  -2   1  424.07   27.93 
  -4  -2   1  430.01   27.09 
  -4   2   4   25.49   12.68 
  -3   1  -6  688.87   52.64 
  -4   2   4   18.92    6.51 
   3  -1   6  689.05   33.95 
  -4   0  -3  810.20   38.17 
  -2   0   8    7.90    7.68 
  -2   0   8   10.22    5.65 
  -3  -4   0  316.04   34.15 
  -3  -4   0  335.74   32.59 
  -4   3   3 1452.79   48.08 
  -4   3   3 1581.17   60.60 
  -2  -4   6  773.94   35.66 
  -2  -4   6  728.12   46.21 
  -3   2  -6  131.84   10.57 
  -2   6  -3 1750.41   65.33 
  -3   2  -6  133.84   18.33 
  -2   6  -3 1842.74   64.39 
   3  -2   6  117.49   15.48 
   2  -6   3 1780.28   75.10 
   0   3   7  651.61   41.37 
   0   3   7  687.92   36.24 
  -4  -2   2   28.15   38.23 
  -4  -2   2   10.88   10.00 
  -2  -1   8   46.12    8.37 
  -2  -1   8   47.61   13.44 
  -4  -1   4   47.79   11.62 
   0   6   2  316.70   29.58 
  -4  -1   4   49.44   11.11 
   0   6   2  321.53   24.13 
   0  -6  -2  320.40   34.89 
  -3  -3  -3  760.72   36.42 
  -4  -2   0 1526.96   56.13 
  -4  -2   0 1418.14   57.06 
   1   6   0 4194.91  118.28 
  -1  -6   0 4321.33  151.95 
  -4   4   0 4062.18  125.28 
  -4   4   0 4641.43  136.15 
   0  -4  -6  940.33   45.74 
   0   4   6  906.41   41.05 
  -3  -4   3 1369.37   64.08 
  -3  -4   3 1360.54   53.96 
  -2  -5   4   67.29   17.62 
  -3   4  -5   30.15   48.44 
   3  -4   5   33.00    9.81 
  -3   4  -5   31.08    6.19 
  -1  -3   8  840.52   31.15 
  -1  -3   8  981.61   55.84 
   1   3  -8  850.16   36.90 
  -3   0   7   25.39    8.19 
  -3   0   7   25.00    8.91 
   1  -3   8  572.27   39.46 
  -1   3  -8  514.42   30.30 
   1   6  -3  408.75   33.51 
  -1  -6   3  419.06   44.85 
  -4   3  -3  401.67   31.18 
  -4   3  -3  382.10   39.14 
  -4   4  -1   77.11   11.67 
  -4   4  -1   84.56   17.77 
  -4   4   1   -0.06    9.18 
  -4   4   1    2.47    8.64 
  -4   4   1    2.87    6.93 
   2   1   7  160.71   19.36 
  -2  -1  -7  161.51   16.48 
   2   1   7  170.84   14.77 
  -1  -5   6 3126.94  116.17 
   1   5  -6 2694.14   86.77 
  -2  -4  -4  913.79   54.62 
   3   0   6   36.37    9.67 
  -3   0  -6   29.82   12.67 
  -2   1   8   83.53   11.76 
  -2   1   8   74.20   18.44 
  -2   6   2 4854.78  151.43 
  -2   6   2 4797.32  137.33 
   2  -6  -2 4936.07  161.81 
  -4  -2   3 2953.55   98.78 
  -4  -2   3 2894.03   97.68 
  -1   2   8   16.53   14.49 
  -1   2   8   18.93    7.69 
   1  -2  -8   14.36    3.04 
   1   1   8 3078.18   86.16 
   1   1   8 3178.04  111.00 
  -1  -1  -8 3032.06   85.26 
  -3  -1   7  414.05   41.94 
  -3  -1   7  383.95   32.09 
  -3   1   7 1063.38   49.41 
  -3   1   7 1134.58   46.91 
  -3   5   3  669.18   31.88 
   3  -5  -3  640.81   30.95 
  -3   5   3  631.92   36.20 
  -3  -4  -1 1083.88   52.63 
   1  -5  -5   47.73   25.55 
  -1   5   5   56.62   14.40 
  -4  -2  -1  422.15   41.30 
  -4  -2  -1  424.36   30.03 
  -4   0   5 1497.80   59.08 
  -4   0   5 1410.19   55.91 
   3  -3   6 2515.15   83.26 
  -3   3  -6 2589.76   90.81 
   0   2   8 1970.78   95.58 
  -4   1   5 2245.03   74.66 
   0   2   8 2059.84   66.19 
  -4   1   5 2617.07   88.48 
  -2   4   6  335.33   31.87 
  -2   4   6  318.99   30.32 
  -2  -2   8    6.63    6.36 
  -2  -2   8   12.55   17.54 
   1   6   1  596.70   26.07 
  -1  -6  -1  570.00   41.11 
  -2   3   7 1679.55   63.88 
  -2   3   7 1878.04   67.00 
  -3   5  -4   30.33    9.48 
   3  -5   4   43.02   11.69 
  -3   5  -4   32.19    7.83 
  -4   4  -2   40.33   18.53 
  -4   4  -2   49.75   10.47 
  -3   3   6 4380.20  132.27 
  -3   3   6 4496.55  135.33 
   1  -6  -3 3194.31  119.51 
  -1   6   3 3135.43  103.40 
  -4   1  -4 1848.96   64.92 
  -4   1  -4 1698.33   79.27 
  -2  -5  -2 1520.55   68.20 
   0   6  -5  388.08   34.65 
  -4   4   2    7.35   13.45 
  -4   4   2    6.39    7.64 
   0  -6   5  441.57   42.65 
  -4   4   2    6.08    7.26 
  -4   2  -4 2778.24  114.69 
  -4   2  -4 3055.84   94.46 
   1  -6   5  878.08   54.91 
  -1   6  -5  907.45   42.80 
   1   5   4  558.91   29.52 
  -1  -5  -4  545.04   34.18 
  -1   6  -5  774.63   30.24 
  -3  -4   4  630.74   44.33 
  -3  -4   4  609.65   33.41 
  -2   6  -4  221.21   20.05 
  -2   6  -4  223.04   23.84 
   2  -6   4  206.18   27.07 
  -3   4   5  182.89   21.26 
  -3   4   5  181.12   21.31 
  -1  -6   4 1513.60   77.93 
   1   6  -4 1301.20   50.33 
   0  -1   9  891.23   49.38 
   0   1  -9  872.73   36.33 
  -4  -1  -3   13.40    6.16 
   4   1   3    4.93    6.74 
   0   5   5  125.39   19.70 
   0  -5  -5  125.26   18.20 
  -2   5  -6  207.83   16.28 
   2  -5   6  215.40   27.69 
  -2   5  -6  209.25   26.46 
  -2   4  -7 2062.70   75.67 
   2  -4   7 2082.83   79.93 
  -4   3   4  537.33   31.16 
  -4   3   4  553.03   27.20 
  -3  -3   6  986.31   43.64 
  -3  -3   6 1013.34   55.48 
   3   2   5  792.93   35.35 
   0  -4   8  103.90   21.52 
   0   4  -8  116.99   16.16 
   0   5  -7  779.99   40.27 
   0  -5   7  692.85   48.78 
  -2  -5   5  208.65   21.87 
  -2  -5   5  191.56   28.34 
  -1  -1   9  242.49   34.20 
   1   1  -9  259.92   23.16 
  -1  -1   9  258.15   20.58 
  -4  -1   5 2969.37   96.96 
  -4  -1   5 2941.43   99.36 
   0   6   3  268.44   26.58 
   0  -6  -3  259.82   31.12 
   0   0   9   45.52   11.88 
   0   0  -9   45.49    7.82 
  -4  -2   4 2457.57   86.61 
  -4  -2   4 2512.76   85.79 
  -4   2   5 3295.46   99.63 
  -4   2   5 3541.36  119.37 
   0   2  -9  535.30   28.51 
   0  -2   9  510.34   37.41 
  -1   0   9  701.48   27.52 
  -1   0   9  751.11   48.33 
   1   0  -9  680.57   28.06 
  -4   0  -4  795.15   35.52 
  -2   1  -8    9.12    6.56 
   2  -1   8    3.59    9.54 
  -3  -2   7  469.57   28.40 
  -3  -2   7  434.89   38.69 
   2  -5  -5 1289.72   51.90 
  -2   5   5 1337.35   57.09 
  -3   6  -1  121.06   17.43 
  -3   6  -1  127.78   19.20 
  -3   2   7  395.23   36.44 
  -3   2   7  373.89   32.14 
   3  -6   1  113.89   15.97 
  -2   2  -8  205.39   22.24 
   2  -2   8  188.58   22.34 
  -4   3  -4   26.33   14.13 
  -4   3  -4   23.30    6.66 
   1   3   7   78.37   17.70 
   1   3   7   76.68   14.21 
   3  -6   0  557.70   29.85 
   1  -5   7   64.69   17.08 
  -3   6   0  578.30   36.97 
  -3   6   0  585.09   32.54 
  -1   5  -7   84.69   14.54 
  -3  -4  -2 2255.70   86.34 
  -4  -2  -2  263.04   25.79 
  -4  -2  -2  271.83   31.83 
  -2   6   3   12.45   10.83 
   2  -6  -3   10.66    8.09 
  -3  -3  -4  387.88   41.96 
  -2   2   8  800.88   42.67 
  -2   2   8  766.51   35.67 
  -2   6   3   11.42    4.40 
  -4   4  -3 3504.18  103.21 
  -4   4  -3 3239.29  119.33 
   3   1   6  927.92   41.95 
  -4   4   3  582.33   27.89 
  -4   4   3  539.72   32.39 
  -1  -6  -2  188.15   25.49 
   1   6   2  205.89   17.38 
   1   2  -9 3255.52  107.07 
  -1  -2   9 3163.37  113.74 
  -1   4  -8 2320.50   81.84 
   1  -4   8 2276.95   90.80 
   1   4   6  133.47   16.66 
  -1  -4  -6  116.02   24.58 
   3  -6   2 1022.50   48.75 
   2   3   6 1206.68   45.44 
  -3   6  -2  963.60   47.19 
  -3   6  -2  911.93   41.22 
   2   3   6 1169.66   50.18 
  -2  -4   7 1495.77   71.86 
  -2  -4   7 1429.79   52.25 
  -1   7  -1 1101.01   47.21 
   1  -7   1 1139.67   59.64 
  -1   7  -1 1143.37   46.61 
  -3   5   4    7.76    7.07 
  -3   5   4   14.85   11.76 
  -3   6   1  985.53   42.57 
   3  -6  -1 1204.29   52.14 
  -3   6   1 1066.48   49.23 
  -2   0  -8 1168.54   45.47 
   2   0   8 1167.85   51.14 
  -1  -4   8 1022.74   58.64 
   1   4  -8 1120.97   46.17 
  -3  -4   5   16.98   14.23 
  -3  -4   5   13.85   24.97 
   3  -4   6  164.58   20.18 
  -4  -3   1 1143.41   61.71 
  -3   4  -6  181.19   23.08 
  -4  -3   1 1244.30   53.99 
  -1   7  -2 1494.40   58.18 
  -1   7  -2 1562.25   58.87 
   1  -7   2 1693.48   80.13 
   2   2   7  919.55   43.63 
   2   2   7  875.69   33.38 
  -4  -3   2 1829.92   69.85 
  -4  -3   2 1782.34   70.08 
  -2  -3   8   53.89   20.75 
  -2  -3   8   57.69   10.69 
  -1   1  -9 1198.36   46.44 
   1  -1   9 1189.79   57.50 
  -1  -6   5 1123.30   66.29 
   1   6  -5 1085.20   46.93 
   1  -1  -9  208.15   17.34 
  -1   7   0  249.68   24.91 
  -1   1   9  219.93   19.36 
  -1   7   0  264.06   24.51 
   1  -7   0  293.26   35.97 
  -1   1   9  227.34   30.30 
   1   2   8 1822.87   58.63 
   1   2   8 1752.41   69.37 
  -2  -5  -3   65.62   17.18 
  -3   5  -5    2.98    3.01 
  -3   5  -5    8.93   18.88 
   3  -5   5    4.25    7.09 
   2  -6   5 3463.33  122.80 
  -2   6  -5 3172.64  110.36 
  -2   6  -5 3391.05   99.30 
   1   5  -7  625.36   39.87 
  -1  -5   7  645.38   48.60 
   0   1   9 5445.99  170.71 
  -1   4   7   94.20   16.05 
  -1   4   7   79.86   14.17 
  -2   3  -8  872.67   43.06 
   2  -3   8 1020.53   52.84 
   1  -2   9   10.90   11.92 
  -1   2  -9   10.67    5.89 
  -4  -3   0  457.13   29.12 
  -4  -3   0  478.81   30.95 
   0   7  -1  594.96   29.70 
  -3   2  -7  508.39   39.50 
  -3   1  -7 2140.85   85.65 
   0  -7   1  601.19   44.71 
   3  -2   7  482.91   28.15 
   0   7  -1  616.13   34.06 
   3  -1   7 2160.11   75.46 
   0  -3   9 1406.31   72.86 
   0   3  -9 1193.70   49.05 
  -4   5   0 1560.07   98.23 
  -4   5   0 1609.95   62.48 
  -4   0   6  732.24   40.77 
  -4   0   6  698.59   37.09 
   0  -7   2 1621.63   78.76 
   0   7  -2 1510.74   57.25 
   0   7  -2 1647.76   62.07 
   0   6  -6 1059.50   47.35 
   0  -6   6 1044.54   59.96 
  -1   6   4  762.50   40.79 
   1  -6  -4  761.64   42.36 
  -4   5  -1 1155.51   88.74 
  -4   5  -1 1177.68   47.96 
  -2  -4  -5    0.57    7.62 
  -4   1   6  744.09   38.85 
  -4   1   6  668.20   34.77 
  -1   6  -6  204.94   23.85 
  -1   6  -6  218.63   19.16 
   1  -6   6  196.22   29.63 
  -3   6  -3  149.38   17.08 
  -3   6  -3  143.04   19.94 
  -1   3   8 1062.22   43.69 
  -1   3   8 1186.46   55.78 
   3  -6   3  150.25   19.82 
  -4  -3   3  434.84   29.69 
  -4  -3   3  413.13   38.51 
  -1   7  -3 1104.55   50.15 
   1  -7   3 1191.27   64.26 
  -4  -2   5  907.15   45.39 
  -1   7  -3 1227.64   51.37 
  -4  -2   5  924.75   47.71 
  -1   0  -9   73.80   11.72 
   1   0   9   80.50   17.09 
  -4   2  -5 1388.15   63.45 
  -4   2  -5 1357.22   46.15 
  -4   1  -5  287.97   39.90 
  -4   1  -5  322.36   35.59 
  -4   5   1   81.58   13.56 
  -4   5   1   80.11   14.71 
   0   7   0  663.99   35.19 
   0   7   0  651.81   30.31 
   0  -7   0  667.52   48.73 
  -4  -1  -4   36.31    9.43 
   4   1   4   31.12    7.35 
  -2  -6   2  343.14   38.99 
  -2  -6   1  116.94   23.60 
  -4   3   5 2739.81   92.05 
  -4   3   5 2422.51   79.03 
   0   4   7   61.57   15.55 
   0   4   7   65.33   14.16 
  -3   0   8 2351.22   79.23 
  -3   0   8 2512.23   94.27 
   3  -6  -2   47.57   12.97 
  -3   6   2   66.66   14.30 
  -3   6   2   47.88   16.85 
  -2  -5   6  359.53   39.51 
  -2  -5   6  398.61   35.26 
   1  -7  -1  757.29   46.03 
  -1   7   1  765.18   33.19 
  -1   7   1  840.52   43.65 
   0   7  -3   73.54   13.48 
   0  -7   3   72.82   20.80 
   0   7  -3   65.21   11.26 
  -2   0   9   13.60    8.55 
  -2   0   9   10.19    9.13 
  -2  -1   9 3482.31   90.79 
  -2  -1   9 3452.65  106.57 
   0   3   8  439.10   39.18 
   0   3   8  451.53   32.08 
  -4  -2  -3 1097.04   44.90 
  -4  -2  -3  947.76   34.34 
  -2   7  -1 1817.10   69.60 
  -2   7  -1 1808.55   63.32 
   2  -7   1 1856.08   72.16 
  -1   5   6    4.33   14.63 
   1  -5  -6    2.17    9.17 
  -1  -5  -5  959.43   66.15 
  -4   4  -4 1033.66   48.83 
  -4   4  -4  986.97   33.05 
   1   5   5  946.73   40.84 
  -4   5  -2  449.55   37.39 
  -4   5  -2  450.12   31.43 
  -4  -1   6   32.73   10.44 
  -1  -3   9 1061.72   69.05 
  -4  -1   6   25.24    9.01 
   1   3  -9  876.83   37.57 
  -3  -5   2  172.14   18.16 
  -3  -5   2  171.15   23.24 
  -5   1   1  114.66   15.82 
  -3  -5   1 2365.06   86.91 
  -3  -4  -3  672.22   47.93 
  -3  -1   8 1106.89   57.61 
  -3  -1   8  952.18   39.73 
  -3   0  -7  657.35   44.40 
   3   0   7  651.34   43.66 
  -4  -3  -1  349.79   27.49 
  -4  -3  -1  353.39   45.50 
   0  -6  -4  363.01   55.45 
   0   6   4  390.58   38.51 
  -3   3  -7  206.13   22.76 
   3  -3   7  217.01   23.25 
  -3   4   6  961.00   43.14 
  -3   4   6  862.63   43.41 
  -2  -6   3   35.95   16.63 
  -5   1   0   97.47   14.73 
  -4   4   4 2236.02   72.37 
  -4   4   4 2343.58   64.15 
  -2  -6   0  342.94   37.02 
   2  -7   0  125.38   20.38 
  -2   7   0  116.41   13.96 
  -2   7   0  119.81   19.80 
  -2   7  -2  464.69   34.43 
  -2   7  -2  484.48   37.29 
   2  -7   2  427.71   38.35 
  -3   1   8 2079.55   73.71 
  -3   1   8 1962.02   61.14 
  -3  -3   7 1925.80   81.63 
  -3  -3   7 1910.06   63.09 
  -1  -6  -3  947.16   50.42 
   1  -3   9  165.13   23.02 
  -1   3  -9  161.26   16.58 
   1   6   3  936.84   39.49 
  -3   3   7   30.80    9.74 
  -3   3   7   22.06   11.04 
  -2   4   7 2377.80   79.73 
  -2   4   7 2511.54   77.69 
  -5   2   1  348.52   29.15 
  -5   2   0   17.55    9.36 
  -2   6   4  403.11   33.19 
   2  -6  -4  436.19   36.59 
  -2  -1  -8    4.05    3.55 
   2   1   8    4.18   10.88 
  -4   2   6   -0.54    5.97 
  -4   2   6    4.31   11.02 
  -5   1   2   83.32   14.14 
   2  -5   7  774.48   55.87 
  -2   5  -7  850.78   43.56 
  -4   3  -5 3918.49  111.23 
  -4   5   2 3335.41   94.73 
  -4   5   2 3353.45   77.87 
  -4   5   2 3261.19   99.76 
  -3  -5   3   30.55   15.51 
  -4   0  -5 1474.42   46.24 
  -4   0  -5 1397.28   57.77 
  -3  -5   3   36.06   12.82 
  -3  -5   0  953.63   49.82 
   0   7   1 1238.82   48.13 
  -4  -3   4 1881.86   68.01 
   0  -7  -1 1245.32   61.97 
  -4  -3   4 2061.55   75.00 
   0   7   1 1076.61   40.09 
  -5   0   1  357.56   29.61 
   1  -7   4   64.05   19.03 
  -1   7  -4   61.48   11.20 
  -1   7  -4   72.19   15.46 
   0   5   6  244.02   25.25 
   0  -5  -6  215.80   23.53 
   2  -1  -9 2472.75   61.23 
  -2   1   9 2416.33   66.16 
  -2   1   9 2454.04   85.63 
  -5   1  -1 1012.15   41.73 
   2   2  -9  199.54   19.22 
  -2  -2   9  192.85   14.59 
  -2  -2   9  199.82   29.76 
  -5   0   0  944.96   41.18 
  -2   3   8  412.65   30.24 
  -2   3   8  446.94   37.37 
  -3  -4   6 1326.66   50.28 
  -3  -4   6 1330.17   63.75 
  -5   2   2   89.89   14.43 
   3   2   6   60.39   10.22 
  -5   2  -1    1.20    5.70 
   3  -6   4 2132.92   72.19 
  -3   6  -4 2259.97   67.49 
  -3   6  -4 2343.65   80.05 
  -5   0   2   30.45   10.77 
   0   7  -4 4488.99  114.77 
   0  -7   4 4478.27  143.78 
   0   7  -4 4540.27   84.92 
   0  -5   8 2472.48   94.04 
   0   5  -8 2489.93   76.76 
  -2   7   1  792.26   30.89 
   2  -7  -1  722.00   51.03 
  -2   7   1  810.67   40.61 
  -2   7  -3  504.85   40.01 
  -2   7  -3  544.78   38.20 
   2  -7   3  542.16   46.67 
  -1   2   9  295.37   29.71 
  -1   2   9  296.95   23.12 
   1   6  -6   11.26    7.63 
  -1  -6   6   13.09   22.04 
  -2   4  -8  131.58   15.52 
   2  -4   8  133.04   19.99 
  -3  -3  -5 1712.68   65.12 
   1   1   9 1081.01   56.27 
  -2   5   6   58.77   14.25 
  -2   5   6   67.27   13.63 
  -4   5  -3   21.82   30.61 
  -4   5  -3   23.97    5.87 
  -2  -6   4  248.41   32.53 
  -3   5   5 1392.43   56.03 
  -3   5   5 1336.22   48.30 
  -1   7   2 1451.86   57.60 
   1  -7  -2 1398.62   62.54 
  -2  -6  -1 2531.24  121.36 
  -3   6   3 2538.40   82.73 
  -3   6   3 2330.57   64.93 
   3  -6  -3 2544.55   79.37 
  -3  -2   8 1144.88   59.61 
  -3  -2   8 1186.49   45.07 
  -5   1   3  467.85   37.54 
   0   2   9  248.37   30.95 
   0   2   9  242.39   20.22 
  -2   6  -6    6.73    8.88 
   2  -6   6   11.77   12.51 
  -2  -5  -4   29.36   11.07 
   1  -5   8 1217.71   62.42 
  -1   5  -8 1165.01   49.74 
  -4  -3  -2  197.28   23.10 
  -4  -3  -2  222.68   21.87 
  -3  -5   4  159.99   19.53 
  -3  -5   4  144.48   25.63 
   0   4  -9 1096.17   45.81 
   0  -4   9 1151.41   62.44 
  -5   3   0 1027.52   43.21 
  -5   0  -1    2.97    6.64 
  -3  -5  -1   69.16   13.47 
   3  -5   6 3809.12  105.75 
  -3   5  -6 3900.05  113.46 
   1   7  -2  126.74   14.42 
  -1  -7   2  148.31   27.18 
   1   7  -1  938.53   35.51 
  -5   3   1  135.09   16.49 
  -1  -7   1  903.21   55.28 
  -4  -2   6 1570.25   67.59 
  -4  -2   6 1599.45   66.27 
  -2  -4   8   43.40   22.79 
   2   4  -8   33.01   12.58 
  -2  -4   8   32.84    9.68 
  -5   0   3  696.09   49.15 
  -3   2   8  168.23   15.69 
  -3   2   8  179.50   21.59 
  -4   5   3  241.52   23.95 
  -4   5   3  222.35   17.92 
  -5   2   3  317.43   28.53 
  -5   1  -2  960.11   39.32 
   3   1   7 2529.29   76.54 
  -3  -1  -7 2397.10   73.69 
  -3   4  -7    5.06   13.14 
  -5   2  -2  372.06   36.16 
   3  -4   7   11.00    7.73 
  -5   2  -2  396.36   30.29 
  -5   3  -1 1635.83   55.19 
  -5   3  -1 1603.70   88.68 
   0  -6   7 2186.58   89.76 
   0   6  -7 2208.16   70.96 
   0   6  -7 2345.64   58.54 
   0   7   2  750.23   49.67 
   0  -7  -2  646.01   49.28 
   0  -1  10 3490.83  109.29 
   0   1 -10 3718.14   92.10 
   1  -6  -5   28.16   40.32 
  -1   6   5   35.99   12.81 
  -1  -7   3   57.20   19.41 
   1   7  -3   50.55   10.93 
  -5  -1   1   38.79   12.52 
  -4   0   7 2288.95   73.13 
  -4   0   7 2558.95   84.62 
   1   7   0  302.45   22.17 
  -1  -7   0  294.54   34.72 
  -4  -3   5  220.35   24.63 
  -4  -3   5  183.15   22.04 
   1  -6   7  371.91   38.24 
   1   4   7  608.52   39.93 
   1   4   7  622.78   46.30 
  -1   6  -7  388.20   32.34 
  -5   3   2   57.13   12.32 
   2  -7  -2 1658.31   65.89 
  -2   7   2 1536.83   58.00 
  -4   4  -5   86.92   15.15 
   2   3   7    9.20   14.46 
   2   3   7    2.57    7.04 
   2  -7   4  359.83   37.79 
  -2   7  -4  376.71   28.66 
  -2   7  -4  366.85   32.84 
   1   3   8  455.27   37.15 
   1   5  -8   60.55   14.35 
  -1  -5   8   45.21   21.12 
   1   3   8  462.97   32.38 
  -1  -1  10  602.19   50.85 
   1   1 -10  622.68   41.55 
  -5  -1   2 1287.35   51.22 
  -2   1  -9  590.01   39.25 
   2  -1   9  606.18   46.18 
  -1   7  -5 1088.93   37.58 
   1  -7   5 1047.25   58.98 
  -1   7  -5 1089.71   45.19 
  -2   2  -9   30.75    8.35 
   2  -2   9   36.47   12.43 
  -2  -5   7    7.23   15.28 
  -2  -5   7    3.31    5.53 
   2   5  -7    1.51    9.31 
  -4   3   6  273.14   24.88 
  -4   1   7  475.26   36.80 
  -4   3   6  258.26   24.21 
  -4   1   7  445.68   35.17 
   1  -4   9  544.52   48.58 
  -1   4  -9  585.30   42.14 
  -5  -1   0   61.51   14.47 
   0  -2  10   12.48   14.37 
   0   2 -10   10.97    6.60 
  -4   4   5  114.03   15.21 
  -4   4   5  119.68   13.66 
  -3  -4  -4 2648.79  111.43 
   0   7  -5  632.17   43.37 
  -4   2  -6  143.71   17.67 
   0  -7   5  671.27   60.86 
   0   7  -5  686.98   41.86 
   1   4  -9  131.41   17.19 
  -2   2   9 1203.79   45.66 
  -1  -4   9  143.61   29.25 
  -2   2   9 1249.08   58.08 
   0   0 -10    1.30    4.96 
   0   0  10    5.11   12.13 
  -1   0  10  674.16   54.14 
   1   0 -10  669.05   39.18 
  -2  -6   5  436.45   47.56 
  -4   1  -6  422.14   39.31 
   2   6  -5  469.29   35.46 
   2   3  -9 2390.86   70.70 
  -2  -3   9 2339.29   91.79 
  -2  -3   9 2206.73   60.54 
  -2  -4  -6 1019.89   56.31 
   2   4   6  985.91   40.25 
  -2  -6  -2   11.17    9.38 
  -5   1   4  445.72   36.10 
  -4  -4   1   83.77   13.94 
  -4  -4   2  910.01   44.07 
  -4  -4   1   80.46   13.69 
  -4  -4   2  915.11   50.49 
   1   6   4  983.84   42.15 
  -1  -6  -4  886.03   43.30 
  -5   0  -2  282.22   25.45 
  -4   5  -4  195.32   13.79 
  -4   5  -4  195.95   23.03 
  -4  -1   7  539.58   38.92 
  -4  -1   7  560.43   48.78 
  -3   6  -5  655.14   47.91 
   3  -6   5  653.74   48.15 
  -5   3  -2  348.32   31.67 
  -5   3  -2  349.24   27.14 
  -1  -2  10  887.25   53.00 
   1   2 -10  921.63   37.25 
   0   6   5  531.50   41.45 
   0  -6  -5  465.12   60.99 
   2   2   8 1219.99   51.51 
  -5  -1   3    9.34   10.49 
  -5   0   4 2079.46   73.15 
   1  -7  -3  325.25   38.01 
  -1   7   3  336.60   32.12 
  -3  -5   5   81.47   15.98 
  -3  -5   5   69.58   18.41 
  -3   2  -8   52.03   16.52 
   3  -2   8   39.35   10.99 
   2  -6  -5  471.77   36.19 
  -2   6   5  516.80   42.47 
   1   7  -4   41.48   10.32 
  -1  -7   4   38.58   19.75 
  -3  -5  -2  696.49   51.11 
  -3   1  -8   47.45   10.94 
   3  -1   8   55.19   11.19 
   1   7   1  446.94   35.89 
  -1  -7  -1  451.05   42.53 
  -1   4   8   17.94   11.68 
  -1   4   8   18.53   11.65 
  -3   7  -1 2157.94   98.11 
  -3   7  -1 2219.93   71.38 
   3  -7   1 2243.44   78.51 
  -2   0  -9  197.33   19.20 
   2   0   9  194.96   21.43 
  -5  -1  -1 1412.02   53.68 
  -4  -4   3  146.20   23.21 
  -4  -4   3  143.00   18.62 
  -4  -4   0  458.13   36.24 
  -4  -4   0  460.70   37.11 
  -2   3  -9  728.65   49.26 
   2  -3   9  789.94   58.89 
  -5   3   3   39.63   11.27 
  -4   3  -6   21.50    9.96 
  -4   6   0 1250.66   51.76 
  -4   6   0 1277.54   50.11 
  -3   7   0   75.46   13.29 
   3  -7   0   71.20   14.74 
  -1  -5  -6 1070.89   52.44 
  -3   7   0   77.14   16.64 
   1   5   6 1099.65   46.18 
  -4   6  -1   83.34   21.75 
  -4   6  -1   83.53   12.06 
  -5   2   4 1086.86   47.06 
   3  -6  -4  556.86   38.14 
  -3   6   4  541.02   49.20 
  -4  -3  -3 3420.92   93.86 
  -5   2  -3 1001.70   40.34 
  -5   2  -3  993.04   49.27 
  -3  -4   7   13.24   27.77 
  -3  -4   7   21.47   15.69 
  -3  -3   8 2394.05   77.38 
  -3  -3   8 2296.90   88.48 
  -3   4   7  276.12   26.69 
  -3   4   7  271.14   26.59 
  -5   1  -3    4.91    5.37 
  -4   2   7  460.88   35.51 
  -4   2   7  442.80   36.55 
  -3   7  -2 2604.42   81.77 
  -3   7  -2 2409.24   73.57 
   3  -7   2 2602.77   86.95 
   1   2   9 1484.53   64.21 
  -5   4   0    6.82   13.87 
  -5   4   0    9.98    8.07 
   1   6  -7 1773.07   60.24 
  -1  -6   7 1828.31   83.39 
  -1   5   7 1313.92   55.00 
  -1   5   7 1299.66   53.35 
  -4   0  -6    2.06    9.79 
  -1   1 -10   67.32   10.66 
   1  -1  10   67.61   18.02 
   0   3 -10  325.93   26.77 
   0  -3  10  340.60   40.19 
  -3   0   9  111.65   19.02 
  -4   5   4  115.42   18.98 
  -3   0   9  103.84   12.91 
  -4   5   4  108.55   12.10 
  -5   4   1 1409.65   53.48 
  -1   1  10  461.34   41.42 
  -4   6   1  486.24   51.77 
  -4   6   1  500.16   38.45 
  -1   2 -10  133.89   16.32 
   1  -2  10  117.37   21.05 
   3  -3   8 1166.76   52.17 
  -3   3  -8 1100.73   50.43 
   0   4   8 1851.55   70.20 
   0   4   8 1891.07   62.23 
  -4   6  -2  825.73   44.00 
  -4   6  -2  857.67   38.58 
  -5   4  -1   48.43   10.16 
  -5   4  -1   54.62   14.09 
  -2   5  -8    7.69    8.27 
   2  -5   8   13.03   11.51 
  -1   3   9 1585.39   55.47 
  -1   3   9 1740.35   69.41 
   0   7   3 2907.24   93.01 
   0  -7  -3 2884.14  102.54 
  -2   7   3  481.01   39.37 
  -3  -1   9 2652.22   76.74 
   2  -7  -3  502.43   39.41 
  -3  -1   9 3090.02  108.66 
  -3   7   1 1185.40   45.73 
   3  -7  -1 1316.05   53.62 
  -3   7   1 1250.25   54.84 
   0   1  10  987.01   51.68 
   2  -7   5 1111.70   59.94 
  -2   7  -5 1116.18   40.97 
  -2   7  -5 1140.59   51.09 
  -3   5   6  965.46   43.47 
  -3   3   8  450.77   39.64 
  -3   5   6  964.61   47.65 
  -3   3   8  443.22   34.11 
  -3   0  -8  454.61   34.31 
   3   0   8  447.56   34.22 
  -5  -1   4  434.78   38.25 
  -4  -4   4 1323.37   64.21 
  -4  -4   4 1329.60   54.56 
  -4  -3   6   22.10   12.79 
  -4  -3   6   12.05   29.17 
  -4  -4  -1 1075.85   49.72 
  -4  -4  -1 1375.15   57.16 
   2  -6   7 1461.27   65.98 
  -2   6  -7 1413.65   59.01 
  -5   3  -3 1571.93   62.42 
  -5   3  -3 1769.26   62.60 
  -2   4   8  200.47   21.80 
  -2   4   8  192.47   20.79 
  -3   1   9  998.60   41.45 
  -3   1   9 1073.28   54.33 
  -3   7  -3  769.88   52.85 
   3  -7   3  797.59   40.48 
  -3   7  -3  805.70   35.83 
  -4  -2   7  558.31   41.80 
   2   1 -10 1112.77   40.57 
  -4  -2   7  566.40   47.53 
  -2  -1  10 1099.81   58.08 
  -2  -5  -5 1318.77   59.20 
   2   5   5 1193.04   54.90 
   1   3 -10  171.29   17.00 
  -1  -3  10  190.36   34.82 
   1   0  10  455.30   39.52 
   3   3   6  512.49   36.91 
  -5   4   2  150.47   18.10 
  -2   0  10 1066.81   53.59 
   2   0 -10 1188.24   39.91 
   0   5   7   79.19   16.90 
   0   5   7   79.85   15.93 
  -5   0  -3 1043.47   44.38 
   0   3   9  145.60   19.81 
  -5  -2   1  534.48   55.90 
   0   3   9  154.65   15.05 
   1  -7   6  741.93   81.25 
  -1   7  -6  685.52   67.33 
  -1   7  -6  730.43   67.17 
  -5  -1  -2  231.71   24.05 
   1   7  -5  527.46   52.76 
  -1  -7   5  484.40   44.08 
  -5  -2   2 1140.68  106.96 
   0   7  -6   21.88   11.69 
   0  -7   6   25.67   21.59 
   0   7  -6   24.56    7.43 
  -5   1   5  425.83   36.80 
   3   2   7  864.13   81.11 
   2   6  -6  947.75   88.81 
  -2  -6   6  995.07  102.33 
  -3   5  -7  179.67   23.08 
   3  -5   7  164.25   21.52 
  -2   5   7   10.34    8.70 
  -2   5   7    1.11    9.81 
   1   7   2 1669.78  151.53 
  -1  -7  -2 1830.67  170.82 
  -5   4  -2   52.02   14.66 
   0   5  -9 1133.28  105.17 
  -5   4  -2   53.65   11.65 
   0  -5   9 1103.68  110.86 
  -2  -6  -3  371.81   37.56 
  -4   6   2    0.44   12.79 
  -4   6   2    0.67    6.23 
  -5   0   5   22.42   10.15 
  -5   3   4  245.59   25.92 
  -5  -2   0  771.98   75.39 
   1  -3  10 2177.21  200.27 
  -1   3 -10 2032.59  181.37 
  -4   5  -5  788.86   86.41 
  -4   6  -3  807.95   80.67 
  -4   6  -3  844.96   78.10 
   2   1   9  775.36   76.24 
  -4   4  -6    3.93    9.26 
  -3  -5   6  265.21   34.96 
  -3  -5   6  253.40   25.11 
  -3  -5  -3  292.45   30.44 
  -1   8  -1  152.75   18.24 
   1  -8   1  170.34   26.99 
   2  -4   9   52.43   14.80 
  -1   8  -1  169.41   21.55 
  -2   4  -9   56.64   11.84 
  -3  -2   9  100.17   20.60 
  -3  -2   9  101.15   14.30 
  -3   7   2  459.89   41.19 
   0   6  -8  508.94   30.75 
  -3   7   2  465.77   35.93 
   0  -6   8  509.62   60.18 
   3  -7  -2  452.91   36.68 
  -5  -2   3  521.72   55.98 
   1  -8   2  136.42   25.27 
  -1   8  -2  130.45   17.14 
  -1   8  -2  131.52   18.74 
  -2  -2  10  277.82   36.12 
  -4   4   6   95.13   14.28 
  -2   3   9  737.99  102.80 
   2   2 -10  263.19   24.37 
  -2   3   9  756.07   71.54 
  -4   4   6  113.08   18.18 
   3  -6   6    2.82    7.73 
  -3   6  -6    7.15   10.81 
   1  -6  -6  101.54   15.74 
  -1   6   6  111.26   16.83 
  -5   2   5    3.43   10.11 
   1  -5   9  722.98   77.06 
  -1   5  -9  720.81   71.35 
  -1   7   4  934.24   91.57 
   1  -7  -4  866.69   85.45 
  -2  -4   9  405.63   29.52 
  -3  -4  -5    8.99   15.50 
   2   4  -9  430.16   35.14 
  -2  -4   9  388.17   42.48 
  -2   1  10   16.07   12.29 
  -2   1  10   15.30    5.04 
  -2  -5   8 1123.53  112.97 
  -1   6  -8   53.52   13.38 
   1  -6   8   44.36   16.42 
  -2  -5   8 1258.45  114.55 
   2   5  -8 1138.77  103.90 
  -5   2  -4  349.73   36.14 
  -5   2  -4  374.38   29.36 
  -3  -6   2   -0.32   11.76 
  -4   0   8  613.53   60.99 
  -4   0   8  650.70   70.54 
  -1   8   0  661.16   63.05 
  -4   3   7  129.39   16.92 
   1  -8   0  652.56   70.55 
  -4   3   7  119.69   16.09 
  -1   8   0  716.23   71.83 
  -3   4  -8  282.33   29.45 
   3  -4   8  232.48   26.82 
  -3  -6   1   19.41   10.87 
  -5   4   3  837.27   80.51 
  -5   1  -4   58.33   10.27 
  -1  -6  -5    8.61   13.73 
   1   6   5    8.63    7.44 
   3  -7   4  881.71   86.52 
  -3   7  -4  874.09   80.65 
  -3   7  -4  773.26   75.79 
  -4  -4   5  746.27   79.02 
  -4  -4   5  734.39   74.48 
  -1   8  -3  832.17   79.35 
   1  -8   3  913.91   95.06 
  -1   8  -3  877.57   81.68 
  -4  -4  -2    8.47    7.27 
   2   7  -2  329.34   27.50 
  -2  -7   2  341.23   44.02 
  -5  -2  -1   30.93   10.45 
  -4  -3  -4   94.57   13.20 
   0   8  -2 1187.17  107.76 
  -4   1   8  150.20   22.31 
   0   8  -2 1298.71  117.29 
  -1   2  10  822.73   82.53 
  -4   1   8  157.75   18.53 
   0  -8   2 1343.53  132.38 
   0   8  -1  413.90   35.24 
   0  -8   1  408.29   44.92 
   0   8  -1  414.88   31.63 
  -3  -6   3  314.07   37.12 
   0  -4  10 1113.97  111.54 
  -2  -7   1  749.89   82.43 
  -5  -1   5   38.88   10.88 
   2   7  -1  758.41   71.19 
   0   4 -10 1069.51   99.73 
  -3   2   9  110.77   18.67 
  -3   6   5  729.74   73.49 
  -3   2   9  107.98   14.68 
  -3   6   5  766.19   73.27 
  -4   2  -7 1170.08  111.36 
   1   5  -9 1238.78  113.55 
  -1  -5   9 1217.31  122.22 
   3   1   8   14.96   10.50 
  -5   4  -3  146.94   24.64 
  -5   4  -3  145.84   17.86 
   1   1  10    2.70   12.49 
  -4   5   5  280.64   27.71 
  -4  -1   8  600.23   64.26 
  -4   5   5  294.83   25.14 
  -4  -1   8  629.02   62.01 
  -4   1  -7  183.90   23.12 
   2   7  -3  890.90   83.07 
  -2  -7   3  828.74   89.81 
  -3  -6   0  384.23   39.53 
  -2   8  -1  468.94   37.01 
  -2   6   6    2.57   12.84 
  -2   8  -1  500.86   32.01 
   2  -8   1  450.78   42.70 
  -4   6   3  466.89   39.33 
  -5   3  -4  273.67   37.53 
  -4   6   3  476.33   23.32 
  -5   3  -4  248.96   22.64 
  -2   6   6    3.69   12.59 
   2  -7  -4  659.54   72.85 
  -2   7   4  617.63   63.61 
   2  -7   6  223.76   29.07 
  -2   7  -6  235.28   24.97 
   0  -6  -6   70.71   39.79 
   0   6   6   90.92   18.59 
  -5  -2   4 1204.36  113.90 
   0   2  10   48.96   15.77 
   0   8  -3   46.82    9.91 
   0   8  -3   51.22   12.22 
  -5  -1  -3  133.46   18.94 
   0  -8   3   59.24   24.58 
   0  -7  -4   59.96   14.33 
   0   7   4   55.91   12.44 
  -2   8  -2   73.66   15.71 
   2  -8   2   66.33   15.23 
  -2   8  -2   74.50   13.16 
   0   8   0  368.35   32.50 
   0  -8   0  346.34   40.31 
   1   4   8  896.47   83.74 
   1   4   8  876.07   85.53 
  -4   6  -4  558.45   59.20 
  -4   6  -4  559.19   53.25 
   2   3   8    7.49    8.98 
  -1   8   1  210.40   23.21 
   1  -8  -1  211.29   27.68 
  -2  -7   0  180.54   28.67 
   2   7   0  191.13   18.38 
  -5   5   0   29.81    8.99 
  -5   5   0   34.84   13.32 
  -1  -7   6 1074.37  113.07 
   1   7  -6 1049.87   98.24 
   2   4   7 1096.59   99.21 
   2   4   7 1142.59  106.46 
  -3  -4   8  701.13   76.68 
   2  -8   0 1590.10  149.60 
  -3  -4   8  686.94   66.25 
  -2   8   0 1546.31  138.41 
  -2   8   0 1658.32  150.64 
  -4   3  -7  136.76   18.80 
  -5   0  -4  568.19   55.85 
   1   6  -8 1006.67   94.41 
  -1  -6   8  932.42   96.76 
  -1  -7  -3   91.95   19.68 
   1   7   3   96.60   16.70 
  -5   5  -1 1183.33  122.42 
  -5   5  -1 1142.35  104.33 
  -3  -6   4  181.88   31.09 
  -3   7   3   54.49   12.90 
   3  -7  -3   56.25   21.22 
  -5   5   1  453.44   36.74 
  -5   5   1  452.20   38.92 
   1   4 -10   56.30   12.47 
   1  -8   4  349.11   44.83 
  -1   8  -4  352.77   31.08 
  -1   8  -4  329.29   29.21 
   1  -4  10  504.35   39.52 
  -4  -3   7  105.17   21.28 
  -1   4 -10  555.45   58.05 
  -4  -3   7  122.56   16.60 
   1   3   9  511.83   54.58 
  -2  -3  10  341.59   43.52 
   2   3 -10  390.95   32.15 
  -5   3   5  615.70   62.68 
  -5   1   6 1062.38  100.17 
  -2   8  -3 2995.93  283.43 
  -2   8  -3 3239.30   76.69 
   2  -8   3 3108.58  277.45 
  -2  -7   4  919.08   98.29 
   2   7  -4  960.08   89.23 
  -2   2 -10  130.93   16.94 
   2  -2  10  109.29   18.04 
  -4   2   8  608.08   60.41 
  -5   0   6  137.34   19.82 
  -4   2   8  603.66   61.80 
   2   6  -7   17.95    8.98 
  -2  -6   7   17.78   11.27 
   0   7  -7    2.88    8.99 
  -2   1 -10    1.53    5.83 
   2  -1  10    3.02   13.70 
   0  -7   7   12.29   19.48 
   1   5   7   22.44   11.00 
   1  -7   7   77.46   17.48 
  -1   7  -7   80.25   15.41 
  -3  -3   9  288.51   26.70 
  -3  -3   9  274.09   33.37 
  -5  -2  -2    2.40   10.66 
   0   1 -11  221.27   20.65 
   0  -1  11  211.58   28.94 
   2   6   4  341.30   30.18 
  -2  -6  -4  299.74   38.59 
  -4   0  -7   31.01   20.61 
  -5   4   4  101.48   14.84 
  -2   2  10  293.57   35.96 
  -2   2  10  272.81   23.43 
   0   8  -4  414.65   33.30 
   0  -8   4  405.36   49.61 
  -3  -6  -1  278.52   33.44 
   0   8  -4  396.06   32.82 
   1   1 -11  193.52   19.77 
  -1  -1  11  167.72   29.24 
  -3   4   8  610.84   60.23 
  -3   4   8  667.81   67.32 
   3  -2   9  624.61   63.05 
  -3   2  -9  619.45   61.53 
   2  -8  -1   39.63   14.05 
  -2   8   1   42.51   49.55 
   0  -8  -1   97.46   18.07 
   0   8   1  102.55   21.10 
  -5   5  -2  847.99   80.26 
  -5   5  -2  812.29   84.38 
   0   2 -11  348.56   30.09 
   0  -2  11  339.95   41.77 
  -3  -5   7   57.15   10.83 
  -4  -5   2  641.54   66.82 
  -3  -5   7   49.76   15.87 
  -4  -5   2  642.32   70.49 
  -4   5  -6  207.00   27.50 
  -3   5   7  545.00   56.65 
  -3   7  -5  849.34   84.46 
  -3   5   7  474.74   27.83 
   3  -7   5  852.41   84.14 
  -5   5   2  903.92   86.33 
  -4  -2   8  131.99   26.66 
  -4  -2   8  150.05   19.50 
   3  -1   9  682.78   67.49 
  -3   1  -9  639.13   63.85 
  -4  -5   1   98.07   18.74 
  -3  -5  -4    6.92   14.71 
  -2  -7  -1  342.33   36.20 
   2   2   9  260.46   31.80 
  -2   6  -8 1023.59   98.32 
   2  -6   8  943.87   93.69 
  -1   4   9  579.89   65.70 
  -1   4   9  602.56   63.04 
  -4  -4   6  615.07   72.11 
  -1   0  11  311.17   36.17 
  -4  -4   6  631.62   69.95 
  -5  -3   2  215.51   38.61 
  -5  -3   1    4.16   10.07 
  -4  -4  -3 1110.85  108.12 
  -1   5   8  598.31   61.37 
  -1   5   8  565.10   58.58 
  -2  -5  -6   28.06   12.12 
   2   5   6   31.22   12.27 
   0   0  11   78.15   19.39 
  -5   2   6   18.18   10.23 
  -1  -2  11 1060.07  105.89 
   1   2 -11 1182.53  107.49 
  -5   4  -4  289.16   40.84 
  -2   5  -9  324.37   32.69 
   2  -5   9  239.70   30.48 
  -5  -2   5  506.17   33.74 
  -4  -5   3  184.04   27.40 
  -4  -5   3  169.69   26.21 
   1  -8  -2  245.48   29.96 
  -1   8   2  244.02   28.75 
   2  -3  10   98.04   18.77 
  -2   3 -10   81.76   15.60 
  -5   2  -5  308.00   38.69 
  -5  -1   6 1124.85  106.07 
  -3   3  -9  120.30   18.95 
   3  -3   9  109.13   17.22 
   2   0  10  986.11   95.30 
   3  -5   8  693.79   70.26 
  -4   6   4  533.74   56.03 
  -3  -6   5   60.61   20.00 
  -4   6   4  508.48   30.76 
  -3   5  -8  743.44   76.23 
  -2   8  -4 1001.54   93.27 
  -2   8  -4  962.74   92.48 
   2  -8   4  973.10   99.52 
  -3   0  10  746.86   77.16 
  -3   0  10  794.92   74.58 
  -4   4  -7 2617.00  235.62 
   1  -7  -5  133.47   22.20 
  -1   7   5  142.60   25.25 
  -4  -5   0  650.87   68.57 
  -4   7  -1  192.16   22.46 
   3   3   7  283.85   28.66 
  -4   7  -1  196.94   24.27 
   3  -6   7  407.94   37.70 
  -3   6  -7  347.57   34.11 
  -5  -3   0   87.38   14.59 
  -5  -3   3  100.56   21.32 
  -4   7   0  148.95   20.22 
  -4   7   0  145.78   18.87 
  -3  -1  10  807.78   75.48 
  -3  -1  10  949.75   98.53 
  -3   3   9  985.61   97.08 
  -3   3   9  955.15   90.29 
   1  -8   5  129.96   25.15 
  -1   8  -5  118.41   16.36 
  -1   8  -5  131.44   16.27 
   1   8  -2   31.11    9.81 
  -1  -8   2   35.70   20.19 
   2   7  -5    3.48   11.82 
  -2  -7   5   -0.80   14.51 
  -4   4   7  391.99   34.62 
  -4   4   7  339.70   30.32 
  -4   6  -5   17.16   11.84 
   0   4   9  193.40   24.62 
   0   4   9  199.33   21.95 
  -1  -8   1  938.58   99.02 
   1   8  -1  920.67   87.55 
   1   8  -1  961.38   95.73 
   1   2  10 1057.06  104.20 
  -5   3  -5  169.46   24.20 
  -5  -1  -4    1.81    7.81 
   3   0   9  182.79   22.52 
  -4   7  -2 1318.55  122.74 
  -4   7  -2 1396.95  128.23 
   0   3 -11   17.98   34.02 
   0  -3  11   19.70   14.82 
  -5   5  -3   42.98   10.11 
  -5   5  -3   35.85   10.89 
   0   5   8   13.46   14.37 
   0   5   8   18.05   11.20 
  -2   5   8    3.17   10.50 
  -2   5   8    1.61   10.77 
  -2   8   2  195.63   23.33 
   2  -8  -2  213.77   27.11 
   0  -8   5   47.07   19.95 
   0   8  -5   39.33   10.80 
   1   8  -3 2260.98  199.98 
  -1  -8   3 2432.91  228.90 
  -2   4   9   26.30   14.63 
   0   8  -5   38.19   12.88 
  -2   4   9   24.84    7.98 
  -4  -5   4    6.49   16.30 
  -4  -5   4    1.56    6.29 
   0   6  -9   37.05   12.73 
   0  -6   9   44.25   18.13 
   3   2   8   26.75   10.88 
  -5   5   3   11.33   11.95 
  -4   7   1  195.17   24.10 
  -4   7   1  190.79   25.01 
  -1   3  10  132.04   23.14 
  -1   3  10  123.29   14.12 
   1  -1  11   47.91   16.66 
  -3  -6  -2  141.84   29.36 
  -3   7   4   21.79   11.73 
  -3   1  10 1372.54  123.93 
  -3   1  10 1420.38  133.68 
   3  -7  -4   28.12    9.19 
   0   8   2  192.76   22.66 
  -4   5   6 1642.23  149.00 
   2  -7  -5  157.74   21.33 
  -2   7   5  166.53   25.84 
  -4   5   6 1697.00  152.29 
   0  -8  -2  190.84   27.75 
  -1   2 -11  402.02   33.51 
  -3   6   6  290.85   31.75 
  -3   6   6  303.16   31.31 
   1  -2  11  349.86   37.11 
   0  -5  10   15.31   14.90 
   0   5 -10   14.50    8.49 
   1   7  -7  184.76   21.41 
  -1  -7   7  164.96   35.17 
   2  -7   7    4.37    7.03 
  -1   1  11   25.64   12.09 
  -2   7  -7   72.51   13.75 
   2   5  -9  271.42   26.08 
  -2  -5   9  243.89   34.46 
  -1   6   7    2.23   12.22 
  -1   6   7    7.71   12.09 
  -5  -2  -3  938.26   96.32 
  -1  -6  -6   17.79   31.99 
   1   6   6   23.61   10.84 
   1   8   0  220.33   24.79 
  -1  -8   0  209.29   30.56 
  -3   8  -1  886.46   86.99 
  -3   8  -1  828.70   79.74 
   3  -8   1  837.28   83.05 
  -4   3   8   72.30   15.01 
  -1   6  -9    7.47    7.81 
  -4   3   8   66.75   11.97 
  -1  -7  -4  393.91   37.71 
   1   7   4  414.54   35.37 
  -2  -7  -2    4.30   10.05 
  -5  -3  -1   57.91   13.19 
  -1  -3  11  112.53   30.21 
  -5  -3   4   89.59   17.57 
   1   3 -11  114.23   17.23 
   0   7   5  322.46   32.83 
   0  -7  -5  290.90   31.96 
  -4  -5  -1    3.49   10.72 
   0   1  11  100.37   18.52 
  -2  -1  11   59.45   18.04 
   2   1 -11   71.23   12.98 
  -3  -2  10  451.38   48.28 
  -3  -2  10  422.80   32.82 
  -4   0   9  203.11   23.54 
  -4   0   9  215.51   35.14 
  -3   8   0  310.58   31.83 
  -3   8  -2  335.53   32.27 
  -3   8  -2  336.64   31.75 
   3  -8   2  321.59   33.44 
   3  -8   0  313.26   30.95 
  -3   8   0  301.07   27.39 
  -5   4   5   59.16   15.94 
  -2   0  11  677.70   72.46 
   0   3  10 2287.80  207.66 
  -5   3   6  381.82   33.82 
  -2  -4  10   15.89   15.18 
   2   4 -10   18.56    9.63 
  -4   7  -3   46.88   13.48 
  -4   7  -3   56.28   12.30 
  -2   4 -10  231.41   26.93 
   1   8  -4  336.10   29.71 
   2  -4  10  192.47   27.61 
  -1  -8   4  348.18   44.92 
   3  -4   9   14.35   10.96 
  -3   4  -9   10.53   28.32 
   1  -5  10    6.78   18.28 
  -1   5 -10    9.26   13.71 
   1   0  11 2094.54  192.70 
  -4   1   9  730.00   74.52 
  -4   1   9  796.03   76.78 
   1  -8  -3  471.83   51.83 
  -2   8  -5    2.85    9.14 
  -1   8   3  454.26   47.19 
  -2   8  -5    3.40    9.23 
   2  -8   5    5.67   11.57 
  -2   6   7  144.55   23.80 
  -2   6   7  161.04   25.28 
  -4   2  -8  585.28   71.01 
  -4  -1   9  716.83   68.78 
  -5   0   7  403.20   39.88 
  -4  -1   9  663.24   55.76 
  -5   1   7  318.72   35.73 
  -4   7   2   75.64   18.11 
   3  -7   6  486.92   49.65 
  -4   7   2   78.48   12.52 
  -3   7  -6  523.94   49.87 
   1  -3  11  209.36   37.31 
  -1   3 -11  218.84   27.10 
  -4  -3   8  261.33   37.68 
  -4  -3   8  267.65   30.20 
  -5  -2   6    2.33    8.17 
   2   1  10  206.38   29.48 
  -6   1   1  214.77   26.77 
  -2   3  10  233.26   32.54 
  -2   3  10  228.62   25.26 
  -3  -6   6   31.35   13.44 
  -2  -2  11  391.36   52.32 
   2   2 -11  397.18   37.40 
   2   6  -8 1038.24   82.78 
  -2  -6   8  915.64   83.91 
  -6   2   1   62.09   12.94 
   0  -6  -7  297.58   37.44 
   0   6   7  290.49   33.85 
  -1  -5  10   73.15   21.17 
   1   5 -10   75.67   14.35 
  -3  -4   9   38.86   19.86 
  -3  -4   9   34.20    8.25 
  -3   8  -3 1246.08   97.51 
   3  -8  -1  452.53   45.14 
   3  -8   3 1359.64  107.71 
  -3   8   1  456.13   46.02 
  -3   8  -3 1412.95  108.15 
  -5   4  -5  793.49   69.45 
  -4   1  -8   73.33   18.95 
  -4  -5   5  692.02   67.45 
  -6   1   0   57.34   13.87 
  -4  -5   5  690.74   58.54 
  -6   2   0  591.85   52.16 
  -4  -4   7 1251.31  104.63 
   0   7  -8    3.15    9.63 
  -4  -4   7 1330.43  101.42 
   0  -7   8    5.54   12.73 
  -1  -8  -1  655.41   65.67 
   1   8   1  644.82   56.57 
   1   6  -9    8.00   12.57 
  -1  -6   9    2.21   14.83 
  -4  -4  -4   38.24   11.32 
  -2  -6  -5   85.94   20.21 
   2   6   5   76.14   18.86 
  -6   1   2  546.70   50.63 
  -1   7  -8  606.76   56.00 
   1  -7   8  587.02   59.81 
  -2  -7   6  546.71   63.70 
   2   7  -6  583.22   50.89 
  -5   6   0 1080.74   88.16 
  -5   6   0 1055.14   84.05 
  -5   5  -4   13.58   30.25 
  -4   3  -8   16.30   32.91 
   1  -8   6  215.65   35.79 
  -1   8  -6  196.63   24.89 
  -5   6  -1   30.78   16.50 
  -5   6  -1   22.89   10.02 
  -3  -5   8 1105.87   96.05 
  -6   2   2   19.29   23.29 
  -3  -5   8 1120.41   89.97 
   2  -8  -3  543.17   50.20 
  -2   1  11   40.35   16.93 
  -2   8   3  596.87   55.95 
  -3   2  10  352.88   35.42 
  -3   2  10  361.88   43.94 
  -3  -5  -5  338.15   37.24 
  -5   5   4  818.08   68.52 
  -4   6   5  163.61   22.93 
  -4   6   5  159.53   23.68 
   3   1   9  294.44   33.97 
  -4   5  -7   11.66   12.82 
  -5   6   1    3.84    6.37 
  -5   6   1   -0.61    9.21 
   0   8  -6   96.98   18.41 
   0   8  -6   99.73   17.41 
   0   4 -11  370.45   38.66 
   0  -8   6   81.65   22.51 
  -5  -3  -2  570.90   51.97 
   0  -4  11  373.57   47.51 
  -5  -3   5 1170.91   92.74 
  -5  -1   7   22.93    8.85 
  -6   0   1   54.11   14.23 
  -5   2   7  670.01   58.95 
  -6   2  -1 1768.97  130.79 
   2   4   8   35.26   10.13 
   2   4   8   31.44    9.61 
  -6   1  -1   44.84   12.99 
  -4  -5  -2  236.83   30.89 
   0  -8  -3   48.39   17.02 
   0   8   3   44.02   13.81 
  -6   0   2 1649.83  126.42 
  -5   2  -6  590.80   54.62 
  -3  -6  -3   39.42   16.27 
  -4   6  -6   33.85   14.81 
  -4   7  -4    5.15    9.09 
  -1  -8   5   46.41   21.88 
   1   8  -5   50.08   12.69 
  -6   1   3  159.30   23.77 
  -6   0   0  861.24   70.75 
  -5   6  -2   27.10   10.67 
  -5   6  -2   19.79    7.05 
  -6   3   1  330.06   35.53 
  -6   3   0  100.58   18.45 
   1   4   9  218.92   30.01 
  -4   2   9   16.34    9.95 
  -4   2   9   14.00   10.62 
   2   3   9   57.37   15.65 
  -1   2  11   12.30   18.72 
  -4  -2   9    9.68   12.83 
  -4  -2   9   11.52    6.56 
  -5   1  -6  390.84   46.11 
   2   7   3  292.81   34.21 
  -2  -7  -3  154.10   25.74 
  -3  -3  10   31.42   16.03 
  -6   2   3  327.80   36.10 
  -4   0  -8 1518.85  114.20 
   3  -8  -2   42.99   12.41 
  -3   8  -4 1380.39  108.48 
  -3   8   2   37.74   12.90 
   3  -8   4 1362.95  108.56 
  -4   7   3  369.69   41.86 
   1   5   8    3.47   13.14 
   2  -6   9  382.10   45.50 
   1   1  11   13.24   18.75 
   1   5   8    8.46    9.59 
  -2   6  -9  395.21   41.52 
   1  -7  -6  683.99   60.42 
  -3   5   8   54.69   17.65 
  -1   7   6  719.55   63.73 
  -3   5   8   58.42   12.45 
  -5   3  -6  229.46   34.30 
   1   4 -11  446.17   42.36 
  -1  -4  11  463.12   56.76 
  -5   6   2   23.66    9.21 
  -6   3   2  391.94   40.86 
  -3   7   5  397.56   43.49 
  -6   3  -1   94.42   17.56 
  -3   6  -8  433.69   44.27 
  -6   0   3  110.10   19.33 
   2   5   7  421.32   39.04 
   2   5   7  429.18   43.15 
   2   3 -11    3.26   12.82 
  -2  -3  11    7.96   15.10 
  -3   4   9   12.71   19.13 
  -3   4   9    7.44    7.49 
   0   2  11  492.38   50.47 
  -1   4 -11  288.99   33.30 
   1  -4  11  269.81   37.09 
  -3  -7   2  622.64   62.29 
  -5  -4   2    2.88    8.17 
  -1  -8  -2    3.88    9.46 
   1   8   2   12.40   14.63 
  -6   0  -1  935.77   76.02 
  -6   2  -2  139.12   21.18 
  -4   4  -8   46.37   14.73 
  -5  -4   1   20.55   10.07 
   1   7  -8   60.53   15.20 
  -1  -7   8   56.37   18.37 
   2  -8   6  144.61   27.75 
  -2   8  -6  161.31   24.10 
  -3  -7   1  633.34   61.56 
   1   3  10    7.58   14.09 
  -6   1  -2  330.64   36.60 
  -4  -5   6   56.10   15.87 
  -4  -5   6   50.41   19.47 
  -3  -7   3   54.65   19.45 
  -5   4   6  614.99   55.63 
   2  -7  -6  798.77   69.95 
  -2   7   6  830.44   73.29 
  -3   2 -10 1206.26   93.72 
  -3   5  -9 1511.25  117.95 
  -5   6  -3  316.00   31.76 
  -5   6  -3  310.70   37.99 
  -1  -7  -5   51.79   14.03 
   1   7   5   50.68   14.98 
  -4   4   8   43.22   10.83 
  -4   4   8   52.74   16.91 
  -5  -4   3  991.14   83.03 
   1  -8  -4 1548.31  126.21 
  -1   8   4 1574.32  140.33 
   2  -7   8   23.94   18.40 
  -2   7  -8   19.38   13.65 
   2  -5  10  373.06   48.82 
  -2   5 -10  415.17   43.03 
  -4   5   7  101.84   18.00 
  -2   2 -11 1805.78  135.91 
   2  -2  11 1912.84  145.79 
  -4   5   7  116.47   20.98 
  -6   1   4  878.67   74.70 
  -1   5   9  339.42   40.20 
  -1   5   9  377.02   40.39 
   1  -9   2  698.25   71.56 
  -1   9  -2  672.65   56.03 
  -1   9  -2  738.56   63.46 
   1  -9   1    9.63   12.94 
  -1   9  -1   10.40    9.67 
  -3  -6   7 1437.73  121.57 
   2  -1  11  160.72   25.70 
  -6  -1   1  528.02   49.88 
   3  -1  10  207.60   30.02 
  -3   6   7  917.46   77.08 
   3   3   8   19.82    9.64 
  -5  -4   0   51.09   13.29 
  -3   6   7  911.17   75.73 
  -2   2  11 1063.76   89.21 
  -5  -2   7  141.98   22.65 
  -6   3   3    1.61    8.75 
  -6  -1   2  260.61   32.56 
  -5   3   7    6.29    9.94 
  -6   3  -2  447.32   41.84 
  -5   5  -5  243.87   49.04 
   0  -7  -6  308.50   36.94 
   0   7   6  328.67   39.94 
  -3  -7   0   22.07   11.77 
   2   7  -7  140.28   20.21 
   3   4   7  463.17   41.15 
   3   4   7  438.23   41.57 
  -2  -7   7  130.49   28.10 
   2   2  10    2.78   11.31 
  -3   7  -7   10.54   15.78 
  -1   4  10   39.23   10.39 
  -5  -3   6  255.92   32.35 
  -1   4  10   48.29   17.07 
  -6   2   4  423.02   40.89 
   2   8  -2   23.06    7.35 
  -2  -8   2   15.79   15.39 
  -3   3 -10  109.98   20.41 
   0  -1  12  577.68   59.62 
  -6   0   4  127.41   20.01 
  -6  -1   0   10.09    7.57 
  -1  -1  12   33.77   17.50 
  -5   5   5 1292.85  103.23 
  -1   9  -3   20.43   11.12 
  -1   9  -3   16.12    7.74 
   1  -9   3   23.51   13.61 
   2  -8  -4 1003.37   82.09 
  -2   8   4  906.46   76.59 
  -3  -7   4   22.95   16.64 
  -6   4   0  767.56   63.95 
  -1  -8   6  469.95   56.44 
   1   8  -6  448.95   41.22 
  -4   7  -5  288.33   36.30 
   0  -6  10  339.91   48.30 
   0   6 -10  335.86   36.19 
  -5   6   3  310.26   34.72 
   1  -9   0   14.40   11.10 
  -5   4  -6  585.55   56.80 
  -1   9   0   10.34   12.67 
  -2  -8   1  148.97   28.63 
  -4  -5  -3 1254.21   99.76 
   1   6   7  921.64   83.54 
  -1  -6  -7  835.81   72.44 
   1  -8   7   53.27   15.36 
  -6   4   1  252.77   30.50 
  -1   8  -7   69.76   16.02 
   0  -2  12  470.02   52.13 
  -2   3 -11    3.60    9.06 
   2  -3  11    1.15   11.63 
  -2  -8   3    6.75   14.68 
   2   8  -3    9.62    7.92 
   2   5 -10  282.38   46.43 
  -2  -5  10  270.24   39.67 
  -3   3  10  132.10   23.66 
  -3   3  10  136.60   20.55 
  -5  -4   4  109.88   19.34 
  -3   0  11 1028.65   87.45 
  -3   8  -5    4.98    9.57 
  -3   8   3    6.01   20.21 
  -4  -6   2  319.57   40.79 
   3  -8  -3    0.91    5.30 
  -5   0   8  237.63   29.78 
  -6   0  -2   52.53   13.08 
  -6  -1   3   31.18   11.50 
   3   1 -11  145.55   22.07 
  -3  -1  11  141.84   28.80 
  -4  -4   8   12.96   29.95 
  -4  -4   8   19.93   18.33 
   0  -8   7 1080.14   98.69 
   0   8  -7 1112.73   89.44 
  -2   5   9 1201.13   94.38 
  -2   5   9 1190.70  100.96 
  -1   6   8  114.00   22.92 
  -5   1   8  412.92   42.15 
  -1   6   8  107.10   19.35 
   1   2 -12  326.07   32.95 
  -1  -2  12  289.86   39.75 
   0   9  -2  162.85   19.97 
   0   9  -2  180.59   25.02 
   0  -9   2  179.46   34.80 
  -2   9  -1  488.54   46.10 
   2  -9   1  481.14   51.81 
  -6   4  -1  772.53   62.66 
  -4  -6   1   67.38   17.54 
  -1   0  12  250.74   35.53 
  -2   9  -2  366.86   45.96 
   2  -9   2  346.82   44.45 
  -2   9  -2  314.23   33.90 
  -4   3   9   87.67   19.05 
  -4   3   9   83.72   13.94 
   0   5   9   47.17   11.77 
   0   5   9   59.70   19.43 
   0   9  -1   11.53    8.20 
   0  -9   1   23.00   12.83 
  -4  -6   3  748.43   71.39 
   1  -6  10  440.86   53.64 
  -1   6 -10  483.78   46.29 
   0  -8  -4    1.86   10.38 
   0   8   4    4.81   17.38 
  -6   2  -3    7.15    7.01 
  -4   7   4   27.58   14.85 
  -4  -3   9  134.91   19.61 
  -4  -3   9  139.81   26.65 
   2   0  11  170.32   27.37 
   3   2   9  116.93   21.11 
   0   0  12   58.77   22.52 
  -2  -6   9   50.79   20.66 
   2   6  -9   47.28   11.10 
  -4   6   6   18.39    9.26 
  -4   6   6   17.32    8.75 
  -6   4   2   87.59   17.38 
  -3  -6  -4   24.33   25.47 
  -5  -4  -1  204.58   27.82 
   0   4  10   52.96   14.76 
   3   0  10  631.64   57.07 
   0   9  -3   58.56   31.34 
   0  -9   3   62.01   21.26 
   0   9  -3   67.20   16.54 
  -2  -8   0  472.99   60.52 
  -2   4  10  699.58   63.83 
  -2   4  10  685.21   57.63 
   0  -5  11  412.63   52.89 
   0   5 -11  466.11   45.68 
  -2   9   0    2.71   12.19 
   2  -9   0    3.65   10.31 
  -2  -6  -6    3.14   14.00 
   2   6   6    6.25    6.78 
  -6  -1  -1  240.94   31.35 
  -4   0  10 1483.55  122.22 
  -4   0  10 1323.17  102.00 
   0  -7   9  161.24   31.14 
   0   7  -9  169.84   23.89 
  -6   1  -3  752.49   61.76 
  -5   6  -4   15.32   26.09 
  -1   9  -4  211.47   26.91 
   1  -9   4  208.37   37.03 
  -1   9  -4  190.54   25.08 
   2   8  -4  457.44   46.88 
  -2  -8   4  392.35   52.40 
  -3  -7  -1    2.10    9.84 
   2  -9   3  182.86   30.96 
  -2   9  -3  196.79   34.91 
   2   7   4    3.66    9.35 
  -2   9  -3  185.98   25.75 
  -2  -7  -4    1.79    9.80 
   1  -7   9  386.37   48.43 
  -5  -1   8    0.77    7.51 
   1   8   3   16.93   12.16 
  -1   7  -9  394.00   42.29 
  -1  -8  -3   15.30   15.69 
  -4   8  -1   62.39   21.05 
  -3  -5   9  437.33   56.67 
  -4   8  -1   65.45   14.15 
   3   5  -9  449.68   43.79 
  -2   6   8  622.90   57.22 
  -2   6   8  667.76   61.08 
  -1   9   1  156.76   26.95 
  -3   1  11   60.91   17.72 
   1  -9  -1  147.88   25.77 
  -4   6  -7  388.86   44.44 
  -4  -6   0 1159.95   98.76 
   0  -9   0  293.47   41.74 
  -6   3   4   14.15    9.23 
   0   9   0  297.53   38.03 
   0   3 -12 1381.90  105.08 
   3   5   6  668.70   55.86 
   0  -3  12 1420.97  121.89 
   1   2  11  475.11   49.17 
  -3  -5  -6  633.25   64.99 
  -4   8   0  757.28   64.17 
  -4   8   0  750.87   65.32 
  -4  -1  10  260.16   42.09 
  -3  -2  11 2023.51  161.86 
  -4  -1  10  224.41   26.50 
  -6   1   5  740.00   65.17 
   3   2 -11 2847.37  203.80 
  -3  -7   5 1274.22  110.79 
  -3  -4  10  263.07   39.65 
   3   4 -10  265.77   32.73 
  -6   4  -2   39.95   10.34 
  -6   4  -2   45.41   16.65 
   2   4 -11    7.73   12.48 
  -2  -4  11    4.33   14.96 
  -4  -6   4  392.43   48.05 
  -4   2  -9  250.17   30.41 
  -5   2   8  127.61   19.90 
  -4   1  10  110.53   16.97 
  -1   3  11  222.82   34.49 
  -4   1  10  110.22   23.81 
  -4   5  -8  278.23   35.21 
  -4   8  -2   96.48   18.72 
  -4   8  -2   95.44   21.04 
   1   6 -10  251.42   32.96 
  -1  -6  10  197.41   33.69 
  -3   4 -10   64.55   15.92 
   0   6   8 2264.58  187.71 
   0   6   8 2373.69  179.97 
  -4  -5   7  371.90   38.66 
  -4  -5   7  373.45   48.93 
  -5   2  -7    6.83   25.08 
  -5  -4   5   13.86   30.77 
  -1   5 -11  268.07   32.45 
   1  -5  11  225.53   34.85 
   0   9  -4  524.16   47.98 
   0  -9   4  504.41   59.13 
  -6   0   5   10.85   12.85 
   0   9  -4  534.18   48.05 
   1  -2  12  256.64   34.46 
  -1  -3  12  109.61   29.20 
   1   3 -12   74.99   14.00 
   1  -1  12  310.35   40.85 
  -2   8  -7  329.48   37.92 
   2  -8   7  295.36   40.15 
  -6   2   5   71.08   16.25 
  -6   4   3  878.99   73.31 
  -4   1  -9  161.27   23.66 
  -2   9   1   16.82   13.58 
  -2   4 -11  406.67   42.61 
   2  -4  11  399.97   47.44 
   2  -9  -1   11.74   12.80 
  -3   7   6  641.50   60.89 
  -3   7   6  671.57   59.27 
  -4   3  -9  598.23   65.58 
  -1   1  12    1.78   12.25 
  -1  -5  11    9.09   19.02 
   1   5 -11    4.45    9.36 
  -4   8   1  523.03   50.74 
  -5   6   4  135.50   21.83 
  -2  -8  -1  270.13   37.99 
  -5   1  -7   44.15   13.08 
  -5   3  -7   89.39   20.03 
  -6   0  -3  244.82   29.05 
  -2   9  -4  173.36   25.70 
  -2   9  -4  142.42   19.49 
   2  -9   4  142.31   26.32 
   0   3  11   32.17   15.59 
  -6  -2   1   19.83    8.92 
  -6  -2   2  249.19   33.23 
  -2   0  12   70.05   20.59 
  -5   7   0  109.85   33.09 
  -5   7   0  111.65   19.80 
  -5   7  -1  572.00   52.50 
  -5   7  -1  658.47   56.51 
  -6  -1  -2  292.69   32.49 
   2   8  -5  107.78   18.41 
  -4   8  -3  812.04   69.53 
   0   1  12   92.09   22.46 
  -2  -8   5  104.97   28.46 
   0   9   1   51.80   16.85 
   0  -9  -1   61.32   17.99 
   1  -8  -5  117.32   23.40 
  -1   8   5  118.84   22.04 
  -4  -6  -1  290.03   35.10 
  -5  -3   7    2.08    7.26 
  -1  -8   7  292.96   43.46 
   1   8  -7  303.36   36.72 
  -1   9  -5  499.91   46.88 
   1  -9   5  502.89   58.22 
  -5   4   7    8.46    8.27 
  -1   9  -5  531.73   46.74 
   3   6  -8  328.20   37.04 
  -3  -6   8  318.49   46.37 
  -1   7   7   51.71   15.37 
  -5   5  -6   10.55   25.09 
  -4   7  -6  116.12   20.57 
  -3   8  -6   77.66   16.25 
  -3   8   4 1526.85  118.70 
  -2   3  11    7.92   10.07 
   3  -8  -4 1447.09  110.68 
  -4  -2  10  597.53   61.97 
  -4  -2  10  561.12   48.68 
   2   2 -12   28.89    9.25 
  -2  -2  12   52.33   28.59 
  -1  -7   9  532.52   59.02 
   1   7  -9  662.23   58.95 
   1  -3  12  607.82   64.47 
  -1   3 -12  557.81   50.22 
   2   1  11   36.89   13.80 
   1  -9  -2  102.20   21.52 
  -1   9   2  105.06   22.64 
  -5   7   1  489.21   47.17 
  -5   7   1  531.81   51.45 
  -4  -6   5  124.77   29.77 
  -6  -2   0    0.58   11.25 
   1   0  12  164.09   27.64 
  -6  -2   3  444.60   46.20 
  -4  -5  -4    4.55   13.43 
   2   7  -8  414.54   39.96 
  -2  -7   8  479.47   58.37 
  -3  -7  -2  492.31   52.87 
  -6   5   0  284.80   33.04 
  -3   6  -9  155.30   24.11 
  -6   4  -3  165.38   28.08 
  -5   7  -2  221.06   31.16 
  -5   7  -2  217.72   25.84 
  -5  -2   8    0.72    5.88 
  -5   5   6   19.96   12.38 
   2   4   9   14.12    8.27 
  -4   2  10   36.66   10.39 
  -4   2  10   31.88   12.55 
   2  -8  -5  312.55   35.31 
   1   7   6 1064.94   86.79 
  -1  -7  -6  999.24   83.29 
  -3   2  11  337.40   42.90 
  -2   8   5  332.05   38.72 
   3   1  10  307.75   37.26 
  -6   5   1  332.67   37.45 
   2  -6  10 1125.60   97.57 
  -2   6 -10 1275.42  102.65 
  -6  -1   5  728.97   64.85 
  -6   5  -1  555.15   50.35 
  -6   5  -1  567.30   61.30 
  -2   7   7  355.18   40.07 
  -2   7   7  373.37   42.38 
   0   9  -5 1141.53   92.30 
  -4   8   2   51.37   14.94 
   0  -9   5 1110.65  103.21 
   0   9  -5 1194.03   91.87 
  -3   5   9  493.21   50.59 
  -5   6  -5   97.92   20.90 
  -3   5   9  495.90   47.66 
   3   7  -6   53.21   35.45 
  -3  -7   6   36.43   15.69 
   3   3 -11   15.49    8.71 
  -3  -3  11   17.33   16.94 
   2  -7   9  521.69   55.17 
  -3   9  -1 1014.59   83.62 
  -3   9  -1 1088.34   89.25 
   3  -9   1 1083.13   89.75 
   1   9  -2   97.65   18.94 
  -1   8  -8   78.75   14.09 
   1  -8   8   69.72   17.90 
  -1  -9   2   91.36   25.13 
  -4   7   5   35.61   15.57 
   0  -4  12  198.25   34.22 
   0   4 -12  209.79   26.29 
   2   5   8    7.07    9.55 
  -2   9   2  784.05   72.00 
   2  -9  -2  708.27   64.24 
  -4   4  -9  273.46   36.79 
  -6   3  -4  172.90   31.99 
  -4   5   8  163.21   27.86 
  -4   5   8  142.99   21.25 
  -5   3   8  369.26   40.03 
  -3   9  -2 1175.98   93.82 
  -3   9  -2 1139.89   90.99 
   0  -8   8  429.45   53.66 
  -2   1  12   20.02   14.01 
   1   9  -1  851.39   70.94 
  -1  -9   1  803.50   93.13 
   1   5   9 1434.49  116.55 
  -5   4  -7  311.26   46.05 
   1   9  -3  260.27   32.78 
  -1  -9   3  225.09   37.06 
   1   4  10   91.65   19.44 
   1   9  -3  253.78   29.05 
   3  -9   0  440.96   44.21 
  -3   9   0  468.43   50.18 
   2   3  10  901.85   77.10 
  -5  -4   6   70.31   14.30 
  -6   5   2  741.74   64.07 
  -4   8  -4  154.34   24.63 
  -4   4   9   44.69   13.20 
  -5   7   2  421.47   41.83 
  -4   4   9   35.80    9.60 
  -6  -2  -1  548.27   51.42 
  -3   6   8  604.83   56.14 
  -2   9  -5  211.55   28.65 
  -3   6   8  596.97   55.04 
   2  -9   5  213.26   36.92 
  -3   4  10  360.38   38.46 
   1   8   4 1422.54  136.52 
  -3   4  10  333.22   40.93 
  -1  -8  -4 1330.44  115.64 
  -6  -2   4   12.43   10.22 
   2   8   2    6.46    7.67 
  -2  -8  -2    2.42    8.18 
   0   7   7   26.80   15.42 
   0  -7  -7   14.96   44.43 
  -5   7  -3   42.62   12.66 
  -4  -4   9   64.49   13.54 
  -4  -4   9   67.31   19.59 
  -3  -6  -5  304.62   51.29 
  -3   5 -10   54.77   17.65 
  -6   5  -2  400.47   37.42 
   1   4 -12    0.76    8.73 
  -3   9  -3    0.17    7.93 
  -3   9  -3    2.81   10.35 
  -4  -6  -2   54.93   15.88 
   2   8  -6  335.09   36.39 
  -5   0   9  172.48   23.20 
   2   3 -12 1060.76   82.62 
  -6  -1  -3  357.89   37.37 
  -2  -7  -5  108.98   38.11 
   2   7   5  116.94   18.69 
  -4   6   7   61.50   13.46 
   3   4   8  105.25   19.32 
   1   9  -4   64.14   11.72 
   1   9  -4   77.76   15.55 
  -5   1   9  291.48   33.25 
  -3   9   1  215.82   29.63 
  -1   4 -12   19.82   11.86 
   3  -9  -1  220.32   29.96 
   2  -5  11   22.03   14.49 
  -2   5 -11   22.01   14.07 
   1  -9   6  413.18   50.64 
  -1   9  -6  442.77   45.19 
   3   3   9  126.27   21.63 
  -4  -6   6  250.96   32.43 
  -4  -6   6  225.32   35.65 
  -4  -5   8  339.24   36.24 
  -4  -5   8  365.94   49.46 
   1   1  12  122.42   24.41 
   1   6   8  287.23   34.95 
  -4  -3  10 1137.01   90.16 
  -4  -3  10 1183.14  105.16 
  -5  -1   9  483.49   45.88 
  -6   5   3    8.69    9.90 
   2   5 -11   16.91   11.40 
   2   6   7  833.13   67.95 
  -2  -6  -7  785.24   68.59 
   2  -8   8    3.73   10.08 
   0   9  -6   50.99   12.55 
  -3  -7  -3    5.47    9.31 
  -3  -5  10   67.47   23.07 
  -1   6   9  198.11   28.73 
  -3   9  -4  173.30   26.05 
  -3   3 -11   14.04    9.64 
  -6  -2  -2    2.20    8.52 
   2  -2  12   31.09   13.49 
  -4   3  10  601.32   57.78 
  -4   3  10  566.98   52.15 
   2  -9  -3  393.66   45.38 
   3   5   7  146.38   21.48 
   1  -7  10    7.72   11.65 
   3  -8  -5  295.69   33.67 
   1  -6  11  919.29   85.87 
  -5  -3   8   30.62   10.17 
  -5   2   9   66.42   13.46 
  -2   5  10  770.82   64.59 
   2  -1  12  474.96   50.19 
   2   2  11    5.31   17.01 
  -3   7   7  182.15   29.30 
  -3   3  11  105.44   23.47 
  -3   3  11  114.07   16.75 
   1   9  -5  903.20   74.33 
   1   9  -5  972.32   76.80 
  -5   2  -8   51.86   20.19 
   3  -9  -2 1245.15  102.21 
   2  -9   6  150.62   29.70 
  -2   6   9    2.78    9.80 
  -4   0  11 1531.31  127.64 
  -2   3 -12  210.62   27.22 
   2  -3  12  249.99   39.23 
  -3  -6   9    5.99   12.44 
   3   2  10   58.07   17.47 
;
_shelx_hkl_checksum              2881
loop_
_space_group_symop_operation_xyz
'x, y, z'
'-x, -y, -z'
loop_
_atom_site_label
_atom_site_type_symbol
_atom_site_fract_x
_atom_site_fract_y
_atom_site_fract_z
_atom_site_U_iso_or_equiv
_atom_site_adp_type
_atom_site_occupancy
_atom_site_site_symmetry_order
_atom_site_calc_flag
Cl1 Cl -0.00591(7) 0.74402(5) 0.63663(3) 0.01210(16) Uani 1 1 d
O1 O -0.1244(3) 0.78195(18) 0.50425(12) 0.0249(3) Uani 1 1 d
O2 O 0.2744(3) 0.71597(18) 0.62326(14) 0.0253(3) Uani 1 1 d
O3 O -0.0073(3) 0.90515(16) 0.74579(12) 0.0211(3) Uani 1 1 d
O4 O -0.1594(3) 0.57621(17) 0.67864(14) 0.0254(3) Uani 1 1 d
N1 N 0.3766(3) 0.8279(2) 0.31523(15) 0.0158(3) Uani 1 1 d
N2 N 0.4580(3) 0.97677(18) 0.05654(13) 0.0136(3) Uani 1 1 d
N3 N 0.5666(3) 0.82201(17) 0.09154(13) 0.0125(3) Uani 1 1 d
N4 N 0.6619(3) 0.61391(19) 0.22017(13) 0.0150(3) Uani 1 1 d
N5 N 0.7993(3) 0.5859(2) 0.09948(14) 0.0186(3) Uani 1 1 d
C1 C 0.5222(3) 0.7580(2) 0.21935(15) 0.0119(3) Uani 1 1 d
C2 C 0.7406(3) 0.7131(2) 0.02347(16) 0.0169(3) Uani 1 1 d
H1 H 0.294(4) 0.911(3) 0.297(2) 0.023(5) Uiso 1 1 d
H1A H 0.366(4) 0.787(3) 0.386(2) 0.027(6) Uiso 1 1 d
H2 H 0.803(4) 0.725(3) -0.066(2) 0.023(5) Uiso 1 1 d
H4 H 0.667(5) 0.539(3) 0.285(2) 0.032(6) Uiso 1 1 d
loop_
_atom_site_aniso_label
_atom_site_aniso_U_11
_atom_site_aniso_U_22
_atom_site_aniso_U_33
_atom_site_aniso_U_23
_atom_site_aniso_U_13
_atom_site_aniso_U_12
Cl1 0.0139(2) 0.0118(2) 0.0119(2) 0.00256(13) 0.00326(14) 0.00444(14)
O1 0.0321(7) 0.0311(7) 0.0131(6) 0.0073(5) -0.0019(5) 0.0090(6)
O2 0.0159(6) 0.0290(7) 0.0345(7) 0.0052(5) 0.0085(5) 0.0107(5)
O3 0.0264(7) 0.0181(6) 0.0179(6) -0.0053(4) 0.0015(5) 0.0072(5)
O4 0.0275(7) 0.0166(6) 0.0336(7) 0.0111(5) 0.0082(5) -0.0002(5)
N1 0.0222(8) 0.0163(6) 0.0127(6) 0.0068(5) 0.0068(5) 0.0086(6)
N2 0.0167(7) 0.0130(6) 0.0115(6) 0.0042(5) 0.0007(5) 0.0023(5)
N3 0.0159(7) 0.0126(6) 0.0100(6) 0.0036(5) 0.0028(5) 0.0031(5)
N4 0.0209(7) 0.0165(6) 0.0106(6) 0.0045(5) 0.0047(5) 0.0082(5)
N5 0.0215(7) 0.0236(7) 0.0129(6) 0.0025(5) 0.0057(5) 0.0089(6)
C1 0.0130(7) 0.0120(6) 0.0105(6) 0.0031(5) 0.0007(5) 0.0010(5)
C2 0.0194(8) 0.0202(7) 0.0122(7) 0.0018(6) 0.0046(6) 0.0061(6)
loop_
_atom_type_symbol
_atom_type_description
_atom_type_scat_dispersion_real
_atom_type_scat_dispersion_imag
_atom_type_scat_source
C C 0.0033 0.0016 'International Tables Vol C Tables 4.2.6.8 and 6.1.1.4'
H H 0.0000 0.0000 'International Tables Vol C Tables 4.2.6.8 and 6.1.1.4'
N N 0.0061 0.0033 'International Tables Vol C Tables 4.2.6.8 and 6.1.1.4'
O O 0.0106 0.0060 'International Tables Vol C Tables 4.2.6.8 and 6.1.1.4'
Cl Cl 0.1484 0.1585 'International Tables Vol C Tables 4.2.6.8 and 6.1.1.4'
loop_
_geom_angle_atom_site_label_1
_geom_angle_atom_site_label_2
_geom_angle_atom_site_label_3
_geom_angle
_geom_angle_site_symmetry_1
O1 Cl1 O4 110.82(8) .
O1 Cl1 O2 109.72(8) .
O4 Cl1 O2 109.04(7) .
O1 Cl1 O3 109.33(7) .
O4 Cl1 O3 108.70(8) .
O2 Cl1 O3 109.21(8) .
C1 N1 H1 118.3(14) .
C1 N1 H1A 120.1(16) .
H1 N1 H1A 122(2) .
N2 N2 N3 110.34(15) 2_675
C1 N3 N2 120.14(12) .
C1 N3 C2 107.78(12) .
N2 N3 C2 131.94(12) .
C1 N4 N5 112.51(13) .
C1 N4 H4 126.8(15) .
N5 N4 H4 120.6(15) .
C2 N5 N4 105.24(12) .
N1 C1 N4 129.65(14) .
N1 C1 N3 126.16(13) .
N4 C1 N3 104.18(12) .
N5 C2 N3 110.25(13) .
N5 C2 H2 123.5(13) .
N3 C2 H2 126.2(13) .
loop_
_geom_bond_atom_site_label_1
_geom_bond_atom_site_label_2
_geom_bond_distance
_geom_bond_site_symmetry_2
Cl1 O1 1.4262(12) .
Cl1 O4 1.4320(12) .
Cl1 O2 1.4445(12) .
Cl1 O3 1.4478(11) .
N1 C1 1.3003(19) .
N1 H1 0.80(2) .
N1 H1A 0.77(2) .
N2 N2 1.245(2) 2_675
N2 N3 1.3736(17) .
N3 C1 1.3723(18) .
N3 C2 1.3898(19) .
N4 C1 1.3311(19) .
N4 N5 1.3832(18) .
N4 H4 0.87(2) .
N5 C2 1.288(2) .
C2 H2 0.93(2) .
loop_
_geom_hbond_atom_site_label_D
_geom_hbond_atom_site_label_H
_geom_hbond_atom_site_label_A
_geom_hbond_distance_DH
_geom_hbond_distance_HA
_geom_hbond_distance_DA
_geom_hbond_angle_DHA
_geom_hbond_site_symmetry_A
N4 H4 O2 0.87(2) 2.17(2) 2.9946(18) 158(2) 2_666
N4 H4 Cl1 0.87(2) 2.96(2) 3.6445(14) 137.0(18) 2_666
C2 H2 O4 0.93(2) 2.55(2) 3.390(2) 149.7(17) 1_654
C2 H2 O3 0.93(2) 2.49(2) 3.357(2) 154.5(17) 1_654
N1 H1A O2 0.77(2) 2.44(2) 3.1871(19) 167(2) .
N1 H1 O3 0.80(2) 2.14(2) 2.9289(19) 169(2) 2_576
loop_
_geom_torsion_atom_site_label_1
_geom_torsion_atom_site_label_2
_geom_torsion_atom_site_label_3
_geom_torsion_atom_site_label_4
_geom_torsion
_geom_torsion_site_symmetry_1
N2 N2 N3 C1 173.79(16) 2_675
N2 N2 N3 C2 -1.4(3) 2_675
C1 N4 N5 C2 -0.7(2) .
N5 N4 C1 N1 -178.09(16) .
N5 N4 C1 N3 1.43(18) .
N2 N3 C1 N1 1.7(2) .
C2 N3 C1 N1 177.92(17) .
N2 N3 C1 N4 -177.88(13) .
C2 N3 C1 N4 -1.62(16) .
N4 N5 C2 N3 -0.43(19) .
C1 N3 C2 N5 1.33(18) .
N2 N3 C2 N5 176.98(15) .
