#------------------------------------------------------------------------------
#$Date: 2019-11-23 12:58:47 +0200 (Sat, 23 Nov 2019) $
#$Revision: 233387 $
#$URL: file:///home/coder/svn-repositories/cod/cif/7/23/58/7235857.cif $
#------------------------------------------------------------------------------
#
# This file is available in the Crystallography Open Database (COD),
# http://www.crystallography.net/
#
# All data on this site have been placed in the public domain by the
# contributors.
#
data_7235857
loop_
_publ_author_name
'Vo, Thao T.'
'Shreeve, Jean'ne M.'
_publ_section_title
;
 1,1-Diamino-2,2-dinitroethene (FOX-7) and
 1-amino-1-hydrazino-2,2-dinitroethene (HFOX) as amphot\`eres: bases with
 strong acids
;
_journal_issue                   16
_journal_name_full               'Journal of Materials Chemistry A'
_journal_page_first              8756
_journal_paper_doi               10.1039/C4TA07098D
_journal_volume                  3
_journal_year                    2015
_chemical_formula_moiety         'C5 H9 N5 O4'
_chemical_formula_sum            'C5 H9 N5 O4'
_chemical_formula_weight         203.17
_space_group_crystal_system      triclinic
_space_group_IT_number           2
_space_group_name_Hall           '-P 1'
_space_group_name_H-M_alt        'P -1'
_atom_sites_solution_hydrogens   mixed
_atom_sites_solution_primary     direct
_audit_creation_date             2013-12-02
_audit_creation_method
;
Olex2 1.2
(compiled 2013.11.15 svn.r2834 for OlexSys, GUI svn.r4720)
;
_audit_update_record
;
2014-06-13 deposited with the CCDC.
2015-01-15 downloaded from the CCDC.
;
_cell_angle_alpha                76.7114(10)
_cell_angle_beta                 79.0212(10)
_cell_angle_gamma                75.8661(10)
_cell_formula_units_Z            2
_cell_length_a                   6.68570(10)
_cell_length_b                   6.89930(10)
_cell_length_c                   10.2681(2)
_cell_measurement_reflns_used    3327
_cell_measurement_temperature    173(2)
_cell_measurement_theta_max      71.825
_cell_measurement_theta_min      6.744
_cell_volume                     442.447(13)
_computing_cell_refinement       'APEX2 (BRUKER, V2012.10-0, 2012)'
_computing_data_collection       'COSMO (BRUKER, V1.61, 2009)'
_computing_data_reduction        'SAINT (BRUKER, V8.27BA, 20112)'
_computing_molecular_graphics    'Olex2 (Dolomanov et al., 2009)'
_computing_publication_material  'Olex2 (Dolomanov et al., 2009)'
_computing_structure_refinement  'ShelXL-2013 (Sheldrick, 2008)'
_computing_structure_solution    'ShelXS (Sheldrick, 2008)'
_diffrn_ambient_temperature      173.09
_diffrn_detector_area_resol_mean 836.6
_diffrn_measured_fraction_theta_full 0.972
_diffrn_measured_fraction_theta_max 0.965
_diffrn_measurement_device_type  'Bruker APEX-II CCD'
_diffrn_measurement_method       '\f and \w scans'
_diffrn_radiation_type           CuK\a
_diffrn_radiation_wavelength     1.54178
_diffrn_reflns_av_R_equivalents  0.0273
_diffrn_reflns_av_unetI/netI     0.0244
_diffrn_reflns_Laue_measured_fraction_full 0.972
_diffrn_reflns_Laue_measured_fraction_max 0.965
_diffrn_reflns_limit_h_max       8
_diffrn_reflns_limit_h_min       -8
_diffrn_reflns_limit_k_max       8
_diffrn_reflns_limit_k_min       -7
_diffrn_reflns_limit_l_max       12
_diffrn_reflns_limit_l_min       -12
_diffrn_reflns_number            6216
_diffrn_reflns_point_group_measured_fraction_full 0.972
_diffrn_reflns_point_group_measured_fraction_max 0.965
_diffrn_reflns_theta_full        67.679
_diffrn_reflns_theta_max         71.819
_diffrn_reflns_theta_min         4.470
_diffrn_standards_number         0
_exptl_absorpt_coefficient_mu    1.147
_exptl_absorpt_correction_T_max  0.7535
_exptl_absorpt_correction_T_min  0.6458
_exptl_absorpt_correction_type   multi-scan
_exptl_absorpt_process_details
'SADABS-2012/1 (Bruker,2012) was used for absorption correction. wR2(int) was 0.0560 before and 0.0414 after correction. The Ratio of minimum to maximum transmission is 0.8571. The \l/2 correction factor is 0.0015.'
_exptl_crystal_colour            yellow
_exptl_crystal_density_diffrn    1.525
_exptl_crystal_description       plate
_exptl_crystal_F_000             212
_exptl_crystal_size_max          0.272
_exptl_crystal_size_mid          0.231
_exptl_crystal_size_min          0.074
_refine_diff_density_max         0.241
_refine_diff_density_min         -0.169
_refine_diff_density_rms         0.036
_refine_ls_extinction_method     none
_refine_ls_goodness_of_fit_ref   1.052
_refine_ls_hydrogen_treatment    mixed
_refine_ls_matrix_type           full
_refine_ls_number_parameters     141
_refine_ls_number_reflns         1680
_refine_ls_number_restraints     0
_refine_ls_restrained_S_all      1.052
_refine_ls_R_factor_all          0.0401
_refine_ls_R_factor_gt           0.0323
_refine_ls_shift/su_max          0.000
_refine_ls_shift/su_mean         0.000
_refine_ls_structure_factor_coef Fsqd
_refine_ls_weighting_details
'w=1/[\s^2^(Fo^2^)+(0.0481P)^2^+0.0823P] where P=(Fo^2^+2Fc^2^)/3'
_refine_ls_weighting_scheme      calc
_refine_ls_wR_factor_gt          0.0854
_refine_ls_wR_factor_ref         0.0900
_reflns_Friedel_coverage         0.000
_reflns_number_gt                1430
_reflns_number_total             1680
_reflns_threshold_expression     'I > 2\s(I)'
_cod_data_source_file            c4ta07098d2.cif
_cod_data_source_block           jstvo213
_cod_database_code               7235857
_shelxl_version_number           2013-3
_shelx_space_group_comment
;
The symmetry employed for this shelxl refinement is uniquely defined
by the following loop, which should always be used as a source of
symmetry information in preference to the above space-group names.
They are only intended as comments.
;
_shelx_estimated_absorpt_t_max   0.920
_shelx_estimated_absorpt_t_min   0.746
_olex2_refinement_description
;
1. Fixed Uiso
 At 1.5 times of:
  All C(H,H,H) groups
2.a Idealised Me refined as rotating group:
 C1(H1A,H1B,H1C), C3(H3C,H3D,H3E)
;
_shelx_res_file
;
TITL JStvo213 in P-1
CELL 1.54178 6.6857 6.8993 10.2681 76.7114 79.0212 75.8661
ZERR 2 0.0001 0.0001 0.0002 0.001 0.001 0.001
LATT 1
 
SFAC C H N O
UNIT 10 18 10 8
EQIV $1 +X,-1+Y,+Z
 
L.S. 12
PLAN  5
SIZE 0.074 0.231 0.272
TEMP -100.06
HTAB N2 O3
HTAB N3 O1
HTAB N3 O3_$1
BOND $H
HTAB
MORE -1
fmap 2
acta
CONF
REM <HKL>E:/js_tvo213/work/jstvo213.hkl</HKL>
 
WGHT    0.048100    0.082300
FVAR       0.29252
O1    4    0.219199    0.583414   -0.302333    11.00000    0.05741    0.03429 =
         0.03079   -0.01463   -0.00612   -0.01248
O2    4    0.064386    0.899598   -0.328117    11.00000    0.06810    0.03298 =
         0.04033    0.00295   -0.02871   -0.01068
O3    4    0.240275    0.960655    0.002489    11.00000    0.05704    0.02170 =
         0.02868   -0.00763   -0.01086   -0.01079
O4    4    0.247269    1.083337   -0.212054    11.00000    0.07089    0.02238 =
         0.03044    0.00020   -0.00736   -0.01900
N1    3    0.288608    0.403544    0.189153    11.00000    0.02935    0.02237 =
         0.03001    0.00133   -0.00642   -0.00694
N2    3    0.252065    0.583996    0.094865    11.00000    0.02939    0.01818 =
         0.02544   -0.00367   -0.00545   -0.00557
H2    2    0.241931    0.702578    0.108563    11.00000    0.04200
N3    3    0.250059    0.389770   -0.055803    11.00000    0.03297    0.01920 =
         0.03118   -0.00650   -0.00630   -0.00797
H3A   2    0.250118    0.372431   -0.135808    11.00000    0.03449
H3B   2    0.267583    0.284025    0.013258    11.00000    0.03730
N4    3    0.162314    0.748160   -0.262665    11.00000    0.03439    0.02537 =
         0.02658   -0.00419   -0.00549   -0.01090
N5    3    0.230494    0.941148   -0.115423    11.00000    0.03396    0.01878 =
         0.02656   -0.00498   -0.00396   -0.00660
C1    1    0.245321    0.627473    0.352023    11.00000    0.05998    0.04750 =
         0.02833   -0.01277   -0.01218    0.00584
AFIX 137
H1A   2    0.359007    0.697359    0.308512    11.00000   -1.50000
H1B   2    0.237139    0.606044    0.450446    11.00000   -1.50000
H1C   2    0.113394    0.710929    0.324667    11.00000   -1.50000
AFIX   0
C2    1    0.285562    0.426593    0.310060    11.00000    0.02534    0.03593 =
         0.02983   -0.00095   -0.00419   -0.00465
C3    1    0.328135    0.235211    0.413981    11.00000    0.04451    0.04717 =
         0.03463    0.00991   -0.00955   -0.00952
AFIX 137
H3C   2    0.366792    0.117139    0.369654    11.00000   -1.50000
H3D   2    0.202790    0.224891    0.480285    11.00000   -1.50000
H3E   2    0.442653    0.238500    0.459938    11.00000   -1.50000
AFIX   0
C4    1    0.238640    0.571220   -0.030940    11.00000    0.01748    0.01983 =
         0.02705   -0.00616   -0.00147   -0.00598
C5    1    0.209021    0.754261   -0.133658    11.00000    0.02651    0.02046 =
         0.02425   -0.00644   -0.00237   -0.00663
HKLF 4
 
REM  JStvo213 in P-1
REM R1 =  0.0323 for    1430 Fo > 4sig(Fo)  and  0.0401 for all    1680 data
REM    141 parameters refined using      0 restraints
 
END  
     
WGHT      0.0481      0.0824 

REM Instructions for potential hydrogen bonds
HTAB N2 O3
HTAB N3 O1
HTAB N3 O4_$1
HTAB N3 O3_$1
EQIV $2 x, y, z+1
HTAB C1 O1_$2

REM Highest difference peak  0.241,  deepest hole -0.169,  1-sigma level  0.036
Q1    1   0.2379  0.6670 -0.0824  11.00000  0.05    0.24
Q2    1   0.3024  0.3316  0.3621  11.00000  0.05    0.22
Q3    1   0.2245  0.8214 -0.1239  11.00000  0.05    0.17
Q4    1   0.2018  0.7476 -0.1837  11.00000  0.05    0.16
Q5    1   0.3299  1.1606 -0.1619  11.00000  0.05    0.16

REM The information below was added by Olex2.
REM
REM R1 = 0.0323 for 1430 Fo > 4sig(Fo) and 0.0401 for all 6216 data
REM n/a parameters refined using n/a restraints
REM Highest difference peak 0.24, deepest hole -0.17
REM Mean Shift 0, Max Shift 0.

REM +++ Tabular Listing of Refinement Information +++
REM R1_all = 0.0401
REM R1_gt = 0.0323
REM wR_ref = 0.0900
REM GOOF = 1.052
REM Shift_max = 0
REM Shift_mean = 0
REM Reflections_all = 6216
REM Reflections_gt = 1430
REM Parameters = n/a
REM Hole = -0.17
REM Peak = 0.24
REM Flack = n/a

;
_contact_crystallographer_email  staples@chemistry.msu.com
_contact_crystallographer_name   'Richard Staples'
loop_
_space_group_symop_operation_xyz
'x, y, z'
'-x, -y, -z'
loop_
_atom_site_label
_atom_site_type_symbol
_atom_site_fract_x
_atom_site_fract_y
_atom_site_fract_z
_atom_site_U_iso_or_equiv
_atom_site_adp_type
_atom_site_occupancy
_atom_site_site_symmetry_order
_atom_site_calc_flag
_atom_site_refinement_flags_posn
O1 O 0.21920(19) 0.58341(16) -0.30233(11) 0.0389(3) Uani 1 1 d .
O2 O 0.0644(2) 0.89960(17) -0.32812(12) 0.0459(3) Uani 1 1 d .
O3 O 0.24028(18) 0.96066(15) 0.00249(10) 0.0342(3) Uani 1 1 d .
O4 O 0.2473(2) 1.08334(15) -0.21205(11) 0.0405(3) Uani 1 1 d .
N1 N 0.28861(18) 0.40354(17) 0.18915(12) 0.0277(3) Uani 1 1 d .
N2 N 0.25206(17) 0.58400(17) 0.09487(11) 0.0241(3) Uani 1 1 d .
H2 H 0.242(3) 0.703(3) 0.109(2) 0.042(5) Uiso 1 1 d .
N3 N 0.25006(18) 0.38977(17) -0.05580(14) 0.0268(3) Uani 1 1 d .
H3A H 0.250(3) 0.372(3) -0.136(2) 0.034(5) Uiso 1 1 d .
H3B H 0.268(3) 0.284(3) 0.013(2) 0.037(5) Uiso 1 1 d .
N4 N 0.16231(19) 0.74816(17) -0.26266(12) 0.0279(3) Uani 1 1 d .
N5 N 0.23049(18) 0.94115(17) -0.11542(12) 0.0262(3) Uani 1 1 d .
C1 C 0.2453(3) 0.6275(3) 0.35202(17) 0.0466(4) Uani 1 1 d .
H1A H 0.3590 0.6974 0.3085 0.070 Uiso 1 1 calc GR
H1B H 0.2371 0.6060 0.4504 0.070 Uiso 1 1 calc GR
H1C H 0.1134 0.7109 0.3247 0.070 Uiso 1 1 calc GR
C2 C 0.2856(2) 0.4266(2) 0.31006(15) 0.0315(3) Uani 1 1 d .
C3 C 0.3281(3) 0.2352(3) 0.41398(18) 0.0446(4) Uani 1 1 d .
H3C H 0.3668 0.1171 0.3697 0.067 Uiso 1 1 calc GR
H3D H 0.2028 0.2249 0.4803 0.067 Uiso 1 1 calc GR
H3E H 0.4427 0.2385 0.4599 0.067 Uiso 1 1 calc GR
C4 C 0.23864(19) 0.57122(19) -0.03094(13) 0.0210(3) Uani 1 1 d .
C5 C 0.2090(2) 0.75426(19) -0.13366(13) 0.0232(3) Uani 1 1 d .
loop_
_atom_site_aniso_label
_atom_site_aniso_U_11
_atom_site_aniso_U_22
_atom_site_aniso_U_33
_atom_site_aniso_U_23
_atom_site_aniso_U_13
_atom_site_aniso_U_12
O1 0.0574(7) 0.0343(6) 0.0308(6) -0.0146(4) -0.0061(5) -0.0125(5)
O2 0.0681(8) 0.0330(6) 0.0403(6) 0.0029(5) -0.0287(6) -0.0107(5)
O3 0.0570(7) 0.0217(5) 0.0287(5) -0.0076(4) -0.0109(5) -0.0108(4)
O4 0.0709(8) 0.0224(5) 0.0304(6) 0.0002(4) -0.0074(5) -0.0190(5)
N1 0.0293(6) 0.0224(6) 0.0300(6) 0.0013(5) -0.0064(5) -0.0069(4)
N2 0.0294(6) 0.0182(6) 0.0254(6) -0.0037(4) -0.0054(4) -0.0056(4)
N3 0.0330(7) 0.0192(6) 0.0312(7) -0.0065(5) -0.0063(5) -0.0080(4)
N4 0.0344(7) 0.0254(6) 0.0266(6) -0.0042(5) -0.0055(5) -0.0109(5)
N5 0.0340(6) 0.0188(5) 0.0266(6) -0.0050(4) -0.0040(5) -0.0066(4)
C1 0.0600(11) 0.0475(10) 0.0283(8) -0.0128(7) -0.0122(7) 0.0058(8)
C2 0.0253(7) 0.0359(8) 0.0298(8) -0.0009(6) -0.0042(6) -0.0046(6)
C3 0.0445(9) 0.0472(9) 0.0346(9) 0.0099(7) -0.0095(7) -0.0095(7)
C4 0.0175(6) 0.0198(6) 0.0271(7) -0.0062(5) -0.0015(5) -0.0060(4)
C5 0.0265(7) 0.0205(6) 0.0242(7) -0.0064(5) -0.0024(5) -0.0066(5)
loop_
_atom_type_symbol
_atom_type_description
_atom_type_scat_dispersion_real
_atom_type_scat_dispersion_imag
_atom_type_scat_source
C C 0.0181 0.0091 'International Tables Vol C Tables 4.2.6.8 and 6.1.1.4'
H H 0.0000 0.0000 'International Tables Vol C Tables 4.2.6.8 and 6.1.1.4'
N N 0.0311 0.0180 'International Tables Vol C Tables 4.2.6.8 and 6.1.1.4'
O O 0.0492 0.0322 'International Tables Vol C Tables 4.2.6.8 and 6.1.1.4'
loop_
_geom_angle_atom_site_label_1
_geom_angle_atom_site_label_2
_geom_angle_atom_site_label_3
_geom_angle
C2 N1 N2 114.81(12)
N1 N2 H2 126.1(13)
C4 N2 N1 117.83(11)
C4 N2 H2 116.0(13)
H3A N3 H3B 121.3(17)
C4 N3 H3A 121.5(13)
C4 N3 H3B 117.0(12)
O1 N4 C5 117.83(11)
O2 N4 O1 122.09(12)
O2 N4 C5 120.04(12)
O3 N5 C5 118.39(11)
O4 N5 O3 120.29(11)
O4 N5 C5 121.27(12)
H1A C1 H1B 109.5
H1A C1 H1C 109.5
H1B C1 H1C 109.5
C2 C1 H1A 109.5
C2 C1 H1B 109.5
C2 C1 H1C 109.5
N1 C2 C1 124.67(13)
N1 C2 C3 116.29(14)
C1 C2 C3 119.04(14)
C2 C3 H3C 109.5
C2 C3 H3D 109.5
C2 C3 H3E 109.5
H3C C3 H3D 109.5
H3C C3 H3E 109.5
H3D C3 H3E 109.5
N2 C4 C5 119.75(11)
N3 C4 N2 117.86(12)
N3 C4 C5 122.38(12)
N4 C5 C4 120.52(11)
N5 C5 N4 116.58(11)
N5 C5 C4 122.86(12)
loop_
_geom_bond_atom_site_label_1
_geom_bond_atom_site_label_2
_geom_bond_distance
O1 N4 1.2431(16)
O2 N4 1.2177(16)
O3 N5 1.2640(15)
O4 N5 1.2342(15)
N1 N2 1.3908(16)
N1 C2 1.283(2)
N2 H2 0.85(2)
N2 C4 1.3360(18)
N3 H3A 0.86(2)
N3 H3B 0.89(2)
N3 C4 1.3157(18)
N4 C5 1.4295(18)
N5 C5 1.3892(18)
C1 H1A 0.9800
C1 H1B 0.9800
C1 H1C 0.9800
C1 C2 1.492(2)
C2 C3 1.499(2)
C3 H3C 0.9800
C3 H3D 0.9800
C3 H3E 0.9800
C4 C5 1.4462(18)
loop_
_geom_hbond_atom_site_label_D
_geom_hbond_atom_site_label_H
_geom_hbond_atom_site_label_A
_geom_hbond_distance_DH
_geom_hbond_distance_HA
_geom_hbond_distance_DA
_geom_hbond_angle_DHA
_geom_hbond_site_symmetry_A
N2 H2 O3 0.85(2) 1.86(2) 2.5405(15) 136.4(18) .
N3 H3A O1 0.86(2) 1.98(2) 2.5971(17) 127.8(16) .
N3 H3B O3 0.89(2) 2.312(19) 2.8970(15) 122.9(15) 1_545
loop_
_geom_torsion_atom_site_label_1
_geom_torsion_atom_site_label_2
_geom_torsion_atom_site_label_3
_geom_torsion_atom_site_label_4
_geom_torsion
O1 N4 C5 N5 152.72(12)
O1 N4 C5 C4 -25.23(18)
O2 N4 C5 N5 -29.41(19)
O2 N4 C5 C4 152.64(13)
O3 N5 C5 N4 169.46(11)
O3 N5 C5 C4 -12.6(2)
O4 N5 C5 N4 -13.1(2)
O4 N5 C5 C4 164.79(13)
N1 N2 C4 N3 3.45(17)
N1 N2 C4 C5 -177.56(11)
N2 N1 C2 C1 0.4(2)
N2 N1 C2 C3 -178.95(12)
N2 C4 C5 N4 -170.32(12)
N2 C4 C5 N5 11.86(19)
N3 C4 C5 N4 8.63(19)
N3 C4 C5 N5 -169.19(13)
C2 N1 N2 C4 -175.42(12)
loop_
_refln_index_h
_refln_index_k
_refln_index_l
_refln_F_squared_meas
_refln_F_squared_sigma
-1 0 0 23.12 0.58
-1 0 0 23.67 0.64
1 0 0 24.69 0.64
-2 0 0 982.46 23.51
-2 0 0 978.85 21.97
2 0 0 1000 23.59
-3 0 0 1.85 0.14
-3 0 0 2.03 0.12
-4 0 0 125.95 2.85
-4 0 0 124.93 2.73
-5 0 0 0.45 0.12
-6 0 0 13.25 0.48
-6 0 0 14.16 0.46
-6 0 0 13.85 0.52
6 0 0 13.82 0.49
6 0 0 14.2 0.44
-7 0 0 0.45 0.13
-7 0 0 0.39 0.08
7 0 0 0.38 0.08
7 0 0 0.15 0.16
7 -1 0 0.63 0.08
7 -1 0 0.6 0.16
7 -1 0 0.59 0.1
-7 1 0 0.79 0.14
6 -1 0 1.12 0.17
6 -1 0 1.58 0.23
-6 1 0 1.17 0.2
-6 1 0 1.27 0.2
-6 1 0 0.99 0.15
5 -1 0 -0.08 0.12
5 -1 0 0.1 0.1
-5 1 0 0 0.13
-5 1 0 0.17 0.16
-5 1 0 0.12 0.1
-4 1 0 1.26 0.18
-3 1 0 0.02 0.09
2 -1 0 0.58 0.1
-2 1 0 0.93 0.13
1 -1 0 3.87 0.17
-1 1 0 3.86 0.17
0 -1 0 38.67 0.95
0 1 0 38.64 0.95
-1 -1 0 92.51 2.24
1 1 0 92.59 2.24
-2 -1 0 337.8 8.16
-2 -1 0 345.38 7.6
2 1 0 342.85 8.16
-3 -1 0 2.13 0.14
-3 -1 0 2.37 0.16
3 1 0 2.37 0.14
-4 -1 0 55.11 1.3
-4 -1 0 53.39 1.26
-5 -1 0 3.73 0.26
-5 -1 0 3.95 0.28
-6 -1 0 8.94 0.38
-6 -1 0 9.4 0.47
-6 -1 0 9.01 0.29
-6 -1 0 9.28 0.4
6 1 0 9.77 0.43
6 1 0 8.95 0.45
6 1 0 8.79 0.34
6 1 0 9.31 0.3
-7 -1 0 1.72 0.22
-7 -1 0 1.82 0.2
7 1 0 2.27 0.22
7 1 0 1.93 0.27
8 1 0 1.32 0.12
7 -2 0 0.34 0.1
7 -2 0 0.16 0.07
7 -2 0 0.18 0.12
-7 2 0 0.24 0.1
-7 2 0 0.26 0.12
6 -2 0 2.6 0.26
6 -2 0 2.75 0.21
-6 2 0 2.08 0.25
-6 2 0 2.39 0.22
5 -2 0 0.3 0.1
-5 2 0 0.12 0.18
-5 2 0 0.17 0.1
-5 2 0 0.09 0.17
-5 2 0 -0.07 0.15
-4 2 0 3.93 0.27
-4 2 0 3.92 0.33
-3 2 0 1.01 0.15
-3 2 0 1.1 0.16
-2 2 0 28.38 0.68
1 -2 0 2.25 0.16
-1 2 0 2.22 0.15
0 -2 0 45.58 1.15
0 -2 0 45.44 1.16
-1 -2 0 0.99 0.12
1 2 0 0.81 0.13
2 2 0 51.77 1.14
2 2 0 50.19 1.31
-3 -2 0 17.06 0.46
3 2 0 16.76 0.46
-4 -2 0 102.24 2.37
-4 -2 0 102.02 2.23
4 2 0 102.16 2.25
5 2 0 0.02 0.15
-6 -2 0 23.23 0.79
-6 -2 0 22.85 0.6
6 2 0 23.8 0.71
6 2 0 23.54 0.77
-7 -2 0 0.29 0.19
-7 -2 0 0.31 0.16
-7 -2 0 0.1 0.11
7 2 0 0.33 0.17
7 2 0 0.24 0.12
-8 -2 0 4.25 0.2
-8 -2 0 4.28 0.15
6 -3 0 5.33 0.25
6 -3 0 5.57 0.31
-6 3 0 5.63 0.23
-6 3 0 5.81 0.28
5 -3 0 2.03 0.19
-5 3 0 2.56 0.23
-5 3 0 2.17 0.26
-5 3 0 2.02 0.19
4 -3 0 3.39 0.21
-4 3 0 3.45 0.27
-4 3 0 3.98 0.27
-4 3 0 3.25 0.34
-4 3 0 3.56 0.27
-3 3 0 -0.1 0.11
-3 3 0 0.02 0.12
-3 3 0 -0.01 0.1
-2 3 0 22.8 0.62
-1 3 0 3.38 0.2
0 3 0 21.11 0.56
0 3 0 20.77 0.54
1 3 0 1.61 0.13
2 3 0 15.88 0.44
3 3 0 0.74 0.12
-4 -3 0 6.44 0.27
4 3 0 6.58 0.26
4 3 0 6.56 0.29
5 3 0 8.11 0.34
5 3 0 8.68 0.35
5 3 0 8.32 0.34
5 3 0 8.47 0.34
5 3 0 8.32 0.42
5 3 0 8.77 0.36
-6 -3 0 1.76 0.25
-6 -3 0 1.64 0.19
6 3 0 1.86 0.27
6 3 0 1.29 0.2
-7 -3 0 1.5 0.23
-7 -3 0 1.5 0.14
7 3 0 1.62 0.27
7 3 0 1.7 0.14
6 -4 0 5.8 0.22
6 -4 0 6.29 0.28
5 -4 0 1.29 0.15
-5 4 0 1.09 0.15
-5 4 0 1.15 0.16
4 -4 0 13.82 0.43
-4 4 0 14.09 0.49
-4 4 0 15.1 0.56
-4 4 0 15.7 0.49
-4 4 0 14.96 0.43
-3 4 0 4.62 0.27
-3 4 0 3.97 0.32
-3 4 0 4.25 0.29
-3 4 0 4.39 0.25
-3 4 0 4.21 0.24
-3 4 0 4.37 0.27
-3 4 0 4.23 0.22
-3 4 0 4.03 0.26
-2 4 0 4.8 0.28
-2 4 0 5.16 0.32
-2 4 0 5.22 0.23
-1 4 0 1.22 0.18
-1 4 0 1.63 0.15
0 -4 0 13.47 0.4
0 4 0 12.65 0.42
1 4 0 -0.01 0.09
1 4 0 0.07 0.09
2 4 0 2.55 0.13
2 4 0 2.52 0.19
2 4 0 2.24 0.19
3 4 0 1.3 0.12
3 4 0 1.34 0.19
4 4 0 1.81 0.15
4 4 0 1.7 0.24
4 4 0 1.73 0.22
-5 -4 0 1.42 0.21
5 4 0 1.3 0.19
5 4 0 1.85 0.2
5 4 0 1.18 0.18
5 4 0 1.23 0.13
5 4 0 1.45 0.25
5 4 0 1.51 0.21
5 4 0 1.17 0.19
-6 -4 0 3.21 0.22
-6 -4 0 3.38 0.3
6 4 0 3.16 0.26
6 4 0 3.25 0.23
6 4 0 3.08 0.29
-7 -4 0 0.03 0.06
-7 -4 0 0.34 0.16
7 4 0 -0.06 0.09
7 4 0 0 0.13
5 -5 0 1.89 0.12
-5 5 0 1.6 0.13
4 -5 0 19.54 0.49
-4 5 0 17.68 0.53
-4 5 0 18.1 0.5
-3 5 0 6.3 0.29
-3 5 0 6.59 0.3
-3 5 0 6.4 0.37
-3 5 0 5.89 0.27
-3 5 0 6.17 0.34
-3 5 0 5.47 0.26
-2 5 0 44.87 1.11
-2 5 0 46.59 1.04
-2 5 0 46.19 1.2
-2 5 0 45.6 1.07
-2 5 0 44.85 1.26
-2 5 0 44.81 1.24
-2 5 0 45.88 1.1
-1 5 0 25.87 0.65
-1 5 0 25.57 0.62
-1 5 0 26.13 0.82
-1 5 0 25.25 0.75
-1 5 0 25.32 0.67
-1 5 0 25.39 0.79
0 5 0 14.91 0.51
0 5 0 14.05 0.41
0 5 0 14.84 0.55
-1 -5 0 8.09 0.33
1 5 0 8.33 0.4
1 5 0 7.96 0.27
1 5 0 8.86 0.37
2 5 0 7.1 0.33
2 5 0 6.46 0.24
2 5 0 6.3 0.38
2 5 0 6.42 0.32
3 5 0 8.33 0.3
3 5 0 8.39 0.28
3 5 0 8.28 0.3
3 5 0 7.89 0.4
3 5 0 8.47 0.3
3 5 0 8.79 0.37
-4 -5 0 0.32 0.17
4 5 0 0.12 0.09
4 5 0 -0.17 0.11
4 5 0 0.02 0.08
4 5 0 0.1 0.1
4 5 0 0.04 0.15
4 5 0 0.02 0.09
-5 -5 0 1.81 0.3
5 5 0 1.9 0.18
5 5 0 2.17 0.27
5 5 0 1.74 0.2
5 5 0 1.98 0.18
5 5 0 1.48 0.2
5 5 0 1.5 0.17
-6 -5 0 0.44 0.1
-6 -5 0 0.95 0.18
6 5 0 0.55 0.11
6 5 0 0.37 0.16
6 5 0 0.45 0.13
6 5 0 0.67 0.12
6 5 0 0.43 0.13
-7 -5 0 0.27 0.07
7 5 0 0.35 0.12
7 5 0 0.28 0.09
7 5 0 0.13 0.07
4 -6 0 2.62 0.12
-4 6 0 2.69 0.12
-4 6 0 2.78 0.16
3 -6 0 1.59 0.17
-3 6 0 1.88 0.15
-3 6 0 1.58 0.18
-3 6 0 1.63 0.23
-3 6 0 1.71 0.15
-3 6 0 1.63 0.14
-2 6 0 22.06 0.59
-2 6 0 21.62 0.59
-2 6 0 21 0.69
-2 6 0 21.22 0.59
-2 6 0 21.2 0.7
-2 6 0 21.6 0.53
-2 6 0 21.62 0.67
-2 6 0 20.49 0.57
-1 6 0 2.39 0.29
-1 6 0 2.04 0.17
-1 6 0 1.91 0.26
-1 6 0 2.26 0.18
-1 6 0 1.76 0.25
-1 6 0 2.29 0.18
-1 6 0 2.16 0.18
0 6 0 69.52 1.78
0 6 0 67.44 1.57
0 6 0 68.61 1.49
0 6 0 67.42 1.42
0 6 0 68.45 1.74
0 6 0 67.45 1.67
1 6 0 0.27 0.09
1 6 0 0.4 0.18
1 6 0 0.22 0.15
1 6 0 0.09 0.1
1 6 0 0.45 0.09
1 6 0 0.37 0.18
1 6 0 0.34 0.1
2 6 0 43.61 1.22
2 6 0 42.84 1.05
2 6 0 43.04 1
2 6 0 45.11 1.04
2 6 0 44.16 0.95
2 6 0 44.68 1.16
-3 -6 0 0.15 0.15
3 6 0 0.23 0.09
3 6 0 0.37 0.17
3 6 0 0.23 0.09
3 6 0 0.4 0.11
3 6 0 0.22 0.08
-4 -6 0 24.65 0.73
4 6 0 24.84 0.78
4 6 0 25.4 0.66
4 6 0 25.07 0.59
4 6 0 24.76 0.66
4 6 0 24.8 0.64
5 6 0 0 0.1
5 6 0 0.03 0.18
5 6 0 -0.03 0.09
5 6 0 0.15 0.08
5 6 0 0.14 0.1
-6 -6 0 4.72 0.19
6 6 0 4.82 0.17
6 6 0 5.1 0.22
6 6 0 4.97 0.29
6 6 0 4.77 0.21
2 -7 0 0.58 0.08
-2 7 0 0.8 0.12
-2 7 0 0.66 0.09
-2 7 0 0.46 0.16
-2 7 0 0.47 0.13
-1 7 0 1.02 0.15
-1 7 0 1.12 0.14
-1 7 0 0.92 0.08
-1 7 0 1.16 0.18
-1 7 0 1.32 0.22
-1 7 0 1.17 0.14
0 7 0 0.11 0.16
0 7 0 0.12 0.08
0 7 0 0.18 0.14
0 7 0 0.16 0.16
0 7 0 0.05 0.08
0 7 0 0.12 0.09
1 7 0 0.5 0.18
1 7 0 0.62 0.15
1 7 0 0.82 0.2
1 7 0 0.74 0.11
1 7 0 0.64 0.09
2 7 0 5.95 0.24
2 7 0 6.2 0.24
2 7 0 5.44 0.34
2 7 0 5.98 0.22
2 7 0 5.51 0.31
3 7 0 3.71 0.19
3 7 0 3.73 0.18
3 7 0 3.7 0.2
3 7 0 3.54 0.29
4 7 0 2.4 0.15
4 7 0 2.29 0.24
4 7 0 2.35 0.16
4 7 0 2.29 0.15
5 7 0 0.86 0.12
5 7 0 0.82 0.11
5 7 0 0.96 0.17
0 8 0 0.07 0.05
0 8 0 -0.09 0.11
0 8 0 0.2 0.09
1 8 0 2.76 0.19
1 8 0 2.67 0.19
1 8 0 2.66 0.13
2 8 0 1.66 0.21
2 8 0 1.55 0.11
3 8 0 3.65 0.21
3 8 0 4.01 0.15
2 8 -1 0.62 0.09
1 8 -1 -0.04 0.05
5 7 -1 4.38 0.16
5 7 -1 4.29 0.18
5 7 -1 4.15 0.22
-5 -7 1 4.38 0.17
4 7 -1 2.64 0.16
4 7 -1 2.85 0.27
4 7 -1 2.83 0.16
4 7 -1 2.63 0.17
3 7 -1 3.34 0.17
3 7 -1 2.87 0.18
3 7 -1 3.04 0.12
3 7 -1 3.18 0.27
3 7 -1 3.12 0.18
2 7 -1 0.08 0.15
2 7 -1 -0.05 0.1
2 7 -1 0.14 0.07
2 7 -1 0.01 0.08
2 7 -1 -0.05 0.09
1 7 -1 4.25 0.21
1 7 -1 4.77 0.31
1 7 -1 4.83 0.16
1 7 -1 4.78 0.22
1 7 -1 5.03 0.33
0 7 -1 1.19 0.21
0 7 -1 0.73 0.1
0 7 -1 1.09 0.17
0 7 -1 0.76 0.12
0 7 -1 0.6 0.11
-1 7 -1 9.95 0.39
-1 7 -1 10.32 0.26
-1 7 -1 10.37 0.31
-1 7 -1 10.01 0.32
-1 7 -1 9.59 0.32
-1 7 -1 10.6 0.41
-2 7 -1 0.21 0.13
-2 7 -1 0.36 0.12
-2 7 -1 0.21 0.07
-2 7 -1 0.09 0.07
2 -7 1 0.23 0.06
6 6 -1 14.16 0.34
6 6 -1 13.82 0.39
6 6 -1 14.39 0.38
6 6 -1 14.55 0.45
-6 -6 1 14.26 0.37
5 6 -1 -0.09 0.08
5 6 -1 -0.24 0.09
5 6 -1 -0.02 0.14
5 6 -1 0.1 0.08
5 6 -1 -0.06 0.1
-5 -6 1 -0.09 0.09
4 6 -1 20.89 0.58
4 6 -1 21.56 0.6
4 6 -1 21.24 0.59
4 6 -1 21.26 0.53
4 6 -1 21.54 0.69
3 6 -1 0.03 0.1
3 6 -1 0.14 0.11
3 6 -1 -0.03 0.09
3 6 -1 0.11 0.15
3 6 -1 -0.04 0.09
3 6 -1 0.09 0.16
-3 -6 1 0.19 0.15
2 6 -1 27.1 0.83
2 6 -1 26.49 0.82
2 6 -1 26.72 0.69
2 6 -1 26.46 0.7
2 6 -1 26.14 0.79
2 6 -1 25.84 0.63
2 6 -1 26.12 0.67
-2 -6 1 26.39 0.76
1 6 -1 4.6 0.23
1 6 -1 4.37 0.21
1 6 -1 4.14 0.22
1 6 -1 4.18 0.33
1 6 -1 4.31 0.32
1 6 -1 4.42 0.22
1 6 -1 4.36 0.29
-1 -6 1 4.07 0.31
0 6 -1 4.81 0.25
0 6 -1 4.98 0.3
0 6 -1 4.93 0.24
0 6 -1 5.36 0.38
0 6 -1 4.87 0.23
0 6 -1 5.05 0.25
0 6 -1 4.73 0.33
-1 6 -1 5.8 0.24
-1 6 -1 5.92 0.35
-1 6 -1 5.81 0.33
-1 6 -1 5.87 0.26
-1 6 -1 5.14 0.35
-1 6 -1 5.68 0.25
-2 6 -1 0.03 0.16
-2 6 -1 0.27 0.16
-2 6 -1 0.2 0.1
-2 6 -1 0.05 0.09
-2 6 -1 0.22 0.11
-2 6 -1 0.12 0.1
-3 6 -1 0.29 0.11
-3 6 -1 0.2 0.09
-3 6 -1 0.36 0.12
-3 6 -1 0.37 0.18
-3 6 -1 0.2 0.09
3 -6 1 0.26 0.08
-4 6 -1 -0.01 0.06
4 -6 1 0.01 0.06
7 5 -1 1.8 0.12
-7 -5 1 1.65 0.11
6 5 -1 0.93 0.13
6 5 -1 1.08 0.16
6 5 -1 1 0.17
-6 -5 1 1.22 0.14
-6 -5 1 1 0.17
5 5 -1 14.62 0.47
5 5 -1 14 0.44
5 5 -1 14.57 0.47
5 5 -1 14.17 0.56
5 5 -1 14.54 0.46
-5 -5 1 14.19 0.43
-5 -5 1 14.89 0.56
-5 -5 1 12.98 0.49
4 5 -1 12.66 0.4
4 5 -1 12.51 0.42
4 5 -1 13.08 0.41
4 5 -1 12.2 0.48
4 5 -1 13 0.42
4 5 -1 13.32 0.52
3 5 -1 31.29 0.81
3 5 -1 31.79 0.89
3 5 -1 31.21 0.88
3 5 -1 31.97 0.76
3 5 -1 31.85 0.8
3 5 -1 30.95 0.78
3 5 -1 31.62 0.93
2 5 -1 17.52 0.62
2 5 -1 16.92 0.49
2 5 -1 17.52 0.47
2 5 -1 17.26 0.49
2 5 -1 17.43 0.5
2 5 -1 18.23 0.58
-2 -5 1 18.25 0.56
1 5 -1 78.65 1.85
1 5 -1 75.4 1.9
1 5 -1 74.38 1.71
-1 -5 1 78.53 1.79
0 5 -1 33.93 0.99
0 5 -1 33.29 0.81
0 5 -1 33.01 0.83
0 5 -1 33.68 0.83
0 5 -1 32.96 0.96
0 5 -1 33.5 0.92
0 5 -1 33.68 0.78
0 -5 1 32.97 0.89
-1 5 -1 32.35 0.89
-1 5 -1 30.84 0.8
-1 5 -1 32.42 0.79
-1 5 -1 30.58 0.75
-1 5 -1 31.87 0.94
-1 5 -1 30.7 0.92
-1 5 -1 32.09 0.81
-2 5 -1 9.78 0.33
-2 5 -1 10.49 0.37
-2 5 -1 10.54 0.38
-2 5 -1 9.78 0.45
-2 5 -1 9.67 0.45
-2 5 -1 11 0.38
-2 5 -1 10.06 0.37
-2 5 -1 10.43 0.44
-3 5 -1 7.5 0.37
-3 5 -1 7.19 0.3
-3 5 -1 7.37 0.39
-3 5 -1 7.61 0.32
-3 5 -1 7.75 0.26
-3 5 -1 7.56 0.32
-3 5 -1 7.31 0.32
3 -5 1 7.62 0.3
-4 5 -1 0.79 0.15
-4 5 -1 0.43 0.15
-4 5 -1 0.46 0.17
4 -5 1 0.55 0.09
-5 5 -1 3.37 0.16
7 4 -1 1.99 0.21
7 4 -1 1.97 0.18
-7 -4 1 1.81 0.12
6 4 -1 1.05 0.19
6 4 -1 0.91 0.14
-6 -4 1 0.96 0.14
-6 -4 1 0.92 0.19
5 4 -1 5.69 0.24
5 4 -1 5.76 0.3
5 4 -1 5.47 0.29
5 4 -1 5.89 0.28
5 4 -1 5.73 0.32
5 4 -1 5.51 0.35
5 4 -1 5.81 0.31
-5 -4 1 5.69 0.37
-5 -4 1 5.87 0.28
4 4 -1 1.83 0.24
4 4 -1 1.43 0.19
4 4 -1 1.45 0.16
4 4 -1 1.6 0.17
4 4 -1 1.3 0.18
4 4 -1 1.77 0.2
4 4 -1 1.4 0.17
-4 -4 1 1.67 0.26
3 4 -1 1.84 0.18
3 4 -1 1.71 0.14
3 4 -1 1.45 0.22
-3 -4 1 1.38 0.22
2 4 -1 21.45 0.56
2 4 -1 21.58 0.63
2 4 -1 22.13 0.62
1 4 -1 2.5 0.2
1 4 -1 2.67 0.15
-1 -4 1 2.48 0.2
0 4 -1 9.41 0.3
0 4 -1 9.29 0.36
0 -4 1 9.4 0.34
-1 4 -1 11.38 0.35
-1 4 -1 10.94 0.41
-2 4 -1 10.33 0.44
-2 4 -1 10.61 0.36
-2 4 -1 10.72 0.41
-3 4 -1 4.7 0.26
-3 4 -1 4.6 0.26
-3 4 -1 4.84 0.28
-3 4 -1 4.79 0.36
-3 4 -1 4.44 0.27
-3 4 -1 4.35 0.23
-3 4 -1 4.76 0.27
-3 4 -1 4.81 0.27
-3 4 -1 4.43 0.26
-4 4 -1 1.13 0.2
-4 4 -1 0.76 0.24
-4 4 -1 1.16 0.17
-4 4 -1 1.19 0.16
4 -4 1 1.44 0.18
-5 4 -1 1.07 0.17
5 -4 1 1.11 0.14
6 -4 1 0.29 0.08
6 -4 1 0.4 0.1
7 3 -1 1.39 0.21
7 3 -1 1.06 0.12
-7 -3 1 1.03 0.17
-7 -3 1 0.88 0.12
-7 -3 1 0.57 0.17
6 3 -1 1.63 0.25
6 3 -1 1.77 0.19
-6 -3 1 1.72 0.17
-6 -3 1 1.56 0.26
5 3 -1 -0.13 0.11
5 3 -1 -0.2 0.18
-5 -3 1 0.05 0.13
-5 -3 1 -0.01 0.1
4 3 -1 1.9 0.19
4 3 -1 1.61 0.16
-4 -3 1 1.7 0.19
3 3 -1 2.01 0.18
3 3 -1 1.97 0.18
2 3 -1 -0.03 0.09
2 3 -1 0 0.09
1 3 -1 0.98 0.12
1 3 -1 0.98 0.15
0 3 -1 17.12 0.49
0 -3 1 17.39 0.47
-1 3 -1 0.24 0.11
1 -3 1 0.1 0.09
-2 3 -1 0.95 0.15
-3 3 -1 11.98 0.43
-3 3 -1 12.47 0.41
-4 3 -1 3.71 0.32
-4 3 -1 3.21 0.28
-4 3 -1 3.41 0.3
4 -3 1 3.66 0.23
-5 3 -1 5.17 0.32
-5 3 -1 5.75 0.31
5 -3 1 5.55 0.24
-6 3 -1 0.75 0.15
-6 3 -1 0.76 0.13
6 -3 1 0.99 0.18
6 -3 1 0.76 0.11
7 2 -1 0.41 0.13
7 2 -1 -0.12 0.14
-7 -2 1 0.51 0.13
-7 -2 1 0.19 0.15
-7 -2 1 0.38 0.15
6 2 -1 4.74 0.29
6 2 -1 4.55 0.38
-6 -2 1 5.03 0.35
-6 -2 1 4.68 0.22
5 2 -1 0.25 0.12
5 2 -1 0.63 0.2
5 2 -1 0.23 0.12
-5 -2 1 0.32 0.11
-5 -2 1 0.33 0.16
4 2 -1 0.34 0.1
-4 -2 1 0.26 0.1
3 2 -1 4.78 0.21
3 2 -1 4.82 0.24
-3 -2 1 4.97 0.21
2 2 -1 0.26 0.08
2 2 -1 0.1 0.08
1 2 -1 31.11 0.84
1 2 -1 31.75 0.74
-1 -2 1 31.81 0.85
0 -2 1 49.56 1.25
0 -2 1 49 1.25
1 -2 1 6.13 0.25
-2 2 -1 2.14 0.15
-3 2 -1 7.18 0.28
-4 2 -1 8.03 0.38
-4 2 -1 7.57 0.34
-5 2 -1 1.24 0.14
-5 2 -1 1.58 0.22
-5 2 -1 1.49 0.22
-5 2 -1 1.39 0.17
5 -2 1 1.23 0.16
-6 2 -1 0.71 0.17
-6 2 -1 0.66 0.18
6 -2 1 0.53 0.13
6 -2 1 0.68 0.15
-7 2 -1 1.55 0.16
-7 2 -1 1.62 0.14
7 -2 1 1.95 0.16
7 -2 1 1.58 0.1
7 -2 1 1.53 0.19
7 1 -1 0.03 0.13
7 1 -1 0.1 0.15
-7 -1 1 0.24 0.14
-7 -1 1 0.2 0.09
6 1 -1 11.14 0.46
6 1 -1 10.77 0.33
6 1 -1 10.66 0.49
6 1 -1 10.63 0.38
-6 -1 1 10.69 0.48
-6 -1 1 11.03 0.44
-6 -1 1 10.98 0.49
-6 -1 1 10.68 0.41
5 1 -1 1.64 0.26
5 1 -1 1.79 0.23
5 1 -1 1.8 0.2
-5 -1 1 1.45 0.17
-5 -1 1 1.48 0.22
-5 -1 1 2 0.22
-4 -1 1 18.09 0.5
-4 -1 1 17.99 0.6
-4 -1 1 18.18 0.52
-3 -1 1 1.31 0.14
-3 -1 1 1.31 0.13
2 1 -1 22.8 0.65
-2 -1 1 23.42 0.57
-2 -1 1 22.57 0.64
1 1 -1 16.36 0.45
-1 -1 1 16.27 0.46
0 -1 1 80.95 2.02
0 -1 1 86.46 2.02
-1 1 -1 78.45 1.95
1 -1 1 81.28 1.95
-2 1 -1 6.34 0.25
2 -1 1 6.64 0.26
-3 1 -1 15.58 0.45
-4 1 -1 7.26 0.3
-5 1 -1 10.97 0.42
-5 1 -1 10.33 0.37
-5 1 -1 9.81 0.41
5 -1 1 10.02 0.31
5 -1 1 9.76 0.45
-6 1 -1 -0.07 0.12
-6 1 -1 0.04 0.15
-6 1 -1 0.05 0.09
6 -1 1 0.01 0.12
6 -1 1 -0.15 0.1
-7 1 -1 0.37 0.14
7 -1 1 0.35 0.15
7 -1 1 0.4 0.11
7 -1 1 0.3 0.07
7 0 -1 0.31 0.16
7 0 -1 0.49 0.09
-7 0 1 0.39 0.12
6 0 -1 30.44 0.87
6 0 -1 30.44 0.78
6 0 -1 30.54 0.93
-6 0 1 31.28 0.79
-6 0 1 30.5 0.87
-6 0 1 30.14 0.84
5 0 -1 1.1 0.2
5 0 -1 0.68 0.15
-5 0 1 0.96 0.15
-5 0 1 0.75 0.17
-5 0 1 0.68 0.19
-4 0 1 114.11 2.53
-4 0 1 118.75 2.64
-4 0 1 114.87 2.87
-3 0 1 4.96 0.18
-3 0 1 4.53 0.21
2 0 -1 509.66 12.08
-2 0 1 507.34 11.3
-2 0 1 507.65 12.08
1 0 -1 30.38 0.75
-1 0 1 29.15 0.75
-1 0 1 29.26 0.68
0 0 -1 135.81 3.22
0 0 1 136.42 3.22
-1 0 -1 40.89 0.96
-1 0 -1 42.09 1.03
1 0 1 44.42 1.04
-2 0 -1 6.14 0.19
-2 0 -1 6.37 0.23
2 0 1 6.54 0.24
-3 0 -1 8.94 0.27
-3 0 -1 9.19 0.3
3 0 1 8.66 0.26
-4 0 -1 4.39 0.24
-5 0 -1 6 0.32
-6 0 -1 0.06 0.13
-6 0 -1 -0.06 0.16
-6 0 -1 -0.02 0.1
6 0 1 0.04 0.09
6 0 1 -0.13 0.13
-7 0 -1 0.43 0.13
-7 0 -1 0.39 0.1
7 0 1 0.29 0.16
7 0 1 0.23 0.13
7 -1 -1 -0.13 0.13
7 -1 -1 0.07 0.1
7 -1 -1 -0.06 0.06
-7 1 1 -0.22 0.12
-7 1 1 -0.07 0.12
6 -1 -1 0.03 0.16
6 -1 -1 -0.01 0.12
-6 1 1 0.06 0.08
-6 1 1 -0.01 0.11
-6 1 1 -0.11 0.13
-6 1 1 0.12 0.14
5 -1 -1 1.73 0.21
5 -1 -1 1.43 0.19
-5 1 1 1.56 0.18
-5 1 1 1.36 0.2
-5 1 1 1.54 0.22
-4 1 1 1.47 0.2
-3 1 1 12.61 0.39
-3 1 1 12.56 0.38
2 -1 -1 3.84 0.2
1 -1 -1 234.24 5.57
-1 1 1 232.81 5.57
0 -1 -1 93.77 2.24
-1 -1 -1 99.55 2.43
1 1 1 102.73 2.43
-2 -1 -1 4.8 0.16
-2 -1 -1 4.58 0.19
2 1 1 5.06 0.21
-3 -1 -1 27.73 0.67
-3 -1 -1 29.12 0.68
3 1 1 26.44 0.66
3 1 1 27.76 0.79
-4 -1 -1 12.81 0.4
-4 -1 -1 12.91 0.38
4 1 1 12.99 0.38
-5 -1 -1 8.61 0.31
-5 -1 -1 9.06 0.35
-6 -1 -1 1.48 0.21
-6 -1 -1 1.34 0.15
-6 -1 -1 1.35 0.19
6 1 1 1.44 0.25
6 1 1 1.13 0.18
6 1 1 1.22 0.13
6 1 1 1.28 0.19
-7 -1 -1 0.32 0.15
-7 -1 -1 0.35 0.11
7 1 1 -0.01 0.15
7 1 1 0.12 0.12
-8 -1 -1 0.14 0.09
8 1 1 0.18 0.08
7 -2 -1 1.01 0.1
7 -2 -1 1.37 0.15
7 -2 -1 0.62 0.13
-7 2 1 1.09 0.11
6 -2 -1 1.15 0.18
6 -2 -1 1.08 0.18
-6 2 1 1.05 0.16
-6 2 1 1.38 0.25
5 -2 -1 2.98 0.18
-5 2 1 3 0.29
-5 2 1 2.65 0.28
-5 2 1 2.46 0.28
-4 2 1 6.64 0.31
-3 2 1 9.85 0.34
-3 2 1 9.54 0.34
-2 2 1 47.18 1.09
-2 2 1 44.67 1.05
1 -2 -1 60.84 1.54
-1 2 1 62.12 1.55
0 -2 -1 82.74 2.02
-1 -2 -1 0.04 0.06
1 2 1 0.17 0.07
-2 -2 -1 190.7 4.61
2 2 1 193.49 4.6
2 2 1 188.99 4.04
-3 -2 -1 7.05 0.25
3 2 1 7.17 0.26
-4 -2 -1 14.62 0.43
-4 -2 -1 14.27 0.44
4 2 1 14.74 0.43
-5 -2 -1 1.13 0.16
5 2 1 0.8 0.21
-6 -2 -1 0.03 0.14
-6 -2 -1 -0.04 0.13
6 2 1 0.12 0.2
6 2 1 0.4 0.13
-7 -2 -1 -0.08 0.08
-7 -2 -1 -0.07 0.11
7 2 1 0.49 0.12
7 2 1 -0.11 0.14
-8 -2 -1 0.3 0.1
-8 -2 -1 0.42 0.08
6 -3 -1 0.02 0.1
6 -3 -1 0.19 0.13
-6 3 1 0 0.09
-6 3 1 -0.06 0.09
5 -3 -1 0.08 0.08
-5 3 1 0.19 0.11
-5 3 1 0.31 0.15
-5 3 1 0.11 0.12
4 -3 -1 2.17 0.19
-4 3 1 2.25 0.25
-4 3 1 1.74 0.22
-4 3 1 1.81 0.32
-4 3 1 2.08 0.23
-4 3 1 1.87 0.21
-3 3 1 0.05 0.12
-3 3 1 0.13 0.12
-3 3 1 0.19 0.1
-2 3 1 11.66 0.37
-2 3 1 11.49 0.39
-1 3 1 -0.05 0.09
0 3 1 14.05 0.38
-1 -3 -1 1.7 0.17
1 3 1 1.63 0.13
2 3 1 32.95 0.8
3 3 1 30.07 0.76
4 3 1 0.23 0.08
4 3 1 0.19 0.1
5 3 1 6.61 0.28
5 3 1 5.74 0.36
5 3 1 6.47 0.3
5 3 1 6.23 0.28
5 3 1 6.29 0.28
-6 -3 -1 0.14 0.15
6 3 1 -0.07 0.1
6 3 1 -0.03 0.16
6 3 1 -0.1 0.14
-7 -3 -1 2.3 0.3
-7 -3 -1 2.6 0.18
7 3 1 2.66 0.26
7 3 1 2.73 0.15
-8 -3 -1 0.21 0.11
-8 -3 -1 0.31 0.09
6 -4 -1 0.04 0.06
5 -4 -1 0.21 0.08
-5 4 1 0.45 0.09
-5 4 1 0.35 0.12
4 -4 -1 3.86 0.22
-4 4 1 3.34 0.24
-4 4 1 4 0.23
-4 4 1 3.73 0.17
-4 4 1 3.84 0.24
-4 4 1 3.79 0.28
-4 4 1 3.52 0.24
-4 4 1 3.75 0.32
-4 4 1 4.29 0.27
-3 4 1 1.23 0.2
-3 4 1 1.44 0.18
-3 4 1 1.19 0.14
-3 4 1 1.59 0.2
-3 4 1 1.19 0.18
-3 4 1 1.29 0.17
-3 4 1 1.32 0.15
-3 4 1 1.45 0.2
-2 4 1 5.94 0.24
-2 4 1 6.09 0.31
-1 4 1 2.83 0.21
0 4 1 7.31 0.3
1 4 1 5.94 0.24
1 4 1 5.81 0.25
2 4 1 5.04 0.24
2 4 1 5.15 0.24
3 4 1 10.71 0.38
3 4 1 10.35 0.3
4 4 1 1.72 0.14
4 4 1 1.55 0.22
4 4 1 1.78 0.21
5 4 1 0.38 0.1
5 4 1 0.53 0.13
5 4 1 0.3 0.16
5 4 1 0.4 0.11
5 4 1 0.38 0.1
5 4 1 0.38 0.11
-6 -4 -1 -0.2 0.14
6 4 1 0.08 0.1
6 4 1 0.18 0.1
6 4 1 0.06 0.12
6 4 1 -0.07 0.12
6 4 1 0.3 0.1
6 4 1 -0.02 0.14
-7 -4 -1 0.31 0.15
-7 -4 -1 0.35 0.08
7 4 1 0.31 0.1
7 4 1 0.19 0.13
5 -5 -1 1.61 0.12
-5 5 1 1.58 0.12
4 -5 -1 4.73 0.21
-4 5 1 5.23 0.25
-4 5 1 5.28 0.25
-4 5 1 4.82 0.25
-4 5 1 5.8 0.27
-3 5 1 9.64 0.34
-3 5 1 9.15 0.44
-3 5 1 9.75 0.36
-3 5 1 9.78 0.36
-3 5 1 9.06 0.35
-3 5 1 9.12 0.41
-2 5 1 0.62 0.11
-2 5 1 0.49 0.11
-2 5 1 0.54 0.13
-2 5 1 0.54 0.1
-2 5 1 0.6 0.18
-2 5 1 0.51 0.18
-2 5 1 0.81 0.18
-1 5 1 5.11 0.23
-1 5 1 5.07 0.21
-1 5 1 5.35 0.31
-1 5 1 5.27 0.37
-1 5 1 5.13 0.23
-1 5 1 4.99 0.36
0 5 1 2.18 0.2
0 5 1 1.82 0.14
0 5 1 2.33 0.26
1 5 1 5.42 0.29
1 5 1 5.48 0.2
2 5 1 3.52 0.16
2 5 1 3.5 0.32
2 5 1 3.72 0.24
2 5 1 3.24 0.24
3 5 1 2.01 0.3
3 5 1 1.99 0.24
3 5 1 1.67 0.15
3 5 1 1.95 0.14
3 5 1 1.74 0.14
4 5 1 2.82 0.24
4 5 1 2.87 0.18
4 5 1 2.47 0.29
4 5 1 2.94 0.2
4 5 1 3.09 0.19
4 5 1 2.9 0.18
5 5 1 0.11 0.09
5 5 1 0.18 0.09
5 5 1 -0.05 0.09
5 5 1 -0.01 0.15
5 5 1 0.17 0.13
5 5 1 0.13 0.1
-6 -5 -1 0.48 0.16
-6 -5 -1 0.26 0.11
6 5 1 0.04 0.08
6 5 1 0.04 0.09
6 5 1 0 0.1
6 5 1 -0.01 0.07
6 5 1 -0.06 0.14
-7 -5 -1 0.78 0.12
7 5 1 0.61 0.13
7 5 1 0.55 0.09
7 5 1 0.54 0.1
4 -6 -1 7.12 0.22
-4 6 1 6.98 0.24
-4 6 1 7.27 0.2
3 -6 -1 0.01 0.07
-3 6 1 -0.11 0.07
-3 6 1 -0.19 0.14
-3 6 1 -0.06 0.08
-3 6 1 0.09 0.07
-3 6 1 -0.04 0.1
-2 6 1 17.39 0.48
-2 6 1 17.37 0.49
-2 6 1 17.7 0.59
-2 6 1 15.89 0.43
-2 6 1 16.78 0.6
-2 6 1 16.88 0.57
-2 6 1 16.89 0.49
-1 6 1 3.67 0.34
-1 6 1 3.58 0.19
-1 6 1 4.63 0.37
-1 6 1 3.84 0.18
-1 6 1 3.68 0.21
-1 6 1 3.37 0.2
-1 6 1 3.62 0.27
0 6 1 2.55 0.18
0 6 1 3.07 0.29
0 6 1 3.01 0.35
0 6 1 2.52 0.15
0 6 1 2.77 0.15
0 6 1 2.97 0.27
1 6 1 1.9 0.15
1 6 1 2.2 0.27
1 6 1 1.6 0.2
1 6 1 1.85 0.14
1 6 1 1.95 0.15
1 6 1 1.84 0.25
1 6 1 1.98 0.13
-2 -6 -1 0.41 0.15
2 6 1 0.74 0.17
2 6 1 0.42 0.18
2 6 1 0.56 0.09
2 6 1 0.79 0.12
2 6 1 0.77 0.12
2 6 1 0.61 0.09
3 6 1 2.98 0.33
3 6 1 2.71 0.14
3 6 1 2.38 0.27
3 6 1 2.27 0.17
3 6 1 2.81 0.17
3 6 1 2.77 0.17
4 6 1 0.31 0.16
4 6 1 -0.04 0.09
4 6 1 -0.07 0.07
4 6 1 0.14 0.08
4 6 1 0.16 0.09
4 6 1 0.31 0.17
5 6 1 2.37 0.17
5 6 1 2.34 0.15
5 6 1 2.37 0.27
5 6 1 2.28 0.17
5 6 1 2.17 0.18
-6 -6 -1 -0.06 0.09
6 6 1 -0.07 0.12
6 6 1 -0.01 0.09
6 6 1 -0.05 0.06
6 6 1 0.13 0.08
6 6 1 -0.13 0.08
-2 7 1 0.61 0.14
-2 7 1 0.63 0.1
-2 7 1 0.49 0.08
-2 7 1 0.42 0.08
-2 7 1 0.64 0.15
-1 7 1 0.05 0.15
-1 7 1 0.18 0.08
-1 7 1 0.05 0.07
-1 7 1 0.22 0.09
-1 7 1 0.11 0.07
-1 7 1 0.07 0.14
0 7 1 2.88 0.27
0 7 1 3.64 0.31
0 7 1 3.18 0.27
0 7 1 3.4 0.16
0 7 1 2.92 0.18
0 7 1 3.23 0.18
1 7 1 1.18 0.19
1 7 1 0.91 0.13
1 7 1 0.86 0.19
1 7 1 1.13 0.2
1 7 1 1.08 0.11
2 7 1 0.39 0.07
2 7 1 0.24 0.16
2 7 1 0.31 0.08
2 7 1 0.33 0.09
3 7 1 -0.01 0.06
3 7 1 0 0.07
3 7 1 0 0.08
3 7 1 0.11 0.15
4 7 1 1.59 0.23
4 7 1 1.6 0.13
4 7 1 1.39 0.14
4 7 1 1.91 0.16
5 7 1 0.03 0.08
5 7 1 0.01 0.14
5 7 1 0.02 0.06
5 7 1 -0.08 0.07
0 8 1 2.44 0.21
0 8 1 2.71 0.12
0 8 1 2.65 0.18
1 8 1 1.53 0.21
1 8 1 1.61 0.11
2 8 1 10.2 0.28
2 8 1 10.28 0.38
3 8 1 -0.01 0.05
3 8 1 0.11 0.11
4 8 1 3.21 0.13
4 7 -2 -0.01 0.07
4 7 -2 0.03 0.06
4 7 -2 -0.14 0.11
-4 -7 2 0.02 0.06
3 7 -2 3.92 0.15
3 7 -2 3.77 0.19
3 7 -2 4.06 0.26
3 7 -2 3.97 0.19
3 7 -2 4.03 0.18
2 7 -2 0.26 0.09
2 7 -2 0.33 0.1
2 7 -2 0.29 0.14
2 7 -2 0.21 0.1
2 7 -2 0.23 0.14
2 7 -2 0.22 0.08
1 7 -2 15.4 0.44
1 7 -2 15.9 0.38
1 7 -2 16.12 0.53
1 7 -2 15.64 0.55
1 7 -2 14.91 0.42
0 7 -2 1.86 0.16
0 7 -2 2.23 0.25
0 7 -2 1.96 0.12
0 7 -2 1.63 0.15
0 7 -2 1.69 0.22
0 7 -2 1.81 0.16
-1 7 -2 6.3 0.19
-1 7 -2 6.17 0.28
-1 7 -2 5.92 0.23
-1 7 -2 5.87 0.22
-1 7 -2 5.61 0.29
1 -7 2 5.93 0.21
-2 7 -2 1.17 0.17
-2 7 -2 1.47 0.12
2 -7 2 1.09 0.11
6 6 -2 0.75 0.08
-6 -6 2 0.59 0.08
5 6 -2 0.04 0.09
5 6 -2 0.02 0.07
5 6 -2 0.09 0.1
5 6 -2 -0.03 0.12
5 6 -2 0.12 0.1
-5 -6 2 -0.1 0.08
4 6 -2 0.02 0.1
4 6 -2 -0.07 0.08
4 6 -2 0.03 0.17
4 6 -2 0.02 0.11
4 6 -2 0.01 0.08
3 6 -2 2.77 0.28
3 6 -2 2.63 0.19
3 6 -2 2.2 0.26
3 6 -2 3.02 0.2
3 6 -2 2.63 0.18
3 6 -2 2.96 0.21
-3 -6 2 2.7 0.25
2 6 -2 2.63 0.2
2 6 -2 2.47 0.27
2 6 -2 2.2 0.19
2 6 -2 2.34 0.2
2 6 -2 2.62 0.28
2 6 -2 2.26 0.31
2 6 -2 2.48 0.18
-2 -6 2 2.2 0.24
1 6 -2 5.94 0.26
1 6 -2 5.22 0.32
1 6 -2 5.87 0.27
1 6 -2 5.61 0.25
1 6 -2 5.5 0.35
1 6 -2 5.72 0.26
1 6 -2 5.45 0.35
-1 -6 2 5.14 0.3
0 6 -2 10.04 0.34
0 6 -2 10.18 0.45
0 6 -2 10.24 0.36
0 6 -2 9.97 0.35
0 6 -2 10.21 0.35
0 6 -2 9.41 0.44
0 6 -2 9.33 0.43
-1 6 -2 -0.17 0.13
-1 6 -2 0.09 0.1
-1 6 -2 -0.11 0.1
-1 6 -2 -0.05 0.15
-1 6 -2 0.12 0.1
-1 6 -2 -0.03 0.14
-2 6 -2 1.49 0.15
-2 6 -2 1.54 0.18
-2 6 -2 1.53 0.23
-2 6 -2 1.38 0.16
-2 6 -2 0.97 0.16
2 -6 2 1.22 0.15
-3 6 -2 0.05 0.11
-3 6 -2 0.14 0.08
-3 6 -2 0.25 0.13
3 -6 2 0.06 0.08
6 5 -2 3.15 0.24
6 5 -2 3.14 0.18
6 5 -2 3.37 0.21
-6 -5 2 3.04 0.16
5 5 -2 17.49 0.54
5 5 -2 17.48 0.59
5 5 -2 17.54 0.52
5 5 -2 16.94 0.49
5 5 -2 17.39 0.53
-5 -5 2 17.94 0.49
-5 -5 2 17.75 0.63
4 5 -2 2.9 0.17
4 5 -2 3.05 0.23
4 5 -2 3.27 0.24
4 5 -2 3.12 0.25
4 5 -2 3.21 0.29
4 5 -2 2.92 0.21
-4 -5 2 2.75 0.28
3 5 -2 30.34 0.75
3 5 -2 30.64 0.9
3 5 -2 29.89 0.79
3 5 -2 30.57 0.88
3 5 -2 29.82 0.79
3 5 -2 31.3 0.8
3 5 -2 30.47 0.8
-3 -5 2 30.61 0.85
2 5 -2 4.3 0.35
2 5 -2 5.11 0.26
2 5 -2 5.23 0.26
2 5 -2 5.19 0.25
2 5 -2 5.01 0.32
2 5 -2 4.9 0.32
2 5 -2 4.95 0.22
2 5 -2 5.33 0.25
-2 -5 2 5.37 0.29
1 5 -2 14.03 0.56
1 5 -2 14.43 0.53
1 5 -2 14.07 0.44
1 5 -2 14.58 0.43
1 5 -2 14.7 0.54
1 5 -2 14.55 0.44
1 5 -2 14.08 0.43
1 5 -2 14.36 0.44
-1 -5 2 14.58 0.5
0 5 -2 3.03 0.27
0 5 -2 2.97 0.2
0 5 -2 2.85 0.22
0 5 -2 2.94 0.21
0 5 -2 2.62 0.19
0 5 -2 2.57 0.28
0 5 -2 2.44 0.3
0 5 -2 3 0.18
0 -5 2 3.42 0.24
-1 5 -2 1.09 0.19
-1 5 -2 0.95 0.14
-1 5 -2 1.17 0.14
-1 5 -2 1.16 0.17
-1 5 -2 0.91 0.18
-1 5 -2 1.39 0.19
-1 5 -2 0.84 0.19
-1 5 -2 1.03 0.15
-2 5 -2 0.14 0.1
-2 5 -2 0.09 0.1
-2 5 -2 0.2 0.11
-2 5 -2 0.14 0.12
-2 5 -2 0.31 0.18
-2 5 -2 0.08 0.16
-2 5 -2 0.11 0.13
-2 5 -2 -0.09 0.16
-3 5 -2 2.88 0.18
-3 5 -2 2.59 0.21
-3 5 -2 2.13 0.22
-3 5 -2 2.73 0.2
-3 5 -2 2.67 0.22
-3 5 -2 2.79 0.28
3 -5 2 2.82 0.18
-4 5 -2 0.97 0.13
4 -5 2 1.1 0.14
7 4 -2 0.94 0.16
7 4 -2 1.26 0.13
-7 -4 2 1.05 0.13
-7 -4 2 1.2 0.21
6 4 -2 0.35 0.13
6 4 -2 0.36 0.15
-6 -4 2 0.42 0.09
-6 -4 2 0.55 0.17
5 4 -2 -0.04 0.1
5 4 -2 -0.05 0.13
5 4 -2 -0.04 0.18
-5 -4 2 0.07 0.18
-5 -4 2 0 0.08
4 4 -2 0.16 0.12
4 4 -2 0.28 0.13
4 4 -2 0.19 0.11
4 4 -2 0.24 0.11
4 4 -2 0.13 0.18
4 4 -2 -0.04 0.09
4 4 -2 0.24 0.12
-4 -4 2 -0.02 0.13
3 4 -2 0.3 0.12
3 4 -2 0.25 0.15
3 4 -2 0.37 0.15
3 4 -2 0.6 0.15
-3 -4 2 0.27 0.15
2 4 -2 11.08 0.41
2 4 -2 10.7 0.35
-2 -4 2 10.59 0.39
1 4 -2 1.32 0.19
1 4 -2 1.22 0.14
-1 -4 2 0.96 0.15
0 4 -2 15.09 0.43
0 4 -2 15 0.49
0 -4 2 14.99 0.48
-1 4 -2 0.49 0.15
-1 4 -2 0.49 0.11
1 -4 2 0.68 0.14
-2 4 -2 8.92 0.38
-2 4 -2 8.66 0.34
-2 4 -2 9.32 0.38
-2 4 -2 8.62 0.4
-3 4 -2 5.29 0.29
-3 4 -2 5.3 0.32
-3 4 -2 5.37 0.29
-3 4 -2 5.2 0.28
-3 4 -2 4.87 0.27
-3 4 -2 5.58 0.37
3 -4 2 4.72 0.25
-4 4 -2 10.46 0.37
-4 4 -2 10.84 0.44
-4 4 -2 11.19 0.47
4 -4 2 11.09 0.36
-5 4 -2 0.2 0.1
-5 4 -2 0.28 0.08
5 -4 2 0.09 0.11
5 -4 2 0.12 0.08
6 -4 2 0.84 0.1
6 -4 2 1.04 0.17
7 3 -2 0.14 0.13
7 3 -2 0.25 0.07
-7 -3 2 0.14 0.09
-7 -3 2 0.46 0.15
6 3 -2 0.53 0.16
6 3 -2 0.37 0.12
-6 -3 2 0.37 0.09
-6 -3 2 0.47 0.18
5 3 -2 0.44 0.13
5 3 -2 0.66 0.17
-5 -3 2 0.59 0.12
-5 -3 2 0.63 0.2
4 3 -2 0.08 0.16
4 3 -2 0.17 0.12
4 3 -2 0.04 0.14
4 3 -2 0.18 0.11
-4 -3 2 0.22 0.12
3 3 -2 8.23 0.34
3 3 -2 7.84 0.31
3 3 -2 7.59 0.3
-3 -3 2 8 0.35
-3 -3 2 7.88 0.31
2 3 -2 3.14 0.21
2 3 -2 3.3 0.19
1 3 -2 17.28 0.51
-1 -3 2 17.62 0.49
0 3 -2 4.53 0.23
0 -3 2 4.4 0.21
-1 3 -2 52.56 1.26
1 -3 2 52.53 1.23
-2 3 -2 1.8 0.17
-3 3 -2 11 0.44
-4 3 -2 0.29 0.17
-4 3 -2 0.44 0.14
-4 3 -2 0.42 0.2
4 -3 2 0.35 0.11
-5 3 -2 -0.07 0.17
-5 3 -2 0.31 0.16
5 -3 2 0.09 0.08
-6 3 -2 2.74 0.22
-6 3 -2 2.22 0.17
6 -3 2 2.09 0.22
6 -3 2 2.59 0.19
7 2 -2 -0.24 0.15
7 2 -2 -0.09 0.1
-7 -2 2 0.01 0.11
-7 -2 2 0.14 0.08
-7 -2 2 0.07 0.17
6 2 -2 0.2 0.16
6 2 -2 0.13 0.15
-6 -2 2 0.5 0.18
-6 -2 2 0.25 0.18
-6 -2 2 0.25 0.09
-6 -2 2 0.46 0.13
5 2 -2 5.03 0.26
5 2 -2 4.92 0.34
5 2 -2 5.42 0.39
5 2 -2 4.88 0.27
-5 -2 2 5 0.35
-5 -2 2 5.48 0.25
4 2 -2 -0.02 0.14
-4 -2 2 0.26 0.14
-4 -2 2 -0.08 0.09
3 2 -2 44.96 1.06
3 2 -2 44.31 1.11
-3 -2 2 45.15 1.1
2 2 -2 20.9 0.59
2 2 -2 20.97 0.55
1 2 -2 27.48 0.67
1 2 -2 27.35 0.76
0 -2 2 1.51 0.14
0 -2 2 1.39 0.13
0 -2 2 1.45 0.13
1 -2 2 14.74 0.47
1 -2 2 15.15 0.41
2 -2 2 30.96 0.76
-3 2 -2 4.99 0.24
-4 2 -2 11.18 0.41
-4 2 -2 10.58 0.46
-5 2 -2 3.82 0.23
-5 2 -2 4.54 0.36
-5 2 -2 4.08 0.3
-5 2 -2 3.98 0.2
5 -2 2 4.01 0.19
5 -2 2 4.33 0.29
-6 2 -2 3.12 0.26
6 -2 2 3.6 0.3
6 -2 2 3.41 0.22
-7 2 -2 0.28 0.11
-7 2 -2 0.26 0.1
7 -2 2 0.32 0.07
7 1 -2 0.05 0.12
7 1 -2 0.09 0.14
-7 -1 2 0.08 0.08
-7 -1 2 0.01 0.11
6 1 -2 -0.01 0.15
6 1 -2 -0.14 0.08
6 1 -2 -0.1 0.14
6 1 -2 -0.03 0.12
-6 -1 2 -0.2 0.09
-6 -1 2 0.12 0.15
-6 -1 2 0.09 0.16
-6 -1 2 -0.01 0.14
5 1 -2 3.26 0.3
5 1 -2 3.16 0.3
5 1 -2 3.21 0.21
-5 -1 2 2.96 0.28
-5 -1 2 2.95 0.23
-5 -1 2 2.86 0.33
-5 -1 2 2.86 0.19
-5 -1 2 2.77 0.37
4 1 -2 8.48 0.37
-4 -1 2 7.76 0.28
-4 -1 2 8.42 0.31
-4 -1 2 8.14 0.4
3 1 -2 0.04 0.13
-3 -1 2 0.1 0.07
-3 -1 2 0.06 0.07
2 1 -2 21.2 0.62
-2 -1 2 21.87 0.55
1 1 -2 57.91 1.41
-1 -1 2 55.32 1.42
0 -1 2 6.06 0.21
-1 1 -2 15.06 0.43
1 -1 2 15.86 0.43
-2 1 -2 0.8 0.12
2 -1 2 1.1 0.12
2 -1 2 1.07 0.12
-3 1 -2 10.72 0.35
3 -1 2 10.68 0.33
-4 1 -2 5.8 0.29
-5 1 -2 -0.16 0.15
-5 1 -2 0.02 0.11
-5 1 -2 0.33 0.16
5 -1 2 0.05 0.12
5 -1 2 0 0.17
-6 1 -2 2.2 0.24
-6 1 -2 1.88 0.2
-6 1 -2 2.2 0.18
6 -1 2 1.85 0.26
6 -1 2 2.09 0.19
-7 1 -2 1 0.19
7 -1 2 0.47 0.09
7 -1 2 0.08 0.13
7 0 -2 0.27 0.15
-7 0 2 0.56 0.18
6 0 -2 4.23 0.34
6 0 -2 3.93 0.24
6 0 -2 3.86 0.27
-6 0 2 3.92 0.27
-6 0 2 4.11 0.27
-6 0 2 4.35 0.22
5 0 -2 0.03 0.12
5 0 -2 0.26 0.18
-5 0 2 0.03 0.11
-5 0 2 0.22 0.16
-5 0 2 0.02 0.14
4 0 -2 8.86 0.38
-4 0 2 8.8 0.41
-4 0 2 9.09 0.35
3 0 -2 26.97 0.74
-3 0 2 27.92 0.7
-3 0 2 29.93 0.69
2 0 -2 2.95 0.17
-2 0 2 2.95 0.13
-2 0 2 2.7 0.17
1 0 -2 146.32 3.42
-1 0 2 139.05 3.42
-1 0 2 141.95 3.18
0 0 -2 24.99 0.61
0 0 2 25.36 0.61
0 0 2 24.75 0.58
-1 0 -2 27.08 0.67
1 0 2 27.75 0.68
-2 0 -2 11.43 0.34
-2 0 -2 11.87 0.31
2 0 2 11.17 0.34
-3 0 -2 25.06 0.63
3 0 2 25.5 0.61
3 0 2 23.58 0.71
-4 0 -2 0.05 0.08
-5 0 -2 1.72 0.2
-6 0 -2 0.39 0.19
-6 0 -2 0.38 0.15
-6 0 -2 0.66 0.19
6 0 2 0.69 0.15
6 0 2 0.68 0.11
-7 0 -2 2.06 0.18
-7 0 -2 2.27 0.23
7 0 2 2.3 0.21
7 0 2 2.26 0.25
7 -1 -2 3.22 0.18
-7 1 2 2.81 0.2
6 -1 -2 0.79 0.12
6 -1 -2 0.59 0.16
-6 1 2 0.7 0.16
-6 1 2 0.79 0.17
5 -1 -2 7.99 0.36
5 -1 -2 7.72 0.29
-5 1 2 8.33 0.39
-5 1 2 7.88 0.34
-5 1 2 7.72 0.29
-5 1 2 8.66 0.43
4 -1 -2 0 0.17
-4 1 2 0.29 0.13
3 -1 -2 44.62 1.11
-3 1 2 45.53 1.06
2 -1 -2 2.69 0.18
-2 1 2 2.54 0.16
1 -1 -2 10.85 0.32
-1 1 2 10.03 0.32
0 -1 -2 24.28 0.6
0 1 2 24.34 0.61
-1 -1 -2 0.18 0.04
1 1 2 0.2 0.04
-2 -1 -2 48.32 1.21
-2 -1 -2 49.14 1.12
2 1 2 49.23 1.22
-3 -1 -2 18.58 0.49
-3 -1 -2 19.08 0.48
3 1 2 18.94 0.49
3 1 2 18.38 0.56
-4 -1 -2 0.48 0.09
-4 -1 -2 0.49 0.11
4 1 2 0.63 0.11
-5 -1 -2 -0.03 0.12
-5 -1 -2 0.08 0.09
-6 -1 -2 0.24 0.13
6 1 2 0.46 0.14
6 1 2 0.43 0.11
6 1 2 0.61 0.22
-7 -1 -2 0.04 0.1
-7 -1 -2 -0.04 0.15
7 1 2 0.09 0.12
7 1 2 -0.03 0.14
-8 -1 -2 0.79 0.08
-8 -1 -2 0.91 0.12
8 1 2 0.78 0.12
7 -2 -2 0.3 0.07
6 -2 -2 -0.08 0.09
6 -2 -2 -0.04 0.13
-6 2 2 -0.19 0.11
-6 2 2 -0.06 0.12
5 -2 -2 0.13 0.1
-5 2 2 0.18 0.14
-5 2 2 -0.05 0.14
-5 2 2 0.21 0.14
4 -2 -2 1.46 0.24
-4 2 2 1.02 0.17
-3 2 2 1.7 0.17
-3 2 2 1.73 0.18
-2 2 2 0.68 0.12
-2 2 2 0.36 0.1
1 -2 -2 6.04 0.24
-1 2 2 5.82 0.24
0 -2 -2 4.95 0.19
0 2 2 4.58 0.19
-1 -2 -2 17.36 0.46
-1 -2 -2 16.52 0.46
-2 -2 -2 14.53 0.42
2 2 2 13.81 0.38
2 2 2 14.42 0.42
-3 -2 -2 29.89 0.72
3 2 2 30.35 0.73
3 2 2 29.98 0.84
-4 -2 -2 29.65 0.76
-4 -2 -2 29.47 0.76
4 2 2 30.83 0.77
-5 -2 -2 2.02 0.22
-5 -2 -2 1.36 0.15
5 2 2 1.65 0.17
5 2 2 1.87 0.19
5 2 2 1.69 0.24
-6 -2 -2 1.32 0.2
6 2 2 1.14 0.19
6 2 2 0.87 0.22
-7 -2 -2 1.7 0.15
-7 -2 -2 1.51 0.21
7 2 2 1.17 0.17
7 2 2 1.77 0.3
-8 -2 -2 0.18 0.09
-8 -2 -2 0.06 0.13
6 -3 -2 0.46 0.1
6 -3 -2 0.6 0.14
5 -3 -2 0.12 0.1
-5 3 2 0.29 0.13
-5 3 2 0.35 0.11
-5 3 2 0.6 0.19
4 -3 -2 3.7 0.22
-4 3 2 3.67 0.25
-4 3 2 3.67 0.3
-4 3 2 3.82 0.23
-4 3 2 4.28 0.29
-4 3 2 4.27 0.29
-4 3 2 3.82 0.26
-3 3 2 8.82 0.36
-3 3 2 8.35 0.36
-3 3 2 8.65 0.39
-3 3 2 8.47 0.31
-2 3 2 5.83 0.27
-2 3 2 6.36 0.23
-2 3 2 6.38 0.27
-1 3 2 32.78 0.83
-1 3 2 33.17 0.79
0 -3 -2 49.42 1.28
-1 -3 -2 204.31 4.83
1 3 2 196.97 4.24
2 3 2 10.16 0.32
3 3 2 54.72 1.27
-4 -3 -2 9.72 0.34
4 3 2 9.74 0.35
4 3 2 9.26 0.3
5 3 2 7.13 0.33
5 3 2 6.77 0.28
5 3 2 6.95 0.28
5 3 2 6.39 0.27
5 3 2 6.48 0.41
6 3 2 9.16 0.37
6 3 2 9.21 0.39
6 3 2 8.77 0.37
6 3 2 8.85 0.35
6 3 2 8.55 0.33
6 3 2 9.47 0.48
6 3 2 9.19 0.37
-7 -3 -2 2.4 0.16
-7 -3 -2 2.11 0.25
7 3 2 2.06 0.24
7 3 2 2.01 0.21
-8 -3 -2 0.91 0.14
-8 -3 -2 1.03 0.15
5 -4 -2 0.25 0.09
-5 4 2 0.7 0.13
4 -4 -2 0.12 0.1
-4 4 2 0.01 0.11
-4 4 2 0.03 0.16
-4 4 2 0.02 0.12
-4 4 2 0.18 0.17
-4 4 2 0.12 0.13
-4 4 2 0.15 0.09
-4 4 2 -0.09 0.09
-3 4 2 4.28 0.3
-3 4 2 4.12 0.24
-3 4 2 4.17 0.23
-3 4 2 4.01 0.28
-3 4 2 3.72 0.22
-3 4 2 4.13 0.26
-3 4 2 4.32 0.31
-3 4 2 3.98 0.23
-3 4 2 3.93 0.24
-2 4 2 1.05 0.17
-2 4 2 0.93 0.12
-2 4 2 1.02 0.2
-1 4 2 5.88 0.28
0 4 2 0.31 0.1
1 4 2 13.36 0.42
1 4 2 13.45 0.4
2 4 2 16.72 0.49
3 4 2 2.53 0.19
3 4 2 2.2 0.12
4 4 2 2.14 0.19
4 4 2 1.74 0.13
5 4 2 1.19 0.19
5 4 2 0.92 0.14
5 4 2 0.93 0.21
5 4 2 1.09 0.15
5 4 2 1.15 0.17
5 4 2 1.26 0.17
6 4 2 2.42 0.2
6 4 2 2.38 0.23
6 4 2 3.22 0.22
6 4 2 2.51 0.24
6 4 2 2.86 0.28
6 4 2 2.2 0.2
-7 -4 -2 0.28 0.16
-7 -4 -2 0.2 0.08
7 4 2 0.32 0.1
7 4 2 0.11 0.16
7 4 2 0.29 0.1
5 -5 -2 3.83 0.15
-5 5 2 3.71 0.16
4 -5 -2 -0.02 0.07
-4 5 2 0.13 0.09
-4 5 2 0.28 0.1
-4 5 2 0.13 0.12
-4 5 2 0.32 0.12
-3 5 2 3.52 0.23
-3 5 2 3.5 0.28
-3 5 2 3.39 0.21
-3 5 2 3.19 0.2
-3 5 2 3.33 0.3
-3 5 2 3.39 0.22
-3 5 2 3.57 0.32
-2 5 2 0.09 0.15
-2 5 2 -0.17 0.13
-2 5 2 0.15 0.09
-2 5 2 0.03 0.13
-2 5 2 0.09 0.08
-2 5 2 0.05 0.08
-2 5 2 -0.03 0.08
-1 5 2 1.43 0.13
-1 5 2 1.36 0.13
-1 5 2 1.28 0.14
-1 5 2 1.36 0.13
-1 5 2 1.27 0.21
-1 5 2 2.05 0.3
-1 5 2 1.41 0.2
0 5 2 4.45 0.28
0 5 2 4.79 0.3
0 5 2 4.76 0.18
1 5 2 2.66 0.12
1 5 2 3.05 0.22
2 5 2 1.26 0.19
2 5 2 1.32 0.09
3 5 2 0.08 0.11
3 5 2 -0.01 0.17
3 5 2 -0.02 0.06
4 5 2 6.01 0.25
4 5 2 6.24 0.32
4 5 2 6.14 0.23
4 5 2 6.21 0.24
4 5 2 6.31 0.39
4 5 2 6.11 0.24
5 5 2 3.79 0.2
5 5 2 3.93 0.27
5 5 2 3.95 0.22
5 5 2 3.98 0.22
5 5 2 3.65 0.22
5 5 2 4.12 0.35
-6 -5 -2 0.49 0.17
6 5 2 0.39 0.1
6 5 2 0.36 0.11
6 5 2 0.55 0.11
6 5 2 0.3 0.16
6 5 2 0.43 0.1
-7 -5 -2 0.9 0.12
7 5 2 0.9 0.12
7 5 2 1.15 0.18
7 5 2 1.01 0.13
7 5 2 1.2 0.13
4 -6 -2 1.67 0.13
-4 6 2 1.56 0.09
-4 6 2 1.78 0.13
-3 6 2 1.05 0.13
-3 6 2 1.38 0.21
-3 6 2 1.24 0.15
-3 6 2 1.17 0.13
-3 6 2 1.37 0.15
-2 6 2 0.19 0.08
-2 6 2 0.16 0.17
-2 6 2 0.36 0.08
-2 6 2 0.24 0.19
-2 6 2 0.33 0.16
-2 6 2 0.28 0.1
-2 6 2 0.29 0.09
-1 6 2 0.26 0.08
-1 6 2 0.66 0.18
-1 6 2 0.32 0.09
-1 6 2 0.43 0.19
-1 6 2 0.45 0.2
-1 6 2 0.45 0.08
-1 6 2 0.54 0.1
0 6 2 1.02 0.12
0 6 2 1.06 0.13
0 6 2 1.47 0.23
0 6 2 0.92 0.09
0 6 2 1.36 0.23
0 6 2 1.34 0.21
1 6 2 -0.06 0.14
1 6 2 -0.02 0.15
1 6 2 0.08 0.06
1 6 2 0.14 0.15
1 6 2 -0.07 0.06
2 6 2 -0.07 0.07
2 6 2 -0.16 0.15
2 6 2 -0.01 0.13
2 6 2 0.07 0.06
3 6 2 0.6 0.2
3 6 2 0.44 0.08
3 6 2 0.51 0.09
3 6 2 0.54 0.09
3 6 2 0.45 0.18
4 6 2 0.42 0.07
4 6 2 0.52 0.1
4 6 2 0.26 0.16
4 6 2 0.23 0.08
4 6 2 0.37 0.15
4 6 2 0.37 0.09
-5 -6 -2 0.08 0.17
5 6 2 0.01 0.08
5 6 2 -0.03 0.17
5 6 2 0.09 0.07
5 6 2 0.03 0.06
5 6 2 -0.09 0.08
-6 -6 -2 0.21 0.13
6 6 2 0.1 0.08
6 6 2 0.23 0.06
6 6 2 0.22 0.09
6 6 2 0.17 0.07
6 6 2 0.09 0.12
7 6 2 0.85 0.1
-2 7 2 0.34 0.08
-2 7 2 0.36 0.07
-2 7 2 0.44 0.09
-2 7 2 0.39 0.13
-2 7 2 0.59 0.13
-1 7 2 -0.05 0.13
-1 7 2 0.22 0.07
-1 7 2 -0.05 0.13
-1 7 2 0.03 0.08
-1 7 2 0.19 0.07
0 7 2 1.07 0.19
0 7 2 1.18 0.11
0 7 2 1.39 0.22
0 7 2 1.12 0.12
0 7 2 1.12 0.18
0 7 2 0.86 0.12
1 7 2 0.79 0.18
1 7 2 0.53 0.08
1 7 2 0.52 0.18
1 7 2 0.61 0.08
1 7 2 0.52 0.17
2 7 2 1.86 0.13
2 7 2 1.71 0.12
2 7 2 1.62 0.25
2 7 2 1.62 0.09
3 7 2 1.12 0.13
3 7 2 0.87 0.13
3 7 2 1.07 0.18
3 7 2 1.06 0.09
4 7 2 0.06 0.06
4 7 2 -0.04 0.13
4 7 2 0.08 0.07
4 7 2 0.16 0.07
5 7 2 0.19 0.08
5 7 2 0.09 0.11
5 7 2 0.04 0.06
5 7 2 0.02 0.06
6 7 2 0.1 0.06
0 8 2 0.29 0.05
0 8 2 0.34 0.12
1 8 2 0.58 0.12
2 8 2 0.47 0.08
2 8 2 0.44 0.12
3 8 2 0.12 0.05
3 8 2 -0.06 0.1
4 8 2 1.04 0.08
4 7 -3 0.08 0.05
-4 -7 3 0.1 0.05
3 7 -3 2.88 0.2
3 7 -3 3.13 0.12
3 7 -3 3.3 0.17
3 7 -3 2.98 0.14
-3 -7 3 2.95 0.16
2 7 -3 4.35 0.27
2 7 -3 4.09 0.19
2 7 -3 4.13 0.19
2 7 -3 4.16 0.16
2 7 -3 3.84 0.24
-2 -7 3 4.05 0.18
1 7 -3 0.29 0.13
1 7 -3 0.25 0.15
1 7 -3 0.02 0.08
1 7 -3 0.19 0.08
1 7 -3 0.06 0.07
-1 -7 3 0.14 0.07
0 7 -3 5.49 0.22
0 7 -3 5.55 0.21
0 7 -3 5.87 0.29
0 7 -3 5.25 0.18
0 7 -3 5.9 0.29
0 -7 3 5.52 0.2
-1 7 -3 0.2 0.11
-1 7 -3 -0.05 0.12
-1 7 -3 0.2 0.07
-1 7 -3 0.19 0.08
-1 7 -3 0.07 0.06
-1 7 -3 0.05 0.06
1 -7 3 -0.02 0.06
5 6 -3 0.52 0.14
5 6 -3 0.39 0.08
5 6 -3 0.55 0.1
-5 -6 3 0.39 0.07
4 6 -3 0.09 0.07
4 6 -3 0.1 0.14
4 6 -3 0.26 0.11
4 6 -3 0.11 0.11
4 6 -3 0.24 0.09
-4 -6 3 0.01 0.08
3 6 -3 1.06 0.15
3 6 -3 0.83 0.13
3 6 -3 0.74 0.11
3 6 -3 0.73 0.13
3 6 -3 0.56 0.17
3 6 -3 0.72 0.19
-3 -6 3 0.53 0.11
2 6 -3 2.12 0.2
2 6 -3 2.37 0.3
2 6 -3 2.02 0.16
2 6 -3 1.75 0.19
2 6 -3 1.88 0.23
2 6 -3 2.39 0.26
2 6 -3 2.19 0.2
1 6 -3 0.99 0.15
1 6 -3 0.99 0.15
1 6 -3 1.54 0.24
1 6 -3 0.98 0.15
1 6 -3 0.91 0.15
1 6 -3 1.12 0.19
1 6 -3 0.81 0.17
-1 -6 3 1.09 0.19
0 6 -3 0.35 0.12
0 6 -3 0.01 0.1
0 6 -3 0.15 0.15
0 6 -3 0.08 0.15
0 6 -3 0.02 0.08
0 6 -3 0.02 0.12
0 6 -3 0 0.17
-1 6 -3 0.12 0.12
-1 6 -3 -0.19 0.16
-1 6 -3 -0.32 0.12
-1 6 -3 0.1 0.09
-1 6 -3 0.09 0.1
-1 6 -3 -0.09 0.11
-1 6 -3 0.29 0.15
1 -6 3 0.15 0.08
-2 6 -3 0.24 0.14
-2 6 -3 0.1 0.12
-2 6 -3 0.25 0.11
-2 6 -3 0.03 0.08
-2 6 -3 0.19 0.1
-2 6 -3 -0.06 0.09
2 -6 3 0.11 0.07
-3 6 -3 0.52 0.1
-3 6 -3 0.68 0.15
-3 6 -3 0.7 0.11
3 -6 3 0.64 0.09
6 5 -3 1.43 0.12
6 5 -3 1.3 0.17
-6 -5 3 1.26 0.1
5 5 -3 1.08 0.16
5 5 -3 1.12 0.18
-5 -5 3 1.7 0.17
4 5 -3 4.94 0.27
4 5 -3 4.74 0.25
4 5 -3 4.75 0.33
4 5 -3 5.13 0.3
4 5 -3 5.12 0.22
4 5 -3 4.82 0.32
4 5 -3 5.11 0.28
-4 -5 3 4.91 0.26
-4 -5 3 4.26 0.28
3 5 -3 0.07 0.09
3 5 -3 0 0.13
3 5 -3 -0.03 0.15
3 5 -3 0.11 0.11
3 5 -3 0 0.15
3 5 -3 0.14 0.11
3 5 -3 0.45 0.13
-3 -5 3 0.29 0.15
2 5 -3 13.48 0.43
2 5 -3 13.53 0.45
2 5 -3 13.81 0.52
2 5 -3 12.74 0.44
2 5 -3 13.54 0.54
2 5 -3 13.91 0.46
2 5 -3 13.53 0.54
2 5 -3 13.34 0.44
-2 -5 3 13.75 0.52
1 5 -3 1 0.21
1 5 -3 1.41 0.18
1 5 -3 0.87 0.18
1 5 -3 1.05 0.18
1 5 -3 1.14 0.19
1 5 -3 1.34 0.18
1 5 -3 1.17 0.18
1 5 -3 1.17 0.18
-1 -5 3 1.15 0.2
0 5 -3 4.56 0.26
0 5 -3 4.65 0.26
0 5 -3 4.48 0.25
0 5 -3 4.59 0.27
0 5 -3 4.89 0.32
0 5 -3 4.69 0.35
0 5 -3 4.64 0.25
0 5 -3 4.98 0.32
0 5 -3 4.76 0.18
0 -5 3 4.97 0.29
-1 5 -3 1.08 0.18
-1 5 -3 1.13 0.16
-1 5 -3 0.9 0.12
-1 5 -3 1.06 0.18
-1 5 -3 1.04 0.17
-1 5 -3 0.86 0.19
-1 5 -3 0.67 0.15
-1 5 -3 0.93 0.19
-1 5 -3 1.02 0.15
1 -5 3 1.13 0.18
-2 5 -3 12.45 0.49
-2 5 -3 12.74 0.43
-2 5 -3 11.68 0.42
-2 5 -3 12.31 0.44
-2 5 -3 13.14 0.44
-2 5 -3 12.73 0.48
-2 5 -3 11.82 0.43
2 -5 3 12.13 0.4
-3 5 -3 0.44 0.17
-3 5 -3 0.56 0.14
-3 5 -3 0.28 0.09
3 -5 3 0.42 0.11
-4 5 -3 5.14 0.24
4 -5 3 5.25 0.19
6 4 -3 3.74 0.26
-6 -4 3 3.6 0.17
-6 -4 3 3.5 0.27
5 4 -3 2.36 0.19
5 4 -3 2.26 0.27
5 4 -3 2.87 0.18
5 4 -3 2.32 0.23
-5 -4 3 2.36 0.28
-5 -4 3 2.51 0.19
4 4 -3 11.39 0.39
4 4 -3 10.84 0.47
4 4 -3 11.61 0.42
4 4 -3 11.73 0.43
4 4 -3 11.37 0.38
4 4 -3 11.41 0.47
-4 -4 3 11.59 0.52
-4 -4 3 10.93 0.42
-4 -4 3 11.91 0.38
3 4 -3 1.42 0.2
3 4 -3 1.02 0.17
3 4 -3 1.25 0.17
3 4 -3 1 0.16
3 4 -3 1.15 0.2
3 4 -3 1.76 0.23
3 4 -3 1.19 0.19
-3 -4 3 1.15 0.17
2 4 -3 17.29 0.52
2 4 -3 17.81 0.59
2 4 -3 17.4 0.59
-2 -4 3 18.21 0.56
1 4 -3 -0.03 0.14
1 4 -3 0.05 0.1
-1 -4 3 0.2 0.12
0 4 -3 4.71 0.24
0 4 -3 4.76 0.29
0 -4 3 5.02 0.29
-1 4 -3 6.08 0.28
-1 4 -3 6.58 0.37
-1 4 -3 6.56 0.34
1 -4 3 6.84 0.33
-2 4 -3 9.4 0.36
-2 4 -3 9.1 0.39
-2 4 -3 9.29 0.42
-2 4 -3 9.17 0.37
-2 4 -3 8.89 0.43
-2 4 -3 8.9 0.36
2 -4 3 8.99 0.35
-3 4 -3 0.24 0.16
-3 4 -3 0.25 0.13
-3 4 -3 0.25 0.14
3 -4 3 0.16 0.09
-4 4 -3 0 0.14
-4 4 -3 -0.22 0.16
-4 4 -3 0.15 0.14
4 -4 3 0.03 0.09
-5 4 -3 -0.18 0.09
-5 4 -3 -0.01 0.08
5 -4 3 0.03 0.14
5 -4 3 0.02 0.12
7 3 -3 0.11 0.11
-7 -3 3 0.11 0.07
-7 -3 3 0.13 0.1
6 3 -3 2.18 0.24
6 3 -3 1.61 0.18
-6 -3 3 1.85 0.15
-6 -3 3 1.74 0.26
-6 -3 3 1.43 0.2
5 3 -3 8.64 0.36
5 3 -3 9.09 0.44
-5 -3 3 8.85 0.44
-5 -3 3 9.01 0.31
4 3 -3 0.95 0.2
4 3 -3 0.87 0.16
4 3 -3 0.69 0.18
-4 -3 3 0.99 0.2
-4 -3 3 0.9 0.13
3 3 -3 23.09 0.65
3 3 -3 23.51 0.7
-3 -3 3 23.97 0.76
-3 -3 3 22.73 0.66
-3 -3 3 24.48 0.67
2 3 -3 6.23 0.27
2 3 -3 5.62 0.28
-2 -3 3 6.12 0.27
1 3 -3 33.53 0.88
-1 -3 3 34.05 0.85
0 3 -3 3.65 0.22
0 -3 3 3.55 0.21
-1 3 -3 12.81 0.43
1 -3 3 13.66 0.43
-2 3 -3 2.26 0.2
2 -3 3 2.22 0.2
-3 3 -3 0.79 0.17
3 -3 3 0.56 0.12
-4 3 -3 0.38 0.2
-4 3 -3 0.17 0.18
-4 3 -3 0.49 0.21
4 -3 3 0.26 0.1
-5 3 -3 0.03 0.15
-5 3 -3 0.2 0.17
5 -3 3 0.03 0.08
5 -3 3 0.09 0.11
-6 3 -3 0.61 0.15
-6 3 -3 0.64 0.12
6 -3 3 0.61 0.14
6 -3 3 0.49 0.08
7 2 -3 0.89 0.14
7 2 -3 0.9 0.16
-7 -2 3 0.66 0.09
-7 -2 3 0.88 0.12
6 2 -3 4.03 0.34
6 2 -3 3.32 0.29
-6 -2 3 3.33 0.31
-6 -2 3 3.65 0.3
-6 -2 3 3.67 0.25
5 2 -3 4.46 0.26
5 2 -3 4.42 0.34
5 2 -3 5.1 0.38
-5 -2 3 4.28 0.23
-5 -2 3 4.74 0.35
4 2 -3 40.63 1.07
4 2 -3 39.94 1.1
-4 -2 3 40.01 1.17
3 2 -3 0.63 0.15
-3 -2 3 0.47 0.12
-3 -2 3 0.52 0.11
2 2 -3 78.35 1.86
-2 -2 3 81.35 1.79
-2 -2 3 80.87 1.87
1 2 -3 6.74 0.29
-1 -2 3 6.26 0.25
0 -2 3 198.39 4.19
0 -2 3 195.12 4.75
1 -2 3 13.17 0.39
2 -2 3 120.83 2.64
3 -2 3 6.87 0.29
-4 2 -3 14.48 0.55
-4 2 -3 14.02 0.49
-4 2 -3 14.58 0.44
4 -2 3 14.63 0.41
-5 2 -3 0.54 0.1
-5 2 -3 0.48 0.12
-5 2 -3 0.49 0.23
5 -2 3 0.53 0.09
5 -2 3 0.39 0.15
5 -2 3 0.28 0.15
-6 2 -3 5.72 0.33
6 -2 3 5.91 0.32
6 -2 3 5.69 0.24
-7 2 -3 0.14 0.1
-7 2 -3 -0.11 0.12
7 1 -3 0.44 0.11
7 1 -3 0.36 0.13
-7 -1 3 0.71 0.09
6 1 -3 0.04 0.12
6 1 -3 -0.06 0.12
6 1 -3 -0.23 0.15
-6 -1 3 0 0.09
-6 -1 3 -0.03 0.12
-6 -1 3 0.07 0.16
5 1 -3 -0.08 0.18
5 1 -3 -0.04 0.1
5 1 -3 0.16 0.15
-5 -1 3 0.03 0.15
-5 -1 3 0.23 0.17
-5 -1 3 0.11 0.13
4 1 -3 0.47 0.17
-4 -1 3 0.31 0.09
-4 -1 3 0.05 0.13
3 1 -3 9.46 0.36
-3 -1 3 8.94 0.38
-3 -1 3 8.72 0.29
2 1 -3 38.24 0.97
-2 -1 3 39.86 0.94
1 1 -3 12.96 0.38
-1 -1 3 11.91 0.34
0 -1 3 20.72 0.53
0 -1 3 21.86 0.57
0 -1 3 21.56 0.58
1 -1 3 27.22 0.7
1 -1 3 26.81 0.65
1 -1 3 25.55 0.69
-2 1 -3 44.62 1.16
2 -1 3 45.8 1.05
-3 1 -3 12.83 0.4
3 -1 3 12.59 0.39
-4 1 -3 24.8 0.69
-5 1 -3 3.67 0.32
-5 1 -3 3.69 0.26
-5 1 -3 4.25 0.3
5 -1 3 3.42 0.3
5 -1 3 3.96 0.25
-6 1 -3 2.91 0.21
-6 1 -3 3.19 0.23
6 -1 3 3.32 0.2
6 -1 3 3.17 0.26
-7 1 -3 0.18 0.15
7 -1 3 0.58 0.14
7 0 -3 0.41 0.13
-7 0 3 0.09 0.12
6 0 -3 1.78 0.24
6 0 -3 2.11 0.27
6 0 -3 1.64 0.16
-6 0 3 1.68 0.21
-6 0 3 1.66 0.15
-6 0 3 1.47 0.2
5 0 -3 2.04 0.3
5 0 -3 1.55 0.24
5 0 -3 1.58 0.19
-5 0 3 2.14 0.25
-5 0 3 2.22 0.25
-5 0 3 1.5 0.21
-5 0 3 1.88 0.27
4 0 -3 1.1 0.19
-4 0 3 1.36 0.2
-4 0 3 1.41 0.19
3 0 -3 0.37 0.13
-3 0 3 0.32 0.1
2 0 -3 1.83 0.18
2 0 -3 1.7 0.16
-2 0 3 1.71 0.1
-2 0 3 1.54 0.14
1 0 -3 52.28 1.29
-1 0 3 50.15 1.29
-1 0 3 51.86 1.17
0 0 -3 98.11 2.3
0 0 3 98.1 2.31
0 0 3 92.88 2.16
1 0 3 0.07 0.03
1 0 3 0.01 0.03
-2 0 -3 9.27 0.28
2 0 3 9.67 0.29
2 0 3 9.53 0.29
-3 0 -3 0.52 0.1
3 0 3 0.36 0.09
-4 0 -3 4.61 0.26
4 0 3 4.54 0.23
-5 0 -3 1.68 0.25
5 0 3 2.19 0.25
5 0 3 2.01 0.18
-6 0 -3 2.05 0.3
-6 0 -3 1.76 0.23
-6 0 -3 1.54 0.23
6 0 3 1.78 0.17
6 0 3 1.71 0.29
6 0 3 1.56 0.2
-7 0 -3 1.11 0.16
-7 0 -3 1.54 0.17
7 0 3 1.48 0.19
7 -1 -3 1.57 0.16
-7 1 3 1.73 0.13
6 -1 -3 -0.01 0.16
6 -1 -3 0.03 0.11
6 -1 -3 0.14 0.13
-6 1 3 0.02 0.13
5 -1 -3 2.28 0.23
-5 1 3 2.32 0.19
-5 1 3 2.37 0.15
-5 1 3 2.7 0.3
-5 1 3 2.42 0.24
4 -1 -3 0.59 0.19
-4 1 3 0.62 0.16
3 -1 -3 0.1 0.13
-3 1 3 0.09 0.08
2 -1 -3 1.53 0.18
-2 1 3 1.4 0.14
1 -1 -3 0.09 0.06
0 -1 -3 0.94 0.07
0 1 3 0.92 0.07
-1 -1 -3 60.36 1.36
-2 -1 -3 63.08 1.55
-2 -1 -3 64.89 1.45
2 1 3 63.1 1.4
2 1 3 64.01 1.56
-3 -1 -3 0.01 0.08
-3 -1 -3 0.03 0.06
3 1 3 0 0.08
-4 -1 -3 6.7 0.28
-4 -1 -3 7.07 0.26
4 1 3 7.27 0.28
-5 -1 -3 0.31 0.11
5 1 3 0.51 0.13
-6 -1 -3 1.38 0.22
6 1 3 1.67 0.2
-7 -1 -3 1.22 0.18
-7 -1 -3 1.43 0.25
7 1 3 1.58 0.18
-8 -1 -3 0.13 0.11
-8 -1 -3 0.34 0.06
8 1 3 0.26 0.07
6 -2 -3 1.76 0.24
6 -2 -3 1.61 0.27
6 -2 -3 1.81 0.17
-6 2 3 1.58 0.17
5 -2 -3 2.79 0.21
-5 2 3 2.21 0.24
-5 2 3 2.48 0.22
-5 2 3 2.07 0.24
4 -2 -3 8.32 0.42
4 -2 -3 8.65 0.33
-4 2 3 8.4 0.37
-4 2 3 9.06 0.43
-4 2 3 9.03 0.38
-3 2 3 7.29 0.32
-3 2 3 6.87 0.31
-3 2 3 7.29 0.29
-2 2 3 15.84 0.46
-2 2 3 15.85 0.47
1 -2 -3 0 0.06
-1 2 3 0.09 0.08
0 -2 -3 42.75 1.05
0 2 3 40.65 1.05
-1 -2 -3 10.05 0.29
-1 -2 -3 9.95 0.29
-2 -2 -3 65.26 1.62
2 2 3 67.36 1.62
2 2 3 65.8 1.44
2 2 3 64.6 1.45
3 2 3 4.11 0.2
3 2 3 4 0.18
-4 -2 -3 -0.05 0.07
-4 -2 -3 -0.04 0.09
4 2 3 0.1 0.07
4 2 3 0.05 0.08
-5 -2 -3 0.07 0.12
5 2 3 0.16 0.12
5 2 3 0.15 0.1
-6 -2 -3 -0.05 0.13
6 2 3 -0.07 0.1
-7 -2 -3 0.12 0.08
7 2 3 0.19 0.1
-8 -2 -3 0.03 0.11
-8 -2 -3 -0.11 0.09
6 -3 -3 2.78 0.21
6 -3 -3 2.6 0.22
6 -3 -3 2.7 0.17
5 -3 -3 3.54 0.2
-5 3 3 4.44 0.22
-5 3 3 3.64 0.27
4 -3 -3 4.67 0.25
4 -3 -3 4.41 0.33
-4 3 3 4.66 0.29
-4 3 3 4.57 0.27
-4 3 3 4.08 0.23
-4 3 3 4.61 0.27
-4 3 3 4.46 0.28
-3 3 3 14.41 0.55
-3 3 3 15.38 0.46
-3 3 3 14.85 0.5
-3 3 3 14.71 0.51
-2 3 3 24.81 0.66
-2 3 3 24.66 0.69
-2 3 3 24.47 0.61
-1 3 3 72.17 1.61
-1 3 3 72.62 1.68
0 -3 -3 23.59 0.64
0 3 3 21.91 0.59
0 3 3 22.31 0.58
-1 -3 -3 50.89 1.24
1 3 3 45.91 1.09
1 3 3 48.3 1.09
2 3 3 8.88 0.29
2 3 3 8.99 0.28
3 3 3 4.14 0.2
3 3 3 4.32 0.19
-4 -3 -3 10.99 0.38
4 3 3 10.58 0.32
4 3 3 11.28 0.38
-5 -3 -3 7.63 0.34
5 3 3 6.8 0.28
5 3 3 7.25 0.33
5 3 3 6.94 0.27
5 3 3 7.3 0.29
5 3 3 6.99 0.28
5 3 3 7.14 0.3
-6 -3 -3 0.06 0.13
6 3 3 0.17 0.09
6 3 3 0.28 0.13
6 3 3 0.21 0.13
6 3 3 0.24 0.12
6 3 3 0.01 0.12
6 3 3 0.16 0.12
-7 -3 -3 0.36 0.18
7 3 3 0.42 0.12
-8 -3 -3 0.45 0.11
8 3 3 0.19 0.08
5 -4 -3 1.78 0.16
-5 4 3 2.07 0.18
4 -4 -3 6.92 0.28
4 -4 -3 5.92 0.37
-4 4 3 6.38 0.35
-4 4 3 6.67 0.29
-4 4 3 6.09 0.3
-4 4 3 6.85 0.3
-4 4 3 7.3 0.31
-3 4 3 0.21 0.15
-3 4 3 0.46 0.12
-3 4 3 0.25 0.16
-3 4 3 0.52 0.1
-3 4 3 0.46 0.11
-3 4 3 0.4 0.12
-3 4 3 0.38 0.16
-3 4 3 0.18 0.17
-2 4 3 10.32 0.4
-2 4 3 10.48 0.33
-2 4 3 11 0.41
-2 4 3 9.95 0.44
-1 4 3 0.92 0.1
-1 4 3 0.88 0.15
-1 4 3 0.97 0.14
0 4 3 46.72 1.11
0 4 3 49.44 1.17
1 4 3 3.25 0.19
2 4 3 29.81 0.76
3 4 3 1.28 0.09
3 4 3 1.15 0.17
4 4 3 8.97 0.29
4 4 3 9.33 0.36
5 4 3 0.56 0.1
5 4 3 0.5 0.1
5 4 3 0.61 0.12
5 4 3 0.74 0.15
5 4 3 0.72 0.11
6 4 3 8.26 0.32
6 4 3 8.37 0.33
6 4 3 8.12 0.36
6 4 3 8.24 0.31
6 4 3 8.35 0.32
-7 -4 -3 0.56 0.16
7 4 3 0.27 0.09
7 4 3 0.58 0.14
-5 5 3 0.03 0.06
4 -5 -3 0.02 0.09
-4 5 3 0.06 0.09
-4 5 3 -0.04 0.1
-4 5 3 0.11 0.11
-4 5 3 -0.05 0.1
-3 5 3 0.1 0.18
-3 5 3 0.35 0.15
-3 5 3 0.36 0.15
-3 5 3 0.29 0.09
-3 5 3 0.38 0.09
-3 5 3 0.29 0.12
-3 5 3 0.53 0.1
-2 5 3 2.11 0.16
-2 5 3 2.43 0.19
-2 5 3 2.4 0.26
-2 5 3 2.31 0.26
-2 5 3 2.28 0.3
-2 5 3 2.53 0.18
-2 5 3 2.59 0.17
-1 5 3 1.76 0.13
-1 5 3 1.86 0.27
-1 5 3 1.61 0.15
-1 5 3 1.68 0.14
-1 5 3 1.86 0.14
-1 5 3 1.81 0.3
-1 5 3 1.55 0.23
0 5 3 0.37 0.15
1 5 3 3.33 0.23
2 5 3 5.9 0.29
3 5 3 15.86 0.4
3 5 3 16.19 0.52
4 5 3 1.09 0.13
4 5 3 0.89 0.11
4 5 3 0.84 0.13
4 5 3 1.04 0.19
4 5 3 0.83 0.12
5 5 3 5.34 0.32
5 5 3 5.45 0.22
5 5 3 5.58 0.24
5 5 3 5.31 0.24
5 5 3 5.59 0.24
6 5 3 0.07 0.1
6 5 3 0.36 0.09
6 5 3 0.21 0.1
6 5 3 0.2 0.1
-7 -5 -3 0.01 0.08
7 5 3 0.2 0.1
7 5 3 0.22 0.09
7 5 3 0.16 0.08
4 -6 -3 0.25 0.06
-4 6 3 0.22 0.07
-3 6 3 0.34 0.09
-3 6 3 0.16 0.13
-3 6 3 0.29 0.09
-3 6 3 0.2 0.06
-3 6 3 0.16 0.08
-2 6 3 0.56 0.09
-2 6 3 0.48 0.1
-2 6 3 0.54 0.18
-2 6 3 0.46 0.15
-2 6 3 0.61 0.16
-2 6 3 0.48 0.1
-2 6 3 0.51 0.08
-1 6 3 4.42 0.16
-1 6 3 4.62 0.28
-1 6 3 4.37 0.21
-1 6 3 4.11 0.3
-1 6 3 4.54 0.2
-1 6 3 4.07 0.19
-1 6 3 4.4 0.2
-1 6 3 4.36 0.31
0 6 3 0.25 0.16
0 6 3 0.01 0.17
0 6 3 0.04 0.06
0 6 3 -0.01 0.06
0 6 3 0.03 0.15
0 6 3 0.01 0.07
1 6 3 1.47 0.1
1 6 3 1.06 0.21
1 6 3 1.34 0.09
1 6 3 1.37 0.22
2 6 3 1.82 0.11
3 6 3 1.62 0.12
3 6 3 1.51 0.12
3 6 3 1.49 0.21
4 6 3 0.1 0.17
4 6 3 0.34 0.09
4 6 3 0.27 0.08
4 6 3 0.41 0.08
5 6 3 0.57 0.11
5 6 3 0.44 0.09
5 6 3 0.55 0.1
5 6 3 0.65 0.08
-6 -6 -3 1.37 0.24
6 6 3 1.23 0.13
6 6 3 1.55 0.15
6 6 3 1.26 0.14
7 6 3 0.62 0.09
7 6 3 0.59 0.09
-2 7 3 0.24 0.06
-2 7 3 0.32 0.13
-2 7 3 0.29 0.15
-2 7 3 0.11 0.07
-1 7 3 0.03 0.06
-1 7 3 0.2 0.15
-1 7 3 0.09 0.07
-1 7 3 0.07 0.13
-1 7 3 0.06 0.06
0 7 3 0.11 0.04
0 7 3 0.07 0.06
0 7 3 0.08 0.07
0 7 3 0.19 0.16
0 7 3 0.1 0.16
0 7 3 -0.09 0.13
1 7 3 0.4 0.06
1 7 3 0.41 0.07
1 7 3 0.46 0.15
2 7 3 1.1 0.18
3 7 3 0.27 0.07
3 7 3 0.36 0.07
4 7 3 0.02 0.06
4 7 3 0.16 0.07
5 7 3 0.23 0.07
5 7 3 0.15 0.07
6 7 3 0.01 0.05
0 8 3 1.91 0.17
0 8 3 1.96 0.09
1 8 3 0.32 0.05
2 7 -4 3.68 0.17
2 7 -4 3.77 0.13
2 7 -4 3.76 0.17
-2 -7 4 3.76 0.16
1 7 -4 0.03 0.06
1 7 -4 -0.08 0.11
1 7 -4 0.17 0.08
1 7 -4 0 0.07
-1 -7 4 -0.08 0.06
0 7 -4 1.98 0.13
0 7 -4 1.84 0.18
0 7 -4 1.9 0.1
4 6 -4 -0.03 0.06
4 6 -4 -0.04 0.08
4 6 -4 -0.35 0.1
-4 -6 4 0.03 0.06
3 6 -4 0.31 0.1
3 6 -4 0.19 0.11
3 6 -4 0.23 0.1
3 6 -4 0.27 0.11
3 6 -4 0.51 0.15
-3 -6 4 0.3 0.09
2 6 -4 1.99 0.27
2 6 -4 1.82 0.15
2 6 -4 1.94 0.17
2 6 -4 1.65 0.23
2 6 -4 1.83 0.17
2 6 -4 1.56 0.17
2 6 -4 1.68 0.19
2 6 -4 1.91 0.23
-2 -6 4 1.83 0.16
1 6 -4 0.28 0.12
1 6 -4 0.28 0.15
1 6 -4 0.23 0.15
1 6 -4 0.19 0.14
1 6 -4 0.16 0.1
1 6 -4 0.32 0.11
1 6 -4 0.25 0.11
-1 -6 4 0.14 0.1
0 6 -4 2.94 0.25
0 6 -4 3.42 0.21
0 6 -4 2.51 0.26
0 6 -4 3.02 0.19
0 6 -4 3.06 0.26
0 6 -4 3.14 0.21
0 -6 4 3.07 0.18
-1 6 -4 0.48 0.11
-1 6 -4 0.36 0.14
-1 6 -4 0.47 0.11
-1 6 -4 0.53 0.18
1 -6 4 0.51 0.1
-2 6 -4 0.67 0.13
-2 6 -4 0.73 0.11
2 -6 4 0.56 0.07
-3 6 -4 0.79 0.11
5 5 -4 0.68 0.12
5 5 -4 0.44 0.13
-5 -5 4 0.48 0.08
4 5 -4 2.94 0.26
4 5 -4 2.27 0.17
4 5 -4 2.34 0.19
-4 -5 4 2.11 0.16
3 5 -4 2.75 0.28
3 5 -4 2.83 0.21
3 5 -4 2.91 0.27
3 5 -4 2.97 0.22
3 5 -4 3.26 0.23
3 5 -4 2.84 0.27
-3 -5 4 3.03 0.2
-3 -5 4 2.49 0.25
2 5 -4 -0.17 0.17
2 5 -4 -0.26 0.12
2 5 -4 0.14 0.12
2 5 -4 0.32 0.18
2 5 -4 -0.07 0.1
2 5 -4 -0.18 0.11
2 5 -4 -0.05 0.16
2 5 -4 0.14 0.11
2 5 -4 0.01 0.1
-2 -5 4 -0.16 0.11
-2 -5 4 0.25 0.17
1 5 -4 0.74 0.12
1 5 -4 0.46 0.19
1 5 -4 0.45 0.14
1 5 -4 0.74 0.15
1 5 -4 0.83 0.11
1 5 -4 0.52 0.13
1 5 -4 0.66 0.15
1 5 -4 0.65 0.17
1 5 -4 0.69 0.17
-1 -5 4 0.71 0.13
-1 -5 4 0.53 0.17
0 5 -4 2.42 0.26
0 5 -4 1.94 0.19
0 5 -4 1.85 0.25
0 5 -4 2.16 0.2
0 5 -4 2.04 0.21
0 5 -4 1.66 0.22
0 5 -4 2.15 0.17
0 5 -4 2.01 0.23
0 5 -4 2.09 0.21
0 -5 4 1.86 0.18
0 -5 4 1.7 0.22
-1 5 -4 3.92 0.25
-1 5 -4 3.8 0.24
-1 5 -4 3.9 0.31
-1 5 -4 3.9 0.25
-1 5 -4 4.7 0.19
-1 5 -4 4.19 0.33
-1 5 -4 4.35 0.26
-1 5 -4 4.24 0.3
1 -5 4 4.14 0.27
1 -5 4 4.12 0.24
-2 5 -4 2.24 0.21
-2 5 -4 2.33 0.12
-2 5 -4 2.51 0.25
-2 5 -4 2.61 0.23
2 -5 4 2.45 0.17
-3 5 -4 5.23 0.27
-3 5 -4 5.94 0.25
3 -5 4 5.56 0.22
-4 5 -4 0.11 0.1
4 -5 4 0.17 0.09
6 4 -4 0.31 0.08
6 4 -4 0.22 0.11
-6 -4 4 0.3 0.1
-6 -4 4 0.25 0.14
5 4 -4 0.22 0.18
5 4 -4 -0.04 0.11
-5 -4 4 0.1 0.08
-5 -4 4 0.19 0.16
4 4 -4 0.6 0.18
4 4 -4 0.1 0.14
4 4 -4 0.31 0.13
-4 -4 4 0.65 0.21
-4 -4 4 0.26 0.09
3 4 -4 0.3 0.18
3 4 -4 0.09 0.15
3 4 -4 0.06 0.16
3 4 -4 0.17 0.14
-3 -4 4 0.39 0.15
-3 -4 4 0.06 0.09
2 4 -4 -0.02 0.14
2 4 -4 0.03 0.17
2 4 -4 -0.18 0.12
2 4 -4 -0.02 0.14
2 4 -4 -0.16 0.13
2 4 -4 0.11 0.16
2 4 -4 0.05 0.17
2 4 -4 0.04 0.14
-2 -4 4 -0.04 0.12
-2 -4 4 0.1 0.14
1 4 -4 0.58 0.14
1 4 -4 0.67 0.19
1 4 -4 0.75 0.17
1 4 -4 0.61 0.15
1 4 -4 0.9 0.21
1 4 -4 0.73 0.2
-1 -4 4 0.96 0.2
0 4 -4 7.96 0.38
0 4 -4 7.26 0.34
0 4 -4 7.71 0.39
0 4 -4 7.81 0.33
0 4 -4 8.26 0.38
0 -4 4 7.61 0.36
-1 4 -4 1.45 0.23
-1 4 -4 1.59 0.22
-1 4 -4 1.59 0.26
-1 4 -4 1.31 0.21
-1 4 -4 1.43 0.2
1 -4 4 1.36 0.2
1 -4 4 1.52 0.21
-2 4 -4 0.81 0.16
-2 4 -4 0.66 0.13
2 -4 4 0.61 0.12
2 -4 4 0.64 0.16
-3 4 -4 0.24 0.14
-3 4 -4 -0.04 0.16
3 -4 4 0.08 0.08
-4 4 -4 -0.29 0.13
-4 4 -4 -0.09 0.11
4 -4 4 0.08 0.08
-5 4 -4 1.4 0.17
5 -4 4 1.64 0.19
5 -4 4 1.39 0.14
6 3 -4 0.76 0.13
6 3 -4 0.84 0.16
-6 -3 4 1.05 0.18
-6 -3 4 0.72 0.19
-6 -3 4 0.98 0.15
5 3 -4 0.27 0.16
5 3 -4 0.27 0.11
-5 -3 4 0.17 0.09
-5 -3 4 0.12 0.17
4 3 -4 -0.12 0.11
4 3 -4 0.03 0.17
4 3 -4 0.04 0.18
-4 -3 4 0.13 0.1
-4 -3 4 0.27 0.16
3 3 -4 1.68 0.24
3 3 -4 1.37 0.22
3 3 -4 1.48 0.24
-3 -3 4 1.44 0.21
-3 -3 4 0.96 0.17
-3 -3 4 1.2 0.18
2 3 -4 0.45 0.16
-2 -3 4 0.7 0.14
-2 -3 4 0.58 0.12
1 3 -4 1.55 0.19
1 3 -4 1.59 0.21
-1 -3 4 1.7 0.2
0 3 -4 16.13 0.52
0 -3 4 16.3 0.51
-1 3 -4 13.53 0.47
1 -3 4 14.5 0.48
2 -3 4 0.06 0.11
-3 3 -4 0.46 0.12
-3 3 -4 -0.01 0.22
-3 3 -4 0.34 0.17
3 -3 4 0.37 0.1
-4 3 -4 0.07 0.18
-4 3 -4 0.22 0.19
4 -3 4 0.31 0.09
-5 3 -4 0.04 0.15
-5 3 -4 -0.01 0.14
5 -3 4 0.04 0.12
5 -3 4 0.07 0.14
-6 3 -4 0.42 0.11
-6 3 -4 0.41 0.11
6 -3 4 0.29 0.1
6 -3 4 0.25 0.08
7 2 -4 0.06 0.07
6 2 -4 7.27 0.34
6 2 -4 7.4 0.33
-6 -2 4 7.01 0.39
-6 -2 4 7.27 0.34
-6 -2 4 7.46 0.29
5 2 -4 1.87 0.26
5 2 -4 2.07 0.26
5 2 -4 2.31 0.25
5 2 -4 2.43 0.22
-5 -2 4 2.53 0.25
-5 -2 4 2.18 0.17
-5 -2 4 2.53 0.31
-5 -2 4 1.45 0.27
4 2 -4 16.6 0.61
4 2 -4 16.87 0.57
-4 -2 4 18.03 0.67
-4 -2 4 17.15 0.48
3 2 -4 3.52 0.28
-3 -2 4 3.16 0.19
-3 -2 4 3.08 0.26
2 2 -4 38.2 0.99
-2 -2 4 37.46 0.95
-2 -2 4 37.55 1.06
-2 -2 4 39.63 0.94
1 2 -4 0.28 0.12
-1 -2 4 0.07 0.1
0 2 -4 48.06 1.17
0 -2 4 48.17 1.14
-1 2 -4 -0.08 0.11
1 -2 4 0.13 0.1
2 -2 4 1.27 0.18
3 -2 4 7.45 0.31
-4 2 -4 4.04 0.29
-4 2 -4 4.01 0.24
4 -2 4 3.64 0.2
4 -2 4 4.13 0.3
-5 2 -4 0.09 0.09
-5 2 -4 0.14 0.21
-5 2 -4 -0.08 0.11
5 -2 4 0.21 0.13
5 -2 4 -0.01 0.16
-6 2 -4 0.02 0.15
6 -2 4 0.35 0.12
6 -2 4 0.2 0.09
-7 2 -4 0.5 0.09
7 1 -4 0.28 0.1
-7 -1 4 0.27 0.11
6 1 -4 0.34 0.16
6 1 -4 0.19 0.11
-6 -1 4 0.4 0.14
-6 -1 4 0.17 0.08
-6 -1 4 0.04 0.19
5 1 -4 0.46 0.16
5 1 -4 0.61 0.12
5 1 -4 0.23 0.17
5 1 -4 0.75 0.21
-5 -1 4 0.37 0.15
-5 -1 4 0.38 0.13
-5 -1 4 0.48 0.19
4 1 -4 0.32 0.19
4 1 -4 0.43 0.18
4 1 -4 0.37 0.13
4 1 -4 0.22 0.17
-4 -1 4 0.29 0.19
-4 -1 4 0.35 0.15
-4 -1 4 0.09 0.09
3 1 -4 7.36 0.34
-3 -1 4 7.12 0.39
-3 -1 4 7.28 0.25
2 1 -4 1.12 0.19
-2 -1 4 1.45 0.13
1 1 -4 14.98 0.46
1 1 -4 14.55 0.45
-1 -1 4 15.57 0.41
-1 -1 4 14.82 0.42
0 -1 4 0.76 0.13
1 -1 4 0.1 0.09
2 -1 4 0.12 0.1
-3 1 -4 0.55 0.12
3 -1 4 0.39 0.12
-4 1 -4 5.27 0.29
4 -1 4 5.5 0.28
-5 1 -4 3.97 0.34
-5 1 -4 3.84 0.26
-5 1 -4 4.09 0.28
5 -1 4 4.1 0.24
5 -1 4 3.46 0.28
-6 1 -4 0.11 0.14
-6 1 -4 -0.3 0.16
-6 1 -4 0.18 0.11
6 -1 4 -0.01 0.12
6 -1 4 -0.15 0.08
7 -1 4 0.14 0.11
-7 0 4 0.31 0.09
6 0 -4 0.19 0.09
6 0 -4 0.2 0.13
6 0 -4 0 0.15
-6 0 4 -0.13 0.14
5 0 -4 0.17 0.21
5 0 -4 0.15 0.12
5 0 -4 0.08 0.18
5 0 -4 0.2 0.19
-5 0 4 -0.07 0.12
-5 0 4 -0.02 0.1
-5 0 4 0.28 0.14
-5 0 4 0.15 0.17
4 0 -4 0.4 0.19
4 0 -4 0.34 0.19
-4 0 4 0.44 0.16
-4 0 4 0.43 0.11
-4 0 4 0.61 0.16
-4 0 4 0.2 0.11
3 0 -4 2.25 0.22
-3 0 4 1.58 0.25
-3 0 4 1.89 0.17
2 0 -4 4.3 0.24
-2 0 4 4.07 0.19
1 0 -4 15.53 0.45
-1 0 4 15.23 0.47
-1 0 4 15.53 0.37
0 0 4 -0.01 0.03
0 0 4 0.05 0.07
0 0 4 0.06 0.04
1 0 4 25.91 0.64
2 0 4 0.74 0.11
2 0 4 0.68 0.11
-3 0 -4 1.77 0.18
3 0 4 1.86 0.17
-4 0 -4 0.11 0.1
4 0 4 0.3 0.12
-5 0 -4 0.85 0.16
5 0 4 0.41 0.1
5 0 4 0.7 0.14
5 0 4 0.55 0.15
-6 0 -4 1.47 0.2
-6 0 -4 1.28 0.23
-6 0 -4 1.51 0.24
6 0 4 1.5 0.13
6 0 4 1.4 0.22
6 0 4 1.34 0.2
-7 0 -4 1.69 0.17
-7 0 -4 2.07 0.24
7 0 4 1.43 0.18
6 -1 -4 0.5 0.11
6 -1 -4 0.63 0.16
6 -1 -4 0.2 0.18
-6 1 4 0.44 0.13
5 -1 -4 1.91 0.26
5 -1 -4 1.84 0.27
5 -1 -4 1.61 0.27
-5 1 4 2.03 0.22
-5 1 4 1.91 0.24
4 -1 -4 -0.37 0.17
-4 1 4 0.11 0.15
-4 1 4 0.06 0.13
-4 1 4 0.27 0.17
-4 1 4 0.11 0.18
-4 1 4 0.13 0.08
3 -1 -4 10.71 0.43
-3 1 4 11.01 0.46
-3 1 4 11.19 0.39
2 -1 -4 10.02 0.38
-2 1 4 9.67 0.33
1 -1 -4 6.33 0.23
-1 1 4 6.27 0.23
0 -1 -4 4.59 0.15
0 1 4 4.94 0.15
1 1 4 110.96 2.38
-2 -1 -4 21.74 0.55
2 1 4 22.35 0.55
2 1 4 22.3 0.56
-3 -1 -4 86.18 1.91
-3 -1 -4 86.96 1.99
3 1 4 85.93 1.92
-4 -1 -4 15.29 0.49
-4 -1 -4 14.52 0.45
4 1 4 15.73 0.47
4 1 4 15.6 0.46
5 1 4 19.55 0.57
5 1 4 17.86 0.52
5 1 4 18.75 0.61
-6 -1 -4 2.36 0.26
6 1 4 1.98 0.21
-7 -1 -4 5.32 0.35
-7 -1 -4 4.59 0.26
7 1 4 4.84 0.25
-8 -1 -4 1.82 0.1
-8 -1 -4 2.1 0.18
6 -2 -4 -0.14 0.11
6 -2 -4 0.16 0.16
6 -2 -4 0.18 0.1
-6 2 4 0 0.09
5 -2 -4 0.52 0.2
-5 2 4 -0.05 0.17
-5 2 4 0.2 0.13
4 -2 -4 0.02 0.11
4 -2 -4 0.36 0.21
-4 2 4 0.24 0.13
-4 2 4 0.08 0.13
-4 2 4 -0.07 0.1
3 -2 -4 0.14 0.18
-3 2 4 0 0.1
-3 2 4 0.02 0.1
-2 2 4 0.66 0.13
-2 2 4 0.7 0.12
-1 2 4 3.72 0.2
-1 2 4 3.6 0.18
0 2 4 11.51 0.35
1 2 4 6.54 0.22
1 2 4 6.64 0.24
2 2 4 1.29 0.13
2 2 4 1.04 0.13
3 2 4 2.77 0.16
3 2 4 2.81 0.18
-4 -2 -4 0.09 0.08
-4 -2 -4 -0.06 0.1
4 2 4 0.1 0.07
4 2 4 0.31 0.1
-5 -2 -4 7.01 0.34
5 2 4 7.22 0.31
5 2 4 6.46 0.3
5 2 4 6.95 0.3
-6 -2 -4 1.36 0.22
6 2 4 1.15 0.17
6 2 4 1.05 0.17
7 2 4 3.21 0.19
-8 -2 -4 0.3 0.09
-8 -2 -4 0.33 0.14
6 -3 -4 0 0.09
6 -3 -4 -0.04 0.07
-5 3 4 0.4 0.12
4 -3 -4 -0.03 0.09
4 -3 -4 0.08 0.21
-4 3 4 0 0.14
-4 3 4 -0.07 0.12
-4 3 4 0 0.09
-4 3 4 0.03 0.13
-3 3 4 0.67 0.18
-3 3 4 0.69 0.17
-3 3 4 0.66 0.11
-3 3 4 0.78 0.15
-3 3 4 0.58 0.12
-3 3 4 0.58 0.12
-3 3 4 0.68 0.11
-2 3 4 1.96 0.15
-2 3 4 2.3 0.22
-2 3 4 1.8 0.21
-1 3 4 0.25 0.11
-1 3 4 0.55 0.12
0 3 4 14.63 0.42
0 3 4 14.63 0.43
1 3 4 14.6 0.42
2 3 4 0.26 0.09
2 3 4 0.29 0.09
3 3 4 0.76 0.12
3 3 4 0.68 0.12
-4 -3 -4 3.74 0.23
4 3 4 3.51 0.23
4 3 4 3.61 0.17
-5 -3 -4 0.72 0.16
5 3 4 0.41 0.09
5 3 4 0.63 0.12
5 3 4 0.63 0.12
5 3 4 0.4 0.12
5 3 4 0.41 0.14
5 3 4 0.61 0.11
-6 -3 -4 0.65 0.16
6 3 4 0.82 0.15
6 3 4 0.73 0.15
6 3 4 0.74 0.14
6 3 4 0.74 0.14
6 3 4 0.85 0.11
6 3 4 0.74 0.15
7 3 4 1.34 0.17
-8 -3 -4 -0.07 0.09
8 3 4 -0.06 0.07
-5 4 4 1.33 0.16
4 -4 -4 0.01 0.08
4 -4 -4 -0.22 0.2
-4 4 4 0.2 0.1
-4 4 4 0.01 0.14
-4 4 4 0.23 0.11
-4 4 4 -0.03 0.12
-4 4 4 0.05 0.09
-3 4 4 2.5 0.23
-3 4 4 2.52 0.25
-3 4 4 2.3 0.19
-3 4 4 2.67 0.26
-3 4 4 2.29 0.18
-3 4 4 2.81 0.21
-3 4 4 2.46 0.19
-2 4 4 0.52 0.17
-2 4 4 1.14 0.15
-2 4 4 0.7 0.17
-2 4 4 0.94 0.14
-2 4 4 1.04 0.21
-2 4 4 0.79 0.11
-2 4 4 0.9 0.14
-1 4 4 6.8 0.31
-1 4 4 6.68 0.31
-1 4 4 6.22 0.22
0 4 4 -0.02 0.1
0 4 4 0.07 0.1
0 4 4 -0.01 0.04
1 4 4 3.72 0.21
2 4 4 3.41 0.21
2 4 4 3.55 0.21
3 4 4 1.1 0.16
3 4 4 1.12 0.1
3 4 4 1.19 0.16
4 4 4 1.54 0.13
4 4 4 1.32 0.17
-5 -4 -4 3.02 0.26
5 4 4 2.57 0.18
5 4 4 2.69 0.2
5 4 4 2.64 0.22
5 4 4 2.98 0.19
5 4 4 2.81 0.18
6 4 4 0.44 0.12
6 4 4 0.69 0.13
6 4 4 0.4 0.12
6 4 4 0.37 0.09
6 4 4 0.42 0.14
7 4 4 1.26 0.18
7 4 4 1.6 0.17
7 4 4 1.47 0.17
7 4 4 1.49 0.16
4 -5 -4 0.56 0.09
-4 5 4 0.54 0.12
-4 5 4 0.69 0.11
-4 5 4 0.64 0.1
-4 5 4 0.96 0.14
-3 5 4 3.03 0.18
-3 5 4 2.77 0.19
-3 5 4 2.83 0.18
-3 5 4 3.54 0.21
-3 5 4 3.14 0.27
-2 5 4 4.14 0.34
-2 5 4 3.93 0.21
-2 5 4 4.06 0.21
-2 5 4 4.34 0.3
-2 5 4 3.76 0.21
-2 5 4 3.89 0.19
-1 5 4 8.04 0.27
-1 5 4 7.74 0.26
-1 5 4 7.66 0.24
-1 5 4 8.06 0.37
-1 5 4 7.48 0.39
-1 5 4 8.02 0.27
0 5 4 3.41 0.14
0 5 4 3.82 0.26
3 5 4 7.17 0.34
3 5 4 7.16 0.21
3 5 4 7.01 0.22
4 5 4 7.08 0.24
4 5 4 6.7 0.22
4 5 4 6.49 0.24
4 5 4 6.65 0.24
4 5 4 6.78 0.33
5 5 4 0.27 0.14
5 5 4 -0.03 0.07
5 5 4 0.12 0.08
5 5 4 -0.01 0.08
5 5 4 -0.11 0.09
6 5 4 -0.08 0.07
6 5 4 0 0.09
6 5 4 0 0.08
6 5 4 -0.13 0.08
7 5 4 0.75 0.13
7 5 4 0.74 0.11
7 5 4 0.87 0.1
-3 6 4 -0.02 0.06
-3 6 4 -0.08 0.08
-3 6 4 -0.01 0.06
-3 6 4 -0.05 0.12
-3 6 4 0.02 0.07
-2 6 4 0.62 0.11
-2 6 4 0.57 0.1
-2 6 4 0.79 0.13
-2 6 4 0.7 0.1
-2 6 4 0.44 0.18
-2 6 4 0.62 0.17
-1 6 4 2.51 0.23
-1 6 4 1.96 0.14
-1 6 4 2.3 0.16
-1 6 4 2.46 0.3
-1 6 4 2.42 0.15
0 6 4 5.18 0.33
0 6 4 4.96 0.17
0 6 4 4.93 0.31
0 6 4 4.86 0.19
3 6 4 2.29 0.12
4 6 4 4.45 0.28
4 6 4 4.8 0.18
4 6 4 4.78 0.2
4 6 4 4.69 0.19
5 6 4 0.67 0.09
5 6 4 0.48 0.09
5 6 4 0.82 0.13
6 6 4 4.3 0.21
6 6 4 4.55 0.19
6 6 4 4.33 0.21
7 6 4 0.73 0.08
7 6 4 0.66 0.1
-2 7 4 0.06 0.11
-2 7 4 -0.03 0.06
-1 7 4 1.01 0.16
-1 7 4 0.88 0.11
-1 7 4 0.67 0.1
0 7 4 0.01 0.05
0 7 4 0.06 0.13
0 7 4 0.04 0.06
4 7 4 1.85 0.11
4 7 4 1.97 0.12
5 7 4 10 0.28
5 7 4 10.49 0.3
6 7 4 1.9 0.11
4 6 -5 0.35 0.06
4 6 -5 0.46 0.07
3 6 -5 1.07 0.14
3 6 -5 1.2 0.13
-3 -6 5 0.94 0.11
2 6 -5 1.24 0.16
2 6 -5 1.48 0.18
2 6 -5 1 0.17
-2 -6 5 1.26 0.12
1 6 -5 1.48 0.15
1 6 -5 1 0.17
1 6 -5 1.14 0.16
1 6 -5 1.34 0.18
-1 -6 5 1.42 0.13
0 6 -5 0.25 0.1
0 6 -5 0.12 0.13
0 6 -5 0.11 0.1
0 -6 5 0.26 0.07
-1 6 -5 0.31 0.1
-1 6 -5 0.54 0.1
-1 6 -5 0.6 0.13
1 -6 5 0.35 0.08
-2 6 -5 -0.05 0.09
2 -6 5 0.08 0.05
5 5 -5 2.14 0.14
-5 -5 5 2.26 0.15
4 5 -5 2.49 0.13
4 5 -5 2.45 0.18
-4 -5 5 2.32 0.14
3 5 -5 2.99 0.21
3 5 -5 3.01 0.25
3 5 -5 3.17 0.28
3 5 -5 2.98 0.2
-3 -5 5 3.14 0.19
2 5 -5 1.41 0.13
2 5 -5 0.86 0.14
2 5 -5 1.38 0.23
2 5 -5 1.34 0.2
2 5 -5 1.37 0.22
-2 -5 5 1.17 0.17
1 5 -5 5.19 0.28
1 5 -5 5 0.21
1 5 -5 5.27 0.36
1 5 -5 4.52 0.27
1 5 -5 4.82 0.3
1 5 -5 4.94 0.26
-1 -5 5 4.99 0.23
-1 -5 5 4.75 0.3
0 5 -5 0.09 0.17
0 5 -5 0.22 0.15
0 5 -5 0.35 0.14
0 5 -5 0.22 0.13
0 5 -5 0.14 0.11
0 -5 5 0.35 0.16
0 -5 5 0.24 0.09
-1 5 -5 6.88 0.24
-1 5 -5 6.75 0.34
-1 5 -5 7.03 0.31
-1 5 -5 6.74 0.31
1 -5 5 7.04 0.26
-2 5 -5 4.21 0.24
-2 5 -5 3.8 0.23
2 -5 5 4.91 0.21
-3 5 -5 0.31 0.09
3 -5 5 0.09 0.07
4 -5 5 1.18 0.19
4 -5 5 1.22 0.11
-6 -4 5 0.16 0.09
-6 -4 5 0.18 0.06
5 4 -5 0.04 0.08
5 4 -5 -0.03 0.11
-5 -4 5 0.02 0.1
-5 -4 5 0 0.13
-5 -4 5 0.1 0.15
4 4 -5 0.1 0.16
4 4 -5 0.07 0.14
4 4 -5 0.09 0.12
-4 -4 5 0.02 0.15
-4 -4 5 0.17 0.08
3 4 -5 2.36 0.25
3 4 -5 2.45 0.2
3 4 -5 2.54 0.23
3 4 -5 2.87 0.28
-3 -4 5 2.33 0.23
-3 -4 5 2.39 0.2
2 4 -5 1.43 0.24
2 4 -5 1.21 0.22
2 4 -5 1.46 0.22
2 4 -5 1.45 0.21
-2 -4 5 2.03 0.26
-2 -4 5 1.36 0.19
1 4 -5 2.77 0.29
1 4 -5 2.24 0.26
1 4 -5 2.33 0.26
1 4 -5 2.77 0.25
-1 -4 5 2.62 0.21
-1 -4 5 2.27 0.28
0 4 -5 0.17 0.18
0 4 -5 0.1 0.14
0 4 -5 0.16 0.13
0 4 -5 -0.01 0.13
0 -4 5 -0.17 0.09
0 -4 5 -0.03 0.13
-1 4 -5 4.47 0.34
-1 4 -5 4.76 0.31
-1 4 -5 4.7 0.31
-1 4 -5 4.27 0.27
1 -4 5 4.7 0.29
1 -4 5 4.75 0.24
-2 4 -5 2.67 0.3
-2 4 -5 2.26 0.24
2 -4 5 2.41 0.19
2 -4 5 2.12 0.25
-3 4 -5 12.26 0.5
-3 4 -5 11.63 0.43
3 -4 5 12.09 0.35
-4 4 -5 0.06 0.14
-4 4 -5 -0.12 0.1
4 -4 5 0.21 0.11
4 -4 5 0.24 0.15
-5 4 -5 1.83 0.14
5 -4 5 1.71 0.12
5 -4 5 1.71 0.18
6 3 -5 0.24 0.1
-6 -3 5 0.19 0.11
-6 -3 5 0.12 0.07
5 3 -5 1.12 0.2
-5 -3 5 1.24 0.18
-5 -3 5 1.1 0.19
-5 -3 5 1.28 0.21
4 3 -5 0.06 0.18
4 3 -5 0.14 0.15
-4 -3 5 -0.05 0.16
-4 -3 5 -0.06 0.08
3 3 -5 1.72 0.17
3 3 -5 1.52 0.22
3 3 -5 1.49 0.24
3 3 -5 2.22 0.27
-3 -3 5 1.66 0.26
-3 -3 5 1.7 0.19
2 3 -5 0.07 0.16
2 3 -5 0.3 0.2
2 3 -5 0.05 0.12
2 3 -5 0.05 0.13
2 3 -5 0.22 0.16
-2 -3 5 0.34 0.17
-2 -3 5 -0.05 0.1
1 3 -5 12.85 0.48
-1 -3 5 12.77 0.46
0 3 -5 8.67 0.38
0 -3 5 8.87 0.36
-1 3 -5 4.95 0.29
1 -3 5 5.18 0.29
-2 3 -5 2.2 0.32
-2 3 -5 1.65 0.22
-2 3 -5 1.79 0.15
2 -3 5 1.84 0.21
2 -3 5 2 0.18
-3 3 -5 2.68 0.19
-3 3 -5 2.6 0.32
-3 3 -5 2.46 0.27
3 -3 5 2.53 0.18
3 -3 5 2.84 0.27
-4 3 -5 0.59 0.18
-4 3 -5 0.64 0.19
4 -3 5 0.82 0.21
4 -3 5 0.53 0.13
4 -3 5 0.92 0.13
-5 3 -5 6.55 0.35
-5 3 -5 6.51 0.32
5 -3 5 6 0.25
5 -3 5 6.56 0.31
-6 3 -5 0.06 0.08
-6 3 -5 -0.06 0.1
6 2 -5 0.05 0.1
-6 -2 5 0.02 0.07
-6 -2 5 0.2 0.11
-6 -2 5 0.22 0.14
5 2 -5 0.93 0.11
5 2 -5 0.99 0.21
5 2 -5 0.71 0.2
5 2 -5 1.19 0.18
-5 -2 5 0.93 0.14
-5 -2 5 0.78 0.19
-5 -2 5 0.98 0.21
4 2 -5 0.49 0.15
4 2 -5 0.54 0.17
-4 -2 5 0.68 0.19
-4 -2 5 0.67 0.1
-4 -2 5 0.52 0.21
-4 -2 5 0.3 0.12
3 2 -5 0.07 0.2
3 2 -5 0 0.15
3 2 -5 0.15 0.14
-3 -2 5 -0.04 0.1
-3 -2 5 0.08 0.14
2 2 -5 0.08 0.15
-2 -2 5 0.23 0.15
-2 -2 5 0.07 0.08
-2 -2 5 0.11 0.13
1 2 -5 2.74 0.23
-1 -2 5 2.69 0.19
-1 -2 5 2.13 0.16
0 2 -5 2.77 0.21
0 -2 5 2.78 0.21
-1 2 -5 0.21 0.13
1 -2 5 0.1 0.1
2 -2 5 3.28 0.23
-3 2 -5 1.61 0.21
3 -2 5 1.49 0.14
3 -2 5 1.53 0.19
-4 2 -5 0.81 0.17
-4 2 -5 0.5 0.12
4 -2 5 0.52 0.12
4 -2 5 0.26 0.16
4 -2 5 0.72 0.2
-5 2 -5 1.46 0.15
-5 2 -5 1.26 0.2
5 -2 5 1.27 0.21
5 -2 5 1.22 0.18
-6 2 -5 1.24 0.2
6 -2 5 1.08 0.16
6 -2 5 0.97 0.12
6 1 -5 0.14 0.13
-6 -1 5 0.06 0.17
-6 -1 5 -0.12 0.09
5 1 -5 1.52 0.26
5 1 -5 1.9 0.27
-5 -1 5 1.86 0.24
-5 -1 5 1.74 0.18
-5 -1 5 2.17 0.29
4 1 -5 0.54 0.13
4 1 -5 0.87 0.19
4 1 -5 0.64 0.18
-4 -1 5 0.47 0.18
-4 -1 5 0.57 0.13
-4 -1 5 0.7 0.19
3 1 -5 1.84 0.26
-3 -1 5 2.16 0.26
2 1 -5 13.19 0.47
-2 -1 5 13.13 0.5
-2 -1 5 13.63 0.39
1 1 -5 5.57 0.27
-1 -1 5 5.61 0.24
-1 -1 5 5.53 0.21
0 1 -5 12.65 0.42
0 -1 5 13.01 0.39
0 -1 5 13.29 0.37
1 -1 5 0.13 0.09
2 -1 5 26.14 0.7
3 -1 5 1.63 0.18
-4 1 -5 0.33 0.23
-4 1 -5 -0.07 0.14
4 -1 5 0.32 0.14
4 -1 5 0.15 0.13
4 -1 5 -0.08 0.11
-5 1 -5 2.05 0.31
-5 1 -5 1.61 0.22
5 -1 5 1.25 0.22
5 -1 5 1.58 0.17
-6 1 -5 0.11 0.1
-6 1 -5 0.27 0.14
6 -1 5 0.12 0.07
6 -1 5 0.14 0.11
7 -1 5 2.48 0.19
6 0 -5 1.71 0.22
-6 0 5 1.53 0.2
5 0 -5 2.29 0.26
5 0 -5 2.53 0.21
5 0 -5 2.95 0.26
-5 0 5 2.51 0.2
-5 0 5 2.36 0.28
-5 0 5 2.63 0.16
-5 0 5 2.68 0.27
4 0 -5 -0.11 0.15
4 0 -5 -0.03 0.14
-4 0 5 0.15 0.13
-4 0 5 0.1 0.09
-4 0 5 0.14 0.19
3 0 -5 20.96 0.65
-3 0 5 21.15 0.72
2 0 -5 -0.06 0.13
-2 0 5 0.26 0.14
1 0 -5 39.31 0.98
0 0 5 6.9 0.25
1 0 5 0.18 0.07
1 0 5 0.19 0.09
2 0 5 0.52 0.1
2 0 5 0.44 0.09
-3 0 -5 1.35 0.18
3 0 5 1.1 0.17
-4 0 -5 1.67 0.22
4 0 5 1.58 0.18
-5 0 -5 0.73 0.19
5 0 5 0.68 0.16
5 0 5 0.79 0.14
5 0 5 0.92 0.14
5 0 5 0.76 0.14
-6 0 -5 0.28 0.15
-6 0 -5 0.41 0.17
-6 0 -5 0.35 0.15
6 0 5 0.27 0.13
-7 0 -5 0.09 0.14
-7 0 -5 0.08 0.09
7 0 5 0.26 0.1
6 -1 -5 0.42 0.09
6 -1 -5 0.34 0.12
-6 1 5 0.38 0.11
5 -1 -5 3.89 0.34
5 -1 -5 3.8 0.25
-5 1 5 3.37 0.26
-5 1 5 3.61 0.27
4 -1 -5 9.44 0.44
-4 1 5 9.13 0.38
-4 1 5 8.2 0.39
-4 1 5 9.18 0.44
3 -1 -5 10.17 0.44
-3 1 5 10.39 0.39
-3 1 5 10.32 0.45
2 -1 -5 12.5 0.43
-2 1 5 12.51 0.4
-2 1 5 12.05 0.47
1 -1 -5 89.52 2.02
-1 1 5 85.63 1.92
0 1 5 33.15 0.79
1 1 5 145.1 3.12
1 1 5 145.4 3.08
2 1 5 69.94 1.57
2 1 5 69.38 1.55
3 1 5 17.08 0.48
3 1 5 17.41 0.51
-4 -1 -5 11.23 0.4
4 1 5 11.35 0.4
4 1 5 11.06 0.38
-5 -1 -5 5.04 0.33
5 1 5 5.23 0.29
5 1 5 4.96 0.29
-6 -1 -5 8.64 0.43
6 1 5 8.26 0.39
6 1 5 8.65 0.37
-7 -1 -5 -0.02 0.14
-7 -1 -5 0 0.1
7 1 5 0.05 0.1
6 -2 -5 0.15 0.09
6 -2 -5 0.17 0.08
5 -2 -5 0.11 0.2
-5 2 5 0.3 0.12
4 -2 -5 0.12 0.17
4 -2 -5 0.18 0.12
-4 2 5 0.22 0.12
-4 2 5 0.36 0.15
3 -2 -5 0.18 0.2
-3 2 5 0.15 0.12
-3 2 5 0.25 0.12
-3 2 5 0.85 0.21
-3 2 5 0.28 0.12
2 -2 -5 1.43 0.22
-2 2 5 1.18 0.15
-2 2 5 1.38 0.25
-2 2 5 1.54 0.19
1 -2 -5 0.12 0.13
-1 2 5 0.03 0.09
0 -2 -5 7.28 0.29
0 2 5 6.72 0.25
1 2 5 18.91 0.51
1 2 5 19.66 0.5
2 2 5 10.52 0.34
2 2 5 10.16 0.34
3 2 5 40.33 0.93
3 2 5 38.99 0.96
3 2 5 40.17 0.98
-4 -2 -5 0.13 0.12
-4 -2 -5 -0.01 0.08
4 2 5 0.04 0.09
4 2 5 0.11 0.08
-5 -2 -5 5.21 0.32
5 2 5 5.21 0.27
5 2 5 4.69 0.25
5 2 5 5.15 0.27
5 2 5 4.99 0.28
5 2 5 5.23 0.26
5 2 5 4.69 0.29
-6 -2 -5 1.43 0.22
6 2 5 1.03 0.16
6 2 5 0.92 0.14
6 2 5 0.89 0.15
7 2 5 1.7 0.12
-8 -2 -5 -0.05 0.12
-8 -2 -5 0.07 0.08
-5 3 5 0.01 0.1
4 -3 -5 -0.01 0.17
4 -3 -5 0 0.09
-4 3 5 0.29 0.11
-4 3 5 0.17 0.16
-4 3 5 0.07 0.08
3 -3 -5 0.34 0.22
-3 3 5 0.29 0.09
-3 3 5 0.17 0.12
-3 3 5 -0.02 0.13
-3 3 5 0.3 0.16
-3 3 5 0.09 0.09
-3 3 5 0.14 0.09
-3 3 5 0.2 0.15
-2 3 5 0.44 0.1
-2 3 5 0.06 0.14
-1 3 5 5.04 0.25
-1 3 5 4.89 0.2
-1 3 5 4.87 0.27
0 3 5 27.13 0.72
0 3 5 28.14 0.72
1 3 5 -0.06 0.07
2 3 5 7.93 0.31
2 3 5 8.88 0.3
3 3 5 5.04 0.26
3 3 5 4.84 0.19
3 3 5 5.35 0.25
-4 -3 -5 1.29 0.18
4 3 5 0.94 0.16
4 3 5 1.12 0.12
-5 -3 -5 12.5 0.48
5 3 5 12.93 0.41
5 3 5 12.84 0.41
5 3 5 12.66 0.41
5 3 5 12.66 0.41
5 3 5 12.36 0.46
-6 -3 -5 1.18 0.22
6 3 5 1.07 0.16
6 3 5 0.98 0.16
6 3 5 0.76 0.15
6 3 5 1.16 0.15
6 3 5 1.1 0.16
7 3 5 3.46 0.21
-5 4 5 2.03 0.13
4 -4 -5 0.51 0.18
4 -4 -5 0.45 0.11
-4 4 5 0.4 0.12
-4 4 5 0.77 0.12
-4 4 5 0.49 0.11
-4 4 5 0.44 0.13
3 -4 -5 3.25 0.32
-3 4 5 3.15 0.21
-3 4 5 2.69 0.2
-3 4 5 3.44 0.28
-3 4 5 2.96 0.29
-3 4 5 3.18 0.22
-3 4 5 2.61 0.2
-2 4 5 1.51 0.15
-2 4 5 1.51 0.2
-2 4 5 1.61 0.16
-2 4 5 1.85 0.16
-2 4 5 1.53 0.25
-2 4 5 1.19 0.16
-2 4 5 1.88 0.25
-1 4 5 6.55 0.31
-1 4 5 6.42 0.32
-1 4 5 5.49 0.22
0 4 5 4.9 0.17
0 4 5 5.12 0.25
0 4 5 5.11 0.27
1 4 5 1.16 0.15
2 4 5 1.23 0.18
2 4 5 1.23 0.15
3 4 5 11.65 0.39
3 4 5 11.58 0.41
3 4 5 11.6 0.32
-4 -4 -5 1.15 0.18
4 4 5 0.99 0.16
4 4 5 0.92 0.12
4 4 5 1.06 0.12
4 4 5 0.93 0.12
4 4 5 0.98 0.11
-5 -4 -5 2.89 0.27
5 4 5 2.96 0.19
5 4 5 2.82 0.19
5 4 5 2.96 0.2
5 4 5 2.99 0.24
5 4 5 3.26 0.19
-6 -4 -5 3.12 0.26
6 4 5 3.02 0.23
6 4 5 3.31 0.24
6 4 5 3.32 0.18
6 4 5 3.43 0.22
6 4 5 3.02 0.2
7 4 5 0.15 0.09
7 4 5 -0.03 0.1
7 4 5 0.02 0.11
7 4 5 0.01 0.11
4 -5 -5 0.57 0.08
-4 5 5 0.77 0.12
-4 5 5 0.52 0.08
-4 5 5 0.53 0.1
3 -5 -5 0.52 0.23
-3 5 5 0.75 0.12
-3 5 5 0.56 0.11
-3 5 5 0.55 0.1
-3 5 5 0.91 0.17
-3 5 5 0.82 0.13
-2 5 5 0.65 0.11
-2 5 5 0.7 0.1
-2 5 5 0.77 0.17
-2 5 5 0.78 0.12
-2 5 5 0.8 0.12
-2 5 5 0.39 0.17
-2 5 5 0.46 0.18
-1 5 5 -0.01 0.06
-1 5 5 -0.02 0.07
-1 5 5 0.03 0.12
-1 5 5 -0.1 0.15
-1 5 5 0.08 0.17
-1 5 5 -0.01 0.06
-1 5 5 -0.1 0.07
0 5 5 0.15 0.14
0 5 5 0.26 0.06
0 5 5 0.26 0.07
0 5 5 0.16 0.15
0 5 5 0.21 0.14
0 5 5 0.28 0.07
1 5 5 -0.02 0.12
3 5 5 2.18 0.12
3 5 5 2.19 0.23
3 5 5 2.27 0.12
4 5 5 2.48 0.15
4 5 5 2.5 0.13
4 5 5 2.39 0.15
4 5 5 2.55 0.23
4 5 5 2.42 0.14
5 5 5 1.43 0.15
5 5 5 1.72 0.13
5 5 5 1.35 0.14
5 5 5 1.73 0.15
5 5 5 1.41 0.2
6 5 5 0.38 0.09
6 5 5 0.56 0.1
6 5 5 0.52 0.1
6 5 5 0.27 0.08
7 5 5 2.27 0.15
7 5 5 2.2 0.11
7 5 5 2.25 0.17
-3 6 5 2.89 0.17
-3 6 5 2.83 0.16
-3 6 5 2.87 0.23
-2 6 5 4.31 0.29
-2 6 5 3.76 0.2
-2 6 5 4.16 0.18
-1 6 5 1.57 0.21
-1 6 5 1.72 0.14
-1 6 5 1.97 0.13
-1 6 5 1.71 0.28
-1 6 5 1.86 0.15
0 6 5 5.64 0.2
0 6 5 5.63 0.18
0 6 5 5.38 0.31
0 6 5 5.67 0.21
0 6 5 5.45 0.36
4 6 5 3.57 0.27
4 6 5 4.14 0.18
4 6 5 4.03 0.15
4 6 5 3.63 0.16
5 6 5 3.98 0.18
5 6 5 3.87 0.17
5 6 5 3.97 0.18
6 6 5 -0.03 0.07
6 6 5 0.21 0.08
6 6 5 -0.07 0.08
-2 7 5 0.73 0.15
-2 7 5 0.58 0.09
-1 7 5 5.2 0.28
-1 7 5 5.24 0.18
-1 7 5 5.38 0.19
0 7 5 3.47 0.25
0 7 5 3.76 0.15
5 7 5 2.26 0.13
6 7 5 3.6 0.14
2 6 -6 0.12 0.1
2 6 -6 0.2 0.1
-2 -6 6 0.14 0.05
1 6 -6 0.42 0.12
1 6 -6 0.15 0.09
-1 -6 6 0.16 0.06
0 6 -6 0.51 0.12
0 6 -6 0.31 0.09
0 -6 6 0.33 0.06
-1 6 -6 1.56 0.13
-4 -5 6 0.11 0.13
-4 -5 6 0.01 0.08
3 5 -6 -0.05 0.13
3 5 -6 0.11 0.09
-3 -5 6 0.05 0.07
2 5 -6 0.1 0.13
2 5 -6 0.01 0.11
-2 -5 6 0.07 0.08
1 5 -6 0.08 0.12
1 5 -6 0.21 0.08
1 5 -6 0.03 0.16
1 5 -6 0.07 0.14
-1 -5 6 0.23 0.08
0 5 -6 2.81 0.15
0 5 -6 2.75 0.26
0 5 -6 2.73 0.22
0 5 -6 2.78 0.22
0 -5 6 2.65 0.16
-1 5 -6 1.31 0.19
-1 5 -6 1.48 0.1
1 -5 6 1.63 0.14
-2 5 -6 0.37 0.11
2 -5 6 0.45 0.14
2 -5 6 0.38 0.07
3 -5 6 0.06 0.08
3 -5 6 0.09 0.11
5 4 -6 2.02 0.14
-5 -4 6 2.29 0.23
-5 -4 6 2.15 0.15
4 4 -6 0.09 0.12
4 4 -6 0.06 0.14
-4 -4 6 -0.05 0.1
-4 -4 6 0.1 0.14
3 4 -6 4.12 0.29
3 4 -6 3.68 0.24
3 4 -6 3.62 0.26
3 4 -6 3.19 0.27
-3 -4 6 3.88 0.19
2 4 -6 3.04 0.29
2 4 -6 2.51 0.22
2 4 -6 3.23 0.26
2 4 -6 3.14 0.3
-2 -4 6 3.36 0.2
-2 -4 6 2.52 0.24
1 4 -6 3.05 0.24
1 4 -6 3.29 0.28
1 4 -6 3.49 0.3
1 4 -6 3.26 0.3
-1 -4 6 3.35 0.19
-1 -4 6 3.06 0.26
0 4 -6 9.92 0.45
0 4 -6 10.42 0.42
0 4 -6 10.44 0.47
0 4 -6 10.32 0.44
0 -4 6 9.18 0.42
0 -4 6 9.73 0.34
-1 4 -6 9.57 0.4
-1 4 -6 10.11 0.45
1 -4 6 8.84 0.4
1 -4 6 9.35 0.31
-2 4 -6 0.28 0.18
-2 4 -6 0.22 0.15
2 -4 6 0.2 0.14
2 -4 6 0.15 0.08
-3 4 -6 0.63 0.13
-3 4 -6 0.71 0.17
3 -4 6 1.03 0.18
3 -4 6 0.64 0.12
3 -4 6 0.77 0.12
-4 4 -6 0.11 0.1
-4 4 -6 0.07 0.1
4 -4 6 0.02 0.11
4 -4 6 -0.02 0.07
5 3 -6 0.07 0.12
-5 -3 6 0.31 0.14
-5 -3 6 0.05 0.14
-5 -3 6 0.3 0.09
4 3 -6 4.06 0.32
4 3 -6 4.13 0.26
4 3 -6 4.44 0.27
4 3 -6 4.16 0.31
-4 -3 6 4.19 0.24
-4 -3 6 4.26 0.3
-4 -3 6 4.35 0.31
3 3 -6 0 0.19
3 3 -6 0.19 0.21
3 3 -6 0.06 0.12
3 3 -6 0.01 0.15
-3 -3 6 -0.02 0.08
-3 -3 6 -0.09 0.14
-3 -3 6 0.09 0.15
2 3 -6 8.78 0.32
2 3 -6 8.79 0.42
2 3 -6 7.91 0.39
2 3 -6 8 0.41
2 3 -6 8.24 0.45
-2 -3 6 7.78 0.38
-2 -3 6 8.25 0.29
1 3 -6 0.29 0.14
1 3 -6 0.23 0.17
1 3 -6 0.16 0.18
1 3 -6 0.18 0.14
-1 -3 6 0.18 0.1
-1 -3 6 0.11 0.17
0 3 -6 1.02 0.19
0 3 -6 1.24 0.17
0 3 -6 1.09 0.21
0 3 -6 1.07 0.16
0 3 -6 1.35 0.23
0 -3 6 1.07 0.18
0 -3 6 1.15 0.17
-1 3 -6 2.42 0.33
-1 3 -6 2.6 0.17
-1 3 -6 2.42 0.22
1 -3 6 2.39 0.26
1 -3 6 2.65 0.19
-2 3 -6 3.96 0.32
-2 3 -6 4.1 0.25
-2 3 -6 4.52 0.19
2 -3 6 4.52 0.31
2 -3 6 4.19 0.2
-3 3 -6 0.19 0.16
-3 3 -6 0.31 0.11
3 -3 6 0.36 0.17
3 -3 6 0.37 0.08
3 -3 6 0 0.16
3 -3 6 0.28 0.15
-4 3 -6 0.18 0.17
-4 3 -6 0.16 0.15
4 -3 6 0.22 0.14
4 -3 6 0.22 0.12
-5 3 -6 0.59 0.15
-5 3 -6 0.32 0.17
5 -3 6 0.48 0.12
5 -3 6 0.5 0.09
6 2 -6 -0.01 0.07
6 2 -6 -0.1 0.1
5 2 -6 0.11 0.13
-5 -2 6 0.09 0.15
-5 -2 6 0.09 0.13
-5 -2 6 0.07 0.1
4 2 -6 0.4 0.17
4 2 -6 0.61 0.14
4 2 -6 0.29 0.17
-4 -2 6 -0.09 0.17
-4 -2 6 0.49 0.15
-4 -2 6 0.46 0.11
3 2 -6 0.86 0.18
3 2 -6 0.89 0.18
3 2 -6 0.98 0.23
-3 -2 6 1.14 0.14
-3 -2 6 0.89 0.21
-3 -2 6 1.11 0.23
-3 -2 6 0.57 0.15
2 2 -6 0.67 0.19
2 2 -6 1.42 0.24
2 2 -6 0.7 0.18
-2 -2 6 0.69 0.1
-2 -2 6 0.55 0.16
1 2 -6 -0.11 0.11
-1 -2 6 0.13 0.14
-1 -2 6 -0.07 0.08
0 2 -6 3.27 0.27
0 -2 6 3.11 0.23
0 -2 6 3.25 0.19
1 -2 6 -0.03 0.14
2 -2 6 0.06 0.09
2 -2 6 -0.1 0.11
-3 2 -6 1.28 0.2
-3 2 -6 1.29 0.19
3 -2 6 1.5 0.23
3 -2 6 1.63 0.26
3 -2 6 1.56 0.23
-4 2 -6 8.09 0.39
-4 2 -6 8.45 0.32
4 -2 6 8.43 0.33
4 -2 6 7.86 0.38
4 -2 6 8.75 0.39
-5 2 -6 0.9 0.12
-5 2 -6 0.85 0.14
5 -2 6 0.92 0.15
5 -2 6 1.14 0.16
-6 2 -6 2.48 0.21
6 1 -6 0.33 0.13
-6 -1 6 0.53 0.12
5 1 -6 0.38 0.15
5 1 -6 0.02 0.18
-5 -1 6 0.3 0.09
-5 -1 6 0.5 0.13
-5 -1 6 0.69 0.18
4 1 -6 0.26 0.16
4 1 -6 0.32 0.21
4 1 -6 0.42 0.21
-4 -1 6 0.2 0.18
-4 -1 6 0.19 0.1
-4 -1 6 0.18 0.14
3 1 -6 0.8 0.23
3 1 -6 0.26 0.19
3 1 -6 0.35 0.19
-3 -1 6 0.74 0.21
-3 -1 6 0.29 0.16
-3 -1 6 0.42 0.12
2 1 -6 7.48 0.37
-2 -1 6 7.14 0.4
1 1 -6 2.24 0.23
-1 -1 6 2.09 0.19
-1 -1 6 1.98 0.25
0 1 -6 8.43 0.34
0 -1 6 9.18 0.34
0 -1 6 8.28 0.38
1 -1 6 0.95 0.16
2 -1 6 15.99 0.51
3 -1 6 3.51 0.26
-4 1 -6 5.05 0.42
-4 1 -6 5.37 0.31
4 -1 6 4.62 0.3
4 -1 6 4.39 0.29
4 -1 6 4.15 0.24
-5 1 -6 7.5 0.41
-5 1 -6 6.42 0.31
5 -1 6 6.44 0.3
5 -1 6 6.3 0.34
5 -1 6 6.6 0.25
-6 1 -6 1.82 0.22
-6 1 -6 2.29 0.16
6 -1 6 1.98 0.21
7 -1 6 0.57 0.09
6 0 -6 0.13 0.09
-6 0 6 -0.17 0.1
5 0 -6 1.53 0.23
5 0 -6 0.94 0.22
5 0 -6 0.94 0.19
-5 0 6 0.87 0.18
-5 0 6 1.11 0.17
4 0 -6 -0.16 0.16
4 0 -6 0.29 0.21
4 0 -6 0.27 0.15
-4 0 6 -0.02 0.17
-4 0 6 0.08 0.15
-4 0 6 0.01 0.08
-4 0 6 0.1 0.11
3 0 -6 0.49 0.17
-3 0 6 0.86 0.19
-3 0 6 0.81 0.15
-3 0 6 1.01 0.17
-3 0 6 0.04 0.24
2 0 -6 0.79 0.18
-2 0 6 0.87 0.16
1 0 -6 4.69 0.27
-1 0 6 4.85 0.3
0 0 -6 7.88 0.31
0 0 6 7.81 0.37
0 0 6 8.22 0.3
1 0 6 0.13 0.1
2 0 6 5.44 0.26
-3 0 -6 0.21 0.12
3 0 6 0.27 0.11
-4 0 -6 9.9 0.4
4 0 6 10.11 0.41
4 0 6 9.49 0.36
4 0 6 9.95 0.32
4 0 6 9.98 0.42
-5 0 -6 0.34 0.15
-5 0 -6 0.18 0.18
5 0 6 0.35 0.11
5 0 6 0.36 0.13
5 0 6 0.26 0.12
-6 0 -6 5.95 0.29
-6 0 -6 6.43 0.4
6 0 6 6.14 0.3
-7 0 -6 1.93 0.2
-7 0 -6 1.96 0.13
7 0 6 2.22 0.17
6 -1 -6 1.27 0.19
-6 1 6 1.01 0.09
5 -1 -6 2.4 0.2
5 -1 -6 2.6 0.27
-5 1 6 2.26 0.22
4 -1 -6 0.27 0.18
-4 1 6 0.52 0.2
-4 1 6 0.36 0.13
-4 1 6 0.35 0.14
3 -1 -6 5.3 0.32
-3 1 6 6.21 0.39
-3 1 6 5.36 0.31
-3 1 6 5.69 0.36
-3 1 6 5.55 0.33
2 -1 -6 1.42 0.24
-2 1 6 2.02 0.21
-2 1 6 2.06 0.27
1 -1 -6 5.52 0.29
-1 1 6 5.75 0.25
-1 1 6 5.34 0.33
0 -1 -6 31.21 0.81
0 1 6 31.53 0.77
0 1 6 31.14 0.9
1 1 6 10.33 0.34
1 1 6 10.9 0.35
2 1 6 8.59 0.39
2 1 6 8.66 0.33
2 1 6 8.46 0.31
3 1 6 2.77 0.2
3 1 6 2.4 0.18
3 1 6 2.89 0.21
-4 -1 -6 7.92 0.37
4 1 6 7.92 0.35
-5 -1 -6 2.49 0.25
5 1 6 2.27 0.2
5 1 6 2.23 0.21
-6 -1 -6 0.04 0.19
6 1 6 0.21 0.13
6 1 6 0.29 0.12
-7 -1 -6 0.47 0.12
-7 -1 -6 0.26 0.15
7 1 6 0.31 0.1
5 -2 -6 0.3 0.11
-5 2 6 0.37 0.09
4 -2 -6 0.2 0.22
-4 2 6 0.36 0.12
-4 2 6 0.08 0.14
3 -2 -6 0.75 0.23
-3 2 6 0.83 0.14
-3 2 6 0.82 0.16
-3 2 6 0.72 0.2
-3 2 6 1.17 0.2
-3 2 6 0.79 0.13
-3 2 6 0.83 0.15
2 -2 -6 5.18 0.33
-2 2 6 5.37 0.3
-2 2 6 4.72 0.25
-2 2 6 5.15 0.36
1 -2 -6 6.23 0.33
-1 2 6 5.53 0.34
-1 2 6 5.97 0.24
-1 2 6 5.69 0.28
0 2 6 26.15 0.79
0 2 6 27.35 0.67
0 2 6 26.67 0.69
1 2 6 20.34 0.55
1 2 6 19.6 0.65
2 2 6 5.5 0.21
2 2 6 5.21 0.25
2 2 6 5.15 0.25
3 2 6 -0.03 0.11
3 2 6 0.03 0.09
3 2 6 0.03 0.08
-4 -2 -6 8.82 0.37
4 2 6 8.74 0.32
4 2 6 8.66 0.35
-5 -2 -6 0.4 0.15
5 2 6 0.05 0.12
5 2 6 0.16 0.12
5 2 6 0.05 0.13
5 2 6 0.13 0.11
5 2 6 0.16 0.09
5 2 6 0.19 0.13
-6 -2 -6 0.58 0.21
6 2 6 0.4 0.11
6 2 6 0.44 0.13
6 2 6 0.38 0.12
-5 3 6 0.01 0.09
-4 3 6 4.97 0.32
-4 3 6 4.74 0.28
3 -3 -6 0.32 0.14
3 -3 -6 0.64 0.2
-3 3 6 0.44 0.15
-3 3 6 0.67 0.1
-3 3 6 0.84 0.16
-3 3 6 0.55 0.12
-3 3 6 0.66 0.19
-3 3 6 0.32 0.15
-3 3 6 0.61 0.15
2 -3 -6 21.67 0.7
-2 3 6 22.49 0.59
-2 3 6 22.92 0.61
-2 3 6 22.37 0.74
-2 3 6 22.46 0.63
-2 3 6 22.07 0.67
-2 3 6 21.86 0.61
1 -3 -6 0.09 0.16
-1 3 6 0.01 0.08
-1 3 6 0.19 0.16
-1 3 6 -0.1 0.13
0 3 6 13.57 0.44
0 3 6 13.42 0.52
0 3 6 13.48 0.38
1 3 6 -0.07 0.1
1 3 6 -0.02 0.06
1 3 6 0.18 0.13
2 3 6 0.58 0.09
2 3 6 0.54 0.11
2 3 6 0.84 0.14
3 3 6 4.42 0.2
3 3 6 4.84 0.25
3 3 6 4.48 0.27
-4 -3 -6 2.64 0.23
4 3 6 2.69 0.19
4 3 6 2.55 0.18
4 3 6 2.31 0.16
4 3 6 2.79 0.18
4 3 6 2.52 0.21
-5 -3 -6 0.28 0.13
5 3 6 0.26 0.09
5 3 6 0.57 0.14
5 3 6 0.15 0.1
5 3 6 0.32 0.11
5 3 6 0.32 0.12
-6 -3 -6 0.22 0.15
6 3 6 -0.01 0.09
6 3 6 0.06 0.12
6 3 6 0.04 0.1
6 3 6 0 0.1
6 3 6 -0.17 0.09
7 3 6 0.21 0.11
7 3 6 0.13 0.13
-4 4 6 0.06 0.08
-4 4 6 -0.07 0.09
3 -4 -6 0.55 0.2
-3 4 6 0.28 0.15
-3 4 6 0.15 0.12
-3 4 6 0.23 0.09
-3 4 6 0.28 0.11
-3 4 6 0.42 0.14
-3 4 6 0.62 0.18
2 -4 -6 0.83 0.23
-2 4 6 0.97 0.16
-2 4 6 0.67 0.16
-2 4 6 0.97 0.16
-2 4 6 0.71 0.21
-2 4 6 1.05 0.17
-2 4 6 1.01 0.15
-1 4 6 0.18 0.09
-1 4 6 0.19 0.09
-1 4 6 0.33 0.15
-1 4 6 0.18 0.1
-1 4 6 0.01 0.08
-1 4 6 0.13 0.13
0 4 6 -0.03 0.07
0 4 6 -0.03 0.11
0 4 6 0.07 0.14
1 4 6 0.44 0.12
1 4 6 0.69 0.1
2 4 6 11.68 0.42
2 4 6 10.93 0.31
3 4 6 0.22 0.13
3 4 6 0.26 0.08
3 4 6 0.3 0.08
3 4 6 0.12 0.13
-4 -4 -6 31.88 0.86
4 4 6 31.65 0.76
4 4 6 31.51 0.86
4 4 6 30.98 0.74
4 4 6 31.17 0.71
4 4 6 30.44 0.77
-5 -4 -6 3.34 0.26
5 4 6 3.09 0.18
5 4 6 3.02 0.2
5 4 6 3.09 0.2
5 4 6 3.25 0.2
5 4 6 3.09 0.25
-6 -4 -6 11.57 0.48
6 4 6 12.77 0.37
6 4 6 13.48 0.42
6 4 6 13.18 0.42
6 4 6 12.67 0.4
7 4 6 0.37 0.1
7 4 6 0.4 0.09
7 4 6 0.68 0.1
-4 5 6 0.12 0.05
-4 5 6 0.01 0.08
-3 5 6 0.77 0.12
-3 5 6 0.7 0.13
-3 5 6 0.78 0.13
-3 5 6 0.78 0.12
-3 5 6 0.81 0.18
2 -5 -6 2.82 0.3
-2 5 6 2.31 0.18
-2 5 6 2.31 0.26
-2 5 6 2.68 0.19
-2 5 6 2.32 0.16
-2 5 6 2.24 0.28
-2 5 6 2.65 0.19
-1 5 6 0 0.07
-1 5 6 0.14 0.08
-1 5 6 0.13 0.14
-1 5 6 0.26 0.07
-1 5 6 0.27 0.16
-1 5 6 0.24 0.09
0 5 6 4.52 0.28
0 5 6 4.71 0.15
0 5 6 4.52 0.2
0 5 6 4.83 0.19
0 5 6 4.56 0.31
0 5 6 4.62 0.2
1 5 6 0.8 0.17
1 5 6 0.89 0.1
1 5 6 0.72 0.1
2 5 6 16.05 0.53
2 5 6 16.9 0.39
2 5 6 16.88 0.41
3 5 6 3.03 0.14
3 5 6 3.07 0.15
3 5 6 2.75 0.24
4 5 6 3.13 0.16
4 5 6 3.24 0.13
4 5 6 3.39 0.26
4 5 6 3.15 0.16
4 5 6 3.19 0.17
5 5 6 5.24 0.24
5 5 6 5.18 0.19
5 5 6 5.36 0.23
5 5 6 5.05 0.23
5 5 6 4.87 0.29
6 5 6 1.7 0.13
6 5 6 1.89 0.16
6 5 6 2.07 0.17
6 5 6 1.84 0.15
7 5 6 0.91 0.14
7 5 6 0.67 0.09
-3 6 6 0.11 0.07
-3 6 6 0 0.05
-3 6 6 0.05 0.11
-2 6 6 4.52 0.3
-2 6 6 5.09 0.22
-2 6 6 4.51 0.21
-2 6 6 4.96 0.19
1 -6 -6 1.74 0.26
-1 6 6 1.38 0.13
-1 6 6 1.69 0.25
-1 6 6 1.51 0.15
-1 6 6 1.65 0.13
0 6 6 3.1 0.13
0 6 6 2.83 0.27
0 6 6 3.26 0.16
0 6 6 3.19 0.16
4 6 6 0.14 0.07
4 6 6 0.15 0.07
5 6 6 0.26 0.07
5 6 6 0.26 0.07
5 6 6 0.28 0.08
6 6 6 -0.02 0.07
6 6 6 0.03 0.06
6 6 6 -0.09 0.06
-1 7 6 2.15 0.2
-1 7 6 2.55 0.13
0 7 6 1.18 0.21
0 7 6 0.94 0.09
5 7 6 0.93 0.09
3 5 -7 0.12 0.08
-3 -5 7 0.02 0.08
-3 -5 7 0.13 0.11
2 5 -7 0.21 0.12
2 5 -7 0.28 0.08
-2 -5 7 0.29 0.14
-2 -5 7 0.39 0.12
1 5 -7 1.02 0.15
1 5 -7 1.5 0.24
-1 -5 7 0.82 0.1
-1 -5 7 0.95 0.16
0 5 -7 0.24 0.16
0 5 -7 0.05 0.1
0 -5 7 0.1 0.05
0 -5 7 0.04 0.1
-1 5 -7 1.73 0.15
1 -5 7 1.59 0.17
1 -5 7 1.53 0.22
-2 5 -7 1.39 0.1
2 -5 7 1.37 0.14
2 -5 7 1.21 0.18
4 4 -7 2.44 0.17
4 4 -7 2.34 0.1
-4 -4 7 2.9 0.23
-4 -4 7 2.61 0.16
3 4 -7 1.38 0.21
3 4 -7 1.93 0.17
3 4 -7 1.82 0.18
-3 -4 7 1.47 0.27
-3 -4 7 1.4 0.17
2 4 -7 2.45 0.26
2 4 -7 2.58 0.23
2 4 -7 2.57 0.25
2 4 -7 2.48 0.22
-2 -4 7 2.56 0.14
-2 -4 7 2.27 0.25
1 4 -7 7.46 0.38
1 4 -7 8.62 0.41
1 4 -7 8.75 0.35
1 4 -7 8.09 0.4
-1 -4 7 7.99 0.26
-1 -4 7 7.85 0.37
0 4 -7 0.83 0.19
0 4 -7 0.84 0.17
0 4 -7 1.24 0.21
0 4 -7 0.84 0.17
0 -4 7 0.79 0.13
0 -4 7 0.97 0.15
-1 4 -7 2.91 0.25
-1 4 -7 3.31 0.25
1 -4 7 3.23 0.17
1 -4 7 3.15 0.23
-2 4 -7 0.77 0.16
-2 4 -7 0.77 0.15
2 -4 7 0.65 0.15
2 -4 7 0.63 0.17
-3 4 -7 0.9 0.15
-3 4 -7 1.13 0.17
3 -4 7 1.22 0.18
3 -4 7 1.16 0.16
-4 4 -7 0.1 0.08
4 -4 7 -0.04 0.06
4 -4 7 -0.02 0.09
5 3 -7 0.42 0.1
5 3 -7 0.34 0.12
-5 -3 7 0.31 0.08
4 3 -7 1.07 0.18
4 3 -7 1.15 0.2
4 3 -7 1.37 0.17
-4 -3 7 1.42 0.24
-4 -3 7 1.38 0.16
-4 -3 7 1.35 0.21
3 3 -7 2.03 0.22
3 3 -7 2.22 0.24
3 3 -7 2.86 0.27
3 3 -7 2.48 0.27
-3 -3 7 2.26 0.25
-3 -3 7 2.48 0.2
2 3 -7 6.46 0.39
2 3 -7 6.29 0.23
2 3 -7 6.56 0.37
2 3 -7 6.18 0.34
2 3 -7 5.74 0.36
-2 -3 7 6.31 0.33
-2 -3 7 6.01 0.37
-2 -3 7 5.99 0.22
1 3 -7 10.66 0.37
1 3 -7 11.76 0.49
1 3 -7 10.8 0.47
1 3 -7 10.85 0.3
1 3 -7 11.37 0.44
-1 -3 7 11.05 0.33
-1 -3 7 10.41 0.45
-1 -3 7 10.88 0.44
0 3 -7 14.82 0.51
0 3 -7 14.24 0.38
0 3 -7 14.04 0.46
0 3 -7 13.89 0.54
0 3 -7 14.66 0.56
0 -3 7 15.02 0.39
0 -3 7 12.16 0.58
0 -3 7 14.72 0.53
0 -3 7 14.67 0.51
-1 3 -7 1.93 0.26
-1 3 -7 1.98 0.15
-1 3 -7 1.99 0.21
1 -3 7 1.51 0.22
1 -3 7 1.86 0.16
1 -3 7 1.61 0.24
1 -3 7 1.66 0.27
-2 3 -7 0.39 0.18
-2 3 -7 0.51 0.13
2 -3 7 0.42 0.16
2 -3 7 0.23 0.17
2 -3 7 0.34 0.14
-3 3 -7 2.94 0.26
3 -3 7 2.76 0.21
3 -3 7 3.02 0.27
-4 3 -7 -0.17 0.16
-4 3 -7 0.14 0.16
4 -3 7 0.07 0.09
4 -3 7 -0.01 0.12
-5 3 -7 1.59 0.17
-5 3 -7 2.1 0.15
5 2 -7 0.07 0.12
5 2 -7 0.23 0.16
-5 -2 7 0.31 0.08
4 2 -7 0.2 0.14
4 2 -7 0.15 0.19
4 2 -7 0.12 0.19
4 2 -7 0.11 0.1
-4 -2 7 0 0.14
-4 -2 7 0.04 0.13
-4 -2 7 0.16 0.09
3 2 -7 1.28 0.23
3 2 -7 1 0.2
3 2 -7 0.92 0.2
-3 -2 7 1.34 0.22
-3 -2 7 1.58 0.25
-3 -2 7 1.28 0.17
2 2 -7 3.95 0.32
2 2 -7 4.62 0.33
2 2 -7 4.02 0.3
-2 -2 7 4.31 0.27
-2 -2 7 4 0.31
-2 -2 7 4.65 0.34
1 2 -7 1.71 0.22
1 2 -7 1.8 0.25
1 2 -7 2.03 0.28
-1 -2 7 1.26 0.17
-1 -2 7 1.65 0.31
-1 -2 7 2.15 0.24
0 2 -7 13.68 0.55
0 2 -7 14.34 0.5
0 2 -7 13.53 0.53
0 -2 7 13.58 0.5
0 -2 7 14.14 0.48
0 -2 7 13.34 0.36
0 -2 7 12.66 0.52
-1 2 -7 0.3 0.19
1 -2 7 0.74 0.19
1 -2 7 0.43 0.14
1 -2 7 0.31 0.18
-2 2 -7 33.12 0.85
-2 2 -7 34.97 0.98
2 -2 7 33.26 0.97
2 -2 7 32.61 0.92
2 -2 7 34.47 0.87
-3 2 -7 2.32 0.2
-3 2 -7 2.43 0.3
3 -2 7 2.24 0.23
3 -2 7 2.2 0.19
3 -2 7 1.8 0.28
-4 2 -7 4.37 0.29
-4 2 -7 4.23 0.22
4 -2 7 4.13 0.25
4 -2 7 4.59 0.22
-5 2 -7 0.11 0.08
5 -2 7 0.04 0.05
5 -2 7 0 0.09
-6 2 -7 0.26 0.12
6 -2 7 0.09 0.09
5 1 -7 1.06 0.15
-5 -1 7 0.99 0.16
-5 -1 7 0.55 0.16
4 1 -7 2.31 0.29
4 1 -7 1.83 0.27
4 1 -7 2.6 0.29
-4 -1 7 1.97 0.21
-4 -1 7 2.07 0.16
-4 -1 7 2.15 0.27
3 1 -7 5.82 0.34
3 1 -7 5.96 0.36
3 1 -7 5.55 0.35
-3 -1 7 5.51 0.37
-3 -1 7 5.37 0.3
-3 -1 7 5.45 0.25
2 1 -7 1.09 0.22
2 1 -7 0.99 0.25
2 1 -7 1.45 0.24
-2 -1 7 1.44 0.23
-2 -1 7 0.9 0.13
-2 -1 7 1.08 0.18
1 1 -7 11.84 0.46
-1 -1 7 11.41 0.5
0 1 -7 0.92 0.18
0 -1 7 1.06 0.19
0 -1 7 1.1 0.18
1 -1 7 15.87 0.52
2 -1 7 9.02 0.39
2 -1 7 9.38 0.35
2 -1 7 9.11 0.39
-3 1 -7 29.04 0.79
-3 1 -7 25.58 0.87
3 -1 7 28.98 0.81
3 -1 7 27.77 0.8
3 -1 7 29.17 0.72
-4 1 -7 35.35 1.04
-4 1 -7 31.93 0.89
4 -1 7 35.77 0.84
4 -1 7 36.37 0.95
4 -1 7 35.69 0.94
-5 1 -7 4.31 0.3
-5 1 -7 4.9 0.25
5 -1 7 4.6 0.29
5 -1 7 4.93 0.2
-6 1 -7 11.93 0.31
-6 1 -7 11.96 0.38
6 -1 7 11.51 0.39
5 0 -7 -0.03 0.15
-5 0 7 0 0.13
-5 0 7 -0.07 0.13
4 0 -7 0.52 0.25
4 0 -7 0.74 0.2
4 0 -7 0.17 0.2
-4 0 7 0.63 0.15
-4 0 7 0.43 0.18
3 0 -7 1.11 0.23
-3 0 7 1.34 0.24
-3 0 7 1.49 0.14
-3 0 7 1.48 0.23
-3 0 7 1.28 0.17
2 0 -7 0.96 0.21
-2 0 7 1.12 0.17
-2 0 7 0.96 0.2
-2 0 7 0.64 0.11
-2 0 7 0.87 0.2
1 0 -7 0.22 0.16
-1 0 7 0.09 0.12
0 0 7 1.84 0.25
1 0 7 0.05 0.14
1 0 7 -0.04 0.11
2 0 7 0.43 0.15
3 0 7 0.67 0.13
3 0 7 0.52 0.1
3 0 7 0.53 0.14
4 0 7 0.13 0.1
4 0 7 0.12 0.13
4 0 7 0.19 0.13
-5 0 -7 6.76 0.34
5 0 7 7.6 0.34
5 0 7 7.12 0.34
-6 0 -7 5.48 0.32
-6 0 -7 5.64 0.26
6 0 7 6.13 0.28
-7 0 -7 2.26 0.16
-7 0 -7 2.12 0.09
7 0 7 1.96 0.1
5 -1 -7 2.34 0.27
5 -1 -7 1.94 0.23
-5 1 7 2.05 0.17
4 -1 -7 0.39 0.19
-4 1 7 0.3 0.13
-4 1 7 0.25 0.2
3 -1 -7 3.13 0.31
-3 1 7 2.87 0.3
-3 1 7 2.99 0.23
-3 1 7 2.88 0.27
-3 1 7 2.68 0.34
2 -1 -7 4.1 0.31
-2 1 7 3.17 0.37
-2 1 7 4.19 0.26
-2 1 7 3.77 0.34
-2 1 7 3.93 0.28
1 -1 -7 0.3 0.16
-1 1 7 0.03 0.11
-1 1 7 0.19 0.12
-1 1 7 0.19 0.15
0 1 7 1.23 0.16
0 1 7 1.01 0.18
0 1 7 1.39 0.17
1 1 7 0.01 0.1
1 1 7 0.04 0.14
1 1 7 0.04 0.11
1 1 7 0.01 0.09
2 1 7 1.63 0.19
2 1 7 2.07 0.18
2 1 7 2.23 0.21
3 1 7 -0.01 0.11
3 1 7 0.17 0.11
3 1 7 0 0.1
-4 -1 -7 1.1 0.18
4 1 7 0.88 0.15
4 1 7 0.6 0.15
-5 -1 -7 0.02 0.17
5 1 7 0.09 0.11
5 1 7 0.33 0.16
6 1 7 0.04 0.09
-7 -1 -7 1.83 0.27
-7 -1 -7 1.57 0.16
5 -2 -7 0.59 0.17
5 -2 -7 0.37 0.09
5 -2 -7 0.36 0.13
4 -2 -7 8.72 0.41
-4 2 7 9.83 0.31
3 -2 -7 1.61 0.23
-3 2 7 1.45 0.24
-3 2 7 1.18 0.2
-3 2 7 1.44 0.21
-3 2 7 1.5 0.18
-3 2 7 1.37 0.2
2 -2 -7 21.72 0.7
-2 2 7 21.72 0.63
-2 2 7 22.89 0.64
-2 2 7 22.44 0.76
-2 2 7 20.02 0.6
-2 2 7 22.38 0.76
-2 2 7 21.98 0.66
-2 2 7 21.1 0.61
-2 2 7 23.42 0.66
1 -2 -7 11.21 0.44
-1 2 7 11.45 0.41
-1 2 7 11.56 0.5
-1 2 7 11.01 0.38
0 2 7 4.09 0.22
0 2 7 4.49 0.32
0 2 7 3.99 0.24
1 2 7 2.15 0.16
1 2 7 2.27 0.21
1 2 7 1.71 0.23
2 2 7 8.21 0.33
2 2 7 8.19 0.33
2 2 7 7.87 0.29
3 2 7 3.46 0.2
3 2 7 3.29 0.23
3 2 7 3.16 0.23
-4 -2 -7 2.64 0.24
4 2 7 2.13 0.19
4 2 7 2.31 0.23
4 2 7 2.12 0.22
4 2 7 1.8 0.17
4 2 7 2 0.2
4 2 7 2.16 0.24
-5 -2 -7 1.43 0.23
5 2 7 1.42 0.21
5 2 7 1.73 0.22
5 2 7 1.42 0.18
5 2 7 1.35 0.2
5 2 7 1.42 0.19
5 2 7 1.23 0.15
-6 -2 -7 0.77 0.19
6 2 7 0.8 0.14
-7 -2 -7 0.36 0.14
7 2 7 -0.12 0.09
-4 3 7 1.12 0.16
3 -3 -7 0.19 0.21
-3 3 7 0.59 0.12
-3 3 7 0.42 0.16
-3 3 7 0.41 0.14
-3 3 7 0.38 0.15
-3 3 7 0.42 0.18
-3 3 7 0.63 0.13
2 -3 -7 9.48 0.44
-2 3 7 9.43 0.41
-2 3 7 9.57 0.35
-2 3 7 9.41 0.36
-2 3 7 8.94 0.49
-2 3 7 9.55 0.37
-2 3 7 9.37 0.37
1 -3 -7 2.72 0.29
-1 3 7 3.39 0.33
-1 3 7 3.37 0.21
-1 3 7 3.23 0.3
-1 3 7 3.24 0.22
-1 3 7 3.08 0.2
-1 3 7 3.25 0.21
-1 3 7 3.22 0.27
0 3 7 24.27 0.78
0 3 7 21.67 0.6
0 3 7 23.66 0.68
1 3 7 0.3 0.2
1 3 7 0.53 0.1
1 3 7 0.23 0.13
2 3 7 1.28 0.18
2 3 7 1.23 0.14
3 3 7 11.6 0.34
3 3 7 11.06 0.42
3 3 7 11.05 0.35
3 3 7 10.48 0.35
3 3 7 11.73 0.44
3 3 7 11.21 0.36
-4 -3 -7 0.49 0.14
4 3 7 0.52 0.11
4 3 7 0.54 0.11
4 3 7 0.74 0.17
4 3 7 0.64 0.11
4 3 7 0.55 0.11
-5 -3 -7 4 0.32
5 3 7 4.36 0.24
5 3 7 4.33 0.28
5 3 7 4.59 0.24
5 3 7 4.5 0.23
5 3 7 4.59 0.26
-6 -3 -7 -0.11 0.18
6 3 7 0.12 0.11
6 3 7 -0.03 0.1
6 3 7 -0.08 0.09
6 3 7 0.01 0.12
7 3 7 1.86 0.17
7 3 7 1.52 0.14
-4 4 7 3.09 0.15
-4 4 7 3.3 0.2
-4 4 7 3.25 0.3
3 -4 -7 0.21 0.17
-3 4 7 0.16 0.1
-3 4 7 0.07 0.12
-3 4 7 -0.12 0.11
-3 4 7 0.08 0.12
-3 4 7 -0.02 0.15
2 -4 -7 14.99 0.56
-2 4 7 15.17 0.46
-2 4 7 13.79 0.58
-2 4 7 13.28 0.44
-2 4 7 15 0.51
-2 4 7 15.57 0.43
-2 4 7 15.11 0.48
1 -4 -7 0.18 0.18
-1 4 7 0.35 0.1
-1 4 7 0.42 0.11
-1 4 7 0.68 0.22
-1 4 7 0.3 0.12
-1 4 7 0.27 0.1
-1 4 7 0.03 0.17
0 4 7 58.48 1.25
0 4 7 59.56 1.31
0 4 7 56.08 1.38
0 4 7 60.25 1.36
0 4 7 59.71 1.57
0 4 7 63.87 1.45
1 4 7 0.41 0.08
1 4 7 0.37 0.09
1 4 7 0.26 0.08
1 4 7 0.03 0.12
1 4 7 0.25 0.09
2 4 7 117.5 2.47
2 4 7 114.99 2.6
2 4 7 119.9 2.54
2 4 7 122.96 2.63
2 4 7 114.18 2.36
3 4 7 4.78 0.21
3 4 7 4.86 0.21
3 4 7 4.69 0.19
3 4 7 4.97 0.29
3 4 7 4.72 0.21
3 4 7 4.68 0.29
4 4 7 36.54 0.81
4 4 7 36.22 0.86
4 4 7 37.55 0.88
4 4 7 36.04 0.9
4 4 7 36.32 0.98
-5 -4 -7 0.26 0.17
5 4 7 0.33 0.09
5 4 7 0.29 0.1
5 4 7 0.08 0.09
5 4 7 0.45 0.11
5 4 7 0.29 0.17
6 4 7 13.52 0.42
6 4 7 13.36 0.41
6 4 7 13.48 0.38
6 4 7 13.12 0.41
7 4 7 0.13 0.06
7 4 7 0.23 0.09
7 4 7 0.24 0.09
-3 5 7 2.11 0.17
-3 5 7 2.45 0.23
-3 5 7 2.22 0.12
-3 5 7 2.33 0.16
-3 5 7 2.09 0.15
2 -5 -7 1.39 0.25
-2 5 7 0.79 0.12
-2 5 7 0.91 0.11
-2 5 7 0.84 0.21
-2 5 7 0.73 0.11
-2 5 7 0.84 0.11
1 -5 -7 8.03 0.41
-1 5 7 7.97 0.28
-1 5 7 7.78 0.23
-1 5 7 8.05 0.45
-1 5 7 7.16 0.29
-1 5 7 7.25 0.36
-1 5 7 7.56 0.29
0 5 7 0.64 0.09
0 5 7 0.78 0.19
0 5 7 0.47 0.1
0 5 7 0.65 0.18
0 5 7 0.82 0.14
0 5 7 0.63 0.09
1 5 7 25.81 0.65
1 5 7 26.5 0.76
1 5 7 25.77 0.6
1 5 7 25.99 0.63
2 5 7 2.71 0.25
2 5 7 2.61 0.15
2 5 7 2.68 0.14
3 5 7 33.46 0.78
3 5 7 33.88 0.8
3 5 7 33.83 0.75
3 5 7 32.63 0.9
-4 -5 -7 21.48 0.66
4 5 7 22.29 0.46
4 5 7 22.46 0.56
4 5 7 20.39 0.66
4 5 7 22 0.57
4 5 7 22.2 0.53
5 5 7 9.81 0.32
5 5 7 9.52 0.25
5 5 7 9.45 0.3
5 5 7 9.59 0.32
6 5 7 10.41 0.24
6 5 7 9.73 0.32
6 5 7 10.16 0.31
6 5 7 10.68 0.33
7 5 7 5.53 0.21
7 5 7 5.71 0.19
-2 6 7 0.55 0.07
-2 6 7 0.38 0.15
-2 6 7 0.51 0.09
-1 6 7 0.3 0.06
-1 6 7 0.41 0.16
-1 6 7 0.28 0.08
-1 6 7 0.3 0.09
0 6 7 1.23 0.22
0 6 7 1.22 0.13
0 6 7 1.24 0.09
0 6 7 1.23 0.13
1 6 7 0.91 0.11
3 6 7 -0.04 0.05
4 6 7 2.3 0.13
4 6 7 2.2 0.13
5 6 7 1.63 0.12
5 6 7 1.61 0.13
5 6 7 1.53 0.09
6 6 7 8.69 0.27
-1 7 7 0.37 0.06
0 7 7 1.58 0.1
1 5 -8 0.48 0.11
-1 -5 8 0.38 0.08
-1 -5 8 0.37 0.11
0 5 -8 0.36 0.1
0 -5 8 0.12 0.08
0 -5 8 0.3 0.12
1 -5 8 0.16 0.09
1 -5 8 0.2 0.06
3 4 -8 2.97 0.12
3 4 -8 2.96 0.19
3 4 -8 3.13 0.18
-3 -4 8 2.71 0.15
-3 -4 8 3.18 0.2
2 4 -8 1.58 0.24
2 4 -8 1.68 0.16
2 4 -8 1.42 0.19
-2 -4 8 1.74 0.23
-2 -4 8 1.38 0.16
1 4 -8 1.77 0.22
1 4 -8 1.48 0.2
1 4 -8 1.49 0.18
-1 -4 8 1.71 0.18
-1 -4 8 1.7 0.22
0 4 -8 1.74 0.19
0 4 -8 1.97 0.23
0 -4 8 1.41 0.22
0 -4 8 1.9 0.17
-1 4 -8 0.11 0.12
-1 4 -8 -0.05 0.11
1 -4 8 0.03 0.13
1 -4 8 0.23 0.09
-2 4 -8 0.21 0.1
-2 4 -8 0.04 0.1
2 -4 8 0 0.1
2 -4 8 0.13 0.07
-3 4 -8 1.13 0.15
-3 4 -8 0.98 0.1
3 -4 8 1.16 0.13
3 -4 8 0.82 0.1
4 3 -8 6.47 0.27
4 3 -8 6.7 0.28
4 3 -8 6.76 0.25
-4 -3 8 7.11 0.22
3 3 -8 4.45 0.28
3 3 -8 5.05 0.27
3 3 -8 4.88 0.29
-3 -3 8 4.68 0.25
-3 -3 8 4.49 0.21
2 3 -8 9.09 0.39
2 3 -8 9.4 0.42
2 3 -8 9.67 0.42
2 3 -8 9.29 0.44
-2 -3 8 10.03 0.35
-2 -3 8 9.98 0.39
1 3 -8 0.35 0.16
1 3 -8 0.47 0.18
1 3 -8 0.59 0.16
-1 -3 8 0.64 0.13
-1 -3 8 0.91 0.19
0 3 -8 1.82 0.24
0 3 -8 1.74 0.17
0 -3 8 1.5 0.24
0 -3 8 1.65 0.18
0 -3 8 1.67 0.25
-1 3 -8 1.7 0.17
-1 3 -8 1.41 0.23
1 -3 8 1.7 0.22
1 -3 8 1.32 0.17
1 -3 8 1.66 0.23
-2 3 -8 0.45 0.17
2 -3 8 0.46 0.12
2 -3 8 0.37 0.17
-3 3 -8 3.41 0.24
3 -3 8 3.49 0.19
3 -3 8 3.11 0.22
-4 3 -8 2.12 0.2
-4 3 -8 2.45 0.21
4 -3 8 2.32 0.15
4 2 -8 7.9 0.32
4 2 -8 7.13 0.32
-4 -2 8 7.8 0.25
-4 -2 8 7.36 0.34
3 2 -8 0.92 0.19
3 2 -8 1.1 0.22
3 2 -8 1.26 0.2
-3 -2 8 1.71 0.24
-3 -2 8 1.09 0.14
-3 -2 8 1.18 0.2
2 2 -8 9.34 0.4
2 2 -8 9.97 0.44
2 2 -8 9.42 0.45
-2 -2 8 9.25 0.46
-2 -2 8 9.59 0.34
-2 -2 8 9.4 0.38
1 2 -8 2.97 0.29
1 2 -8 2.74 0.29
1 2 -8 2.25 0.28
-1 -2 8 2.71 0.2
-1 -2 8 2.68 0.29
0 2 -8 9.78 0.46
0 2 -8 8.7 0.4
0 -2 8 9.34 0.42
0 -2 8 10.02 0.36
0 -2 8 9.37 0.4
-1 2 -8 1.01 0.2
-1 2 -8 0.55 0.15
1 -2 8 0.76 0.15
1 -2 8 0.72 0.13
1 -2 8 0.77 0.17
-2 2 -8 0.08 0.11
-2 2 -8 0.28 0.16
2 -2 8 0.05 0.15
2 -2 8 0.27 0.16
2 -2 8 0.11 0.09
-3 2 -8 0.27 0.14
-3 2 -8 0.37 0.11
3 -2 8 0.34 0.12
3 -2 8 0.21 0.15
3 -2 8 0.74 0.11
-4 2 -8 2.34 0.13
-4 2 -8 2.3 0.22
4 -2 8 2.1 0.13
4 -2 8 2.23 0.2
-5 2 -8 0.18 0.13
5 -2 8 0.22 0.13
-5 -1 8 4.51 0.21
4 1 -8 3.27 0.24
4 1 -8 3.78 0.3
-4 -1 8 3.11 0.27
-4 -1 8 2.99 0.24
3 1 -8 18.03 0.62
3 1 -8 17.48 0.62
3 1 -8 19.4 0.66
-3 -1 8 19.04 0.47
-3 -1 8 19.07 0.67
-3 -1 8 19.83 0.56
2 1 -8 24.44 0.74
2 1 -8 22.39 0.76
2 1 -8 22.14 0.74
-2 -1 8 24.26 0.78
-2 -1 8 21.87 0.66
-2 -1 8 22.12 0.59
1 1 -8 38.12 1.04
1 1 -8 38.24 1.11
1 1 -8 39.24 1.13
-1 -1 8 37.97 0.93
-1 -1 8 38.2 1.04
-1 -1 8 40.78 1.14
0 1 -8 35.84 1.06
0 -1 8 36.66 0.88
0 -1 8 35.9 0.96
0 -1 8 36.32 0.97
-1 1 -8 62.99 1.75
1 -1 8 66.36 1.56
1 -1 8 65.98 1.47
1 -1 8 63.02 1.62
-2 1 -8 59.88 1.56
2 -1 8 56.72 1.4
2 -1 8 54.75 1.44
2 -1 8 56.8 1.31
-3 1 -8 21.25 0.71
-3 1 -8 20.23 0.6
3 -1 8 19.76 0.7
3 -1 8 18.47 0.62
3 -1 8 19.09 0.58
3 -1 8 19.37 0.51
-4 1 -8 12.58 0.41
-4 1 -8 10.73 0.48
4 -1 8 10.71 0.43
4 -1 8 12.52 0.35
4 -1 8 12.08 0.46
-5 1 -8 4.72 0.27
-5 1 -8 5.25 0.22
5 -1 8 5.16 0.26
6 -1 8 1.3 0.13
5 0 -8 0.59 0.1
-5 0 8 0.49 0.08
4 0 -8 0.57 0.17
4 0 -8 0.51 0.17
-4 0 8 0.6 0.17
-4 0 8 0.77 0.14
3 0 -8 0.3 0.21
3 0 -8 0.2 0.22
3 0 -8 0.25 0.21
-3 0 8 0.09 0.17
-3 0 8 0.14 0.13
2 0 -8 0.97 0.2
2 0 -8 -0.02 0.2
-2 0 8 0.73 0.11
-2 0 8 0.67 0.18
-2 0 8 0.63 0.18
1 0 -8 1.31 0.24
1 0 -8 1.46 0.23
-1 0 8 1.32 0.24
-1 0 8 1.22 0.17
-1 0 8 1.3 0.12
-1 0 8 1.29 0.2
0 0 8 0.99 0.12
0 0 8 0.81 0.12
0 0 8 0.97 0.2
0 0 8 0.65 0.18
1 0 8 4.55 0.24
1 0 8 5.49 0.31
1 0 8 4.75 0.19
1 0 8 4.82 0.27
1 0 8 5.04 0.34
2 0 8 0.32 0.08
2 0 8 0.25 0.16
2 0 8 0.32 0.16
2 0 8 0.19 0.1
3 0 8 25.57 0.75
3 0 8 24.66 0.75
4 0 8 5.61 0.31
4 0 8 5.36 0.29
-5 0 -8 7.68 0.43
-5 0 -8 8.44 0.34
5 0 8 8.27 0.33
-6 0 -8 0.38 0.1
-6 0 -8 0.28 0.14
6 0 8 0.36 0.1
5 -1 -8 1.43 0.21
4 -1 -8 1.1 0.21
4 -1 -8 1.02 0.18
-4 1 8 0.96 0.15
-4 1 8 1.13 0.2
3 -1 -8 0.07 0.17
-3 1 8 0.31 0.13
-3 1 8 0.37 0.17
2 -1 -8 0.69 0.22
-2 1 8 0.55 0.25
-2 1 8 0.3 0.16
-2 1 8 0.52 0.14
1 -1 -8 1.03 0.22
-1 1 8 0.76 0.17
-1 1 8 0.66 0.14
-1 1 8 0.62 0.26
0 1 8 1.31 0.2
0 1 8 1.01 0.16
0 1 8 1.2 0.2
1 1 8 4.22 0.3
1 1 8 4.22 0.25
2 1 8 6.14 0.28
2 1 8 6.06 0.32
2 1 8 6.09 0.29
2 1 8 6.34 0.3
-3 -1 -8 0.8 0.17
3 1 8 1.67 0.24
3 1 8 0.94 0.15
-4 -1 -8 1.3 0.2
4 1 8 0.92 0.2
4 1 8 1.17 0.15
-5 -1 -8 7.15 0.37
5 1 8 7.28 0.34
5 1 8 7.61 0.3
-6 -1 -8 4.35 0.27
6 1 8 4.59 0.19
-7 -1 -8 2.32 0.13
-7 -1 -8 2.36 0.18
3 -2 -8 0.28 0.22
-3 2 8 -0.21 0.2
-3 2 8 0.23 0.16
-3 2 8 0.21 0.13
-3 2 8 0.16 0.11
-3 2 8 0.19 0.09
2 -2 -8 0.51 0.22
-2 2 8 0.22 0.09
-2 2 8 -0.01 0.14
-2 2 8 0.07 0.13
-2 2 8 0.16 0.1
-2 2 8 0.23 0.11
-2 2 8 0.26 0.17
-2 2 8 0.2 0.12
-2 2 8 -0.04 0.25
1 -2 -8 0.11 0.18
-1 2 8 0.09 0.12
-1 2 8 0.06 0.31
-1 2 8 0.18 0.16
-1 2 8 0.19 0.11
-1 2 8 0.2 0.13
-1 2 8 0.24 0.13
-1 2 8 0.09 0.1
-1 2 8 0.1 0.12
0 2 8 1.38 0.22
0 2 8 1.18 0.19
0 2 8 1.22 0.19
0 2 8 1.09 0.18
0 2 8 0.97 0.37
0 2 8 0.99 0.15
0 2 8 1.1 0.15
0 2 8 1.34 0.22
1 2 8 0.09 0.1
1 2 8 0.11 0.13
1 2 8 0.08 0.1
1 2 8 0.1 0.09
1 2 8 0.05 0.18
2 2 8 1.68 0.18
2 2 8 1.71 0.16
2 2 8 1.68 0.21
2 2 8 1.84 0.18
2 2 8 1.86 0.21
2 2 8 2.25 0.23
2 2 8 2.11 0.19
3 2 8 0.83 0.17
3 2 8 0.63 0.13
3 2 8 0.44 0.11
3 2 8 0.46 0.12
3 2 8 0.61 0.14
3 2 8 0.77 0.13
3 2 8 0.62 0.16
-4 -2 -8 0.1 0.17
4 2 8 -0.08 0.09
4 2 8 0.1 0.13
4 2 8 -0.06 0.1
4 2 8 0.13 0.16
4 2 8 0.02 0.08
4 2 8 0.02 0.11
-5 -2 -8 0.2 0.19
5 2 8 -0.09 0.1
5 2 8 0.07 0.07
5 2 8 0.07 0.13
6 2 8 0.66 0.13
-7 -2 -8 2.2 0.17
7 2 8 1.8 0.14
-4 3 8 5.3 0.21
3 -3 -8 2.85 0.24
-3 3 8 2.38 0.39
-3 3 8 2.3 0.19
-3 3 8 2.57 0.23
-3 3 8 2.5 0.19
2 -3 -8 6.89 0.35
-2 3 8 6.33 0.29
-2 3 8 7.14 0.34
-2 3 8 6.63 0.39
-2 3 8 6.31 0.3
-2 3 8 6.55 0.3
-2 3 8 6.94 0.43
-2 3 8 6.82 0.29
1 -3 -8 1.12 0.23
-1 3 8 1.12 0.19
-1 3 8 1 0.2
-1 3 8 1.23 0.22
-1 3 8 1.51 0.17
-1 3 8 1.29 0.19
-1 3 8 0.96 0.2
-1 3 8 1.02 0.15
0 3 8 0.01 0.1
0 3 8 -0.06 0.23
0 3 8 0.16 0.13
0 3 8 0.11 0.17
0 3 8 0.1 0.1
0 3 8 0.14 0.09
0 3 8 0.05 0.1
1 3 8 9.58 0.34
1 3 8 10.07 0.35
1 3 8 10.04 0.4
1 3 8 9.66 0.47
1 3 8 9.54 0.32
1 3 8 10.14 0.36
2 3 8 0.15 0.1
2 3 8 0.2 0.09
2 3 8 0.18 0.09
2 3 8 0.18 0.1
2 3 8 0.2 0.12
3 3 8 9.47 0.34
3 3 8 9.14 0.39
3 3 8 9.23 0.32
3 3 8 9.94 0.34
3 3 8 9.7 0.39
3 3 8 8.82 0.33
-4 -3 -8 0.02 0.14
4 3 8 0.06 0.1
4 3 8 0.09 0.11
4 3 8 0.01 0.13
4 3 8 0.03 0.1
4 3 8 0.03 0.08
-5 -3 -8 4.09 0.29
5 3 8 3.23 0.23
5 3 8 2.94 0.25
5 3 8 3.45 0.21
5 3 8 3.48 0.24
5 3 8 3.15 0.23
6 3 8 0.02 0.12
6 3 8 0.19 0.11
6 3 8 0.21 0.12
6 3 8 0.09 0.13
7 3 8 3.08 0.19
7 3 8 3.08 0.15
-3 4 8 1.38 0.15
-3 4 8 1.32 0.14
-3 4 8 2.24 0.35
-3 4 8 1.51 0.18
-3 4 8 1.35 0.18
2 -4 -8 22.27 0.69
-2 4 8 21.43 0.72
-2 4 8 22.32 0.55
-2 4 8 23.84 0.62
-2 4 8 23.06 0.59
-2 4 8 19.77 0.61
-2 4 8 21.02 0.65
1 -4 -8 1 0.24
-1 4 8 0.96 0.14
-1 4 8 1.06 0.21
-1 4 8 0.76 0.12
-1 4 8 0.73 0.12
-1 4 8 1.02 0.21
-1 4 8 1.11 0.17
0 4 8 32.87 0.76
0 4 8 33.77 0.9
0 4 8 33.26 0.8
0 4 8 34.43 0.84
0 4 8 32.13 0.84
0 4 8 33.14 0.98
1 4 8 3.52 0.19
1 4 8 3.07 0.18
1 4 8 3.28 0.27
1 4 8 2.88 0.19
1 4 8 3.14 0.17
2 4 8 5.2 0.23
2 4 8 4.82 0.21
2 4 8 5.46 0.23
2 4 8 5.31 0.31
2 4 8 5 0.23
3 4 8 1.53 0.22
3 4 8 1.46 0.17
3 4 8 1.6 0.16
3 4 8 1.63 0.14
3 4 8 1.74 0.15
-4 -4 -8 0.27 0.15
4 4 8 0.33 0.1
4 4 8 0.52 0.1
4 4 8 0.49 0.1
4 4 8 0.32 0.14
4 4 8 0.38 0.1
-5 -4 -8 0.8 0.16
5 4 8 0.75 0.11
5 4 8 0.65 0.11
5 4 8 1.1 0.15
5 4 8 0.85 0.12
6 4 8 -0.05 0.08
6 4 8 -0.12 0.09
6 4 8 -0.02 0.07
6 4 8 -0.17 0.08
7 4 8 0.52 0.08
7 4 8 0.39 0.06
-3 5 8 5.43 0.19
-3 5 8 5.65 0.21
-3 5 8 5.44 0.35
-2 5 8 1.92 0.15
-2 5 8 2.34 0.3
-2 5 8 2.37 0.18
-2 5 8 1.89 0.17
-2 5 8 2.15 0.11
-1 5 8 18.55 0.42
-1 5 8 18.05 0.63
-1 5 8 17.2 0.5
-1 5 8 18.77 0.48
-1 5 8 18.42 0.52
0 5 8 9.22 0.4
0 5 8 10.19 0.47
0 5 8 9.67 0.24
0 5 8 9.28 0.3
0 5 8 10.37 0.34
0 5 8 9.15 0.31
1 5 8 36.49 0.82
1 5 8 35.82 0.97
1 5 8 37.54 0.89
1 5 8 36.02 0.86
2 5 8 24.85 0.64
2 5 8 25.86 0.63
2 5 8 26.09 0.6
2 5 8 25.9 0.74
3 5 8 13.59 0.38
3 5 8 13.84 0.39
3 5 8 13.25 0.48
3 5 8 12.95 0.35
-4 -5 -8 5.96 0.31
4 5 8 6.31 0.22
4 5 8 5.96 0.24
4 5 8 6.27 0.24
5 5 8 8.45 0.3
5 5 8 8.75 0.28
5 5 8 8.63 0.3
6 5 8 1.61 0.14
6 5 8 1.79 0.15
6 5 8 1.87 0.14
-2 6 8 0.38 0.19
-2 6 8 0.28 0.06
-1 6 8 1.54 0.14
-1 6 8 1.31 0.08
-1 6 8 1.49 0.13
-1 6 8 1.14 0.19
0 6 8 1.33 0.12
0 6 8 1.1 0.13
1 6 8 0.92 0.11
1 6 8 0.8 0.11
2 6 8 2.58 0.13
2 6 8 2.38 0.12
3 6 8 0.19 0.07
3 6 8 0.17 0.06
4 6 8 8.44 0.26
4 6 8 8.35 0.25
5 6 8 0.25 0.07
6 6 8 1.11 0.1
2 4 -9 1.21 0.12
2 4 -9 1.26 0.16
1 4 -9 2.08 0.17
1 4 -9 1.93 0.12
1 4 -9 1.53 0.14
-1 -4 9 1.95 0.11
-1 -4 9 2.14 0.15
0 4 -9 0.11 0.09
0 4 -9 -0.22 0.1
0 4 -9 0.05 0.09
0 -4 9 -0.03 0.09
0 -4 9 0.12 0.07
-1 4 -9 -0.04 0.08
-1 4 -9 0.09 0.08
1 -4 9 0 0.08
1 -4 9 0.04 0.06
-2 4 -9 0.83 0.11
3 3 -9 0.15 0.1
3 3 -9 0.23 0.1
3 3 -9 0.08 0.1
2 3 -9 0.14 0.13
2 3 -9 0.38 0.13
2 3 -9 0.34 0.14
-2 -3 9 0.15 0.07
-2 -3 9 0.16 0.1
1 3 -9 1.62 0.22
1 3 -9 1.41 0.2
-1 -3 9 1.52 0.16
-1 -3 9 1.53 0.15
0 3 -9 0.62 0.19
0 -3 9 0.35 0.1
0 -3 9 0.32 0.13
-1 3 -9 7.87 0.35
1 -3 9 8.59 0.34
1 -3 9 7.88 0.28
-2 3 -9 1.03 0.18
2 -3 9 1.04 0.16
2 -3 9 0.81 0.12
-3 3 -9 1.3 0.15
-3 3 -9 1.6 0.18
4 2 -9 -0.03 0.08
3 2 -9 0.85 0.16
3 2 -9 0.87 0.16
-3 -2 9 1.1 0.19
2 2 -9 1.67 0.25
2 2 -9 1.71 0.2
-2 -2 9 1.65 0.12
-2 -2 9 1.75 0.18
1 2 -9 0.06 0.14
1 2 -9 0.17 0.18
1 2 -9 0.19 0.15
-1 -2 9 0.08 0.11
-1 -2 9 0.04 0.09
0 2 -9 9.6 0.39
0 -2 9 10.77 0.39
0 -2 9 10.38 0.33
-1 2 -9 0.03 0.11
-1 2 -9 0.15 0.15
1 -2 9 -0.11 0.12
1 -2 9 -0.03 0.08
-2 2 -9 16.06 0.45
-2 2 -9 15.39 0.52
2 -2 9 16.43 0.49
2 -2 9 15.66 0.42
-3 2 -9 3.94 0.27
-3 2 -9 3.44 0.16
3 -2 9 3.52 0.19
4 -2 9 2.43 0.2
4 1 -9 4.65 0.24
-4 -1 9 4.92 0.22
3 1 -9 11.77 0.42
3 1 -9 11.35 0.45
-3 -1 9 10.4 0.44
-3 -1 9 11.89 0.43
2 1 -9 5.3 0.33
2 1 -9 5.46 0.35
2 1 -9 5.4 0.34
-2 -1 9 6.09 0.34
-2 -1 9 5.59 0.31
1 1 -9 13.61 0.54
1 1 -9 12.93 0.52
1 1 -9 13.69 0.51
-1 -1 9 13.02 0.51
-1 -1 9 13.06 0.35
-1 -1 9 13.97 0.55
-1 -1 9 13.49 0.41
0 1 -9 8.49 0.47
0 -1 9 8.42 0.42
0 -1 9 8 0.26
0 -1 9 8.58 0.32
-1 1 -9 1.13 0.25
1 -1 9 1.63 0.19
1 -1 9 1.11 0.19
1 -1 9 1.52 0.14
1 -1 9 1.19 0.21
-2 1 -9 1.16 0.2
-2 1 -9 1.43 0.25
2 -1 9 1.39 0.21
2 -1 9 1.31 0.22
2 -1 9 1.7 0.16
2 -1 9 1.46 0.11
-3 1 -9 0 0.11
-3 1 -9 -0.04 0.16
3 -1 9 0.23 0.16
3 -1 9 0.08 0.13
-4 1 -9 0.13 0.09
-4 1 -9 0 0.17
4 -1 9 0.09 0.12
-5 1 -9 0.57 0.09
-5 1 -9 0.33 0.11
5 -1 9 0.44 0.11
4 0 -9 0.93 0.15
4 0 -9 0.63 0.17
-4 0 9 0.75 0.11
3 0 -9 1.8 0.25
3 0 -9 1.14 0.2
-3 0 9 1.01 0.17
-3 0 9 1.48 0.23
2 0 -9 0.92 0.2
2 0 -9 0.68 0.22
-2 0 9 0.84 0.14
-2 0 9 0.75 0.18
1 0 -9 3.37 0.3
1 0 -9 3.06 0.29
-1 0 9 2.95 0.29
-1 0 9 2.56 0.24
0 0 9 6.92 0.37
0 0 9 8.49 0.41
1 0 9 9.83 0.43
1 0 9 9.91 0.45
2 0 9 4.45 0.28
2 0 9 4.64 0.27
3 0 9 1.81 0.2
3 0 9 1.39 0.21
-4 0 -9 7.16 0.34
4 0 9 6.6 0.31
-5 0 -9 -0.04 0.15
-5 0 -9 -0.01 0.11
5 0 9 0.11 0.09
-6 0 -9 5.53 0.19
-6 0 -9 6.11 0.27
4 -1 -9 1.95 0.19
4 -1 -9 2.64 0.24
3 -1 -9 0.71 0.18
-3 1 9 0.59 0.11
-3 1 9 0.37 0.16
2 -1 -9 3.75 0.33
2 -1 -9 3.7 0.31
-2 1 9 3.14 0.31
-2 1 9 3.83 0.22
1 -1 -9 0.19 0.2
1 -1 -9 -0.07 0.21
-1 1 9 0.25 0.1
-1 1 9 0.35 0.19
0 1 9 9.34 0.44
0 1 9 9.38 0.37
1 1 9 0.23 0.12
1 1 9 0.06 0.19
2 1 9 1.63 0.18
2 1 9 1.71 0.23
3 1 9 3.45 0.21
3 1 9 3.26 0.26
4 1 9 1.14 0.21
4 1 9 1.34 0.16
5 1 9 0.36 0.09
-6 -1 -9 0 0.17
-6 -1 -9 -0.03 0.08
4 -2 -9 0.36 0.17
4 -2 -9 0.39 0.12
-4 2 9 0.25 0.08
3 -2 -9 1.06 0.18
-3 2 9 1.17 0.16
-3 2 9 1.05 0.19
2 -2 -9 -0.21 0.16
-2 2 9 0.25 0.11
-2 2 9 0.14 0.16
-2 2 9 0.17 0.16
-1 2 9 4.45 0.2
-1 2 9 4.78 0.43
-1 2 9 5.22 0.28
-1 2 9 4.85 0.3
-1 2 9 4.59 0.27
-1 2 9 4.3 0.25
-1 2 9 4.4 0.26
-1 2 9 4.76 0.37
0 2 9 0.26 0.11
0 2 9 0.16 0.16
0 2 9 0.51 0.14
0 2 9 0.15 0.12
0 2 9 0.15 0.08
0 2 9 0.24 0.14
0 2 9 0.32 0.14
1 2 9 0.89 0.13
1 2 9 0.86 0.13
1 2 9 0.98 0.2
1 2 9 0.84 0.18
1 2 9 1.22 0.2
1 2 9 0.57 0.12
1 2 9 0.83 0.16
2 2 9 -0.04 0.09
2 2 9 0.04 0.11
2 2 9 0.29 0.11
2 2 9 -0.05 0.15
2 2 9 0.04 0.07
2 2 9 0.2 0.13
3 2 9 0.96 0.15
3 2 9 0.73 0.18
3 2 9 0.89 0.13
3 2 9 1.06 0.11
3 2 9 1.42 0.2
3 2 9 0.76 0.13
3 2 9 1.2 0.19
-4 -2 -9 1.05 0.2
4 2 9 1.53 0.19
4 2 9 1.23 0.18
4 2 9 1.39 0.19
4 2 9 1.37 0.18
5 2 9 1.27 0.17
6 2 9 0.39 0.1
-3 3 9 0.2 0.1
-3 3 9 0.13 0.1
2 -3 -9 4.67 0.32
-2 3 9 4.31 0.3
-2 3 9 4.64 0.24
-2 3 9 4.84 0.48
-2 3 9 4.92 0.25
-2 3 9 5.15 0.27
-2 3 9 5.33 0.27
-1 3 9 0.79 0.11
-1 3 9 0.66 0.22
-1 3 9 0.52 0.15
-1 3 9 0.83 0.14
-1 3 9 0.5 0.13
-1 3 9 0.52 0.12
-1 3 9 1.29 0.34
0 3 9 6.75 0.29
0 3 9 7.3 0.37
0 3 9 6.3 0.55
0 3 9 7.25 0.31
0 3 9 7.28 0.41
0 3 9 7.67 0.32
0 3 9 6.43 0.31
1 3 9 5.97 0.26
1 3 9 5.85 0.28
1 3 9 5.88 0.28
1 3 9 6.19 0.35
1 3 9 6.29 0.28
2 3 9 1.7 0.18
2 3 9 1.28 0.18
2 3 9 1.06 0.2
2 3 9 1.4 0.17
2 3 9 1.43 0.18
3 3 9 2.46 0.17
3 3 9 2.89 0.27
3 3 9 2.07 0.17
3 3 9 2.66 0.21
3 3 9 2.46 0.2
-4 -3 -9 1.04 0.22
4 3 9 1.25 0.15
4 3 9 1.29 0.16
4 3 9 1.21 0.16
4 3 9 1.75 0.17
4 3 9 0.84 0.17
5 3 9 3.02 0.2
5 3 9 3.26 0.18
5 3 9 3.09 0.2
5 3 9 3.31 0.22
6 3 9 0.49 0.13
6 3 9 0.25 0.08
-3 4 9 0.08 0.08
-3 4 9 0.05 0.06
-2 4 9 1.43 0.15
-2 4 9 1.71 0.16
-2 4 9 1.16 0.15
-2 4 9 1.72 0.31
-2 4 9 1.55 0.13
-1 4 9 4.77 0.44
-1 4 9 3.87 0.21
-1 4 9 4.07 0.27
-1 4 9 4.21 0.2
-1 4 9 4.43 0.24
-1 4 9 4.25 0.21
0 4 9 1.2 0.13
0 4 9 1.49 0.18
0 4 9 0.81 0.13
0 4 9 1.44 0.16
0 4 9 0.98 0.17
1 4 9 3.57 0.21
1 4 9 3.58 0.19
1 4 9 3.54 0.21
1 4 9 3.85 0.21
1 4 9 3.31 0.27
2 4 9 3.64 0.18
2 4 9 3.45 0.2
2 4 9 3.26 0.2
2 4 9 3.5 0.27
2 4 9 3.21 0.22
3 4 9 0.59 0.17
3 4 9 0.38 0.09
3 4 9 0.35 0.1
3 4 9 0.37 0.1
3 4 9 0.47 0.1
-4 -4 -9 0.19 0.15
4 4 9 0.2 0.09
4 4 9 0.25 0.08
4 4 9 0.12 0.09
4 4 9 0.28 0.1
5 4 9 0.75 0.11
5 4 9 0.77 0.1
5 4 9 0.75 0.12
5 4 9 0.93 0.15
6 4 9 0.6 0.1
6 4 9 0.56 0.07
6 4 9 0.61 0.09
-2 5 9 3.71 0.36
-2 5 9 3.57 0.15
-2 5 9 3.87 0.18
-1 5 9 5.29 0.44
-1 5 9 4.65 0.21
-1 5 9 5.03 0.22
-1 5 9 5.09 0.21
0 5 9 6.73 0.27
0 5 9 7.09 0.27
0 5 9 6.9 0.24
1 5 9 0.34 0.09
1 5 9 0.4 0.09
1 5 9 0.07 0.15
1 5 9 0.29 0.09
2 5 9 1.04 0.12
2 5 9 0.75 0.2
2 5 9 0.92 0.12
2 5 9 0.86 0.13
3 5 9 0.44 0.09
3 5 9 0.31 0.08
3 5 9 0.34 0.09
4 5 9 -0.05 0.07
4 5 9 0.09 0.07
4 5 9 0.14 0.09
5 5 9 0.68 0.1
5 5 9 0.9 0.13
5 5 9 0.95 0.13
6 5 9 1.22 0.09
6 5 9 1.01 0.11
-1 6 9 0.04 0.06
0 6 9 0 0.07
1 6 9 0.11 0.07
1 6 9 -0.01 0.06
2 6 9 0.02 0.06
2 6 9 0.08 0.06
3 6 9 1.74 0.11
3 6 9 2 0.12
4 6 9 1.27 0.12
5 6 9 1.12 0.1
1 3 -10 3.23 0.21
1 3 -10 2.84 0.21
1 3 -10 3.2 0.19
0 3 -10 1 0.17
0 3 -10 0.72 0.12
-1 3 -10 0.04 0.11
-1 3 -10 -0.02 0.12
-2 3 -10 1.01 0.11
2 2 -10 1.62 0.19
2 2 -10 1.42 0.21
-2 -2 10 1.65 0.19
1 2 -10 0.34 0.1
1 2 -10 0.17 0.13
-1 -2 10 0.3 0.13
0 2 -10 3.69 0.15
0 2 -10 3.69 0.24
0 -2 10 3.77 0.29
-1 2 -10 4.59 0.17
-1 2 -10 4.87 0.26
1 -2 10 4.93 0.28
-2 2 -10 0.03 0.12
2 -2 10 0.02 0.12
3 -2 10 0.37 0.13
3 1 -10 0.1 0.12
-3 -1 10 -0.11 0.09
2 1 -10 2.26 0.26
2 1 -10 2.14 0.25
-2 -1 10 2.24 0.21
-2 -1 10 1.57 0.2
1 1 -10 0.83 0.2
-1 -1 10 0.56 0.17
-1 -1 10 0.69 0.14
0 1 -10 2.46 0.33
0 -1 10 2.2 0.23
-1 1 -10 1.94 0.27
1 -1 10 2.27 0.25
-2 1 -10 0.45 0.14
-2 1 -10 0.19 0.16
2 -1 10 0.61 0.14
-3 1 -10 0.29 0.11
-3 1 -10 0.25 0.14
3 -1 10 0.32 0.13
-4 1 -10 3.68 0.16
-4 1 -10 3.85 0.25
4 -1 10 3.49 0.2
3 0 -10 3.91 0.25
3 0 -10 4.1 0.29
-3 0 10 3.95 0.18
2 0 -10 6.43 0.39
2 0 -10 5.67 0.35
-2 0 10 5.72 0.26
-2 0 10 4.78 0.3
-1 0 10 4.78 0.34
-1 0 10 4.73 0.27
0 0 10 4.47 0.26
0 0 10 4.7 0.35
1 0 10 1.28 0.2
2 0 10 1.56 0.2
-3 0 -10 0.21 0.13
3 0 10 0.17 0.11
-4 0 -10 1.9 0.17
-4 0 -10 1.86 0.29
4 0 10 1.77 0.17
-5 0 -10 2.22 0.21
-5 0 -10 2.15 0.14
3 -1 -10 0.33 0.18
3 -1 -10 0.31 0.15
2 -1 -10 -0.13 0.15
-2 1 10 -0.21 0.14
-2 1 10 0.07 0.09
-1 1 10 0.36 0.16
-1 1 10 0.19 0.11
0 1 10 0.31 0.17
0 1 10 0.35 0.12
1 1 10 0.08 0.11
1 1 10 0.25 0.19
2 1 10 -0.03 0.09
3 1 10 0.47 0.1
4 1 10 0.1 0.07
-5 -1 -10 2.79 0.19
3 -2 -10 0.19 0.12
-3 2 10 0.47 0.09
2 -2 -10 6.03 0.32
-2 2 10 6.12 0.33
-2 2 10 6.13 0.26
-1 2 10 0.37 0.17
-1 2 10 0.51 0.12
0 2 10 8.89 0.34
0 2 10 8 0.34
0 2 10 8.55 0.35
0 2 10 8.56 0.42
0 2 10 8.24 0.33
1 2 10 1.04 0.17
1 2 10 0.71 0.14
1 2 10 0.73 0.14
1 2 10 0.72 0.16
1 2 10 0.7 0.15
2 2 10 17.99 0.54
2 2 10 17.78 0.56
2 2 10 16.14 0.52
2 2 10 17.43 0.51
2 2 10 17.46 0.54
-3 -2 -10 2.29 0.27
3 2 10 2.83 0.2
3 2 10 2.56 0.21
3 2 10 2.37 0.2
3 2 10 2.43 0.2
4 2 10 10.2 0.38
4 2 10 10.25 0.35
5 2 10 0.48 0.1
6 2 10 2.81 0.14
3 -3 -10 1.07 0.17
-3 3 10 1.12 0.09
2 -3 -10 -0.03 0.17
-2 3 10 0.14 0.09
-2 3 10 0.08 0.11
-1 3 10 5.22 0.27
-1 3 10 4.55 0.32
-1 3 10 4.86 0.24
-1 3 10 4.44 0.23
-1 3 10 5.42 0.26
0 3 10 0.96 0.16
0 3 10 0.89 0.13
0 3 10 0.95 0.15
0 3 10 0.83 0.16
0 3 10 0.88 0.15
1 3 10 1.32 0.21
1 3 10 1.37 0.19
1 3 10 1.34 0.2
1 3 10 0.88 0.13
1 3 10 1.17 0.19
2 3 10 0.55 0.1
2 3 10 0.44 0.13
2 3 10 0.5 0.15
2 3 10 0.48 0.11
2 3 10 0.77 0.14
3 3 10 1.58 0.16
3 3 10 1.39 0.16
3 3 10 1.25 0.2
3 3 10 1.02 0.16
3 3 10 1.34 0.16
4 3 10 3.86 0.22
4 3 10 3.83 0.21
4 3 10 3.7 0.2
4 3 10 3.56 0.21
5 3 10 0.04 0.11
5 3 10 0.22 0.11
5 3 10 0.01 0.11
5 3 10 -0.05 0.08
6 3 10 2.71 0.13
6 3 10 2.96 0.17
-2 4 10 0.12 0.06
-2 4 10 0.06 0.08
-2 4 10 0.08 0.08
-1 4 10 -0.03 0.08
-1 4 10 0 0.07
-1 4 10 0.04 0.08
-1 4 10 0.23 0.09
0 4 10 0.26 0.08
0 4 10 0.28 0.09
0 4 10 0.31 0.11
0 4 10 0.24 0.1
1 4 10 2.12 0.18
1 4 10 1.78 0.22
1 4 10 2.3 0.15
1 4 10 1.89 0.17
1 4 10 2.09 0.18
2 4 10 3.68 0.21
2 4 10 3.64 0.17
2 4 10 4.36 0.23
2 4 10 3.93 0.21
2 4 10 3.59 0.25
3 4 10 0.03 0.08
3 4 10 -0.01 0.07
3 4 10 0.15 0.08
3 4 10 0.11 0.09
4 4 10 0.98 0.12
4 4 10 0.92 0.14
4 4 10 1.06 0.14
4 4 10 0.88 0.11
5 4 10 0.04 0.09
5 4 10 0.03 0.06
5 4 10 0.03 0.1
5 4 10 -0.08 0.08
-1 5 10 0.03 0.06
-1 5 10 -0.04 0.06
0 5 10 0.14 0.08
0 5 10 0.19 0.09
0 5 10 0.14 0.07
1 5 10 0.28 0.08
1 5 10 0.43 0.09
1 5 10 0.17 0.08
2 5 10 0.25 0.07
2 5 10 -0.01 0.07
2 5 10 0.19 0.08
3 5 10 1.81 0.14
3 5 10 1.96 0.13
3 5 10 2.09 0.13
4 5 10 2.99 0.16
4 5 10 3.14 0.17
4 5 10 3.23 0.15
5 5 10 0.07 0.06
5 5 10 -0.02 0.06
1 6 10 0.07 0.05
2 6 10 3.31 0.14
3 6 10 0.08 0.06
4 6 10 2.76 0.12
-1 -2 11 1.47 0.12
0 -2 11 1.78 0.15
1 -2 11 0.02 0.08
2 -2 11 1.81 0.13
2 1 -11 0.52 0.11
-2 -1 11 0.85 0.09
1 1 -11 -0.03 0.1
1 1 -11 0.1 0.07
-1 -1 11 0.09 0.09
0 1 -11 0.12 0.09
0 1 -11 0.07 0.13
0 -1 11 -0.06 0.1
-1 1 -11 0.38 0.13
-1 1 -11 0.77 0.12
1 -1 11 0.51 0.1
-2 1 -11 1.72 0.13
-2 1 -11 2.02 0.24
2 -1 11 1.9 0.16
-3 1 -11 0.45 0.12
-3 1 -11 0.56 0.08
3 -1 11 0.14 0.09
2 0 -11 -0.11 0.1
2 0 -11 -0.04 0.1
1 0 -11 1.28 0.21
-1 0 11 1.08 0.13
0 0 -11 0.61 0.19
0 0 11 0.38 0.1
-1 0 -11 0.79 0.21
1 0 11 0.51 0.11
-2 0 -11 0.11 0.11
-2 0 -11 -0.1 0.17
2 0 11 0.15 0.09
-3 0 -11 3.95 0.3
-3 0 -11 3.6 0.19
3 0 11 3.6 0.17
-4 0 -11 1.35 0.22
-4 0 -11 1.1 0.12
2 -1 -11 1.18 0.16
2 -1 -11 1.02 0.19
-1 1 11 1.33 0.2
0 1 11 0.35 0.17
1 1 11 1.6 0.1
-4 -1 -11 0.45 0.11
-5 -1 -11 -0.05 0.08
2 -2 -11 4.26 0.23
-2 2 11 4.52 0.18
-1 2 11 0.45 0.1
-1 2 11 0.61 0.19
0 2 11 6.56 0.27
1 2 11 0.09 0.11
1 2 11 0.4 0.12
2 2 11 4.89 0.25
2 2 11 4.58 0.25
3 2 11 0.14 0.11
3 2 11 0.07 0.1
4 2 11 0.18 0.1
4 2 11 0.12 0.09
5 2 11 0.31 0.08
-2 3 11 1.05 0.09
-1 3 11 1 0.12
-1 3 11 0.96 0.14
0 3 11 0.76 0.13
0 3 11 0.81 0.13
0 3 11 0.79 0.12
0 3 11 0.73 0.13
1 3 11 1.61 0.16
1 3 11 1.95 0.18
1 3 11 1.67 0.15
1 3 11 1.5 0.16
2 3 11 1.43 0.18
2 3 11 1.53 0.18
2 3 11 1.02 0.12
2 3 11 1.11 0.15
3 3 11 1.87 0.16
3 3 11 1.99 0.15
3 3 11 2.05 0.16
3 3 11 1.89 0.16
4 3 11 1.08 0.12
4 3 11 1.13 0.16
4 3 11 1.16 0.15
5 3 11 1.13 0.09
5 3 11 1.27 0.12
-1 4 11 0.26 0.07
-1 4 11 0.23 0.08
-1 4 11 0.11 0.04
0 4 11 2.2 0.11
0 4 11 2 0.15
0 4 11 1.85 0.14
1 4 11 0.63 0.1
1 4 11 0.83 0.13
1 4 11 0.65 0.11
1 4 11 0.71 0.1
2 4 11 0.95 0.13
2 4 11 0.93 0.12
2 4 11 0.99 0.1
2 4 11 0.8 0.11
3 4 11 0.67 0.09
3 4 11 0.54 0.09
3 4 11 0.9 0.12
3 4 11 0.85 0.13
4 4 11 0.79 0.07
4 4 11 0.86 0.11
4 4 11 1 0.11
5 4 11 0.2 0.06
0 5 11 0.04 0.06
0 5 11 0 0.05
1 5 11 0.13 0.07
1 5 11 0.07 0.05
2 5 11 0.5 0.08
2 5 11 0.36 0.08
3 5 11 1.24 0.08
3 5 11 1.32 0.11
4 5 11 -0.04 0.06
0 0 -12 0.12 0.13
0 0 -12 0.2 0.08
-1 0 -12 0.79 0.13
-1 0 -12 0.99 0.12
-2 0 -12 1.11 0.11
-2 0 -12 1.3 0.23
0 -1 -12 0.4 0.14
1 1 12 1.79 0.15
-2 -1 -12 0.07 0.1
2 1 12 -0.08 0.08
-3 -1 -12 0.2 0.1
-3 -1 -12 0.45 0.17
3 1 12 0.26 0.08
0 2 12 1.15 0.12
1 2 12 0.17 0.08
1 2 12 0.09 0.11
2 2 12 2 0.14
2 2 12 2.26 0.18
3 2 12 0.08 0.08
4 2 12 0.09 0.06
0 3 12 0.11 0.06
0 3 12 0.24 0.08
1 3 12 0.15 0.08
1 3 12 0.27 0.07
2 3 12 0.17 0.06
2 3 12 0.06 0.07
2 3 12 0.1 0.07
3 3 12 0.03 0.05
3 3 12 0.09 0.07
1 4 12 5.41 0.2
1 4 12 5.37 0.18
2 4 12 0.3 0.06
2 4 12 0.05 0.07
3 4 12 2.04 0.12
3 4 12 1.8 0.11
