#------------------------------------------------------------------------------
#$Date: 2019-11-12 12:23:37 +0200 (Tue, 12 Nov 2019) $
#$Revision: 227669 $
#$URL: file:///home/coder/svn-repositories/cod/cif/7/23/50/7235026.cif $
#------------------------------------------------------------------------------
#
# This file is available in the Crystallography Open Database (COD),
# http://www.crystallography.net/
#
# All data on this site have been placed in the public domain by the
# contributors.
#
data_7235026
loop_
_publ_author_name
'Wei Sun'
'Ya-Xi Huang'
'Sergiy Nokhrin'
'Yuanming Pan'
'Jin-Xiao Mi'
_publ_section_title
;
 Perfect Kagome lattices in YCu3(OH)6Cl3: a new candidate for the quantum
 spin liquid state
;
_journal_name_full               'Journal of Materials Chemistry C'
_journal_page_first              8772
_journal_page_last               8777
_journal_paper_doi               10.1039/C6TC02399A
_journal_volume                  4
_journal_year                    2016
_chemical_formula_sum            'Cl3 Cu3 H6 O6 Y'
_chemical_formula_weight         487.93
_space_group_crystal_system      trigonal
_space_group_IT_number           164
_space_group_name_Hall           '-P 3 2"'
_space_group_name_H-M_alt        'P -3 m 1'
_atom_sites_solution_hydrogens   difmap
_cell_angle_alpha                90
_cell_angle_beta                 90
_cell_angle_gamma                120
_cell_formula_units_Z            1
_cell_length_a                   6.7436(15)
_cell_length_b                   6.7436(15)
_cell_length_c                   5.6182(13)
_cell_measurement_reflns_used    2959
_cell_measurement_temperature    173(2)
_cell_measurement_theta_max      28.649
_cell_measurement_theta_min      3.489
_cell_volume                     221.26(9)
_computing_cell_refinement       'SAINT (Bruker, 2001)'
_computing_data_collection       'SMART (Bruker, 2001)'
_computing_data_reduction        'SAINT (Bruker, 2001)'
_computing_molecular_graphics    'DIAMOND (Brandenburg, 2012)'
_computing_publication_material  'SHELXL-2013 (Sheldrick, 2013)'
_computing_structure_refinement  'SHELXL-2013 (Sheldrick, 2013)'
_computing_structure_solution    'SHELXL-2013 (Sheldrick, 2013)'
_diffrn_ambient_temperature      173(2)
_diffrn_detector_area_resol_mean .
_diffrn_measured_fraction_theta_full 0.994
_diffrn_measured_fraction_theta_max 1.000
_diffrn_measurement_device_type
'Bruker APEX II area detector CCD diffractometer'
_diffrn_measurement_method
'1265 images,\f=0, 90, 180 degree, and \D\w=0.3 degree, \c= 54.74 degree'
_diffrn_radiation_type           MoK\a
_diffrn_radiation_wavelength     0.71073
_diffrn_reflns_av_R_equivalents  0.0195
_diffrn_reflns_av_unetI/netI     0.0087
_diffrn_reflns_Laue_measured_fraction_full 0.994
_diffrn_reflns_Laue_measured_fraction_max 1.000
_diffrn_reflns_limit_h_max       9
_diffrn_reflns_limit_h_min       -9
_diffrn_reflns_limit_k_max       9
_diffrn_reflns_limit_k_min       -8
_diffrn_reflns_limit_l_max       7
_diffrn_reflns_limit_l_min       -7
_diffrn_reflns_number            2959
_diffrn_reflns_point_group_measured_fraction_full 0.994
_diffrn_reflns_point_group_measured_fraction_max 1.000
_diffrn_reflns_theta_full        25.242
_diffrn_reflns_theta_max         28.649
_diffrn_reflns_theta_min         3.489
_diffrn_standards_decay_%        .
_diffrn_standards_interval_count .
_diffrn_standards_interval_time  .
_diffrn_standards_number         0
_exptl_absorpt_coefficient_mu    14.495
_exptl_absorpt_correction_T_max  0.766
_exptl_absorpt_correction_T_min  0.562
_exptl_absorpt_correction_type   multi-scan
_exptl_absorpt_process_details   'SMART (Bruker, 2001)'
_exptl_crystal_colour            colorless
_exptl_crystal_density_diffrn    3.662
_exptl_crystal_description       prism
_exptl_crystal_F_000             231
_exptl_crystal_size_max          0.200
_exptl_crystal_size_mid          0.130
_exptl_crystal_size_min          0.130
_refine_diff_density_max         0.327
_refine_diff_density_min         -0.540
_refine_diff_density_rms         0.083
_refine_ls_extinction_coef       0.017(2)
_refine_ls_extinction_expression Fc^*^=kFc[1+0.001xFc^2^\l^3^/sin(2\q)]^-1/4^
_refine_ls_extinction_method     SHELXL
_refine_ls_goodness_of_fit_ref   1.062
_refine_ls_hydrogen_treatment    refall
_refine_ls_matrix_type           full
_refine_ls_number_parameters     24
_refine_ls_number_reflns         242
_refine_ls_number_restraints     1
_refine_ls_restrained_S_all      1.062
_refine_ls_R_factor_all          0.0137
_refine_ls_R_factor_gt           0.0137
_refine_ls_shift/su_max          0.000
_refine_ls_shift/su_mean         0.000
_refine_ls_structure_factor_coef Fsqd
_refine_ls_weighting_details
;
 w=1/[\s^2^(Fo^2^)+(0.0248P)^2^+0.2739P]
 where P=(Fo^2^+2Fc^2^)/3
;
_refine_ls_weighting_scheme      calc
_refine_ls_wR_factor_gt          0.0420
_refine_ls_wR_factor_ref         0.0420
_reflns_Friedel_coverage         0.000
_reflns_Friedel_fraction_full    .
_reflns_Friedel_fraction_max     .
_reflns_number_gt                241
_reflns_number_total             242
_reflns_threshold_expression     'I > 2\s(I)'
_cod_data_source_file            J-Mater-Chem-C-2016-4-8772.cif
_cod_data_source_block           ycu3sn
_cod_original_cell_volume        221.26(11)
_cod_database_code               7235026
_shelx_space_group_comment
;
The symmetry employed for this shelxl refinement is uniquely defined
by the following loop, which should always be used as a source of
symmetry information in preference to the above space-group names.
They are only intended as comments.
;
_shelx_estimated_absorpt_t_min   0.160
_shelx_estimated_absorpt_t_max   0.254
_shelxl_version_number           2013-2
_shelx_res_file
;

TITL 1528_0m_a.res in P-3m1
REM Old TITL 1528_0m in P-3m1

REM SHELXT solution in P-3m1
REM R1 0.091,  Rweak 0.003,  Alpha 0.020,  Orientation as input
REM Formula found by SHELXT:  O6 Cl3 Cu4

CELL  0.71073   6.7436   6.7436   5.6182   90.000   90.000  120.000
ZERR    1.000   0.0015   0.0015   0.0013    0.000    0.000    0.000
LATT  1
SYMM -Y, X-Y, Z
SYMM -X+Y, -X, Z
SYMM Y, X, -Z
SYMM X-Y, -Y, -Z
SYMM -X, -X+Y, -Z
SFAC O H CL CU Y
UNIT 6 6 3 3 1
TEMP -100
SIZE 0.13 0.13 0.20

L.S. 10
BOND $H
HTAB

EQIV $1 x, y, z-1
HTAB O1 Cl1_$1
HTAB O1 Cl2

LIST 6

FMAP 2
ACTA
PLAN 20
EADP Y11 Y12
WGHT    0.024800    0.273900
EXTI    0.017292
FVAR       0.82067   0.95231
Y11   5    0.000000    0.000000    0.500000    20.08333    0.00416    0.00416 =
         0.01485    0.00000    0.00000    0.00208
Y12   5    0.000000    0.000000    0.377848   -20.08333    0.00416    0.00416 =
         0.01485    0.00000    0.00000    0.00208

CU1   4    0.500000    0.500000    0.500000    10.25000    0.00354    0.00354 =
         0.01009    0.00071   -0.00071    0.00082
CL1   3    0.333333    0.666667    0.861967    10.16667    0.01358    0.01358 =
         0.00735    0.00000    0.00000    0.00679
CL2   3    0.000000    0.000000    0.000000    10.08333    0.01190    0.01190 =
         0.00924    0.00000    0.00000    0.00595
O1    1    0.190526    0.381052    0.365586    10.50000    0.00552    0.00790 =
         0.00913   -0.00095   -0.00048    0.00395
H1    2    0.199665    0.399329    0.224687    10.50000    0.03025
DFIX 0.82 0.02 H1 O1
HKLF 4

REM  1528_0m_a.res in P-3m1
REM R1 =  0.0137 for     241 Fo > 4sig(Fo)  and  0.0137 for all     242 data
REM     24 parameters refined using      1 restraints

END

WGHT      0.0155      0.2840

REM Instructions for potential hydrogen bonds
HTAB O1 Cl1_$1
HTAB O1 Cl2

REM Highest difference peak  0.327,  deepest hole -0.540,  1-sigma level  0.083
Q1    1   0.1679  0.0839  0.3288  10.50000  0.05    0.33
Q2    1   0.1248  0.4130  0.3860  11.00000  0.05    0.32
Q3    1   0.1264  0.2527  0.3820  10.50000  0.05    0.29
Q4    1   0.2750  0.5500  0.9136  10.50000  0.05    0.27
Q5    1   0.3877  0.6123  0.8921  10.50000  0.05    0.24
Q6    1   0.4321  0.5679  0.5037  10.50000  0.05    0.22
Q7    1   0.5891  0.5891  0.5000  10.50000  0.05    0.19
Q8    1   0.4583  0.9165  0.9409  10.50000  0.05    0.15
Q9    1  -0.1345  0.0000  0.0000  10.50000  0.05    0.15
Q10   1   0.2874  0.5748  0.3768  10.50000  0.05    0.14
Q11   1   0.3842  0.6158  0.6442  10.50000  0.05    0.13
Q12   1   0.0698 -0.0698  0.4843  10.50000  0.05    0.13
Q13   1   0.2705  0.6353  0.1249  10.50000  0.05    0.13
Q14   1  -0.1828  0.0452  0.1223  11.00000  0.05    0.13
Q15   1   0.0513  0.4640 -0.0019  11.00000  0.05    0.12
Q16   1   0.2759  0.4205  0.1151  11.00000  0.05    0.12
Q17   1   0.2687  0.4412  0.1231  11.00000  0.05    0.12
Q18   1   0.5332  0.7666  0.7771  10.50000  0.05    0.12
Q19   1   0.0767  0.6559  0.8334  11.00000  0.05    0.12
Q20   1   0.1454  0.2908  0.0303  10.50000  0.05    0.11
;
_shelx_res_checksum              55896
_shelx_hkl_file
;
   0  -1   0   17.70    1.00
   0  -1   0   17.70    1.10
  -1   1   0   15.70    1.10
   0  -1   0   16.30    1.00
  -1   1   0   14.00    1.00
  -1   1   0   16.20    1.10
  -1   1   0   16.40    1.10
   1   0   0   16.80    1.10
   1   0   0   13.30    1.00
   1   0   0   16.90    1.10
   1  -1   0   17.00    1.10
   0   1   0   14.80    1.00
   0   1   0   18.30    1.00
   1  -1   0   16.00    1.10
   1  -1   0   16.80    1.00
   0   1   0   17.90    1.10
  -1   0   0   16.70    1.00
  -1   0   0   13.70    1.00
  -1   0   0   15.70    1.10
   1   1   0  747.43   15.70
   1   1   0  767.02   15.90
   1   1   0  787.02   15.90
   1  -2   0  759.32   16.00
  -2   1   0  756.92   15.90
   1  -2   0  751.12   15.70
   1  -2   0  784.92   16.00
  -1   2   0  755.02   15.70
   2  -1   0  746.13   15.70
  -1  -1   0  797.42   16.00
   2  -1   0  739.53   15.90
  -1  -1   0  751.32   15.80
  -1   2   0  750.72   15.70
   2   0   0 4477.85   89.29
   0  -2   0 4187.18   86.39
  -2   2   0 4239.38   84.19
   2   0   0 4385.26   85.89
  -2   2   0 4526.65   88.29
   2  -2   0 4403.26   89.49
   0   2   0 4067.79   83.99
   2  -2   0 4105.49   86.29
   0   2   0 4187.38   82.79
  -2   0   0 4190.08   83.99
   0   2   0 4228.58   87.39
   1   2   0  232.98    6.70
   1   2   0  242.58    6.50
   2  -3   0  239.48    6.40
  -3   1   0  244.58    6.70
  -1  -2   0  239.18    6.50
  -2   3   0  243.18    6.80
  -2   3   0  245.48    6.60
   3  -1   0  253.17    6.50
   3  -1   0  243.38    6.80
  -3   2   0  245.88    6.90
   2   1   0  234.08    6.40
   1  -3   0  217.58    6.50
   1  -3   0  234.18    6.30
   2   1   0  244.68    6.70
  -3   2   0  250.57    6.70
  -2  -1   0  244.98    6.60
   3  -2   0  247.58    6.50
   3  -2   0  249.78    6.80
  -1   3   0  247.98    6.60
  -3   3   0  283.97    7.90
   0  -3   0  289.87    7.70
   3   0   0  299.67    7.80
   3   0   0  306.67    8.20
  -3   3   0  299.87    8.20
   0   3   0  277.97    7.70
   3  -3   0  271.77    8.00
   0   3   0  292.27    8.10
  -3   0   0  302.27    8.00
   3  -3   0  289.37    7.60
   1   3   0    1.70    1.10
   1   3   0    1.60    1.20
  -4   1   0    2.20    1.30
   3  -4   0    3.50    1.20
   3  -4   0    1.20    1.10
  -3   4   0    3.30    1.40
  -1  -3   0    4.30    1.40
  -3   4   0    6.60    1.70
   4  -1   0    3.60    1.40
   4  -1   0    2.40    1.20
   2   2   0 9489.15  193.98
   2   2   0 9308.57  193.48
  -4   2   0 9700.73  195.18
  -4   2   0 9999.00  197.28
   2  -4   0 9530.05  191.88
   2  -4   0 9523.75  191.88
   4  -2   0 9927.21  192.88
  -2   4   0 9355.86  189.08
  -2  -2   0 9526.65  189.28
  -2   4   0 9559.64  187.48
  -2   4   0 9789.12  184.08
   4  -2   0 9569.14  195.18
  -4   3   0    3.50    1.40
   3   1   0    3.20    1.30
   1  -4   0    3.70    1.30
   3   1   0    4.30    1.40
  -4   3   0    0.00    1.10
  -1   4   0    3.20    1.40
  -3  -1   0    2.70    1.30
  -1   4   0    2.80    1.30
   4  -3   0    0.10    1.10
   4  -3   0    3.90    1.30
   4   0   0 3019.70   61.99
   4   0   0 3110.09   61.49
  -4   4   0 3108.49   62.29
   0  -4   0 3190.08   61.39
  -4   4   0 3104.49   61.69
   4  -4   0 3105.99   62.09
   0   4   0 3116.39   61.59
   4  -4   0 3192.38   61.39
   0   4   0 3259.17   61.69
   0   4   0 3217.08   62.19
  -4   0   0 3094.49   61.79
   4  -5   0  309.07    9.00
   4  -5   0  315.27    9.80
  -5   1   0  315.07    9.50
   1   4   0  311.47    9.30
   1   4   0  334.37    9.80
  -4   5   0  322.77    9.90
   5  -1   0  308.27    9.70
  -1  -4   0  311.77    9.20
  -4   5   0  310.87    9.50
   5  -1   0  311.37    9.20
   2   3   0   16.60    2.50
  -5   2   0   20.40    2.50
   3  -5   0   17.70    2.10
   2   3   0   15.50    2.20
   3  -5   0   13.70    2.40
   5  -2   0   19.10    2.60
  -2  -3   0   17.90    2.20
  -3   5   0   17.60    2.50
   5  -2   0   17.70    2.20
  -3   5   0   14.90    2.30
  -5   3   0   22.70    2.70
   3   2   0   17.50    2.30
   2  -5   0   13.90    2.00
  -5   3   0   16.30    2.40
   3   2   0   16.60    2.40
  -2   5   0   14.30    2.30
   5  -3   0   13.60    2.30
  -3  -2   0   18.00    2.30
  -2   5   0   18.70    2.50
   5  -3   0   15.70    2.20
  -5   4   0  306.47    9.70
  -5   4   0  309.97    9.50
   4   1   0  310.47    9.10
   4   1   0  318.67    9.80
   1  -5   0  317.07    9.00
   5  -4   0  314.57    9.70
  -4  -1   0  308.27    9.30
  -1   5   0  301.67    9.20
  -1   5   0  314.47    9.70
   5  -4   0  315.67    9.10
  -5   5   0  201.18    7.80
   5   0   0  206.98    7.80
   5   0   0  194.58    7.10
  -5   5   0  196.58    7.50
   0  -5   0  201.88    7.00
   0   5   0  202.88    7.40
   0   5   0  187.18    7.40
  -5   0   0  194.88    7.40
   5  -5   0  200.38    6.90
   5  -5   0  197.78    7.70
   0   5   0  200.98    7.30
   1   5   0   23.30    3.30
  -6   1   0   23.10    3.30
   5  -6   0   26.60    3.40
   5  -6   0   26.10    2.80
   1   5   0   22.80    3.20
   6  -1   0   20.20    3.40
  -5   6   0   27.10    3.60
  -1  -5   0   27.60    3.00
  -5   6   0   24.50    3.40
   6  -1   0   22.00    3.00
   2   4   0 2113.89   45.00
   4  -6   0 2094.69   45.10
   2   4   0 2139.29   44.30
   4  -6   0 2187.48   43.90
  -6   2   0 2172.58   44.80
   6  -2   0 2123.19   45.20
  -4   6   0 2165.88   44.70
   6  -2   0 2138.99   44.10
  -2  -4   0 2096.69   44.00
  -4   6   0 2092.09   45.00
   3  -6   0  479.15   12.50
  -6   3   0  468.85   13.60
   3   3   0  480.05   12.80
  -6   3   0  439.56   12.90
   3  -6   0  455.05   13.20
   3   3   0  463.25   13.20
   6  -3   0  416.86   13.00
  -3  -3   0  462.95   12.70
   6  -3   0  472.55   12.70
  -3   6   0  470.15   13.30
  -3   6   0  460.15   13.00
  -6   4   0 2097.19   44.10
   4   2   0 2046.20   44.50
   2  -6   0 2161.38   43.50
   4   2   0 2067.89   43.60
  -6   4   0 2091.89   44.60
  -2   6   0 2060.79   43.80
  -4  -2   0 2096.39   43.80
   6  -4   0 2089.79   44.60
  -2   6   0 2131.49   44.60
   6  -4   0 2196.48   43.70
  -6   5   0   22.80    3.20
   1  -6   0   23.20    3.00
   5   1   0   24.30    3.10
  -6   5   0   23.70    3.50
   5   1   0   28.00    3.60
   6  -5   0   22.60    2.80
  -1   6   0   24.90    3.20
   6  -5   0   19.30    3.30
  -5  -1   0   22.70    3.00
  -1   6   0   20.20    3.40
   6   0   0 3561.24   73.59
  -6   6   0 3590.14   73.49
   6   0   0 3629.44   72.49
  -6   6   0 3622.74   72.99
   0   6   0 3570.34   73.29
   6  -6   0 3602.84   73.49
  -6   0   0 3667.23   72.79
   0   6   0 3647.54   72.79
   1   6   0    4.50    2.40
   1   6   0    3.10    2.30
   6  -7   0    4.30    2.40
  -7   1   0    4.20    2.90
   7  -1   0    4.70    2.00
  -6   7   0    2.60    2.30
   7  -1   0    3.20    2.30
  -6   7   0    3.20    2.20
   2   5   0  122.89    6.90
   5  -7   0  124.19    6.90
  -7   2   0  133.29    6.80
   2   5   0  124.89    6.50
   7  -2   0  126.09    6.30
   7  -2   0  124.29    7.00
  -5   7   0  117.49    6.80
  -5   7   0  128.39    6.70
  -7   3   0   92.79    5.70
  -7   3   0   87.49    5.90
   3   4   0   83.39    5.40
   4  -7   0   81.39    5.60
   3   4   0   96.69    5.90
   7  -3   0   80.79    5.70
   7  -3   0   92.39    5.30
  -4   7   0   77.49    5.50
  -4   7   0   86.09    5.50
  -7   4   0   97.89    5.80
   4   3   0   96.39    5.60
   4   3   0   91.49    6.00
  -7   4   0   91.79    6.00
  -3   7   0   97.09    6.00
  -3   7   0   99.29    5.80
   7  -4   0   90.39    5.20
   7  -4   0   88.69    5.90
   5   2   0  124.89    6.40
  -7   5   0  131.29    6.70
   5   2   0  127.19    7.00
  -7   5   0  120.29    6.90
  -2   7   0  134.89    6.80
  -2   7   0  127.19    7.00
   7  -5   0  129.49    6.50
   7  -5   0  125.39    7.00
  -7   6   0    1.80    2.40
   6   1   0    1.80    2.10
   6   1   0    3.40    2.10
  -7   6   0    4.70    2.40
  -1   7   0    7.60    2.50
  -1   7   0    1.20    2.10
   7  -6   0    1.00    2.00
  -1   7   0    1.90    2.30
  -7   7   0    6.80    2.80
  -7   7   0    7.10    3.00
   7   0   0    8.60    2.60
   7   0   0    8.00    3.00
   0   7   0    2.60    2.70
   7  -7   0    7.30    3.00
   0   7   0    7.30    2.80
   1   7   0  270.57   10.80
   7  -8   0  244.48   11.00
   1   7   0  241.08   11.00
  -7   8   0  246.68   11.20
  -7   8   0  240.98   10.70
   8  -1   0  237.68   11.10
   2   6   0 1394.66   34.00
   2   6   0 1431.36   33.40
   6  -8   0 1394.96   34.10
  -6   8   0 1451.25   33.70
   8  -2   0 1349.66   34.10
  -6   8   0 1442.56   34.30
   5  -8   0    2.80    2.40
   3   5   0    3.50    2.50
  -8   3   0    7.60    3.10
   3   5   0    5.90    2.80
  -5   8   0   20.30    3.90
  -5   8   0    0.60    2.10
   8  -3   0    1.60    2.50
  -8   4   0 2629.04   55.29
   4   4   0 2568.14   55.89
   4   4   0 2540.65   54.69
  -8   4   0 2603.34   56.29
  -4   8   0 2658.53   55.59
   8  -4   0 2503.05   55.79
  -4   8   0 2619.34   55.89
   5   3   0    6.00    2.90
   5   3   0    2.20    2.30
  -8   5   0    8.80    2.90
  -8   5   0    7.30    3.00
  -3   8   0    6.50    3.00
  -3   8   0    6.10    2.80
   8  -5   0    2.20    2.80
   6   2   0 1391.06   32.80
   6   2   0 1403.66   34.10
  -8   6   0 1381.86   34.20
  -8   6   0 1430.96   33.40
  -2   8   0 1385.86   33.00
   8  -6   0 1411.46   34.10
  -2   8   0 1397.36   33.90
  -2   8   0 1398.06   33.10
  -8   7   0  245.58   10.70
  -8   7   0  235.78   11.00
   7   1   0  245.28   11.20
   7   1   0  237.18   10.70
  -1   8   0  252.27   10.70
   8  -7   0  246.28   11.20
  -1   8   0  247.08   11.00
  -9   4   0    3.90    3.10
   4   5   0   -2.00    2.40
   4   5   0    1.10    2.80
  -5   9   0    2.90    3.00
   9  -4   0    8.40    3.50
  -5   9   0    4.80    3.00
   5   4   0   -0.10    2.40
  -9   5   0   -0.20    2.60
   5   4   0   -0.20    2.40
  -4   9   0    1.30    2.80
  -4   9   0    4.10    2.90
   9  -5   0    6.20    3.50
   0   0  -1 6304.17  123.59
   0   0   1 6094.19  122.59
  -1   0  -1   22.50    1.00
   1  -1  -1   24.00    1.30
   1  -1  -1   23.80    1.70
   0   1  -1   23.80    1.30
   0   1  -1   17.60    1.20
  -1   0  -1   24.10    1.00
   0   1  -1   25.60    1.50
  -1   0  -1   23.70    1.30
  -1   1   1   22.90    1.10
   0  -1   1   23.70    1.50
  -1   1   1   25.00    1.30
  -1   1   1   21.90    1.10
   0  -1   1   24.80    1.40
   0  -1   1   25.40    1.40
   1   0   1   27.80    1.40
   1   0   1   22.80    1.20
   1   0   1   24.30    1.20
   0  -1   1   23.90    1.40
  -1   1   1   25.00    1.30
  -1   1  -1   13.80    1.00
   1   0  -1   13.30    1.00
  -1   1  -1   15.10    1.20
   1   0  -1   14.20    1.20
  -1   1  -1   12.70    1.20
  -1   1  -1   14.20    1.20
  -1   0   1   15.40    1.10
   0   1   1   17.50    0.80
  -1   0   1   15.90    1.20
   1  -1   1   13.30    1.10
   1  -1   1   13.30    1.10
   1  -1   1   16.70    1.30
   1  -1   1   16.20    1.30
   0   1   1   13.00    1.00
  -1   0   1   14.90    1.10
   0   1   1   15.20    0.80
  -1  -1  -1  733.23   14.60
  -1   2  -1  697.13   14.70
   2  -1  -1  683.13   14.30
   2  -1  -1  707.53   14.70
   1   1   1  722.63   14.60
   1  -2   1  708.83   15.00
  -2   1   1  713.43   14.50
   1   1   1  717.63   14.40
   1   1   1  701.33   14.30
   1  -2   1  702.63   14.80
   1  -2   1  693.33   14.70
  -2   1   1  686.43   14.60
   3  -2  -1    9.50    1.30
  -1   3  -1   11.10    1.70
  -2  -1  -1    9.90    1.30
  -1   3  -1   13.30    1.60
   3  -2  -1    9.10    1.50
   1  -3   1   11.80    1.70
   1  -3   1    8.70    1.50
  -3   2   1   16.40    2.40
   2   1   1    9.60    1.40
   2   1   1   12.80    1.50
  -3   2   1   10.90    1.60
  -3   2   1   12.00    1.60
   2   1   1   12.00    1.50
  -2   0  -1 8505.55  171.58
   0   2  -1 8698.73  173.98
   2  -2  -1 8613.24  173.48
  -2   0  -1 9023.70  172.58
   0   2  -1 8752.12  174.28
   2  -2  -1 9142.58  173.78
   2   0   1 8990.30  172.88
   0  -2   1 8788.92  174.58
  -2   2   1 8632.94  172.38
   2   0   1 8850.61  172.98
  -2   2   1 9202.48  172.98
   2   0   1 8381.56  172.78
  -2   2   1 8774.82  171.48
   1   1  -1  651.83   14.20
   1  -2  -1  643.84   14.30
   1  -2  -1  680.73   14.10
   1  -2  -1  725.33   14.20
  -2   1  -1  670.53   14.50
   1   1  -1  688.73   14.50
  -2   1  -1  710.63   14.50
  -2   1  -1  643.04   14.10
   1  -2  -1  684.53   13.60
   2  -1   1  704.43   14.40
   2  -1   1  651.73   14.20
  -1   2   1  687.23   14.00
  -1   2   1  730.23   14.20
  -1  -1   1  715.33   14.40
  -1  -1   1  687.33   14.40
  -1   2   1  680.63   13.90
   2  -1   1  694.83   14.50
   0  -2  -1 1394.96   26.70
  -2   2  -1 1338.57   26.90
   2   0  -1 1315.87   26.60
  -2   2  -1 1357.06   27.20
   2   0  -1 1297.07   27.00
   2  -2   1 1357.16   27.00
   0   2   1 1377.16   26.80
   2  -2   1 1366.06   27.20
   2  -2   1 1363.26   26.90
   2  -2   1 1427.66   26.10
  -2   0   1 1337.97   26.80
   0   2   1 1296.37   26.40
   0   2   1 1368.06   26.50
  -2   0   1 1301.67   26.90
  -1  -2  -1  289.57    8.00
  -2   3  -1  282.07    6.10
   3  -1  -1  286.37    7.50
  -2   3  -1  271.67    7.30
   3  -1  -1  277.17    7.00
  -3   1   1  273.47    7.40
   2  -3   1  273.37    7.70
   1   2   1  275.77    7.30
   1   2   1  281.27    7.10
   2  -3   1  272.87    7.40
   1   2   1  278.57    7.10
  -2  -2  -1 3227.98   62.69
   4  -2  -1 3245.88   63.59
   4  -2  -1 3232.78   62.79
  -2   4  -1 3284.87   63.89
  -2   4  -1 3207.88   63.39
  -4   2   1 3210.08   63.39
   2   2   1 3250.97   63.39
   2  -4   1 3297.57   63.99
   2  -4   1 3366.46   63.49
   2   2   1 3199.48   62.99
   5  -3  -1   16.80    2.40
   5  -3  -1   16.60    2.00
  -2   5  -1   22.20    2.70
  -3  -2  -1   21.60    2.20
  -2   5  -1   19.50    2.40
   2  -5   1   24.90    2.90
   2  -5   1   22.50    2.40
   3   2   1   18.30    2.40
  -5   3   1   18.60    2.60
  -5   3   1   20.30    2.60
   4  -3  -1   43.10    2.50
  -1   4  -1   37.80    2.80
  -1   4  -1   36.80    2.90
  -3  -1  -1   39.10    2.60
   4  -3  -1   38.10    2.80
  -4   3   1   36.40    2.80
   3   1   1   42.80    2.90
  -4   3   1   36.60    2.80
   3   1   1   35.50    2.60
   1  -4   1   37.40    2.70
   3  -3  -1  983.60   20.10
   3  -3  -1  996.90   19.90
   0   3  -1  957.80   20.70
   3  -3  -1  983.20   20.90
   0   3  -1 1020.40   21.30
  -3   0  -1  990.20   20.60
   3   0   1  979.00   20.60
   3   0   1  965.70   20.90
  -3   3   1  947.01   20.70
  -3   3   1  982.30   20.90
   0  -3   1  942.91   20.70
   1   2  -1   11.20    1.50
   2  -3  -1   11.50    1.60
  -3   1  -1   16.30    1.60
   2  -3  -1   10.50    1.30
   1   2  -1    8.10    1.50
  -2   3   1   15.90    1.60
  -2   3   1   10.30    1.50
  -1  -2   1   12.90    1.70
  -2   3   1   11.00    1.30
   3  -1   1    7.50    1.50
   3  -1   1    9.80    1.50
  -3   2  -1  269.67    7.20
   2   1  -1  275.07    7.10
   2   1  -1  261.77    7.40
  -3   2  -1  259.07    7.40
   1  -3  -1  277.67    7.10
  -2  -1   1  271.87    7.30
  -1   3   1  264.87    6.90
   3  -2   1  284.17    7.60
   3  -2   1  262.37    7.10
  -1   3   1  277.07    6.90
  -1   3   1  271.27    7.10
   3   0  -1  120.59    4.20
   3   0  -1  116.69    4.60
  -3   3  -1  120.59    4.50
   3  -3   1  115.69    4.60
   0   3   1  123.89    4.40
   0   3   1  126.09    4.20
  -3   0   1  120.69    4.50
   3  -3   1  121.19    4.40
   0   3   1  125.29    4.20
   3  -3   1  131.59    3.10
  -3   4  -1   60.89    3.60
   4  -1  -1   57.99    3.40
  -1  -3  -1   62.09    2.90
   4  -1  -1   63.39    3.10
  -3   4  -1   61.89    3.40
  -4   1   1   61.99    3.40
   3  -4   1   57.39    3.30
   3  -4   1   58.69    3.60
   1   3   1   66.79    3.30
   1   3   1   63.49    3.30
  -2  -3  -1   12.10    1.70
   5  -2  -1   12.00    1.90
   5  -2  -1   12.20    2.30
  -3   5  -1   14.70    2.50
  -3   5  -1   17.70    2.40
  -5   2   1   10.30    2.00
   3  -5   1   13.20    2.20
   2   3   1    9.20    1.80
   3  -5   1   14.30    2.50
   2   3   1   13.70    2.20
  -3   6  -1   62.39    4.50
   6  -3  -1   67.09    3.90
  -3   6  -1   54.79    4.10
   6  -3  -1   67.79    4.60
   3   3   1   63.59    4.30
   3  -6   1   60.29    4.50
   3  -6   1   58.29    4.00
  -6   3   1   58.69    4.40
   3   3   1   57.19    4.10
  -6   3   1   53.49    4.20
  -3   7  -1    1.10    2.00
   7  -4  -1    6.50    2.40
  -3   7  -1    2.50    1.90
   3  -7   1    6.70    2.30
  -7   4   1    6.00    2.50
  -7   4   1    6.70    2.30
   4   3   1    5.00    2.10
   4   3   1    5.30    2.20
  -2   6  -1 2887.51   59.09
   6  -4  -1 2910.11   57.39
   6  -4  -1 2885.81   58.89
  -2   6  -1 2833.62   58.39
   4   2   1 2841.22   57.89
  -6   4   1 2902.81   58.99
   4   2   1 2800.92   58.59
   2  -6   1 2934.01   58.19
  -6   4   1 2873.01   58.59
  -1   5  -1   67.09    3.90
   5  -4  -1   60.99    3.90
  -1   5  -1   62.39    3.80
  -1   5  -1   60.99    4.10
  -4  -1  -1   61.89    3.60
   5  -4  -1   62.79    3.40
   4   1   1   52.59    3.70
  -5   4   1   62.19    4.00
  -5   4   1   67.89    4.10
   4   1   1   57.19    3.60
   1  -5   1   64.29    3.80
   0   4  -1 1511.95   30.80
   4  -4  -1 1482.45   28.80
   0   4  -1 1463.55   31.20
   4  -4  -1 1455.55   29.80
   4  -4  -1 1474.25   30.80
  -4   0  -1 1477.25   30.50
   4   0   1 1491.45   31.00
   4   0   1 1417.76   30.40
  -4   4   1 1450.05   30.60
   0  -4   1 1443.36   30.70
  -4   4   1 1399.96   30.90
   3  -4  -1   37.00    2.30
   1   3  -1   32.40    2.70
   1   3  -1   34.60    2.60
   3  -4  -1   37.90    2.70
  -4   1  -1   39.00    2.70
  -1  -3   1   37.10    2.70
  -3   4   1   39.50    2.70
   4  -1   1   34.90    2.80
  -3   4   1   36.50    2.70
  -4   2  -1 3060.69   63.99
   2   2  -1 3443.36   64.19
   2   2  -1 3334.87   63.59
   2  -4  -1 3236.98   63.59
   2  -4  -1 3299.47   62.69
  -4   2  -1 3285.77   63.69
   4  -2   1 3342.37   64.09
   4  -2   1 3291.67   63.59
  -2  -2   1 3208.28   63.79
  -2   4   1 3217.98   63.39
  -2   4   1 3224.08   63.69
  -4   3  -1   63.19    3.40
  -4   3  -1   64.89    3.70
   3   1  -1   62.29    3.20
   3   1  -1   55.99    3.40
   1  -4  -1   58.89    2.70
  -1   4   1   59.79    3.20
   4  -3   1   59.69    3.60
  -3  -1   1   60.29    3.40
  -1   4   1   62.69    3.40
   4  -3   1   63.59    3.30
  -4   4  -1 4678.13   92.89
   0  -4  -1 4755.72   91.29
   4   0  -1 4988.60   92.99
   4   0  -1 4906.61   95.79
  -4   4  -1 4873.01   92.59
  -4   0   1 4829.02   92.59
   4  -4   1 4802.02   92.89
   0   4   1 4444.96   91.79
   0   4   1 4782.32   92.39
   4  -4   1 4848.21   92.19
   5  -1  -1  290.37    8.50
  -1  -4  -1  286.67    8.10
   5  -1  -1  296.27    9.30
  -4   5  -1  285.37    9.00
  -4   5  -1  269.17    9.20
   4  -5   1  287.07    8.70
   4  -5   1  287.27    9.40
   1   4   1  293.57    9.00
   1   4   1  278.37    8.60
  -5   1   1  275.17    9.00
   6  -2  -1 1212.98   26.60
  -4   6  -1 1212.28   28.00
  -4   6  -1 1227.58   27.50
   6  -2  -1 1213.68   27.90
   2   4   1 1197.48   27.50
  -6   2   1 1237.78   27.70
   2   4   1 1202.08   27.00
   4  -6   1 1179.18   28.00
   4  -6   1 1189.68   27.10
  -4   7  -1  112.79    6.30
  -4   7  -1  124.99    6.80
   7  -3  -1  114.59    6.60
  -7   3   1  119.69    6.80
  -7   3   1  116.09    6.50
   3   4   1  112.79    6.30
   4  -7   1  118.29    6.80
   3   4   1  122.79    6.40
   4  -7   1  128.29    6.20
  -4   8  -1  843.82   23.60
  -4   8  -1  836.52   22.70
   8  -4  -1  937.41   23.90
  -8   4   1  892.01   23.30
   4   4   1  884.61   22.70
  -8   4   1  880.71   23.70
   4   4   1  858.71   23.30
   9  -5  -1    4.10    2.90
  -4   9  -1    6.80    3.40
  -9   5   1    3.90    2.80
  -9   5   1    7.90    3.30
   5   4   1    3.60    2.80
   5   4   1    4.40    2.80
  -3   8  -1   57.69    5.90
  -3   8  -1   57.29    5.30
   8  -5  -1   52.39    5.50
  -8   5   1   52.09    5.40
  -8   5   1   52.19    5.30
   5   3   1   58.89    5.20
   5   3   1   59.09    5.60
   7  -5  -1  263.37   10.10
  -2   7  -1  274.87    9.90
  -2   7  -1  264.37    9.80
  -2   7  -1  255.87   10.30
   5   2   1  254.87   10.10
   5   2   1  269.87    9.70
  -7   5   1  259.07   10.20
  -7   5   1  284.67   10.20
   2  -7   1  264.87   10.20
  -1   6  -1   45.60    4.40
  -1   6  -1   40.40    3.80
  -1   6  -1   48.10    3.90
   6  -5  -1   46.90    4.20
  -6   5   1   41.00    3.90
   5   1   1   40.20    4.00
  -6   5   1   44.10    4.10
   1  -6   1   51.19    4.00
   5   1   1   46.50    3.90
  -5   0  -1  187.18    6.90
   0   5  -1  178.78    7.40
   0   5  -1  199.68    7.30
   5  -5  -1  196.28    6.50
   5  -5  -1  181.88    7.30
  -5   5   1  197.68    7.30
  -5   5   1  187.68    7.40
   0  -5   1  187.38    7.10
   5   0   1  196.58    7.60
   5   0   1  194.38    7.10
   4  -5  -1   64.99    3.40
   4  -5  -1   61.69    3.90
  -5   1  -1   65.49    3.80
   1   4  -1   68.49    4.20
   1   4  -1   62.49    3.70
  -4   5   1   63.59    3.90
   5  -1   1   64.49    3.90
  -4   5   1   64.09    4.00
   5  -1   1   60.79    4.00
  -1  -4   1   57.99    3.70
   3  -5  -1   20.00    1.90
   2   3  -1   21.10    2.40
   2   3  -1   15.40    2.50
   3  -5  -1   31.90    2.90
  -5   2  -1   20.20    2.40
  -5   2  -1   20.80    2.60
   5  -2   1   20.40    2.60
  -2  -3   1   20.80    2.50
   5  -2   1   23.00    2.50
  -3   5   1   24.80    2.60
  -3   5   1   26.50    2.60
   3   2  -1   19.20    2.50
   2  -5  -1   15.30    1.80
  -5   3  -1   15.50    2.20
   3   2  -1   12.90    2.10
  -5   3  -1   14.40    2.40
   5  -3   1   12.10    2.10
  -2   5   1   11.70    2.10
  -2   5   1   12.80    2.10
   5  -3   1   18.80    2.60
  -3  -2   1   12.40    2.20
   4   1  -1  294.97    8.80
  -5   4  -1  312.37    9.80
   4   1  -1  290.07    9.40
  -5   4  -1  298.57    9.30
   1  -5  -1  288.67    8.10
   5  -4   1  300.77    9.50
  -1   5   1  294.97    8.90
   5  -4   1  290.57    9.00
  -1   5   1  289.67    9.10
  -4  -1   1  306.37    9.30
  -5   5  -1    2.00    1.70
  -5   5  -1    4.20    1.80
   5   0  -1    3.10    1.40
   5   0  -1    5.10    1.80
  -5   0   1    3.80    1.80
   5  -5   1    4.90    1.50
   0   5   1    2.10    1.40
   0   5   1    2.60    1.60
   0   5   1    3.90    1.60
   5  -5   1    3.30    1.70
  -5   6  -1   98.29    5.90
  -5   6  -1  103.59    5.70
   6  -1  -1  112.49    6.10
   6  -1  -1  112.89    5.30
   1   5   1  104.09    5.50
  -6   1   1  101.69    5.70
   1   5   1  110.39    5.70
   5  -6   1   96.29    5.80
   5  -6   1  111.99    5.50
  -5   7  -1   27.70    4.10
  -5   7  -1   20.80    3.60
   7  -2  -1   24.50    4.00
  -7   2   1   27.00    4.00
   5  -7   1   25.40    3.50
   5  -7   1   22.20    3.90
   2   5   1   25.70    3.70
   2   5   1   29.80    3.90
   8  -3  -1   54.19    5.70
  -5   8  -1   60.19    5.40
  -5   8  -1   61.19    5.80
  -8   3   1   62.09    5.60
   3   5   1   60.49    5.60
  -8   3   1   55.09    5.80
   5  -8   1   49.40    5.50
   3   5   1   52.29    5.20
   9  -4  -1    3.00    3.10
  -5   9  -1    3.70    3.10
   4   5   1    3.10    2.80
  -9   4   1    4.90    3.20
   4   5   1    2.10    2.70
  -9   4   1    5.40    3.10
  -2   8  -1  826.72   22.00
  -2   8  -1  816.02   22.10
  -2   8  -1  793.52   22.80
   8  -6  -1  818.02   22.60
   6   2   1  829.62   21.90
  -8   6   1  826.02   23.00
  -8   6   1  819.12   22.20
   6   2   1  817.02   22.60
  -1   7  -1   10.10    2.80
  -1   7  -1   18.20    3.30
   7  -6  -1   16.20    3.30
  -7   6   1   14.90    3.30
  -7   6   1   14.70    3.20
   6   1   1   20.80    3.50
   6   1   1   15.10    3.40
   6  -6  -1 1332.27   30.60
   0   6  -1 1276.17   30.90
   0   6  -1 1338.77   30.20
   0  -6   1 1340.27   30.00
  -6   6   1 1316.77   30.70
   6   0   1 1323.77   30.00
   6   0   1 1328.67   30.90
  -6   6   1 1332.77   30.30
   1   5  -1   47.40    4.30
   1   5  -1   49.60    4.00
   5  -6  -1   44.00    4.00
  -6   1  -1   46.50    3.80
   6  -1   1   44.10    4.20
  -1  -5   1   48.70    3.90
  -5   6   1   44.70    4.10
  -5   6   1   52.39    4.20
   6  -1   1   52.69    4.10
  -6   2  -1 2887.81   58.99
   2   4  -1 2870.11   58.99
   2   4  -1 2901.01   58.19
  -6   2  -1 2911.41   58.29
   4  -6  -1 2831.22   58.49
  -2  -4   1 2886.61   58.29
   6  -2   1 2861.61   58.09
  -4   6   1 2808.72   58.39
   6  -2   1 2912.21   58.99
  -4   6   1 2854.01   58.29
   3   3  -1   56.49    3.90
   3   3  -1   52.59    4.20
  -6   3  -1   58.39    4.40
  -6   3  -1   61.09    4.10
  -3  -3   1   63.49    4.20
  -3   6   1   52.89    3.90
   6  -3   1   56.79    4.30
   6  -3   1   56.19    4.00
  -3   6   1   62.49    4.20
   4   2  -1 1170.88   27.80
  -6   4  -1 1191.48   28.00
  -6   4  -1 1199.18   27.20
   4   2  -1 1212.38   26.90
  -2   6   1 1203.38   27.40
   6  -4   1 1216.58   27.10
   6  -4   1 1220.58   28.00
  -4  -2   1 1229.68   27.50
  -2   6   1 1214.38   27.10
  -6   5  -1  100.29    6.00
  -6   5  -1  117.99    5.90
   5   1  -1  107.89    6.00
   5   1  -1   99.19    5.20
  -1   6   1  107.49    5.50
   6  -5   1  106.19    6.10
  -5  -1   1  104.19    5.70
   6  -5   1  100.69    5.30
  -1   6   1  101.19    5.60
   6   0  -1 1082.29   26.90
  -6   6  -1 1113.69   26.40
   6   0  -1 1122.79   25.90
  -6   6  -1 1142.69   27.30
   0   6   1 1108.19   26.20
   0   6   1 1088.49   26.40
   0   6   1 1089.89   26.00
  -6   0   1 1137.09   26.60
   6  -6   1 1133.39   27.20
   6  -6   1 1127.89   26.00
   7  -1  -1   32.90    4.50
  -6   7  -1   35.30    4.30
  -6   7  -1   37.00    4.70
   6  -7   1   39.20    4.70
   1   6   1   31.40    4.10
   6  -7   1   32.90    4.90
   1   6   1   35.60    4.30
  -7   1   1   29.30    4.20
   8  -2  -1 1673.33   39.10
  -6   8  -1 1609.44   39.10
   2   6   1 1685.83   38.00
  -8   2   1 1677.83   38.30
   2   6   1 1602.84   38.10
   6  -8   1 1678.53   39.20
  -1   8  -1    4.50    3.30
  -1   8  -1    4.90    3.10
   8  -7  -1   10.20    3.30
  -8   7   1    8.90    3.40
  -8   7   1   10.10    3.60
   7   1   1   19.40    3.90
   7   1   1   12.90    3.70
   0   7  -1    4.30    2.50
   0   7  -1    7.00    3.20
   7  -7  -1    9.30    3.10
   7   0   1   10.00    3.20
   7   0   1    6.70    2.60
  -7   7   1    5.10    2.60
  -7   7   1    4.20    2.60
   1   6  -1   17.00    3.40
   1   6  -1   17.90    3.50
   6  -7  -1   12.20    3.10
   7  -1   1   13.40    3.00
   7  -1   1   15.90    3.50
  -6   7   1   11.50    2.90
  -6   7   1   15.20    3.10
   2   5  -1  269.77   10.50
   2   5  -1  260.67    9.70
   5  -7  -1  260.37   10.00
  -5   7   1  278.67   10.00
  -2  -5   1  263.87    9.60
  -5   7   1  268.77   10.10
   7  -2   1  259.07    9.70
   7  -2   1  266.07   10.40
   3   4  -1    3.40    2.00
   3   4  -1    5.50    2.30
  -7   3  -1    3.70    2.20
   4  -7  -1    4.40    2.20
  -4   7   1    4.30    2.10
  -4   7   1    4.60    2.30
   7  -3   1    3.70    2.20
   7  -3   1    5.20    2.20
  -3  -4   1    5.30    2.10
  -7   4  -1  121.29    6.30
  -7   4  -1  109.39    6.50
   4   3  -1  118.79    6.80
   4   3  -1  109.99    5.90
  -3   7   1  124.29    6.50
   7  -4   1  121.59    6.20
  -4  -3   1  124.79    6.40
   7  -4   1  118.59    6.80
  -3   7   1  110.29    6.20
  -7   5  -1   25.50    3.80
   5   2  -1   26.70    4.00
   5   2  -1   25.50    3.50
   7  -5   1   31.40    3.80
  -2   7   1   29.70    3.90
   7  -5   1   24.60    4.00
  -2   7   1   27.10    3.70
  -5  -2   1   26.30    3.60
   6   1  -1   31.80    4.40
  -7   6  -1   37.70    4.20
  -7   6  -1   41.00    4.80
   6   1  -1   27.70    4.60
   7  -6   1   29.30    3.70
  -6  -1   1   29.70    4.00
  -1   7   1   33.10    4.20
  -1   7   1   25.00    4.00
   7  -6   1   26.50    4.30
  -1   7   1   27.60    3.90
  -7   7  -1    8.40    2.90
   7   0  -1   14.30    3.50
   0   7   1    6.30    2.60
  -7   0   1   10.70    3.10
   0   7   1    5.40    2.70
   7  -7   1    6.90    3.00
   8  -1  -1   17.30    3.90
  -7   8  -1   28.70    5.20
   7  -8   1   28.00    5.00
   1   7   1   29.00    4.70
   1   7   1   20.40    4.00
   7  -8  -1    9.40    3.30
   1   7  -1    3.70    2.80
  -7   8   1    9.20    3.20
   8  -1   1    9.00    3.40
   8  -1   1    5.60    2.60
  -7   8   1   11.00    3.40
   2   6  -1  790.92   22.90
   6  -8  -1  828.72   22.50
   2   6  -1  821.52   22.10
  -8   2  -1  825.32   23.20
   8  -2   1  846.52   23.30
  -6   8   1  842.12   22.60
   8  -2   1  845.42   22.10
  -6   8   1  805.02   22.50
   3   5  -1   53.49    5.60
   5  -8  -1   57.19    5.50
   3   5  -1   56.39    5.20
  -8   3  -1   62.29    5.80
   8  -3   1   53.39    5.10
  -5   8   1   64.09    5.50
   8  -3   1   51.09    5.60
  -5   8   1   57.39    5.30
  -8   4  -1  867.81   23.80
   4   4  -1  910.61   22.90
   4   4  -1  889.41   24.00
   8  -4   1  895.81   23.00
  -4   8   1  858.41   23.00
  -4   8   1  872.41   23.30
   8  -4   1  903.51   24.20
  -8   5  -1   57.69    5.60
   5   3  -1   57.89    5.70
   8  -5   1   54.19    5.70
  -3   8   1   60.19    5.40
   8  -5   1   51.39    5.00
  -3   8   1   57.09    5.30
   6   2  -1 1652.43   39.40
  -8   6  -1 1693.83   39.80
   8  -6   1 1678.63   39.60
  -2   8   1 1625.84   38.60
  -2   8   1 1743.43   38.80
  -8   7  -1   20.20    4.30
   7   1  -1   19.30    4.20
   8  -7   1   17.10    4.10
  -1   8   1   25.20    4.50
  -1   8   1   25.50    4.40
  -1   8   1   21.80    4.30
  -9   4  -1    7.40    3.20
   4   5  -1    2.60    3.30
   9  -4   1   11.50    3.80
  -5   9   1    3.80    2.90
  -5   9   1    4.50    2.80
   5   4  -1    3.70    3.20
  -9   5  -1    7.60    3.30
  -4   9   1    3.20    3.00
  -4   9   1    3.40    3.70
   9  -5   1   -1.80    3.00
   0   0  -2 5937.21  122.49
   0   0   2 6215.38  117.19
   0   0   2 6399.36  117.39
  -1   0  -2 1678.63   32.10
   0   1  -2 1703.03   33.90
  -1   0  -2 1544.95   33.20
   1  -1  -2 1567.04   33.20
   0   1  -2 1632.64   31.90
   1  -1  -2 1692.53   31.60
   0  -1   2 1669.93   33.10
   1   0   2 1695.83   31.40
   1   0   2 1649.63   31.60
   0  -1   2 1631.04   31.70
   1   0   2 1660.23   31.60
   0  -1  -2  210.28    6.30
  -1   1  -2  213.38    5.20
  -1   1  -2  202.88    6.00
  -1   1  -2  217.78    5.20
   1   0  -2  217.28    5.10
   1  -1   2  212.28    5.00
   0   1   2  213.48    4.50
   1  -1   2  211.38    5.00
   1  -1   2  210.28    5.30
  -1   0   2  212.78    4.80
  -1   0   2  201.18    4.80
  -1   2  -2   78.39    3.20
  -1   2  -2   77.19    3.10
   2  -1  -2   78.99    2.70
  -1   2  -2   79.79    3.00
   1   1   2   76.79    2.60
  -2   1   2   78.59    2.60
   1  -2   2   76.49    2.90
   1  -2   2   80.59    3.10
  -2   1   2   76.59    2.60
   1   1   2   78.09    2.30
   1  -2   2   82.49    3.00
   1   1   2   79.69    2.30
   3  -2  -2  553.64   11.30
  -1   3  -2  536.95   12.40
  -2  -1  -2  559.84   12.20
  -1   3  -2  558.14   13.10
   3  -2  -2  528.95   12.40
  -3   2   2  532.25   12.30
  -3   2   2  554.24   12.30
   2   1   2  544.75   12.50
   1  -3   2  531.55   12.80
   2   1   2  570.54   12.30
   1  -3   2  559.14   13.10
   2   1   2  549.54   12.10
   0   2  -2 7042.60  144.29
  -2   0  -2 7254.77  139.49
   2  -2  -2 6655.13  147.39
   2  -2  -2 7064.99  139.79
   0   2  -2 7187.18  139.89
  -2   2   2 7355.16  138.29
   0  -2   2 7287.67  139.09
   2   0   2 7221.78  139.29
   0  -2   2 6715.03  141.09
   2   0   2 7004.90  139.29
   2   0   2 7058.99  138.99
  -2   2   2 7272.77  140.09
  -2   2   2 7164.28  137.99
   1   1  -2   84.59    3.10
  -2   1  -2   79.89    2.90
  -2   1  -2   77.19    2.20
  -2   1  -2   83.09    2.90
   1  -2  -2   73.09    3.40
   2  -1   2   76.19    2.70
   2  -1   2   73.39    2.70
   2  -1   2   76.49    2.90
  -1   2   2   78.79    2.10
  -1  -1   2   74.19    2.80
  -1  -1   2   81.69    2.90
  -1   2   2   76.89    2.10
  -1   2   2   75.89    2.50
  -2   2  -2 6001.10  121.89
   2   0  -2 5947.90  118.49
   2   0  -2 6408.96  121.29
  -2   2  -2 5946.10  123.59
  -2   2  -2 6246.88  120.59
  -2   0   2 6239.28  123.89
   0   2   2 6047.50  116.69
   2  -2   2 6115.09  120.89
   0   2   2 6059.69  118.89
   2  -2   2 5957.80  123.29
  -2   0   2 6206.38  118.19
   2  -2   2 5711.13  121.29
   0   2   2 5996.60  116.99
   3  -1  -2   38.60    2.40
  -2   3  -2   39.80    2.70
  -1  -2  -2   40.00    2.10
  -2   3  -2   38.70    2.10
  -2   3  -2   41.90    2.30
   1   2   2   38.80    2.20
   2  -3   2   39.50    2.50
   1   2   2   42.80    2.10
  -3   1   2   37.50    2.40
   2  -3   2   40.10    2.70
   1   2   2   35.40    2.00
  -3   1   2   45.00    2.30
  -2   4  -2 3894.11   74.19
  -2   4  -2 3762.22   72.69
  -2  -2  -2 3627.64   70.69
  -2   4  -2 3691.03   73.19
   4  -2  -2 3663.13   72.59
  -4   2   2 3729.93   72.69
   2   2   2 3762.52   72.49
   2   2   2 3922.31   72.29
   2  -4   2 3685.73   72.89
   2  -4   2 3827.92   73.49
   2   2   2 3700.53   75.59
  -2   5  -2  709.93   16.90
   5  -3  -2  675.93   16.80
  -2   5  -2  683.53   17.50
   3   2   2  726.63   17.00
   3   2   2  710.43   16.60
  -5   3   2  692.23   17.10
  -5   3   2  676.83   16.80
   2  -5   2  731.13   17.30
  -1   4  -2   16.90    1.90
  -3  -1  -2   14.20    1.40
  -1   4  -2   17.00    2.40
   4  -3  -2   22.10    2.20
   4  -3  -2   18.60    1.50
   4  -3  -2   16.70    2.20
   1  -4   2   15.60    2.20
   3   1   2   18.50    2.00
  -4   3   2   18.00    2.10
  -4   3   2   18.20    2.10
   3   1   2   19.50    2.10
   3  -3  -2   11.30    0.90
  -3   0  -2   10.50    1.10
   3  -3  -2    8.70    1.50
   0   3  -2    9.70    1.40
   0   3  -2   13.20    1.80
   3  -3  -2   11.50    1.80
  -3   3   2   10.70    1.40
  -3   3   2   11.70    1.60
   0  -3   2    5.60    1.30
   3   0   2   10.30    1.60
   3   0   2   10.10    1.50
  -3   3   2   10.80    1.50
   3   0   2   10.30    1.50
  -3   1  -2  544.05   12.80
   2  -3  -2  549.35   12.10
   1   2  -2  543.05   12.90
   2  -3  -2  576.44   12.30
   1   2  -2  553.74   12.40
   2  -3  -2  539.75   12.90
   3  -1   2  552.54   12.60
  -2   3   2  562.94   11.90
  -2   3   2  542.15   12.30
   3  -1   2  548.65   12.80
   3  -1   2  554.14   12.40
  -2   3   2  564.34   12.10
  -1  -2   2  505.55   12.60
   2   1  -2   36.00    2.40
   1  -3  -2   40.90    2.10
  -3   2  -2   38.30    2.20
   2   1  -2   40.10    2.10
  -3   2  -2   36.90    2.60
  -1   3   2   38.10    2.10
  -1   3   2   43.50    2.00
  -2  -1   2   39.50    2.50
   3  -2   2   37.90    2.40
   3  -2   2   37.60    2.60
  -1   3   2   40.80    2.10
   3   0  -2  323.27    8.80
   3   0  -2  320.57    8.00
  -3   3  -2  323.07    8.40
  -3   3  -2  316.97    8.90
   0  -3  -2  332.87    8.10
   0   3   2  321.77    8.20
   3  -3   2  329.77    9.00
   3  -3   2  324.57    8.70
  -3   0   2  322.27    8.70
   0   3   2  327.07    8.00
   0   3   2  327.97    8.00
  -3   4  -2  552.94   13.70
  -3   4  -2  544.05   13.10
   4  -1  -2  527.45   12.20
  -1  -3  -2  545.75   13.30
  -3   4  -2  539.15   11.60
   4  -1  -2  527.55   13.20
   3  -4   2  536.25   13.70
   1   3   2  529.55   12.60
   3  -4   2  530.15   13.20
   1   3   2  557.34   12.70
   1   3   2  510.95   12.50
  -4   1   2  546.35   13.30
   1   3   2  544.65   12.80
  -3   5  -2   77.69    4.50
  -3   5  -2   75.99    4.10
   5  -2  -2   74.69    4.20
  -3   5  -2   73.69    2.70
   5  -2  -2   72.69    3.40
   3  -5   2   73.19    4.20
   2   3   2   77.69    4.00
  -5   2   2   68.89    4.10
   3  -5   2   73.19    4.60
   2   3   2   80.69    4.10
   6  -3  -2   29.20    3.30
  -3   6  -2   28.20    3.60
  -3   6  -2   23.60    3.00
   3   3   2   32.10    3.30
  -6   3   2   32.00    3.60
   3   3   2   23.90    3.10
   3  -6   2   25.50    3.30
  -6   3   2   30.10    3.40
   3  -6   2   31.40    3.80
   7  -4  -2  182.08    8.10
  -3   7  -2  184.08    8.50
   4   3   2  165.58    7.70
   4   3   2  170.68    7.50
  -7   4   2  167.28    8.00
   3  -7   2  174.28    7.90
  -7   4   2  176.98    8.10
   6  -4  -2 2112.89   45.20
  -2   6  -2 2124.79   46.00
  -2   6  -2 2226.58   45.30
  -2   6  -2 2180.78   45.10
  -6   4   2 2156.28   45.30
   4   2   2 2149.88   45.30
   4   2   2 2158.48   44.70
  -6   4   2 2144.99   45.60
   2  -6   2 2168.08   45.50
   5  -4  -2  122.59    5.50
  -1   5  -2  129.69    5.50
  -1   5  -2  134.39    6.20
   5  -4  -2  129.49    5.20
  -5   4   2  131.49    5.70
   4   1   2  134.49    5.70
  -5   4   2  127.89    5.60
   1  -5   2  128.69    5.80
   4   1   2  126.39    5.30
   0   4  -2 4038.20   79.39
   4  -4  -2 4161.28   76.79
   0   4  -2 3964.80   78.39
   4  -4  -2 4106.69   78.09
   4  -4  -2 4098.89   78.59
   4   0   2 3941.51   78.39
   4   0   2 3975.10   78.79
  -4   4   2 3996.80   78.49
   0  -4   2 4010.10   78.89
  -4   4   2 4141.79   78.79
   3  -4  -2   17.60    1.90
  -4   1  -2   16.60    2.10
   3  -4  -2   16.50    1.90
   1   3  -2   18.70    2.00
   3  -4  -2   17.60    1.20
   1   3  -2   19.40    2.30
  -4   1  -2   16.80    1.70
   4  -1   2   15.60    2.00
  -3   4   2   21.10    1.80
  -1  -3   2   17.70    2.20
  -3   4   2   20.20    2.00
  -3   4   2   15.20    1.90
   4  -1   2   17.80    2.20
  -4   2  -2 3891.71   73.79
  -4   2  -2 3780.82   72.79
   2   2  -2 3774.92   73.59
   2  -4  -2 3898.51   72.79
   2   2  -2 3731.33   72.79
  -2   4   2 3855.31   72.49
  -2   4   2 3652.93   75.99
  -2  -2   2 3746.73   73.39
   4  -2   2 3623.54   73.39
   4  -2   2 3768.12   73.09
  -2   4   2 3821.22   72.89
   3   1  -2  535.25   13.60
  -4   3  -2  556.84   13.00
   1  -4  -2  556.94   12.80
   3   1  -2  535.85   12.70
  -4   3  -2  552.04   13.80
  -1   4   2  548.65   12.60
  -1   4   2  543.65   12.60
  -3  -1   2  526.55   13.30
  -1   4   2  535.75   12.80
   4  -3   2  526.95   13.10
   4  -3   2  530.75   13.60
  -4   4  -2 3605.14   71.69
  -4   4  -2 3643.84   70.79
   4   0  -2 3658.73   70.19
   4   0  -2 3596.74   71.39
   4  -4   2 3628.54   71.69
   0   4   2 3722.93   70.39
   4  -4   2 3553.34   70.99
   0   4   2 3665.83   70.59
  -4   0   2 3578.74   71.19
   0   4   2 3611.34   70.29
   5  -1  -2    2.80    1.40
   5  -1  -2    5.00    1.40
  -4   5  -2    7.30    2.10
  -4   5  -2    4.70    1.50
   1   4   2    2.30    1.40
  -5   1   2    4.20    1.60
   1   4   2    5.30    1.60
   4  -5   2    2.50    1.50
   4  -5   2    1.50    1.50
   1   4   2    3.50    1.40
  -4   6  -2 3134.29   62.29
  -4   6  -2 3121.59   63.09
   6  -2  -2 3053.99   62.39
   2   4   2 3024.80   61.49
   4  -6   2 3054.69   61.99
   4  -6   2 3071.39   63.09
  -6   2   2 3069.59   62.39
   2   4   2 2986.10   61.69
   7  -3  -2    4.60    2.30
  -4   7  -2    4.00    2.40
   3   4   2    5.60    2.30
   4  -7   2    4.60    2.60
  -7   3   2    3.30    2.20
   3   4   2    4.20    2.20
  -7   3   2    4.00    2.40
   4  -7   2    5.90    2.30
  -4   8  -2 1399.36   34.10
   8  -4  -2 1410.56   33.40
  -8   4   2 1418.06   33.70
  -8   4   2 1379.26   33.10
   4   4   2 1325.87   32.30
  -3   8  -2   15.80    3.70
   8  -5  -2   15.90    3.50
  -8   5   2   22.10    3.90
   5   3   2   20.40    3.90
   5   3   2   13.60    3.10
  -8   5   2   22.40    4.00
  -2   7  -2    7.40    2.70
   7  -5  -2    6.00    2.50
   5   2   2    7.50    2.50
   2  -7   2   10.30    2.80
   5   2   2    5.40    2.20
  -7   5   2    9.90    2.60
  -7   5   2    6.20    2.60
   6  -5  -2  193.48    7.70
  -1   6  -2  189.18    7.60
  -1   6  -2  190.68    8.20
   5   1   2  183.08    7.40
  -6   5   2  187.88    7.70
  -6   5   2  181.58    7.70
   1  -6   2  181.88    7.70
   5   1   2  174.28    7.50
   5  -5  -2   17.20    2.60
   5  -5  -2   15.70    2.10
   0   5  -2   17.80    2.70
   0   5  -2   16.20    2.80
  -5   5   2   28.00    3.10
   5   0   2   15.00    2.60
  -5   5   2   13.80    2.50
   0  -5   2   17.50    2.90
   5   0   2   18.40    2.70
   1   4  -2  123.99    5.90
   4  -5  -2  130.99    5.40
  -5   1  -2  128.99    5.70
   1   4  -2  130.69    5.40
   4  -5  -2  120.89    4.70
  -4   5   2  120.89    5.30
  -1  -4   2  124.59    5.70
  -4   5   2  134.89    5.60
   5  -1   2  131.09    5.80
   5  -1   2  127.29    5.50
  -5   2  -2  689.33   16.00
   2   3  -2  723.53   16.40
   2   3  -2  681.63   17.00
   3  -5  -2  668.33   16.10
  -5   2  -2  649.64   16.90
   5  -2   2  684.83   16.40
  -3   5   2  676.93   16.10
  -2  -3   2  691.73   16.80
   5  -2   2  674.03   16.90
  -3   5   2  677.23   16.30
   3   2  -2   75.99    4.40
   3   2  -2   83.09    4.00
  -5   3  -2   79.59    4.00
  -5   3  -2   78.29    4.50
  -3  -2   2   74.69    4.30
  -2   5   2   70.79    3.90
  -2   5   2   73.59    3.90
   5  -3   2   80.19    4.30
   5  -3   2   85.39    4.70
  -5   4  -2    4.10    1.70
   4   1  -2    3.60    1.30
  -5   4  -2    4.00    1.50
   4   1  -2    7.30    2.00
   5  -4   2    2.10    1.40
  -1   5   2    6.00    1.60
  -1   5   2    4.20    1.50
   5  -4   2    3.20    1.70
  -4  -1   2    3.10    1.50
   5   0  -2  232.18    8.60
   5   0  -2  237.18    8.40
  -5   5  -2  250.37    9.10
  -5   5  -2  249.18    8.40
   0   5   2  252.27    8.20
  -5   0   2  247.38    8.70
   0   5   2  250.27    8.20
   5  -5   2  229.88    8.30
   5  -5   2  234.38    8.90
  -5   6  -2    5.90    1.90
   6  -1  -2    5.20    2.20
  -5   6  -2    5.30    2.30
   1   5   2    9.00    2.30
  -6   1   2    6.20    2.20
   5  -6   2    7.00    2.50
   5  -6   2    8.50    2.30
   1   5   2   19.50    3.00
   7  -2  -2  151.68    7.70
  -5   7  -2  154.38    8.00
   5  -7   2  148.59    7.30
   2   5   2  148.59    7.00
   5  -7   2  148.79    8.00
  -7   2   2  160.78    7.70
   2   5   2  142.29    7.10
   8  -3  -2  108.09    7.30
  -5   8  -2  119.09    7.80
  -8   3   2  108.69    7.20
   5  -8   2  121.99    7.90
   3   5   2  111.39    6.90
  -8   3   2  110.69    7.40
   8  -6  -2 1675.43   38.60
  -2   8  -2 1703.23   39.80
  -8   6   2 1711.73   38.90
  -8   6   2 1621.74   38.90
   6   2   2 1640.74   38.70
   6   2   2 1687.33   38.40
   7  -6  -2    2.50    2.20
  -1   7  -2    0.40    2.20
  -7   6   2    5.40    2.70
   1  -7   2    6.70    2.60
  -7   6   2    6.90    2.70
   6   1   2    7.80    2.70
   6   1   2    5.40    2.60
   0   6  -2 2007.30   42.60
   0   6  -2 1937.71   43.10
   6  -6  -2 1913.11   42.00
  -6   6   2 1960.60   42.40
  -6   6   2 1942.61   42.10
   0  -6   2 1969.50   42.50
   6   0   2 1908.91   42.40
   6   0   2 1987.80   42.10
   1   5  -2  189.68    7.50
   1   5  -2  191.08    8.30
   5  -6  -2  180.28    7.40
  -5   6   2  191.38    7.70
  -1  -5   2  179.68    7.60
   6  -1   2  190.88    7.70
  -5   6   2  183.98    7.50
   6  -1   2  178.48    7.80
   4  -6  -2 2144.09   44.50
   2   4  -2 2113.79   45.60
   2   4  -2 2236.58   44.80
  -6   2  -2 2117.99   45.60
   6  -2   2 2159.08   44.80
   6  -2   2 2129.69   45.40
  -4   6   2 2074.09   44.40
  -4   6   2 2152.38   44.70
  -2  -4   2 2142.69   45.20
   3   3  -2   22.30    3.30
  -6   3  -2   32.30    3.50
   3   3  -2   29.00    3.10
  -3  -3   2   29.10    3.40
   6  -3   2   26.70    3.50
   6  -3   2   29.80    3.40
  -3   6   2   28.40    3.00
  -3   6   2   26.40    3.10
  -6   4  -2 2722.13   61.29
   4   2  -2 3070.69   61.79
   4   2  -2 3060.79   60.29
   6  -4   2 3041.60   61.69
   6  -4   2 3050.69   60.89
  -4  -2   2 3006.40   61.19
  -2   6   2 3026.80   60.49
  -2   6   2 3036.50   60.59
   5   1  -2    4.20    2.10
  -6   5  -2   10.00    2.60
  -1   6   2    4.00    1.90
  -1   6   2    7.50    2.10
   6  -5   2    7.50    2.30
   6  -5   2    4.30    2.20
  -5  -1   2    8.00    2.20
   6   0  -2 1720.43   38.00
  -6   6  -2 1694.23   38.30
   6  -6   2 1699.73   38.10
   0   6   2 1647.44   36.70
   6  -6   2 1690.23   37.20
  -6   0   2 1685.63   37.60
   0   6   2 1668.53   36.80
   0   6   2 1685.53   36.80
  -6   7  -2  234.78   10.20
   7  -1  -2  216.28    9.70
  -7   1   2  226.58    9.80
   6  -7   2  232.08   10.10
   1   6   2  230.58    9.20
   6  -7   2  216.88    9.10
   8  -2  -2 1112.39   28.70
  -6   8  -2 1102.79   29.10
   6  -8   2 1109.59   29.20
  -8   2   2 1124.99   28.50
   2   6   2 1141.19   27.90
  -1   8  -2   44.80    6.00
   8  -7  -2   37.50    5.10
  -8   7   2   41.40    5.40
   7   1   2   40.80    5.30
   7   1   2   35.70    5.20
   7  -7  -2  366.36   12.80
   0   7  -2  343.57   13.20
   7   0   2  372.76   13.40
  -7   7   2  348.17   15.50
   7   0   2  404.76   13.30
  -7   7   2  361.86   12.80
  -7   1  -2    1.00    2.10
   1   6  -2    2.50    2.60
   6  -7  -2    4.10    2.30
  -6   7   2    4.20    2.50
   7  -1   2    2.20    2.40
   7  -1   2    4.30    2.50
  -6   7   2    4.10    2.30
  -1  -6   2    2.60    2.00
   5  -7  -2    4.90    2.20
   2   5  -2    6.60    2.80
  -7   2  -2   10.70    2.90
   7  -2   2    9.80    2.80
  -5   7   2    9.00    2.60
   7  -2   2    7.40    2.50
  -5   7   2    8.50    2.40
  -2  -5   2    4.10    2.10
   3   4  -2  172.08    8.20
  -7   3  -2  166.78    8.00
  -3  -4   2  177.68    7.80
   7  -3   2  167.08    8.10
  -4   7   2  165.98    7.40
  -4   7   2  163.98    7.50
   7  -3   2  185.48    7.90
  -7   4  -2   19.90    3.60
   4   3  -2    2.70    2.20
  -3   7   2    4.00    2.10
   7  -4   2    8.20    2.80
   7  -4   2    6.70    2.40
  -3   7   2    6.10    2.30
  -4  -3   2    2.00    2.00
  -7   5  -2  159.98    8.20
   5   2  -2  149.99    7.80
  -2   7   2  170.58    9.30
   7  -5   2  170.18    8.30
   7  -5   2  160.08    7.70
  -5  -2   2  157.58    7.80
  -2   7   2  159.88    7.40
  -7   6  -2  217.58    9.90
   6   1  -2  241.48   10.00
  -6  -1   2  240.08    9.80
   7  -6   2  222.18   10.00
   7  -6   2  227.48    9.30
  -1   7   2  213.68    9.00
   7   0  -2   38.00    5.00
  -7   7  -2   39.50    5.30
   0   7   2   37.40    4.70
   7  -7   2   36.90    4.50
  -7   0   2   39.00    5.00
   7  -7   2   35.30    5.10
   8  -1  -2   13.10    3.80
  -7   8  -2   14.90    3.90
   7  -8   2   12.80    3.80
   1   7   2   14.20    3.80
  -8   1   2   11.50    3.70
   1   7  -2   39.00    5.80
   7  -8  -2   36.30    5.10
  -8   1  -2   37.40    5.40
   8  -1   2   35.00    5.20
   8  -1   2   42.70    5.60
  -7   8   2   42.70    5.30
   2   6  -2 1680.63   39.60
  -8   2  -2 1720.43   39.70
   6  -8  -2 1631.84   38.00
   8  -2   2 1571.94   38.10
  -6   8   2 1707.73   38.40
   8  -2   2 1676.53   39.30
  -8   3  -2   18.20    3.60
   3   5  -2    6.80    3.10
   8  -3   2   25.10    4.50
   8  -3   2   19.00    3.70
  -3  -5   2   17.40    4.20
  -5   8   2   19.70    3.60
  -8   4  -2 1400.06   34.10
   4   4  -2 1389.46   34.10
   8  -4   2 1424.66   33.30
  -4   8   2 1416.16   33.00
  -4  -4   2 1393.36   33.20
   8  -4   2 1394.46   34.20
  -8   5  -2  116.49    7.70
   5   3  -2  119.59    7.60
  -3   8   2  106.39    6.90
   8  -5   2  117.39    7.10
   8  -5   2  125.09    7.90
  -5  -3   2  115.19    7.20
   6   2  -2 1136.79   28.80
  -8   6  -2 1104.29   28.80
  -6  -2   2 1141.19   28.30
  -2   8   2 1087.69   27.50
   8  -6   2 1062.89   28.50
   8  -6   2 1091.89   27.50
   7   1  -2   10.80    3.40
  -8   7  -2    6.60    3.10
  -1   8   2   11.50    3.40
  -1   8   2   12.10    3.50
   8  -7   2   11.00    3.90
  -7  -1   2   13.50    3.90
   0   0  -3 3078.39   60.89
   1  -1  -3  298.47    9.00
  -1   0  -3  294.07    8.90
   0   1  -3  296.37    6.80
   0   1  -3  292.77    8.80
   0  -1   3  298.57    6.80
   1   0   3  293.07    6.50
   0  -1   3  293.17    6.70
   0  -1  -3  135.69    5.50
   1   0  -3  130.29    5.40
   1   0  -3  128.69    3.30
   1   0  -3  131.19    3.30
  -1   1  -3  128.69    3.50
  -1   1  -3  126.39    5.10
   1  -1   3  127.79    3.40
  -1   0   3  132.39    3.30
  -1   0   3  131.09    3.30
   1  -1   3  123.19    3.40
   1  -1   3  126.69    3.80
   2  -1  -3  106.79    5.10
  -1   2  -3  107.99    3.90
  -1   2  -3  109.69    3.80
  -1   2  -3  114.79    4.70
   2  -1  -3  110.39    3.20
  -2   1   3  108.99    3.20
   1  -2   3  105.39    3.90
   1  -2   3  107.99    3.80
   1  -2   3  112.79    3.80
   1   1   3  104.29    2.50
   1   1   3  109.79    3.10
  -2   1   3  103.09    3.20
  -1   3  -3  485.45   12.00
   3  -2  -3  475.85   11.00
   3  -2  -3  478.85   13.00
  -1   3  -3  482.05   12.50
  -3   2   3  491.05   11.00
   2   1   3  479.65   11.10
  -3   2   3  472.35   11.00
   2   1   3  498.65   10.90
   2   1   3  469.85   10.60
   1  -3   3  490.25   11.80
   2  -2  -3 4485.35   87.69
   2  -2  -3 4561.04   89.49
   0   2  -3 4587.64   87.39
   0   2  -3 4371.36   87.49
  -2   0  -3 4525.65   88.99
   0   2  -3 4786.42   87.79
   2   0   3 4555.04   88.69
   0  -2   3 4478.45   89.59
  -2   2   3 4790.72   89.19
  -2   2   3 4768.62   88.19
   2   0   3 4697.53   88.59
   0  -2   3 4609.74   89.79
  -2   2   3 4532.45   88.69
   0  -2   3 4664.83   93.19
  -2   1  -3  103.69    3.50
   1   1  -3  103.59    3.60
   1   1  -3  113.39    3.70
  -2   1  -3  103.89    4.70
   1  -2  -3  103.99    4.90
  -2   1  -3  109.99    3.40
   2  -1   3  103.69    3.40
   2  -1   3  102.29    3.30
  -1  -1   3  112.19    3.70
  -1  -1   3  101.39    3.50
   2  -1   3  106.39    3.70
  -1   2   3  110.89    2.90
  -2   2  -3 1628.24   32.50
   0  -2  -3 1611.64   34.60
  -2   2  -3 1718.43   32.60
  -2   2  -3 1623.14   33.60
   2   0  -3 1604.34   32.10
   2  -2   3 1616.14   32.70
   2  -2   3 1627.24   32.30
  -2   0   3 1612.44   32.20
  -2   0   3 1620.44   32.00
   2  -2   3 1596.14   32.20
   0   2   3 1610.04   31.20
   3  -1  -3  154.08    4.90
  -1  -2  -3  140.39    4.30
  -2   3  -3  162.98    5.60
  -2   3  -3  151.78    5.30
  -2   3  -3  147.19    4.30
  -3   1   3  157.08    5.00
   1   2   3  157.78    4.50
   1   2   3  159.58    4.30
   2  -3   3  151.38    5.30
  -3   1   3  155.48    4.80
   1   2   3  162.18    4.30
   2  -3   3  154.98    5.50
   4  -2  -3 2297.07   45.50
  -2   4  -3 2225.48   45.20
  -2   4  -3 2275.57   46.60
  -2   4  -3 2300.77   45.90
   2  -4   3 2284.17   46.60
  -4   2   3 2239.68   45.70
   2   2   3 2304.67   45.40
   2   2   3 2339.27   45.10
   2  -4   3 2262.37   46.30
   2   2   3 2364.36   45.20
  -2   5  -3   53.59    3.40
  -2   5  -3   44.90    3.80
   5  -3  -3   49.50    3.50
   5  -3  -3   54.89    4.20
  -5   3   3   48.90    3.60
  -5   3   3   47.50    3.50
   2  -5   3   51.59    4.00
   3   2   3   44.30    3.30
  -1   4  -3   24.80    2.80
  -1   4  -3   23.30    2.00
   4  -3  -3   21.10    2.90
   4  -3  -3   21.00    2.10
  -4   3   3   24.40    2.40
   3   1   3   25.30    2.40
   1  -4   3   24.40    2.70
  -4   3   3   21.70    2.30
   3   1   3   21.70    2.20
  -3   0  -3   33.60    2.10
   3  -3  -3   38.80    3.10
   3  -3  -3   33.00    2.10
  -3   0  -3   32.50    2.40
   0   3  -3   33.30    2.60
   0  -3   3   32.30    2.60
   3   0   3   36.90    2.30
  -3   3   3   35.50    2.30
  -3   3   3   32.40    2.00
  -3   3   3   35.10    2.20
   3   0   3   34.10    2.20
   3   0   3   36.50    2.50
   2  -3  -3  496.65   12.90
   1   2  -3  485.15   11.80
   1   2  -3  478.45   10.50
  -3   1  -3  452.25   11.30
  -3   1  -3  497.85   11.20
   3  -1   3  473.95   11.10
  -1  -2   3  477.05   11.60
   3  -1   3  487.15   11.30
   3  -1   3  484.35   11.50
  -2   3   3  479.05   10.80
  -2   3   3  478.25   10.50
  -2   3   3  471.95   10.40
   2   1  -3  159.08    4.10
   2   1  -3  157.38    5.30
  -3   2  -3  167.18    5.20
  -3   2  -3  152.38    5.20
   1  -3  -3  151.78    6.30
  -2  -1   3  157.68    5.30
   3  -2   3  154.68    5.40
  -1   3   3  156.48    4.10
  -1   3   3  155.98    4.20
  -2  -1   3  151.88    5.10
   3  -2   3  158.28    5.10
  -1   3   3  157.48    4.40
   3  -2   3  162.68    5.20
   3   0  -3  228.68    6.80
  -3   3  -3  216.98    6.90
  -3   3  -3  217.98    6.90
   3   0  -3  224.68    5.40
  -3   3  -3  220.18    5.90
   0   3   3  231.58    5.80
   3  -3   3  231.28    7.20
   0   3   3  221.58    6.10
  -3   0   3  219.88    6.80
   3  -3   3  215.58    6.80
   0   3   3  229.18    5.80
  -3   4  -3  163.58    5.40
   4  -1  -3  162.58    5.90
  -3   4  -3  170.88    5.60
  -3   4  -3  154.08    6.20
   3  -4   3  158.48    6.00
   1   3   3  164.48    5.20
  -4   1   3  157.68    5.90
   3  -4   3  167.48    6.40
   1   3   3  169.38    5.50
   1   3   3  162.98    6.00
  -3   5  -3   21.30    2.10
   5  -2  -3   19.30    2.60
  -3   5  -3   19.40    2.90
   2   3   3   22.10    2.40
   2   3   3   21.40    2.40
  -5   2   3   19.90    2.70
   3  -5   3   19.20    2.90
   3  -5   3   23.70    3.10
   6  -3  -3   13.50    2.40
  -3   6  -3   13.80    2.90
  -6   3   3   16.40    3.00
   3  -6   3   13.70    2.80
   3  -6   3   12.20    2.60
   3   3   3   13.90    2.40
  -6   3   3   11.80    2.50
  -3   7  -3  198.18    9.30
   7  -4  -3  206.68    8.90
   7  -4  -3  218.38    8.80
  -7   4   3  198.58    8.70
   4   3   3  207.18    8.30
   3  -7   3  206.08    9.00
   6  -4  -3 1580.54   35.30
  -2   6  -3 1562.34   35.90
   6  -4  -3 1572.84   34.60
   4   2   3 1656.23   34.60
   2  -6   3 1662.23   35.80
  -6   4   3 1609.44   35.30
  -6   4   3 1573.74   34.90
   5  -4  -3   85.39    4.90
   5  -4  -3   84.59    4.40
  -1   5  -3   88.99    5.20
  -5   4   3   92.69    4.80
   4   1   3   92.69    4.80
   4   1   3   84.39    4.40
  -5   4   3   88.69    4.60
   1  -5   3   88.59    5.10
   0   4  -3 1031.80   23.90
   4  -4  -3 1056.69   22.60
   4  -4  -3 1064.59   23.80
  -4   0  -3 1022.00   23.10
  -4   4   3 1033.50   22.80
   4   0   3 1041.00   22.90
   4   0   3 1056.09   23.30
   0  -4   3 1039.50   23.60
  -4   4   3 1063.19   23.00
   3  -4  -3   22.80    1.90
   1   3  -3   23.70    2.60
   1   3  -3   24.10    2.10
  -4   1  -3   21.40    2.40
   3  -4  -3   26.40    2.70
  -3   4   3   24.20    2.20
  -3   4   3   23.40    2.10
   4  -1   3   24.50    2.40
  -1  -3   3   22.40    2.60
   2   2  -3 2252.97   45.90
  -4   2  -3 2196.38   45.90
  -2  -2   3 2243.88   45.90
   4  -2   3 2272.37   45.40
  -2   4   3 2266.07   44.50
   4  -2   3 2281.57   45.90
  -2   4   3 2340.77   44.40
  -2   4   3 2303.47   44.80
   3   1  -3  157.78    6.00
  -4   3  -3  163.08    6.20
  -3  -1   3  159.38    6.10
   4  -3   3  162.88    6.20
   4  -3   3  159.48    5.90
  -1   4   3  163.58    5.10
  -1   4   3  159.68    5.10
  -1   4   3  166.08    5.30
  -4   4  -3 2439.36   50.09
   4   0  -3 2442.66   49.60
   4  -4   3 2425.96   50.19
  -4   0   3 2474.65   49.70
   4  -4   3 2473.25   49.80
   0   4   3 2527.85   48.80
   0   4   3 2398.56   48.50
   5  -1  -3   22.30    3.00
  -4   5  -3   17.50    3.10
   4  -5   3   16.80    3.00
   1   4   3   12.30    2.00
  -5   1   3   12.70    2.40
   4  -5   3   16.60    2.90
   1   4   3   12.90    2.30
   6  -2  -3  778.22   19.80
  -4   6  -3  774.42   20.50
  -6   2   3  801.52   20.20
   4  -6   3  795.92   20.20
   4  -6   3  807.02   20.90
   2   4   3  825.12   19.40
  -4   7  -3   58.59    5.50
   7  -3  -3   46.50    4.60
   4  -7   3   54.29    5.40
   3   4   3   65.29    4.80
   4  -7   3   55.79    5.10
  -7   3   3   66.69    5.30
  -7   3   3   60.59    5.30
  -4   8  -3 1134.19   28.90
   8  -4  -3 1086.09   27.60
   4   4   3 1080.69   27.10
  -8   4   3 1108.69   28.00
   4  -8   3 1077.59   27.80
   8  -5  -3    5.60    2.70
  -3   8  -3    4.10    3.00
   5   3   3    6.00    2.70
   3  -8   3    2.30    2.50
  -8   5   3    8.50    3.00
   7  -5  -3   11.40    2.70
  -2   7  -3    9.80    3.00
  -7   5   3   13.80    3.10
   2  -7   3    9.70    2.90
   5   2   3   13.70    2.90
  -1   6  -3  142.89    7.30
   6  -5  -3  135.59    6.40
   6  -5  -3  163.78    6.60
   5   1   3  139.19    6.60
  -6   5   3  148.09    6.90
   5   1   3  139.09    9.50
   1  -6   3  154.68    7.30
   5  -5  -3  130.99    5.70
   5  -5  -3  133.89    6.00
  -5   0  -3  120.29    5.90
   0   5  -3  137.59    6.70
  -5   5   3  131.79    6.00
   0  -5   3  145.59    6.70
   5   0   3  140.89    6.30
   5   0   3  133.09    6.00
  -5   5   3  140.99    6.70
  -5   1  -3   91.79    5.00
   4  -5  -3   95.69    4.40
   4  -5  -3   91.89    4.80
   1   4  -3   87.99    5.10
  -4   5   3   86.09    4.50
   5  -1   3   90.79    4.80
  -1  -4   3   92.29    5.10
  -4   5   3   86.59    4.50
   5  -1   3   98.09    5.10
   2   3  -3   47.30    3.80
  -5   2  -3   45.80    3.60
  -3   5   3   47.40    3.20
  -2  -3   3   49.30    3.70
   5  -2   3   45.90    3.50
  -3   5   3   48.40    3.20
   5  -2   3   53.59    3.90
  -5   3  -3   12.70    2.40
   3   2  -3   23.70    3.00
  -2   5   3   18.30    2.30
   5  -3   3   16.90    2.70
  -2   5   3   13.20    2.00
  -3  -2   3   23.40    2.90
   5  -3   3   18.00    2.90
  -5   4  -3   19.60    3.00
   4   1  -3   10.70    2.20
  -4  -1   3   18.00    3.00
  -1   5   3   18.10    2.40
   5  -4   3   15.10    2.70
   5  -4   3   15.20    2.70
  -5   5  -3  343.27   11.30
   5   0  -3  340.37   10.90
   0   5   3  349.37   10.10
   5  -5   3  348.57   11.30
   5  -5   3  331.67   10.70
  -5   0   3  324.57   10.80
   6  -1  -3    7.10    2.50
  -5   6  -3   10.20    2.80
  -6   1   3   14.20    2.90
   1   5   3    8.80    2.30
   5  -6   3   12.40    2.80
   5  -6   3    9.10    2.40
   7  -2  -3  117.79    6.90
  -5   7  -3  106.09    7.00
   5  -7   3  119.69    6.80
  -7   2   3  112.59    6.90
   2   5   3  113.09    6.20
   5  -7   3  120.39    7.40
   8  -3  -3   64.39    5.90
  -5   8  -3   54.39    6.20
  -8   3   3   52.69    5.90
   3   5   3   53.19    5.30
   5  -8   3   57.29    6.20
   5  -8   3   51.59    5.50
  -2   8  -3  396.56   14.80
   8  -6  -3  385.96   13.50
   6   2   3  375.96   13.50
  -8   6   3  401.76   14.10
   2  -8   3  412.86   15.90
  -1   7  -3    3.40    2.70
   7  -6  -3    3.40    2.10
  -7   6   3    2.00    2.40
   1  -7   3    4.90    2.50
   6   1   3    6.90    2.60
   0   6  -3 1413.96   32.90
  -6   0  -3 1338.77   31.80
   6  -6  -3 1388.06   31.20
   0  -6   3 1419.76   32.60
   6   0   3 1405.06   31.70
  -6   6   3 1372.36   31.60
  -6   1  -3  153.98    7.30
   5  -6  -3  153.88    6.50
   1   5  -3  152.58    7.50
   6  -1   3  149.49    7.00
  -5   6   3  149.59    6.70
   6  -1   3  146.99    7.10
  -1  -5   3  144.09    7.20
  -6   2  -3 1566.54   35.10
   2   4  -3 1602.44   35.60
  -2  -4   3 1571.64   35.10
   6  -2   3 1576.54   35.20
   6  -2   3 1581.74   34.70
  -4   6   3 1615.54   34.30
  -6   3  -3   11.50    2.50
   3   3  -3   19.60    3.30
  -3  -3   3   13.20    2.60
   6  -3   3   14.10    2.60
  -3   6   3   16.90    2.70
   6  -3   3   14.80    3.00
  -6   4  -3  773.72   20.30
   4   2  -3  799.42   20.20
   6  -4   3  778.82   20.40
  -2   6   3  795.62   19.10
  -4  -2   3  786.62   20.20
   6  -4   3  795.02   19.90
  -6   5  -3   11.10    2.90
   5   1  -3    7.40    2.30
  -1   6   3   10.40    2.30
  -5  -1   3   10.10    2.70
   6  -5   3   11.40    2.70
   6  -5   3   11.90    3.00
  -6   6  -3 1256.47   30.70
   6   0  -3 1245.18   30.10
   6  -6   3 1303.57   30.10
   0   6   3 1282.97   29.10
  -6   0   3 1292.07   30.40
   0   6   3 1271.77   29.10
   6  -6   3 1306.07   31.00
   7  -1  -3   36.00    4.60
  -6   7  -3   57.49    5.80
   6  -7   3   37.60    4.70
   1   6   3   39.40    4.50
   6  -7   3   43.40    5.20
  -7   1   3   34.90    4.80
   8  -2  -3  770.72   22.10
  -6   8  -3  799.62   23.00
   6  -8   3  803.42   23.00
   2   6   3  769.02   21.20
   6  -8   3  784.02   22.00
  -8   2   3  782.72   22.20
   0   7  -3   10.70    3.50
  -7   0  -3    8.40    3.00
   7  -7  -3    9.40    2.80
  -7   7   3    7.30    3.00
   0  -7   3   12.90    3.40
   7   0   3    7.90    3.10
  -7   1  -3    1.80    2.40
   1   6  -3    3.50    2.70
   6  -7  -3    2.80    2.00
   7  -1   3    0.70    2.20
  -6   7   3    2.60    2.20
  -1  -6   3    2.60    2.20
   5  -7  -3   11.80    2.70
  -7   2  -3    8.90    2.70
   2   5  -3    9.50    3.00
  -2  -5   3    7.60    2.60
   7  -2   3    9.70    3.00
  -5   7   3    8.30    2.50
   7  -2   3   10.90    3.00
  -7   3  -3  195.68    8.90
   3   4  -3  189.08    8.80
  -3  -4   3  196.18    8.80
   7  -3   3  201.68    9.00
   7  -3   3  205.68    8.70
  -4   7   3  200.28    8.10
  -7   4  -3   68.59    5.50
   4   3  -3   67.29    5.60
  -4  -3   3   65.69    5.50
  -3   7   3   62.09    4.80
   7  -4   3   59.89    5.50
   7  -4   3   58.59    5.30
   5   2  -3  118.99    7.10
  -7   5  -3  127.49    7.30
   7  -5   3  116.19    7.30
  -5  -2   3  118.79    7.10
   7  -5   3  113.19    6.90
  -2   7   3  118.29    6.50
  -7   6  -3   40.10    5.20
   6   1  -3   40.60    4.90
  -6  -1   3   40.90    5.00
  -1   7   3   41.80    4.50
   7  -6   3   35.60    5.00
   7  -6   3   40.40    4.90
  -7   7  -3    6.50    3.20
   7   0  -3   14.30    3.40
   7  -7   3    7.60    2.90
   7  -7   3    8.60    3.30
   0   7   3    8.20    2.90
  -7   0   3    7.00    3.00
   2   6  -3  402.36   15.10
   6  -8  -3  411.06   13.50
  -8   2  -3  400.46   14.50
   8  -2   3  408.66   14.40
  -6   8   3  406.26   14.00
  -2  -6   3  407.56   14.50
   3   5  -3   11.30    3.60
  -8   3  -3    4.50    2.70
  -5   8   3    4.70    2.60
   8  -3   3    5.10    2.70
   8  -3   3   11.20    3.40
  -3  -5   3   12.80    3.40
  -8   4  -3 1102.79   28.70
   4   4  -3 1100.39   28.60
   8  -4   3 1079.39   28.50
  -4  -4   3 1110.59   28.10
   8  -4   3 1139.89   28.10
  -4   8   3 1068.39   27.00
  -8   5  -3   55.49    5.90
   5   3  -3   55.69    5.90
  -3   8   3   49.60    5.20
   8  -5   3   56.69    5.90
   8  -5   3   71.99    6.50
  -5  -3   3   49.60    5.60
  -8   6  -3  755.42   22.40
   6   2  -3  758.42   22.10
   8  -6   3  780.22   22.70
   8  -6   3  751.32   21.50
  -2   8   3  800.62   21.30
  -6  -2   3  790.32   22.30
   0   0  -4 1077.09   25.00
  -1   0  -4   68.39    4.40
   0   1  -4   69.39    2.30
   0   1  -4   71.69    2.30
   1  -1  -4   62.69    4.30
   0   1  -4   69.69    4.50
   0  -1   4   70.59    2.60
   1   0   4   68.39    2.20
  -1   1  -4  321.57    6.70
  -1   1  -4  325.67    6.80
   0  -1  -4  322.77   10.50
   1   0  -4  334.17   10.60
   1  -1   4  312.27    7.60
   1  -1   4  319.27    7.30
  -1   0   4  317.67    7.00
  -1   0   4  316.57    7.10
   1  -1   4  325.37    7.30
   2  -1  -4    8.40    2.30
  -1   2  -4    8.20    2.10
  -1  -1  -4    7.50    2.20
  -1   2  -4    8.80    1.40
  -1   2  -4    8.90    1.30
   1   1   4    9.40    0.90
   1  -2   4    6.50    1.20
  -2   1   4    7.50    1.00
   1  -2   4    7.30    1.30
  -2   1   4    8.70    1.10
  -1   3  -4   17.10    2.70
  -2  -1  -4   17.20    0.90
   3  -2  -4   17.00    2.80
   3  -2  -4   18.70    1.40
  -1   3  -4   15.60    2.10
   2   1   4   16.80    1.50
   2   1   4   16.20    1.50
  -3   2   4   15.00    1.70
  -3   2   4   17.20    1.80
   1  -3   4   17.70    2.20
   0   2  -4 4698.73   95.29
   2  -2  -4 4704.13   95.39
   0   2  -4 4840.12   92.19
   2   0   4 4797.62   93.09
  -2   2   4 4961.00   92.39
  -2   2   4 4965.70   91.09
  -2   2   4 4882.91   92.19
   2   0   4 4820.32   91.19
   0  -2   4 5012.10   92.49
   0  -2   4 4682.13   95.49
   2   0   4 4789.72   94.29
   0  -2   4 4981.90   92.49
   1   1  -4   18.90    3.10
  -2   1  -4    7.30    0.90
   1  -2  -4    7.70    2.40
  -2   1  -4    8.50    1.00
   1   1  -4    6.00    1.10
  -2   1  -4    7.40    2.00
  -1  -1   4    5.20    1.20
   2  -1   4    9.60    1.30
  -1  -1   4    8.40    1.30
   2  -1   4    7.10    1.20
   2  -1   4    5.60    1.00
  -2   2  -4 4296.77   86.19
   0  -2  -4 4348.56   87.89
  -2   2  -4 4358.96   86.79
   2   0  -4 4404.16   88.19
   2   0  -4 4293.87   84.69
  -2   2  -4 4607.44   84.19
  -2   0   4 4435.96   86.29
   2  -2   4 4297.97   84.09
   0   2   4 4518.35   82.69
   2  -2   4 4481.55   84.59
   2  -2   4 4498.95   84.39
  -2   0   4 4427.26   85.79
   3  -1  -4   84.39    3.30
  -2   3  -4   86.59    4.80
  -2   3  -4   85.39    4.00
   3  -1  -4   82.09    5.40
   1   2   4   91.49    2.90
   1   2   4   91.59    2.90
   2  -3   4   89.99    4.10
  -3   1   4   89.49    3.70
   2  -3   4   91.99    4.30
  -2   4  -4  975.40   22.50
  -2  -2  -4  993.10   20.00
   4  -2  -4  954.50   24.40
  -2   4  -4  989.50   22.90
   4  -2  -4  964.40   21.00
   2  -4   4  999.60   22.50
   2  -4   4 1024.00   22.90
  -4   2   4 1018.20   21.80
   2   2   4  975.50   20.70
  -2   5  -4   77.59    4.80
   5  -3  -4   82.19    4.10
  -2   5  -4   82.79    5.20
   5  -3  -4   81.49    5.70
   3   2   4   82.19    4.20
  -5   3   4   83.89    4.60
   2  -5   4   76.89    5.00
  -1   4  -4  243.78    9.00
  -3  -1  -4  246.38    6.90
  -1   4  -4  240.88    8.20
   4  -3  -4  250.37    6.90
   4  -3  -4  259.87    9.50
   1  -4   4  238.68    8.20
   3   1   4  246.78    7.20
  -4   3   4  240.78    7.40
   0   3  -4    3.70    1.40
   3  -3  -4    6.70    0.90
  -3   0  -4    3.80    1.00
   0   3  -4    3.70    1.90
   3  -3  -4    3.90    1.90
   3   0   4    3.10    1.10
   0  -3   4    2.20    1.30
  -3   3   4    2.90    1.00
   1   2  -4   16.10    2.00
  -3   1  -4   15.50    1.70
   2  -3  -4   16.80    3.10
  -1  -2   4   15.60    2.10
   3  -1   4   19.70    2.00
  -2   3   4   20.50    1.30
  -2   3   4   17.50    1.40
   3  -1   4   16.30    2.00
   2   1  -4   92.19    3.90
  -3   2  -4   94.59    3.90
   1  -3  -4   89.99    5.50
   3  -2   4   92.69    3.90
  -2  -1   4   92.99    4.10
   3  -2   4  101.29    4.20
  -1   3   4   88.69    2.70
  -1   3   4   90.99    2.60
  -3   3  -4    9.20    2.20
  -3   3  -4    6.10    1.50
   3   0  -4    5.60    1.30
  -3   0   4    5.10    1.40
   3  -3   4    4.80    1.50
   0   3   4    4.60    0.90
   3  -3   4    6.60    1.70
   0   3   4    4.60    0.90
   4  -1  -4   67.99    3.70
  -3   4  -4   76.29    4.30
  -3   4  -4   79.59    4.50
   3  -4   4   77.49    4.60
   1   3   4   73.69    3.30
   3  -4   4   71.19    4.20
  -4   1   4   72.59    4.00
   5  -2  -4  329.67    9.50
  -3   5  -4  307.87   10.40
  -3   5  -4  327.87    9.90
   2   3   4  322.27    9.20
   3  -5   4  327.77   10.70
  -5   2   4  324.27   10.10
   3  -5   4  323.77   10.50
   6  -3  -4   19.70    3.00
  -3   6  -4   17.50    3.20
   6  -3  -4   18.40    3.70
   3  -6   4   15.00    3.00
  -6   3   4   17.00    3.10
   3   3   4   17.20    2.90
   7  -4  -4    5.10    2.90
  -3   7  -4    8.40    3.00
   7  -4  -4    7.20    2.30
   4   3   4    8.00    2.50
  -7   4   4    4.70    2.50
   3  -7   4    8.30    3.00
   6  -4  -4 2213.78   45.60
  -2   6  -4 2191.48   47.60
   6  -4  -4 2176.18   48.00
   2  -6   4 2252.67   47.70
  -6   4   4 2214.48   46.70
   4   2   4 2221.88   45.90
  -1   5  -4    7.70    2.60
  -1   5  -4    7.50    2.10
   5  -4  -4    6.10    1.60
   5  -4  -4    8.10    2.50
  -4  -1  -4   11.40    2.10
   4   1   4    5.30    1.70
  -5   4   4    6.90    1.90
   1  -5   4    5.40    2.30
   4  -4  -4 2770.12   52.79
   4  -4  -4 2679.23   56.09
  -4   0  -4 2740.63   53.79
   0   4  -4 2690.03   55.19
  -4   4   4 2690.83   53.69
   4   0   4 2740.23   53.99
   0  -4   4 2657.43   55.19
   1   3  -4  245.68    8.20
   3  -4  -4  238.18    9.10
  -4   1  -4  255.87    7.70
  -3   4   4  245.38    7.00
   4  -1   4  243.98    7.70
  -1  -3   4  247.08    8.30
  -4   2  -4  974.30   21.70
   2  -4  -4  970.70   24.00
   2   2  -4  994.40   22.10
   4  -2   4  993.80   22.20
  -2  -2   4  959.70   22.20
   4  -2   4  976.30   21.60
  -2   4   4  981.30   20.40
  -4   3  -4   71.39    4.10
   3   1  -4   75.79    4.20
   4  -3   4   82.89    4.30
  -1   4   4   73.59    3.30
   4  -3   4   80.99    4.40
  -3  -1   4   71.09    4.20
  -4   4  -4 3078.19   61.49
   4   0  -4 2977.50   60.59
  -4   0   4 3051.19   61.19
   4  -4   4 3035.10   61.19
   0   4   4 3045.80   59.39
   4  -4   4 3105.19   61.79
  -4   5  -4    2.30    1.70
   5  -1  -4    5.60    1.80
   4  -5   4    3.80    1.90
   1   4   4    5.10    1.60
   4  -5   4    5.10    2.30
   1   4   4    4.30    1.60
  -5   1   4    4.10    1.90
  -4   6  -4 1890.21   42.00
   6  -2  -4 1908.11   40.70
   2   4   4 1968.50   40.20
   4  -6   4 1905.11   42.20
  -6   2   4 1875.71   41.30
   4  -6   4 1913.11   41.80
  -4   7  -4   34.10    4.90
   7  -3  -4   29.40    4.00
  -7   3   4   29.20    4.40
   4  -7   4   29.80    4.60
   3   4   4   31.10    4.00
  -2   7  -4    2.20    2.60
   7  -5  -4    9.30    2.50
  -7   5   4    4.30    2.60
   5   2   4    7.50    2.50
   2  -7   4    6.40    2.70
   6  -5  -4   53.09    4.90
  -5  -1  -4   53.99    4.40
   6  -5  -4   45.10    3.80
  -1   6  -4   47.50    4.90
  -1   6  -4   52.99    4.90
  -6   5   4   44.10    4.30
   1  -6   4   45.00    4.80
   5   1   4   56.79    4.50
   0   5  -4   19.50    3.50
   5  -5  -4   17.10    3.40
  -5   0  -4   19.20    3.10
   5  -5  -4   15.10    2.40
   0  -5   4   19.50    3.30
   5   0   4   23.60    3.10
  -5   5   4   19.20    3.00
   1   4  -4    8.10    2.40
  -5   1  -4    8.20    2.00
   4  -5  -4    7.40    2.50
   5  -1   4    6.70    2.00
  -1  -4   4    4.50    1.90
  -4   5   4    5.70    1.90
   2   3  -4   79.69    4.90
  -5   2  -4   79.49    4.70
  -3   5   4   76.99    4.00
  -2  -3   4   84.69    5.10
   5  -2   4   86.29    4.80
  -5   3  -4  321.17   10.10
   3   2  -4  319.37   10.20
  -3  -2   4  309.67   10.30
   5  -3   4  318.57   10.30
   5  -3   4  318.97   10.00
  -2   5   4  313.97    8.90
  -5   4  -4    3.90    2.00
   4   1  -4    6.20    2.00
  -4  -1   4    2.20    1.80
   5  -4   4    6.00    2.10
   5  -4   4    5.60    2.20
  -1   5   4    6.00    1.60
  -5   5  -4    5.50    2.30
   5   0  -4    1.70    1.80
   5  -5   4    3.80    2.10
   0   5   4    2.80    1.50
   5  -5   4    6.90    2.40
  -5   0   4    5.40    2.10
   6  -1  -4   98.59    5.80
  -5   6  -4   89.79    6.10
   5  -6   4   95.79    6.10
   5  -6   4   95.19    6.40
   1   5   4   93.29    5.20
  -6   1   4   96.59    6.20
  -5   7  -4    0.20    2.60
   7  -2  -4    2.80    2.40
   5  -7   4    3.40    2.70
   2   5   4    3.50    2.20
   5  -7   4    3.70    3.00
  -7   2   4    0.00    2.20
   7  -6  -4  167.78    7.50
  -6  -1  -4  164.88    8.00
  -1   7  -4  171.58    9.10
  -7   6   4  168.08    8.30
   6   1   4  159.68    8.10
   1  -7   4  154.58    8.90
  -6   0  -4  661.43   18.30
   6  -6  -4  678.93   17.30
   0   6  -4  676.03   19.50
   6   0   4  683.23   18.40
  -6   6   4  695.53   18.40
   0  -6   4  702.83   19.70
   5  -6  -4   44.30    3.50
   1   5  -4   39.00    4.70
  -6   1  -4   47.50    4.50
  -1  -5   4   49.70    5.00
  -5   6   4   55.99    4.40
   6  -1   4   59.29    4.80
  -6   2  -4 2246.98   47.70
   2   4  -4 2248.38   48.20
   6  -2   4 2275.37   47.60
  -2  -4   4 2248.68   48.30
  -4   6   4 2251.77   46.60
  -6   3  -4   14.30    2.80
   3   3  -4   12.60    2.80
  -3  -3   4   15.10    3.10
   6  -3   4   19.60    3.30
  -3   6   4   12.70    2.40
   4   2  -4 1914.91   41.30
  -6   4  -4 1894.31   41.40
  -2   6   4 1866.71   39.50
   6  -4   4 1949.10   41.20
  -4  -2   4 1831.72   41.20
   5   1  -4   92.79    5.90
  -6   5  -4   95.69    6.30
  -5  -1   4   90.39    6.10
   6  -5   4   94.59    6.10
   6  -5   4   98.59    6.40
  -1   6   4   92.69    5.20
   6   0  -4  718.83   19.80
  -6   6  -4  748.43   20.80
   6  -6   4  724.33   20.70
   0   6   4  701.23   18.50
  -6   0   4  732.53   20.30
   0   6   4  759.72   18.80
   6  -6   4  771.32   20.30
  -6   7  -4   55.49    5.90
   7  -1  -4   62.59    5.70
   6  -7   4   57.19    6.10
   1   6   4   62.19    5.10
   6  -7   4   58.79    5.80
  -7   1   4   60.29    5.70
  -7   1  -4  157.18    8.20
   6  -7  -4  166.48    7.20
   1   6  -4  163.68    9.10
  -1  -6   4  161.58    8.70
  -6   7   4  172.78    8.10
   7  -1   4  166.68    8.40
   2   5  -4    6.40    3.10
  -7   2  -4    5.90    2.70
  -2  -5   4    4.80    2.80
   7  -2   4    3.90    2.50
  -5   7   4    1.20    2.10
   3   4  -4    6.70    2.70
  -7   3  -4   10.00    2.90
   7  -3   4    6.80    2.90
  -3  -4   4    5.50    2.80
  -4   7   4    6.40    2.30
  -7   4  -4   30.90    4.50
   4   3  -4   17.90    3.60
  -3   7   4   25.60    3.60
  -4  -3   4   25.60    4.30
   7  -4   4   35.50    4.80
  -7   5  -4    1.00    2.40
   5   2  -4    2.70    2.50
   7  -5   4    3.60    2.60
  -5  -2   4    0.60    2.30
  -2   7   4    4.80    2.20
   6   1  -4   59.19    5.70
  -7   6  -4   69.99    6.30
   7  -6   4   60.79    6.00
  -1   7   4   55.89    5.00
  -6  -1   4   58.49    5.90
   0   0  -5 1385.16   32.30
   1  -1  -5    5.30    2.30
  -1   0  -5    7.00    2.70
   0   1  -5    9.50    2.60
   1   0   5    5.60    0.80
   0  -1   5    9.00    1.40
   1   0   5    6.60    0.80
   1   0  -5  148.29    7.60
   0  -1  -5  157.48    7.80
  -1   1  -5  147.89    7.20
  -1   0   5  156.18    4.30
   1  -1   5  152.68    4.40
  -1  -1  -5    2.40    2.40
  -1   2  -5    4.50    1.00
   2  -1  -5    5.80    2.40
  -1   2  -5    8.00    2.40
  -2   1   5    4.90    1.00
   1  -2   5    2.80    1.20
  -1   3  -5    3.40    2.20
  -1   3  -5    2.20    1.20
   3  -2  -5    9.50    2.90
   2   1   5    3.40    1.00
  -3   2   5    3.20    1.10
   1  -3   5    3.70    1.50
   0   2  -5  428.46   14.00
   2  -2  -5  478.65   14.70
   0   2  -5  463.15   10.60
  -2   2   5  458.65    9.50
   0  -2   5  447.16   11.40
  -2   2   5  447.36    9.50
   2   0   5  453.35   10.10
   1   1  -5    3.50    0.80
   1   1  -5    4.20    2.20
  -2   1  -5    5.40    2.50
   1  -2  -5    5.20    2.60
   2  -1   5    3.20    1.10
  -1  -1   5    2.80    1.10
   0  -2  -5 2760.22   57.79
   2   0  -5 2736.33   50.59
  -2   2  -5 2641.14   56.19
  -2   2  -5 2727.93   51.59
   2   0  -5 2649.63   57.59
   2  -2   5 2664.43   52.69
  -2   0   5 2638.94   52.39
   3  -1  -5  288.77   11.50
  -2   3  -5  286.47   10.30
  -2   3  -5  283.07    8.10
   3  -1  -5  289.17    6.40
  -3   1   5  293.17    8.00
   1   2   5  282.87    6.60
   2  -3   5  285.97    8.60
   4  -2  -5 1069.09   21.20
  -2   4  -5 1059.49   25.40
   4  -2  -5 1049.99   27.00
  -2   4  -5 1028.00   23.50
   2   2   5 1034.60   21.80
   2  -4   5 1016.90   23.80
  -4   2   5 1015.80   22.90
   5  -3  -5   10.50    1.90
  -2   5  -5   10.20    2.50
   5  -3  -5   14.00    3.50
  -2   5  -5    6.20    2.60
  -5   3   5    7.30    2.10
   3   2   5    8.40    1.90
   2  -5   5    5.10    2.30
  -1   4  -5  129.19    5.70
  -1   4  -5  128.99    7.10
   4  -3  -5  125.49    7.30
  -4   3   5  126.69    5.10
   3   1   5  133.19    5.00
   1  -4   5  125.69    6.00
   0   3  -5   26.30    4.10
   0   3  -5   27.90    2.70
   3  -3  -5   29.10    4.10
  -3   3   5   26.40    2.10
   0  -3   5   23.30    2.90
   3   0   5   25.10    2.30
   2  -3  -5    3.00    2.20
   1   2  -5    3.30    2.60
  -3   1  -5    3.50    0.70
   1   2  -5    3.10    1.30
   3  -1   5    2.50    1.20
  -1  -2   5    2.60    1.40
  -2   3   5    4.10    0.80
  -3   2  -5  290.67    7.50
   2   1  -5  276.97   11.40
   1  -3  -5  311.57   11.70
   2   1  -5  278.97    7.60
   3  -2   5  284.97    8.20
  -2  -1   5  277.37    8.50
  -3   3  -5   12.90    2.10
  -3   3  -5   12.80    2.90
   3   0  -5   10.70    1.70
   3   0  -5   12.60    3.40
   0   3   5   12.30    1.30
   3  -3   5    9.70    2.00
  -3   0   5   11.30    2.00
  -3   4  -5    4.50    1.70
   4  -1  -5    2.50    2.70
   4  -1  -5   11.10    1.90
  -3   4  -5    4.00    2.20
   3  -4   5    4.70    1.80
  -4   1   5    0.40    1.40
   1   3   5    3.50    1.20
   1   3   5    3.30    1.20
  -3   5  -5   31.70    3.80
   5  -2  -5   32.90    5.10
  -3   5  -5   30.60    3.70
   5  -2  -5   32.50    2.90
   2   3   5   36.70    3.00
  -5   2   5   35.90    3.60
   3  -5   5   33.60    3.90
   6  -3  -5   -1.00    2.70
   6  -3  -5    3.70    1.60
  -3   6  -5    3.40    2.30
   3   3   5    3.90    1.80
   3  -6   5    0.00    2.20
  -6   3   5    0.60    1.90
   6  -4  -5  328.67   12.90
   6  -4  -5  331.67    9.60
  -2   6  -5  318.07   11.70
   4   2   5  375.86   11.00
   2  -6   5  336.77   12.20
  -6   4   5  334.27   11.30
   5  -4  -5    8.10    3.10
  -1   5  -5    5.30    2.20
  -1   5  -5    6.60    2.90
  -5   4   5    7.50    2.10
   1  -5   5    7.10    2.50
   4   1   5    9.90    2.10
   0   4  -5 1705.13   36.70
  -4   0  -5 1702.73   34.10
   0   4  -5 1733.23   39.90
   4  -4  -5 1710.43   39.30
   0  -4   5 1710.73   37.30
  -4   4   5 1714.73   35.30
   4   0   5 1688.93   35.50
   1   3  -5  133.19    7.90
  -4   1  -5  133.69    4.70
   3  -4  -5  135.09    7.50
   1   3  -5  127.89    5.70
   4  -1   5  131.39    5.40
  -3   4   5  128.39    4.70
  -1  -3   5  132.59    6.20
   2  -4  -5 1108.29   27.10
   2   2  -5 1057.79   23.30
   2   2  -5 1017.10   27.80
  -4   2  -5 1038.00   22.50
  -2  -2   5 1046.00   24.00
  -2   4   5 1003.10   21.40
   4  -2   5 1029.90   23.20
   3   1  -5    2.90    1.40
  -4   3  -5    3.00    1.40
   4  -3   5    3.40    1.70
  -1   4   5    6.60    1.30
  -3  -1   5    2.30    1.70
  -4   4  -5  326.77   10.30
   4   0  -5  338.07    9.70
  -4   0   5  327.37   10.40
   4  -4   5  330.47   10.50
   0   4   5  343.97    8.80
  -4   5  -5   10.70    2.60
   5  -1  -5    8.30    3.90
   5  -1  -5    8.70    2.00
   1   4   5   12.20    2.10
   4  -5   5    7.70    2.50
  -5   1   5   11.30    2.70
   6  -2  -5 1199.58   31.90
  -4   6  -5 1214.88   28.90
   6  -2  -5 1218.48   27.00
   4  -6   5 1194.18   28.80
  -6   2   5 1186.58   28.30
   2   4   5 1163.18   26.60
   6  -5  -5   12.40    3.60
  -1   6  -5   11.30    3.00
  -5  -1  -5   13.60    2.50
   1  -6   5   17.10    3.70
   5   1   5    8.50    2.50
  -6   5   5   14.60    3.00
  -5   0  -5  215.98    7.50
   5  -5  -5  233.08   10.00
   0   5  -5  230.28   10.70
   0   5  -5  228.38    9.20
   5   0   5  227.78    8.40
   0  -5   5  224.48    9.50
  -5   5   5  218.08    8.10
   1   4  -5    7.40    2.30
   4  -5  -5    6.80    2.90
  -5   1  -5    7.10    1.90
   5  -1   5    8.00    2.20
  -4   5   5    8.00    2.00
  -1  -4   5    4.90    2.30
  -5   2  -5    3.70    1.70
   2   3  -5    7.60    2.20
  -3   5   5    5.30    1.60
   5  -2   5    8.90    2.30
  -2  -3   5    6.80    2.40
  -5   3  -5   32.60    3.40
   3   2  -5   34.40    3.60
   5  -3   5   37.90    3.90
  -3  -2   5   38.20    4.00
  -2   5   5   34.40    2.80
  -5   4  -5   10.70    2.40
   4   1  -5    8.60    2.20
  -1   5   5    8.80    1.80
   5  -4   5   10.50    2.70
  -4  -1   5    8.20    2.30
   5   0  -5    0.90    1.70
  -5   5  -5    3.50    2.20
  -5   0   5    2.80    2.10
   0   5   5    7.10    1.90
   5  -5   5    4.70    2.50
   6  -1  -5  146.89    6.90
  -5   6  -5  153.48    8.00
  -6   1   5  143.29    7.70
   1   5   5  145.89    6.50
   5  -6   5  141.79    7.70
  -6   1  -5    9.70    2.40
   1   5  -5   12.60    3.20
  -5   6   5   21.00    3.50
   6  -1   5   13.40    3.10
  -1  -5   5   17.30    3.80
  -6   2  -5  329.87   10.70
   2   4  -5  331.77   11.60
   6  -2   5  333.67   11.20
  -4   6   5  324.97   10.20
  -2  -4   5  324.47   11.90
  -6   3  -5    7.00    2.30
   3   3  -5    2.10    2.10
   6  -3   5    1.70    2.30
  -3  -3   5    2.70    2.40
  -3   6   5    1.00    1.50
  -6   4  -5 1162.98   27.90
   4   2  -5 1175.78   28.00
  -4  -2   5 1186.38   28.70
  -2   6   5 1173.08   26.30
   6  -4   5 1217.58   28.40
   5   1  -5  145.89    7.30
  -6   5  -5  142.79    7.70
  -1   6   5  143.69    6.30
   6  -5   5  136.99    7.60
  -5  -1   5  141.09    7.70
   0   0  -6 2285.57   50.79
   0   0   6 2267.67   43.50
   0   1  -6   48.20    5.40
  -1   0  -6   61.09    6.00
   1  -1  -6   66.99    6.10
   0  -1   6   63.69    3.10
   1   0   6   59.09    2.30
  -1   1  -6  206.88    9.60
   1   0  -6  192.28    9.70
   0  -1  -6  202.48   10.00
  -1   0   6  199.88    5.60
   1  -1   6  204.58    5.90
  -1   2  -6   84.19    6.50
   2  -1  -6   86.09    6.60
  -1  -1  -6   94.19    7.30
  -2   1   6   89.39    3.50
   1  -2   6   92.09    4.20
   3  -2  -6    8.00    3.50
  -1   3  -6    8.10    1.50
  -1   3  -6   19.00    4.10
  -3   2   6   10.00    1.70
   2   1   6   11.50    1.70
   1  -3   6   10.60    2.20
   0   2  -6 1252.77   31.60
   2  -2  -6 1229.38   31.90
   2   0   6 1289.77   25.60
  -2   2   6 1289.87   24.90
   0  -2   6 1260.97   27.10
   1  -2  -6   75.19    6.60
   1   1  -6   87.79    7.00
  -2   1  -6   86.99    6.70
  -1  -1   6   83.89    4.00
   2  -1   6   83.79    3.60
   0  -2  -6 1157.48   30.30
   2   0  -6 1143.49   30.20
  -2   2  -6 1164.38   29.10
  -2   0   6 1133.09   24.30
   2  -2   6 1136.09   24.60
  -2   3  -6  127.79    4.30
   3  -1  -6  121.99    8.40
  -2   3  -6  118.59    7.40
   1   2   6  123.39    3.60
  -3   1   6  127.49    5.00
   2  -3   6  125.89    5.60
   4  -2  -6 1629.94   39.80
  -2   4  -6 1570.44   33.80
  -2   4  -6 1658.63   38.00
   2   2   6 1586.94   32.60
   2  -4   6 1610.74   35.30
  -4   2   6 1640.14   34.10
  -2   5  -6   86.29    6.50
  -2   5  -6   76.29    5.00
   5  -3  -6   78.49    6.70
  -5   3   6   78.69    4.90
   3   2   6   68.89    4.20
   2  -5   6   75.09    5.70
   4  -3  -6  102.89    7.70
  -1   4  -6  107.99    5.20
  -1   4  -6  103.79    7.40
   3   1   6  106.89    4.70
   1  -4   6  105.69    5.90
  -4   3   6  106.19    4.80
   0   3  -6  134.19    5.10
   0   3  -6  135.39    8.40
   3  -3  -6  140.69    8.50
   0  -3   6  131.59    6.20
  -3   3   6  133.69    4.70
   3   0   6  125.09    5.00
   1   2  -6   11.80    1.70
   2  -3  -6    6.10    3.00
   1   2  -6   14.70    4.10
   3  -1   6    9.90    1.80
  -2   3   6   11.40    1.40
  -1  -2   6   11.80    2.30
   2   1  -6  127.89    8.40
   1  -3  -6  131.09    8.30
  -2  -1   6  131.39    5.70
   3  -2   6  132.29    5.40
   3   0  -6   22.00    4.70
  -3   3  -6   24.70    4.40
  -3   3  -6   25.80    2.70
   3  -3   6   30.10    3.30
  -3   0   6   23.10    2.90
   0   3   6   25.00    1.70
  -3   4  -6   31.00    4.40
   4  -1  -6   22.50    4.80
  -3   4  -6   26.70    2.90
  -4   1   6   26.10    3.20
   1   3   6   23.30    2.20
   3  -4   6   29.40    3.60
   5  -2  -6  142.99    9.40
  -3   5  -6  160.78    7.00
  -5   2   6  146.49    6.80
   3  -5   6  144.99    7.40
   2   3   6  152.38    5.70
  -1   5  -6   33.50    5.10
   5  -4  -6   29.70    5.10
  -1   5  -6   31.90    3.90
   1  -5   6   31.10    4.50
   4   1   6   31.20    3.50
  -5   4   6   31.60    3.60
   0   4  -6  813.32   19.70
   4  -4  -6  810.12   23.60
   0   4  -6  824.02   24.00
   0  -4   6  843.12   21.10
  -4   4   6  802.02   18.80
   4   0   6  811.62   19.30
   1   3  -6  111.99    5.20
   1   3  -6  109.89    8.00
   3  -4  -6  112.69    7.80
   4  -1   6   98.69    5.00
  -3   4   6  107.09    4.30
  -1  -3   6  107.69    6.00
   2   2  -6 1610.34   40.60
   2  -4  -6 1658.03   39.80
   2   2  -6 1612.74   33.40
  -2  -2   6 1641.64   35.50
   4  -2   6 1600.14   34.50
  -2   4   6 1593.74   32.20
   3   1  -6   21.10    2.30
   3   1  -6   22.30    5.30
   4  -3   6   21.40    3.40
  -1   4   6   23.70    2.00
  -3  -1   6   20.80    3.30
  -4   4  -6 1028.60   23.20
   4   0  -6 1030.70   29.70
   4  -4   6 1024.40   24.60
   0   4   6 1028.00   21.70
  -4   0   6 1029.10   24.30
  -4   5  -6  100.49    5.80
   5  -1  -6   96.29    8.20
  -5   1   6   98.59    6.00
   1   4   6  106.89    4.70
   4  -5   6  100.29    6.30
   1   4  -6   26.40    3.70
   4  -5  -6   34.40    5.30
   1   4  -6   29.20    5.80
  -1  -4   6   35.50    4.70
   5  -1   6   25.30    3.60
  -4   5   6   29.90    3.20
   2   3  -6   73.89    7.50
   2   3  -6   79.19    4.90
  -2  -3   6   73.29    5.60
   5  -2   6   78.79    5.20
  -3   5   6   80.39    4.10
   3   2  -6  149.29    6.40
   3   2  -6  150.18   10.40
  -2   5   6  159.08    5.70
  -3  -2   6  155.48    7.60
   5  -3   6  155.98    7.30
   4   1  -6   96.59    5.10
   4   1  -6   86.19    8.10
  -5   4  -6  101.99    5.40
  -1   5   6  103.19    4.60
   5  -4   6   94.99    6.20
  -4  -1   6  110.39    6.30
   0   0  -7  557.74   18.80
   0   0   7  520.55   11.80
   1  -1  -7    4.50    3.70
   0   1  -7    4.60    3.50
  -1   0  -7   -0.40    3.20
   1   0   7    1.80    1.10
   0  -1   7    0.10    1.20
  -1   1   7    3.90    1.00
  -1   1  -7    3.80    3.50
   1   0  -7    3.20    3.10
   0  -1  -7    7.10    3.80
   1  -1   7   -0.10    1.10
  -1   0   7    1.50    1.20
  -1   2  -7  166.28    9.80
   2  -1  -7  154.88   10.00
   1   1   7  159.98    4.30
  -2   1   7  160.18    5.30
   1  -2   7  166.18    6.20
  -1   3  -7   26.60    5.40
   3  -2  -7   23.50    5.20
   1  -3   7   22.10    3.50
   2   1   7   26.20    2.30
  -3   2   7   26.90    2.60
   2  -2  -7  412.56   16.40
   0   2  -7  461.45   16.80
   0  -2   7  431.16   12.00
  -2   2   7  449.36   10.00
   2   0   7  433.26   10.60
   1   1  -7  169.08   10.20
   1  -2  -7  152.38   10.00
  -2   1  -7  155.58    9.80
  -1  -1   7  167.38    6.20
   2  -1   7  165.68    5.80
   2   0  -7  755.32   24.20
  -2   2  -7  820.82   23.90
  -2   0   7  782.32   18.10
   2  -2   7  770.92   18.30
  -2   3  -7    6.60    3.60
   3  -1  -7   11.40    4.60
   2  -3   7    8.40    2.30
   1   2   7    4.70    1.10
  -3   1   7    8.00    1.90
   3  -3  -7  139.29    9.50
   0   3  -7  135.29    9.40
  -3   3   7  141.19    5.00
   3   0   7  130.39    5.30
   0  -3   7  146.29    6.90
   1   2  -7   24.00    5.30
   2  -3  -7   26.60    5.30
   3  -1   7   30.40    3.10
  -2   3   7   29.60    2.00
  -1  -2   7   30.90    3.70
   2   1  -7    2.50    3.90
   1  -3  -7    5.90    3.80
   3  -2   7    3.20    1.90
  -2  -1   7    7.00    2.20
   3   0  -7  181.48   11.50
  -3   3  -7  186.88   10.20
  -3   0   7  186.68    7.30
   3  -3   7  176.08    7.40

_computing_structure_solution     'SHELXT 2014/4 (Sheldrick, 2014)'
;
_shelx_hkl_checksum              4233
loop_
_space_group_symop_operation_xyz
'x, y, z'
'-y, x-y, z'
'-x+y, -x, z'
'y, x, -z'
'x-y, -y, -z'
'-x, -x+y, -z'
'-x, -y, -z'
'y, -x+y, -z'
'x-y, x, -z'
'-y, -x, z'
'-x+y, y, z'
'x, x-y, z'
loop_
_atom_site_label
_atom_site_type_symbol
_atom_site_fract_x
_atom_site_fract_y
_atom_site_fract_z
_atom_site_U_iso_or_equiv
_atom_site_adp_type
_atom_site_occupancy
_atom_site_site_symmetry_order
_atom_site_calc_flag
_atom_site_refinement_flags_posn
_atom_site_refinement_flags_adp
_atom_site_refinement_flags_occupancy
_atom_site_disorder_assembly
_atom_site_disorder_group
Y11 Y 0.0000 0.0000 0.5000 0.0077(3) Uani 0.952(5) 12 d S T P . .
Y12 Y 0.0000 0.0000 0.378(7) 0.0077(3) Uani 0.024(2) 6 d S T P . .
Cu1 Cu 0.5000 0.5000 0.5000 0.00614(18) Uani 1 4 d S T P . .
Cl1 Cl 0.3333 0.6667 0.86197(16) 0.0115(2) Uani 1 6 d S T P . .
Cl2 Cl 0.0000 0.0000 0.0000 0.0110(3) Uani 1 12 d S T P . .
O1 O 0.19053(15) 0.3811(3) 0.3656(3) 0.0072(3) Uani 1 2 d DS T P . .
H1 H 0.200(3) 0.399(7) 0.225(4) 0.030(10) Uiso 1 2 d DS . P . .
loop_
_atom_site_aniso_label
_atom_site_aniso_U_11
_atom_site_aniso_U_22
_atom_site_aniso_U_33
_atom_site_aniso_U_23
_atom_site_aniso_U_13
_atom_site_aniso_U_12
Y11 0.0042(2) 0.0042(2) 0.0148(9) 0.000 0.000 0.00208(12)
Y12 0.0042(2) 0.0042(2) 0.0148(9) 0.000 0.000 0.00208(12)
Cu1 0.0035(2) 0.0035(2) 0.0101(3) 0.00071(6) -0.00071(6) 0.00082(15)
Cl1 0.0136(3) 0.0136(3) 0.0074(4) 0.000 0.000 0.00679(16)
Cl2 0.0119(4) 0.0119(4) 0.0092(6) 0.000 0.000 0.0059(2)
O1 0.0055(6) 0.0079(8) 0.0091(7) -0.0010(6) -0.0005(3) 0.0039(4)
loop_
_atom_type_symbol
_atom_type_description
_atom_type_scat_dispersion_real
_atom_type_scat_dispersion_imag
_atom_type_scat_source
O O 0.0106 0.0060 'International Tables Vol C Tables 4.2.6.8 and 6.1.1.4'
H H 0.0000 0.0000 'International Tables Vol C Tables 4.2.6.8 and 6.1.1.4'
Cl Cl 0.1484 0.1585 'International Tables Vol C Tables 4.2.6.8 and 6.1.1.4'
Cu Cu 0.3201 1.2651 'International Tables Vol C Tables 4.2.6.8 and 6.1.1.4'
Y Y -2.7962 3.5667 'International Tables Vol C Tables 4.2.6.8 and 6.1.1.4'
loop_
_geom_angle_atom_site_label_1
_geom_angle_atom_site_label_2
_geom_angle_atom_site_label_3
_geom_angle
_geom_angle_site_symmetry_1
_geom_angle_site_symmetry_3
Y12 Y11 Y12 180.000(14) . 7_556
Y12 Y11 O1 108.74(4) . 8_556
Y12 Y11 O1 71.26(4) 7_556 8_556
Y12 Y11 O1 71.26(4) . 2
Y12 Y11 O1 108.74(4) 7_556 2
O1 Y11 O1 180.0 8_556 2
Y12 Y11 O1 108.74(4) . 7_556
Y12 Y11 O1 71.26(4) 7_556 7_556
O1 Y11 O1 110.19(4) 8_556 7_556
O1 Y11 O1 69.81(4) 2 7_556
Y12 Y11 O1 71.26(4) . .
Y12 Y11 O1 108.74(4) 7_556 .
O1 Y11 O1 69.81(4) 8_556 .
O1 Y11 O1 110.19(4) 2 .
O1 Y11 O1 180.0 7_556 .
Y12 Y11 O1 108.74(4) . 9_556
Y12 Y11 O1 71.26(4) 7_556 9_556
O1 Y11 O1 110.19(4) 8_556 9_556
O1 Y11 O1 69.81(4) 2 9_556
O1 Y11 O1 110.19(4) 7_556 9_556
O1 Y11 O1 69.81(4) . 9_556
Y12 Y11 O1 71.26(4) . 3
Y12 Y11 O1 108.74(4) 7_556 3
O1 Y11 O1 69.81(4) 8_556 3
O1 Y11 O1 110.19(4) 2 3
O1 Y11 O1 69.81(4) 7_556 3
O1 Y11 O1 110.19(4) . 3
O1 Y11 O1 180.00(8) 9_556 3
Y12 Y11 Cl2 0.000(9) . .
Y12 Y11 Cl2 180.000(14) 7_556 .
O1 Y11 Cl2 108.74(4) 8_556 .
O1 Y11 Cl2 71.26(4) 2 .
O1 Y11 Cl2 108.74(4) 7_556 .
O1 Y11 Cl2 71.26(4) . .
O1 Y11 Cl2 108.74(4) 9_556 .
O1 Y11 Cl2 71.26(4) 3 .
Y12 Y11 Cl2 180.0 . 1_556
Y12 Y11 Cl2 0.000(14) 7_556 1_556
O1 Y11 Cl2 71.26(4) 8_556 1_556
O1 Y11 Cl2 108.74(4) 2 1_556
O1 Y11 Cl2 71.26(4) 7_556 1_556
O1 Y11 Cl2 108.74(4) . 1_556
O1 Y11 Cl2 71.26(4) 9_556 1_556
O1 Y11 Cl2 108.74(4) 3 1_556
Cl2 Y11 Cl2 180.0 . 1_556
Y12 Y11 Cu1 90.000(12) . 1_445
Y12 Y11 Cu1 90.000(12) 7_556 1_445
O1 Y11 Cu1 145.09(2) 8_556 1_445
O1 Y11 Cu1 34.91(2) 2 1_445
O1 Y11 Cu1 34.91(2) 7_556 1_445
O1 Y11 Cu1 145.09(2) . 1_445
O1 Y11 Cu1 90.0 9_556 1_445
O1 Y11 Cu1 90.0 3 1_445
Cl2 Y11 Cu1 90.0 . 1_445
Cl2 Y11 Cu1 90.0 1_556 1_445
Y12 Y11 Cu1 90.000(12) . .
Y12 Y11 Cu1 90.000(12) 7_556 .
O1 Y11 Cu1 34.91(2) 8_556 .
O1 Y11 Cu1 145.09(2) 2 .
O1 Y11 Cu1 145.09(2) 7_556 .
O1 Y11 Cu1 34.91(2) . .
O1 Y11 Cu1 90.0 9_556 .
O1 Y11 Cu1 90.000(1) 3 .
Cl2 Y11 Cu1 90.0 . .
Cl2 Y11 Cu1 90.0 1_556 .
Cu1 Y11 Cu1 180.0 1_445 .
Y11 Y12 Y12 0.000(4) . 7_556
Y11 Y12 Cl2 180.0 . .
Y12 Y12 Cl2 180.0 7_556 .
Y11 Y12 O1 91.8(10) . 2
Y12 Y12 O1 91.8(10) 7_556 2
Cl2 Y12 O1 88.2(10) . 2
Y11 Y12 O1 91.8(10) . .
Y12 Y12 O1 91.8(10) 7_556 .
Cl2 Y12 O1 88.2(10) . .
O1 Y12 O1 119.91(11) 2 .
Y11 Y12 O1 91.8(10) . 3
Y12 Y12 O1 91.8(10) 7_556 3
Cl2 Y12 O1 88.2(10) . 3
O1 Y12 O1 119.90(11) 2 3
O1 Y12 O1 119.91(11) . 3
Y11 Y12 O1 57.1(7) . 8_556
Y12 Y12 O1 57.1(7) 7_556 8_556
Cl2 Y12 O1 122.9(7) . 8_556
O1 Y12 O1 148.8(18) 2 8_556
O1 Y12 O1 66.3(4) . 8_556
O1 Y12 O1 66.3(4) 3 8_556
Y11 Y12 O1 57.1(7) . 7_556
Y12 Y12 O1 57.1(7) 7_556 7_556
Cl2 Y12 O1 122.9(7) . 7_556
O1 Y12 O1 66.3(4) 2 7_556
O1 Y12 O1 148.8(18) . 7_556
O1 Y12 O1 66.3(4) 3 7_556
O1 Y12 O1 93.2(10) 8_556 7_556
Y11 Y12 O1 57.1(7) . 9_556
Y12 Y12 O1 57.1(7) 7_556 9_556
Cl2 Y12 O1 122.9(7) . 9_556
O1 Y12 O1 66.3(4) 2 9_556
O1 Y12 O1 66.3(4) . 9_556
O1 Y12 O1 148.8(18) 3 9_556
O1 Y12 O1 93.2(10) 8_556 9_556
O1 Y12 O1 93.2(10) 7_556 9_556
Y11 Y12 Cu1 78.5(7) . .
Y12 Y12 Cu1 78.5(7) 7_556 .
Cl2 Y12 Cu1 101.5(7) . .
O1 Y12 Cu1 148.7(5) 2 .
O1 Y12 Cu1 32.64(19) . .
O1 Y12 Cu1 90.35(19) 3 .
O1 Y12 Cu1 34.85(7) 8_556 .
O1 Y12 Cu1 127.1(11) 7_556 .
O1 Y12 Cu1 83.8(5) 9_556 .
Y11 Y12 Cu1 78.5(7) . 1_445
Y12 Y12 Cu1 78.5(7) 7_556 1_445
Cl2 Y12 Cu1 101.5(7) . 1_445
O1 Y12 Cu1 32.64(19) 2 1_445
O1 Y12 Cu1 148.7(5) . 1_445
O1 Y12 Cu1 90.35(19) 3 1_445
O1 Y12 Cu1 127.1(11) 8_556 1_445
O1 Y12 Cu1 34.85(7) 7_556 1_445
O1 Y12 Cu1 83.8(5) 9_556 1_445
Cu1 Y12 Cu1 157.0(13) . 1_445
Y11 Y12 Cu1 78.5(7) . 2_655
Y12 Y12 Cu1 78.5(7) 7_556 2_655
Cl2 Y12 Cu1 101.5(7) . 2_655
O1 Y12 Cu1 148.7(5) 2 2_655
O1 Y12 Cu1 90.35(19) . 2_655
O1 Y12 Cu1 32.64(19) 3 2_655
O1 Y12 Cu1 34.85(7) 8_556 2_655
O1 Y12 Cu1 83.8(5) 7_556 2_655
O1 Y12 Cu1 127.1(11) 9_556 2_655
Cu1 Y12 Cu1 58.68(15) . 2_655
Cu1 Y12 Cu1 116.1(4) 1_445 2_655
Y11 Y12 H1 110.3(11) . .
Y12 Y12 H1 110.3(11) 7_556 .
Cl2 Y12 H1 69.7(11) . .
O1 Y12 H1 117.3(6) 2 .
O1 Y12 H1 18.5(6) . .
O1 Y12 H1 117.3(6) 3 .
O1 Y12 H1 78.1(4) 8_556 .
O1 Y12 H1 167.3(17) 7_556 .
O1 Y12 H1 78.1(5) 9_556 .
Cu1 Y12 H1 43.4(5) . .
Cu1 Y12 H1 149.9(4) 1_445 .
Cu1 Y12 H1 93.96(13) 2_655 .
O1 Cu1 O1 94.10(10) 7_666 8_556
O1 Cu1 O1 85.90(10) 7_666 2_665
O1 Cu1 O1 180.0 8_556 2_665
O1 Cu1 O1 180.0 7_666 .
O1 Cu1 O1 85.90(10) 8_556 .
O1 Cu1 O1 94.10(10) 2_665 .
O1 Cu1 Y11 42.95(5) 7_666 1_665
O1 Cu1 Y11 137.05(5) 8_556 1_665
O1 Cu1 Y11 42.95(5) 2_665 1_665
O1 Cu1 Y11 137.05(5) . 1_665
O1 Cu1 Y11 137.05(5) 7_666 .
O1 Cu1 Y11 42.95(5) 8_556 .
O1 Cu1 Y11 137.05(5) 2_665 .
O1 Cu1 Y11 42.95(5) . .
Y11 Cu1 Y11 180.0 1_665 .
O1 Cu1 Y12 142.5(3) 7_666 .
O1 Cu1 Y12 50.1(5) 8_556 .
O1 Cu1 Y12 129.9(5) 2_665 .
O1 Cu1 Y12 37.5(3) . .
Y11 Cu1 Y12 168.5(7) 1_665 .
Y11 Cu1 Y12 11.5(7) . .
O1 Cu1 Y12 37.5(3) 7_666 7_666
O1 Cu1 Y12 129.9(5) 8_556 7_666
O1 Cu1 Y12 50.1(5) 2_665 7_666
O1 Cu1 Y12 142.5(3) . 7_666
Y11 Cu1 Y12 11.5(7) 1_665 7_666
Y11 Cu1 Y12 168.5(7) . 7_666
Y12 Cu1 Y12 180.0 . 7_666
O1 Cu1 Y12 129.9(5) 7_666 7_556
O1 Cu1 Y12 37.5(3) 8_556 7_556
O1 Cu1 Y12 142.5(3) 2_665 7_556
O1 Cu1 Y12 50.1(5) . 7_556
Y11 Cu1 Y12 168.5(7) 1_665 7_556
Y11 Cu1 Y12 11.5(7) . 7_556
Y12 Cu1 Y12 23.0(13) . 7_556
Y12 Cu1 Y12 157.0(13) 7_666 7_556
O1 Cu1 Y12 50.1(5) 7_666 1_665
O1 Cu1 Y12 142.5(3) 8_556 1_665
O1 Cu1 Y12 37.5(3) 2_665 1_665
O1 Cu1 Y12 129.9(5) . 1_665
Y11 Cu1 Y12 11.5(7) 1_665 1_665
Y11 Cu1 Y12 168.5(7) . 1_665
Y12 Cu1 Y12 157.0(13) . 1_665
Y12 Cu1 Y12 23.0(13) 7_666 1_665
Y12 Cu1 Y12 180.0 7_556 1_665
Y12 Cl2 Y12 180.0 7 .
Y12 Cl2 Y11 180.0 7 .
Y12 Cl2 Y11 0.000(3) . .
Y12 Cl2 Y11 0.000(3) 7 1_554
Y12 Cl2 Y11 180.0 . 1_554
Y11 Cl2 Y11 180.0 . 1_554
Cu1 O1 Cu1 117.35(8) . 3_565
Cu1 O1 Y12 109.9(4) . .
Cu1 O1 Y12 109.9(4) 3_565 .
Cu1 O1 Y11 102.14(6) . .
Cu1 O1 Y11 102.14(6) 3_565 .
Y12 O1 Y11 17.0(10) . .
Cu1 O1 Y12 95.0(4) . 7_556
Cu1 O1 Y12 95.0(4) 3_565 7_556
Y12 O1 Y12 31.2(18) . 7_556
Y11 O1 Y12 14.2(7) . 7_556
Cu1 O1 H1 109.4(13) . .
Cu1 O1 H1 109.4(13) 3_565 .
Y12 O1 H1 99(3) . .
Y11 O1 H1 116(3) . .
Y12 O1 H1 131(3) 7_556 .
loop_
_geom_bond_atom_site_label_1
_geom_bond_atom_site_label_2
_geom_bond_distance
_geom_bond_site_symmetry_2
Y11 Y12 0.69(4) .
Y11 Y12 0.69(4) 7_556
Y11 O1 2.3500(19) 8_556
Y11 O1 2.3500(19) 2
Y11 O1 2.3500(19) 7_556
Y11 O1 2.3500(19) .
Y11 O1 2.3501(19) 9_556
Y11 O1 2.3501(19) 3
Y11 Cl2 2.8091(6) .
Y11 Cl2 2.8091(6) 1_556
Y11 Cu1 3.3718(8) 1_445
Y11 Cu1 3.3718(8) .
Y12 Y12 1.37(8) 7_556
Y12 Cl2 2.12(4) .
Y12 O1 2.226(2) 2
Y12 O1 2.226(2) .
Y12 O1 2.226(2) 3
Y12 O1 2.65(2) 8_556
Y12 O1 2.65(2) 7_556
Y12 O1 2.65(2) 9_556
Y12 Cu1 3.441(8) .
Y12 Cu1 3.441(8) 1_445
Y12 Cu1 3.441(8) 2_655
Y12 H1 2.49(4) .
Cu1 O1 1.9736(10) 7_666
Cu1 O1 1.9736(10) 8_556
Cu1 O1 1.9736(10) 2_665
Cu1 O1 1.9736(10) .
Cu1 Y11 3.3718(8) 1_665
Cu1 Y12 3.441(8) 7_666
Cu1 Y12 3.441(8) 7_556
Cu1 Y12 3.441(8) 1_665
Cl2 Y12 2.12(4) 7
Cl2 Y11 2.8091(6) 1_554
O1 Cu1 1.9736(10) 3_565
O1 Y12 2.65(2) 7_556
O1 H1 0.799(19) .
loop_
_geom_hbond_atom_site_label_D
_geom_hbond_atom_site_label_H
_geom_hbond_atom_site_label_A
_geom_hbond_distance_DH
_geom_hbond_distance_HA
_geom_hbond_distance_DA
_geom_hbond_angle_DHA
_geom_hbond_site_symmetry_A
O1 H1 Cl1 0.799(19) 2.57(3) 3.285(2) 150(4) 1_554
O1 H1 Cl2 0.799(19) 2.65(4) 3.0284(18) 111(3) .
