#------------------------------------------------------------------------------
#$Date: 2019-11-23 15:05:52 +0200 (Sat, 23 Nov 2019) $
#$Revision: 233761 $
#$URL: file:///home/coder/svn-repositories/cod/cif/7/23/59/7235926.cif $
#------------------------------------------------------------------------------
#
# This file is available in the Crystallography Open Database (COD),
# http://www.crystallography.net/
#
# All data on this site have been placed in the public domain by the
# contributors.
#
data_7235926
loop_
_publ_author_name
'Kumar, Amit'
'Sattar, Moh.'
'Verma, Ajay'
'Dara, Ankit'
'Kumar, Sangit'
_publ_section_title
;
 Double functionalization of
 2-amino-2&#x2032;-hydroxy-1,1&#x2032;-biaryls: synthesis of
 4-nitro-dibenzofurans and benzofuro-indoles
;
_journal_issue                   56
_journal_name_full               'RSC Advances'
_journal_page_first              44728
_journal_paper_doi               10.1039/C5RA07328F
_journal_volume                  5
_journal_year                    2015
_chemical_formula_moiety         'C13  H8  Cl1  N1  O3'
_chemical_formula_sum            'C13 H8 Cl N O3'
_chemical_formula_weight         261.65
_space_group_IT_number           2
_space_group_name_Hall           '-P 1'
_space_group_name_H-M_alt        'P -1'
_symmetry_cell_setting           triclinic
_symmetry_Int_Tables_number      2
_symmetry_space_group_name_Hall  '-P 1'
_symmetry_space_group_name_H-M   'P -1'
_atom_sites_solution_hydrogens   geom
_audit_conform_dict_location     ftp://ftp.iucr.org/pub/cif_core.dic
_audit_conform_dict_name         cif_core.dic
_audit_conform_dict_version      2.4.3
_audit_creation_date             2014-10-21T18:37:24-00:00
_audit_creation_method           'WinGX routine CIF_UPDATE'
_audit_update_record
;
2015-01-12 deposited with the CCDC.
2015-04-27 downloaded from the CCDC.
;
_cell_angle_alpha                78.365(2)
_cell_angle_beta                 88.899(2)
_cell_angle_gamma                67.042(2)
_cell_formula_units_Z            2
_cell_length_a                   7.2089(4)
_cell_length_b                   8.7381(5)
_cell_length_c                   10.2105(6)
_cell_measurement_reflns_used    0
_cell_measurement_temperature    296(2)
_cell_measurement_theta_max      0
_cell_measurement_theta_min      0
_cell_measurement_wavelength     0.71073
_cell_volume                     578.80(6)
_computing_molecular_graphics    'Ortep for Windows (Farrugia, 2012)'
_computing_publication_material  'WinGX publication routines (Farrugia, 2012)'
_computing_structure_refinement  'SHELXL-2014 (Sheldrick, 2014)'
_diffrn_ambient_temperature      296(2)
_diffrn_measured_fraction_theta_full 0.997
_diffrn_measured_fraction_theta_max 0.996
_diffrn_radiation_probe          x-ray
_diffrn_radiation_type           MoK\a
_diffrn_radiation_wavelength     0.71073
_diffrn_reflns_av_R_equivalents  0.0283
_diffrn_reflns_Laue_measured_fraction_full 0.997
_diffrn_reflns_Laue_measured_fraction_max 0.996
_diffrn_reflns_limit_h_max       9
_diffrn_reflns_limit_h_min       -9
_diffrn_reflns_limit_k_max       11
_diffrn_reflns_limit_k_min       -11
_diffrn_reflns_limit_l_max       13
_diffrn_reflns_limit_l_min       -13
_diffrn_reflns_number            20323
_diffrn_reflns_point_group_measured_fraction_full 0.997
_diffrn_reflns_point_group_measured_fraction_max 0.996
_diffrn_reflns_theta_full        25.242
_diffrn_reflns_theta_max         27.517
_diffrn_reflns_theta_min         2.59
_exptl_absorpt_coefficient_mu    0.328
_exptl_absorpt_correction_type   none
_exptl_crystal_density_diffrn    1.501
_exptl_crystal_density_method    'not measured'
_exptl_crystal_description       char
_exptl_crystal_F_000             268
_exptl_crystal_size_max          0
_exptl_crystal_size_mid          0
_exptl_crystal_size_min          0
_refine_diff_density_max         0.261
_refine_diff_density_min         -0.182
_refine_diff_density_rms         0.039
_refine_ls_extinction_coef       0.043(8)
_refine_ls_extinction_expression Fc^*^=kFc[1+0.001xFc^2^\l^3^/sin(2\q)]^-1/4^
_refine_ls_extinction_method     SHELXL
_refine_ls_goodness_of_fit_ref   1.04
_refine_ls_hydrogen_treatment    constr
_refine_ls_matrix_type           full
_refine_ls_number_constraints    0
_refine_ls_number_parameters     165
_refine_ls_number_reflns         2667
_refine_ls_number_restraints     0
_refine_ls_restrained_S_all      1.04
_refine_ls_R_factor_all          0.0441
_refine_ls_R_factor_gt           0.037
_refine_ls_shift/su_max          0.001
_refine_ls_shift/su_mean         0
_refine_ls_structure_factor_coef Fsqd
_refine_ls_weighting_details
'w=1/[\s^2^(Fo^2^)+(0.0574P)^2^+0.1492P] where P=(Fo^2^+2Fc^2^)/3'
_refine_ls_weighting_scheme      calc
_refine_ls_wR_factor_gt          0.103
_refine_ls_wR_factor_ref         0.1088
_reflns_number_gt                2282
_reflns_number_total             2667
_reflns_threshold_expression     'I > 2\s(I)'
_iucr_refine_instructions_details
;
TITL TRYAA in P-1
CELL  0.71073   7.2089   8.7381  10.2105   78.365   88.899   67.042
ZERR     2.00   0.0004   0.0005   0.0006    0.002    0.002    0.002
LATT   1
SFAC  C    H    CL   N    O
UNIT  26   16   2    2    6
MERG   2
OMIT     1   0   0
OMIT     2   0   0
OMIT     6   5   9
OMIT    -2  -3   2
OMIT    -1   3   3
OMIT    -3  -2   4
MORE -1
FMAP   2
PLAN    2
ACTA
BOND
BOND   $H
CONF
L.S.  20
TEMP  -273.15
WGHT    0.057400    0.149200
EXTI    0.042542
FVAR       0.28319
CL01  3    0.299606   -0.563691    1.189243    11.00000    0.08232    0.03490 =
         0.07743   -0.00845    0.01777   -0.02704
O1    5    0.219436    0.142331    1.068533    11.00000    0.05588    0.03552 =
         0.03281   -0.00565    0.00271   -0.02311
C5    1    0.282541   -0.273193    1.026222    11.00000    0.04559    0.03872 =
         0.04210   -0.01256    0.00653   -0.01988
AFIX  43
H003  2    0.298870   -0.330674    0.954432    11.00000   -1.20000
AFIX   0
C3    1    0.253885   -0.273775    1.262792    11.00000    0.04633    0.04023 =
         0.03692    0.00034    0.00470   -0.01856
AFIX  43
H004  2    0.251538   -0.333088    1.351274    11.00000   -1.20000
AFIX   0
C1    1    0.237103   -0.021568    1.110060    11.00000    0.03934    0.03359 =
         0.03267   -0.00506    0.00230   -0.01755
C7    1    0.262762    0.018651    0.885570    11.00000    0.03891    0.04122 =
         0.03267   -0.00521    0.00212   -0.01941
C6    1    0.263256   -0.105170    1.003199    11.00000    0.03705    0.03822 =
         0.03200   -0.00675    0.00289   -0.01798
C2    1    0.233892   -0.106499    1.239817    11.00000    0.04540    0.04171 =
         0.03117   -0.00675    0.00455   -0.01938
C11   1    0.224512    0.315227    0.848625    11.00000    0.04969    0.04199 =
         0.04517    0.00176   -0.00236   -0.02313
AFIX  43
H009  2    0.206059    0.412757    0.883460    11.00000   -1.20000
AFIX   0
C4    1    0.277295   -0.354371    1.156571    11.00000    0.04453    0.03401 =
         0.04992   -0.00522    0.00584   -0.01840
C8    1    0.279796    0.022010    0.748637    11.00000    0.05227    0.05617 =
         0.03406   -0.00898    0.00364   -0.02492
AFIX  43
H011  2    0.298874   -0.075738    0.713940    11.00000   -1.20000
AFIX   0
O3    5    0.246697   -0.115444    1.465262    11.00000    0.15619    0.08222 =
         0.03046   -0.00899    0.00716   -0.05314
C12   1    0.235636    0.165225    0.930843    11.00000    0.04099    0.04090 =
         0.03229   -0.00198    0.00014   -0.01973
O2    5    0.160760    0.126922    1.331991    11.00000    0.18126    0.05678 =
         0.05115   -0.02415    0.02718   -0.04989
N1    4    0.211000   -0.025105    1.353848    11.00000    0.08096    0.05706 =
         0.03480   -0.01332    0.01211   -0.03411
C10   1    0.241518    0.317018    0.712768    11.00000    0.04750    0.05487 =
         0.04245    0.00887   -0.00270   -0.02418
C9    1    0.268148    0.171139    0.665244    11.00000    0.05538    0.07020 =
         0.03057    0.00046    0.00141   -0.02851
AFIX  43
H017  2    0.278631    0.174876    0.571861    11.00000   -1.20000
AFIX   0
C13   1    0.229753    0.476715    0.617072    11.00000    0.07862    0.07154 =
         0.05566    0.02416   -0.00632   -0.03712
AFIX 137
H1AA  2    0.291930    0.536444    0.661111    11.00000   -1.50000
H1AB  2    0.088005    0.550604    0.590365    11.00000   -1.50000
H1AC  2    0.301671    0.446970    0.537495    11.00000   -1.50000
AFIX   0
HKLF    4
REM  TRYAA in P-1
REM R1 =  0.0370 for    2282 Fo > 4sig(Fo)  and  0.0441 for all    2667 data
REM    165 parameters refined using      0 restraints
END
;
_cod_data_source_file            c5ra07328f3.cif
_cod_data_source_block           AK-5-90
_cod_database_code               7235926
_iucr_refine_reflections_details
;
  -1   0   0   -1.31    0.01
  -1   0   0   -1.32    0.01
  -1   0   0   -1.28    0.02
  -1   0   0   -1.32    0.01
   1   0   0   -1.33    0.01
   1   0   0   -1.28    0.01
   1   0   0   -1.32    0.01
   1   0   0   -1.30    0.01
  -2   0   0  979.70   23.14
  -2   0   0 1000.00   23.40
   2   0   0  877.33   23.08
  -3   0   0    1.21    0.07
  -3   0   0    1.33    0.06
  -3   0   0    1.36    0.06
  -3   0   0    1.38    0.05
  -3   0   0    1.28    0.07
   3   0   0    1.38    0.07
   3   0   0    1.31    0.07
   3   0   0    1.29    0.06
   3   0   0    1.32    0.06
  -4   0   0  225.16    5.16
  -4   0   0  230.64    5.52
  -4   0   0  223.20    5.15
  -4   0   0  223.33    5.46
  -4   0   0  221.49    5.52
   4   0   0  224.92    5.50
   4   0   0  223.66    5.46
   4   0   0  225.63    5.46
   4   0   0  227.91    5.19
   4   0   0  221.15    5.16
  -5   0   0    2.14    0.12
  -5   0   0    2.01    0.09
  -5   0   0    2.21    0.11
  -5   0   0    2.27    0.12
  -5   0   0    2.21    0.12
  -5   0   0    2.24    0.11
   5   0   0    2.21    0.10
   5   0   0    2.28    0.12
   5   0   0    2.40    0.12
   5   0   0    2.11    0.11
   5   0   0    2.33    0.09
  -6   0   0   22.68    0.58
  -6   0   0   20.28    0.57
  -6   0   0   22.62    0.62
  -6   0   0   21.52    0.61
  -6   0   0   21.61    0.59
  -6   0   0   22.52    0.58
   6   0   0   22.97    0.61
   6   0   0   21.48    0.62
   6   0   0   22.35    0.54
   6   0   0   21.23    0.55
  -7   0   0    0.27    0.09
  -7   0   0    0.30    0.09
  -7   0   0    0.42    0.09
  -7   0   0    0.34    0.09
   7   0   0    0.44    0.10
   7   0   0    0.56    0.10
   7   0   0    0.40    0.06
   7   0   0    0.51    0.06
  -8   0   0    1.46    0.17
  -8   0   0    1.76    0.16
  -8   0   0    2.25    0.22
  -8   0   0    1.97    0.18
  -8   0   0    2.08    0.23
   8   0   0    2.10    0.18
   8   0   0    1.80    0.18
   8   0   0    1.86    0.13
   8  -1   0    0.18    0.09
   8  -1   0   -0.06    0.12
   8  -1   0    0.04    0.13
  -8   1   0    0.24    0.14
  -8   1   0   -0.04    0.13
  -8   1   0   -0.10    0.15
  -8   1   0    0.02    0.14
  -8   1   0    0.03    0.15
   7  -1   0    0.19    0.07
   7  -1   0    0.22    0.10
   7  -1   0    0.25    0.09
   7  -1   0    0.27    0.07
   7  -1   0    0.07    0.08
  -7   1   0    0.07    0.10
  -7   1   0    0.12    0.10
  -7   1   0    0.25    0.09
  -7   1   0    0.30    0.12
  -7   1   0    0.21    0.09
   6  -1   0    0.45    0.07
   6  -1   0    0.38    0.07
   6  -1   0    0.40    0.09
   6  -1   0    0.49    0.09
   6  -1   0    0.53    0.06
  -6   1   0    0.53    0.07
  -6   1   0    0.46    0.09
  -6   1   0    0.55    0.10
  -6   1   0    0.35    0.08
  -6   1   0    0.30    0.07
   5  -1   0    3.49    0.13
   5  -1   0    3.64    0.17
   5  -1   0    3.47    0.16
   5  -1   0    3.48    0.14
   5  -1   0    3.40    0.15
  -5   1   0    3.37    0.16
  -5   1   0    3.58    0.15
  -5   1   0    3.31    0.15
  -5   1   0    3.71    0.15
  -5   1   0    3.31    0.17
   4  -1   0    2.14    0.11
   4  -1   0    2.07    0.10
   4  -1   0    2.28    0.12
   4  -1   0    2.21    0.10
   4  -1   0    2.24    0.11
  -4   1   0    2.17    0.10
  -4   1   0    2.24    0.07
  -4   1   0    2.20    0.12
  -4   1   0    2.27    0.11
  -4   1   0    2.24    0.11
   3  -1   0   26.23    0.64
   3  -1   0   27.24    0.64
   3  -1   0   29.03    0.68
   3  -1   0   26.23    0.69
   3  -1   0   25.51    0.69
  -3   1   0   26.06    0.64
  -3   1   0   25.88    0.69
  -3   1   0   26.03    0.69
  -3   1   0   26.76    0.65
   2  -1   0   15.47    0.40
   2  -1   0   16.98    0.43
   2  -1   0   15.86    0.43
   2  -1   0   16.59    0.40
   2  -1   0   17.26    0.42
  -2   1   0   16.74    0.40
  -2   1   0   16.56    0.43
  -2   1   0   15.87    0.43
   1  -1   0   63.25    1.45
   1  -1   0   62.28    1.53
   1  -1   0   65.53    1.53
   1  -1   0   61.84    1.46
   1  -1   0   59.25    1.54
  -1   1   0   59.81    1.53
  -1   1   0   66.44    1.46
  -1   1   0   64.04    1.54
  -1   1   0   62.63    1.45
   0  -1   0  110.11    2.47
   0  -1   0   86.34    2.30
   0  -1   0   98.69    2.29
   0  -1   0   94.89    2.46
   0   1   0  102.04    2.44
   0   1   0  100.83    2.29
  -1  -1   0    0.05    0.02
   1   1   0    0.03    0.02
  -2  -1   0  140.78    3.25
  -2  -1   0  141.00    3.26
  -2  -1   0  141.90    3.47
  -2  -1   0  143.05    3.50
  -2  -1   0  141.54    3.46
   2   1   0  143.97    3.46
   2   1   0  140.22    4.28
   2   1   0  141.94    3.51
   2   1   0  137.17    3.46
  -3  -1   0   23.70    0.56
  -3  -1   0   23.60    0.56
  -3  -1   0   23.34    0.60
  -3  -1   0   23.03    0.59
  -3  -1   0   23.56    0.60
   3   1   0   23.36    0.59
   3   1   0   23.24    0.55
   3   1   0   24.25    0.59
   3   1   0   24.05    0.61
   3   1   0   23.57    0.55
   3   1   0   23.97    0.73
  -4  -1   0   44.13    1.10
  -4  -1   0   44.48    1.03
  -4  -1   0   44.26    1.05
  -4  -1   0   43.79    1.09
  -4  -1   0   42.36    1.03
   4   1   0   43.50    1.02
   4   1   0   43.08    1.09
   4   1   0   44.77    1.34
   4   1   0   42.84    1.09
   4   1   0   44.06    1.01
   4   1   0   44.41    1.11
  -5  -1   0    6.45    0.22
  -5  -1   0    6.61    0.20
  -5  -1   0    6.48    0.21
  -5  -1   0    6.43    0.19
  -5  -1   0    6.43    0.21
   5   1   0    6.49    0.25
   5   1   0    6.34    0.23
   5   1   0    6.47    0.17
   5   1   0    6.45    0.17
   5   1   0    6.39    0.20
  -6  -1   0   12.32    0.36
  -6  -1   0   12.43    0.35
  -6  -1   0   12.75    0.38
   6   1   0   12.63    0.39
   6   1   0   12.49    0.32
   6   1   0   12.48    0.45
   6   1   0   12.37    0.31
  -7  -1   0    0.58    0.09
  -7  -1   0    0.80    0.10
   7   1   0    0.64    0.06
   7   1   0    0.73    0.10
   7   1   0    0.73    0.12
   7   1   0    0.64    0.06
  -8  -1   0    2.67    0.21
  -8  -1   0    3.90    0.24
  -8  -1   0    3.47    0.21
  -8  -1   0    3.41    0.24
   8   1   0    3.33    0.21
   8   1   0    3.77    0.21
   8   1   0    3.78    0.23
   7  -2   0    0.04    0.12
   7  -2   0    0.14    0.08
   7  -2   0    0.05    0.08
   7  -2   0   -0.01    0.10
  -7   2   0    0.13    0.13
  -7   2   0    0.09    0.11
  -7   2   0    0.09    0.11
  -7   2   0   -0.10    0.13
  -7   2   0   -0.02    0.09
   6  -2   0    0.06    0.09
   6  -2   0    0.10    0.08
   6  -2   0    0.05    0.06
   6  -2   0   -0.02    0.07
  -6   2   0    0.07    0.09
  -6   2   0    0.07    0.07
  -6   2   0    0.17    0.10
  -6   2   0   -0.03    0.07
  -6   2   0    0.05    0.08
   5  -2   0    0.90    0.10
   5  -2   0    0.71    0.10
   5  -2   0    0.85    0.09
   5  -2   0    0.82    0.09
   5  -2   0    0.76    0.08
  -5   2   0    0.67    0.07
  -5   2   0    0.80    0.10
  -5   2   0    0.74    0.10
   4  -2   0    0.08    0.04
   4  -2   0    0.12    0.05
   4  -2   0    0.08    0.04
   4  -2   0    0.10    0.04
   4  -2   0    0.11    0.05
  -4   2   0    0.05    0.05
  -4   2   0    0.05    0.03
  -4   2   0    0.05    0.04
  -4   2   0    0.09    0.05
  -4   2   0    0.12    0.04
   3  -2   0    7.96    0.23
   3  -2   0    7.85    0.25
   3  -2   0    8.10    0.23
   3  -2   0    8.13    0.23
  -3   2   0    7.94    0.23
  -3   2   0    7.69    0.23
  -3   2   0    7.74    0.25
  -3   2   0    7.93    0.21
  -3   2   0    7.86    0.25
   2  -2   0    1.07    0.07
   2  -2   0    1.09    0.06
   2  -2   0    1.12    0.06
   2  -2   0    1.13    0.06
   2  -2   0    1.12    0.07
  -2   2   0    1.14    0.07
  -2   2   0    1.20    0.07
  -2   2   0    1.16    0.06
  -2   2   0    1.14    0.07
   1  -2   0   11.08    0.31
   1  -2   0   11.19    0.31
   1  -2   0   11.44    0.29
  -1   2   0   11.11    0.29
  -1   2   0   10.77    0.31
  -1   2   0   11.89    0.29
  -1   2   0   11.42    0.31
  -1   2   0   11.81    0.29
   0  -2   0   60.82    1.52
   0  -2   0   59.07    1.43
   0  -2   0   64.26    1.53
   0  -2   0   60.87    1.44
   0  -2   0   66.42    1.54
   0   2   0   63.25    1.52
   0   2   0   62.57    1.44
   0   2   0   61.69    1.52
   0   2   0   59.71    1.44
   0   2   0   64.29    1.54
  -1  -2   0    6.20    0.15
  -1  -2   0    6.10    0.16
  -1  -2   0    6.24    0.16
  -1  -2   0    6.02    0.17
  -1  -2   0    6.22    0.16
  -1  -2   0    6.33    0.15
   1   2   0    6.39    0.17
   1   2   0    6.25    0.16
   1   2   0    6.36    0.17
   1   2   0    6.26    0.16
   1   2   0    5.95    0.16
  -2  -2   0   84.78    2.09
   2   2   0   84.26    2.09
   2   2   0   83.89    2.06
  -3  -2   0    1.92    0.05
  -3  -2   0    1.85    0.05
  -3  -2   0    1.91    0.08
  -3  -2   0    1.99    0.06
  -3  -2   0    1.87    0.09
  -3  -2   0    1.82    0.06
   3   2   0    1.89    0.07
   3   2   0    1.87    0.06
   3   2   0    1.92    0.06
   3   2   0    1.76    0.08
  -4  -2   0    4.87    0.13
  -4  -2   0    4.68    0.14
  -4  -2   0    4.74    0.16
  -4  -2   0    4.81    0.14
  -4  -2   0    4.89    0.13
   4   2   0    4.61    0.17
   4   2   0    4.99    0.14
   4   2   0    4.77    0.14
   4   2   0    4.84    0.19
  -5  -2   0    0.09    0.04
  -5  -2   0    0.18    0.04
  -5  -2   0    0.15    0.03
  -5  -2   0    0.17    0.04
  -5  -2   0    0.17    0.03
   5   2   0    0.18    0.05
   5   2   0    0.22    0.06
   5   2   0    0.17    0.03
   5   2   0    0.14    0.03
  -6  -2   0    0.13    0.05
  -6  -2   0    0.02    0.05
  -6  -2   0    0.14    0.04
  -6  -2   0    0.11    0.04
  -6  -2   0    0.16    0.05
   6   2   0    0.19    0.06
   6   2   0    0.18    0.06
   6   2   0    0.15    0.04
   6   2   0    0.16    0.04
  -7  -2   0    0.22    0.06
  -7  -2   0    0.16    0.06
  -7  -2   0    0.14    0.07
  -7  -2   0    0.18    0.06
   7   2   0    0.10    0.06
   7   2   0    0.23    0.06
  -8  -2   0    0.27    0.10
  -8  -2   0    0.22    0.10
  -8  -2   0    0.44    0.09
  -8  -2   0    0.30    0.11
  -8  -2   0    0.33    0.09
   8   2   0    0.08    0.08
   8   2   0    0.22    0.10
   8   2   0    0.27    0.09
   8   2   0    0.33    0.07
  -9  -2   0    0.12    0.14
  -9  -2   0    0.07    0.14
  -9  -2   0    0.04    0.14
  -9  -2   0    0.14    0.13
  -9  -2   0   -0.24    0.12
   9   2   0    0.08    0.10
   9   2   0   -0.06    0.11
   9   2   0    0.04    0.10
   7  -3   0    0.18    0.11
   7  -3   0    0.39    0.14
   7  -3   0    0.51    0.11
   7  -3   0    0.34    0.11
   7  -3   0    0.09    0.15
  -7   3   0    0.36    0.16
  -7   3   0    0.16    0.17
  -7   3   0    0.44    0.15
  -7   3   0    0.23    0.12
  -7   3   0    0.37    0.17
   6  -3   0    2.33    0.19
   6  -3   0    2.41    0.18
   6  -3   0    2.26    0.17
   6  -3   0    2.11    0.16
   6  -3   0    2.23    0.21
  -6   3   0    2.42    0.20
  -6   3   0    2.16    0.22
  -6   3   0    2.42    0.23
  -6   3   0    2.37    0.21
   5  -3   0    0.42    0.08
   5  -3   0    0.15    0.07
   5  -3   0    0.34    0.07
   5  -3   0    0.25    0.07
   5  -3   0    0.34    0.09
  -5   3   0    0.28    0.09
  -5   3   0    0.37    0.08
  -5   3   0    0.25    0.06
  -5   3   0    0.45    0.11
  -5   3   0    0.27    0.08
   4  -3   0    8.96    0.30
   4  -3   0    8.57    0.27
   4  -3   0    8.47    0.30
   4  -3   0    9.08    0.27
   4  -3   0    8.97    0.28
  -4   3   0    8.79    0.26
  -4   3   0    8.70    0.30
  -4   3   0    8.85    0.31
  -4   3   0    8.15    0.27
  -4   3   0    9.09    0.29
   3  -3   0    0.06    0.04
   3  -3   0    0.08    0.04
   3  -3   0    0.15    0.04
   3  -3   0    0.08    0.05
  -3   3   0    0.13    0.05
  -3   3   0    0.12    0.04
  -3   3   0    0.17    0.05
  -3   3   0    0.09    0.05
  -3   3   0    0.15    0.02
   2  -3   0    6.67    0.22
   2  -3   0    6.37    0.20
   2  -3   0    6.72    0.22
   2  -3   0    6.61    0.20
  -2   3   0    6.29    0.20
  -2   3   0    6.95    0.19
  -2   3   0    6.75    0.22
  -2   3   0    6.40    0.22
  -2   3   0    6.81    0.20
   1  -3   0    8.06    0.23
   1  -3   0    7.90    0.25
   1  -3   0    8.48    0.23
   1  -3   0    9.12    0.25
  -1   3   0    8.63    0.23
  -1   3   0    7.97    0.25
  -1   3   0    8.45    0.23
  -1   3   0    8.83    0.25
  -1   3   0    8.80    0.23
   0  -3   0    1.71    0.07
   0  -3   0    1.62    0.07
   0  -3   0    1.60    0.07
   0  -3   0    1.61    0.06
   0   3   0    1.72    0.06
   0   3   0    1.64    0.07
   0   3   0    1.68    0.06
   0   3   0    1.70    0.05
   0   3   0    1.64    0.07
   0   3   0    1.81    0.08
  -1  -3   0   36.22    0.84
  -1  -3   0   35.98    0.84
  -1  -3   0   35.81    0.89
  -1  -3   0   36.27    0.89
  -1  -3   0   37.06    0.84
   1   3   0   35.15    0.89
   1   3   0   36.23    0.84
   1   3   0   37.78    0.83
   1   3   0   36.54    0.92
   1   3   0   35.74    0.83
   1   3   0   35.60    0.89
  -2  -3   0    6.11    0.16
  -2  -3   0    6.18    0.17
  -2  -3   0    6.44    0.16
   2   3   0    6.20    0.18
   2   3   0    6.25    0.15
   2   3   0    6.18    0.19
   2   3   0    6.07    0.15
  -3  -3   0    4.06    0.13
   3   3   0    4.46    0.14
  -4  -3   0    3.46    0.10
  -4  -3   0    3.42    0.10
  -4  -3   0    3.41    0.09
  -4  -3   0    3.52    0.09
  -4  -3   0    3.38    0.13
   4   3   0    3.30    0.13
   4   3   0    3.29    0.12
   4   3   0    3.31    0.09
   4   3   0    3.52    0.09
  -5  -3   0    0.22    0.03
  -5  -3   0    0.27    0.03
  -5  -3   0    0.25    0.03
  -5  -3   0    0.26    0.03
  -5  -3   0    0.20    0.05
   5   3   0    0.25    0.03
   5   3   0    0.22    0.03
   5   3   0    0.22    0.05
  -6  -3   0    1.33    0.08
  -6  -3   0    1.34    0.08
  -6  -3   0    1.35    0.08
  -6  -3   0    1.44    0.12
  -6  -3   0    1.28    0.08
   6   3   0    1.41    0.07
   6   3   0    1.37    0.07
  -7  -3   0    0.19    0.06
  -7  -3   0    0.20    0.05
  -7  -3   0    0.22    0.06
  -7  -3   0    0.15    0.05
   7   3   0    0.16    0.05
   7   3   0    0.16    0.07
   7   3   0    0.17    0.04
  -8  -3   0    0.10    0.08
  -8  -3   0    0.12    0.09
  -8  -3   0    0.19    0.08
  -8  -3   0    0.06    0.07
  -8  -3   0    0.12    0.07
   8   3   0    0.01    0.06
   8   3   0    0.09    0.05
  -9  -3   0   -0.11    0.11
  -9  -3   0   -0.06    0.14
  -9  -3   0    0.05    0.10
  -9  -3   0   -0.08    0.10
  -9  -3   0   -0.05    0.12
   9   3   0    0.07    0.09
   9   3   0    0.02    0.09
   9   3   0    0.14    0.08
   6  -4   0    0.49    0.13
   6  -4   0    0.26    0.14
   6  -4   0    0.38    0.12
   6  -4   0    0.45    0.10
   6  -4   0    0.31    0.11
  -6   4   0    0.36    0.17
  -6   4   0    0.39    0.14
  -6   4   0    0.50    0.16
  -6   4   0    0.26    0.12
   5  -4   0    1.49    0.12
   5  -4   0    1.50    0.17
   5  -4   0    1.51    0.13
   5  -4   0    1.20    0.14
   5  -4   0    1.33    0.14
  -5   4   0    1.31    0.16
  -5   4   0    1.45    0.16
  -5   4   0    1.33    0.12
  -5   4   0    1.38    0.14
   4  -4   0    2.11    0.16
   4  -4   0    1.81    0.13
   4  -4   0    1.88    0.15
   4  -4   0    2.01    0.11
   4  -4   0    1.94    0.14
  -4   4   0    2.18    0.18
  -4   4   0    1.82    0.11
  -4   4   0    2.05    0.16
  -4   4   0    1.88    0.16
   3  -4   0   19.42    0.51
   3  -4   0   20.36    0.56
   3  -4   0   20.33    0.52
   3  -4   0   19.47    0.51
   3  -4   0   18.96    0.55
  -3   4   0   19.49    0.56
  -3   4   0   19.27    0.56
  -3   4   0   19.22    0.52
  -3   4   0   19.15    0.52
  -3   4   0   19.17    0.48
  -3   4   0   19.37    0.50
   2  -4   0    6.83    0.22
   2  -4   0    7.15    0.22
   2  -4   0    7.07    0.24
  -2   4   0    7.12    0.23
  -2   4   0    7.18    0.24
  -2   4   0    6.99    0.20
  -2   4   0    6.98    0.25
  -2   4   0    7.20    0.22
   1  -4   0  106.74    2.39
   1  -4   0  101.75    2.53
   1  -4   0   97.74    2.39
   1  -4   0  101.22    2.54
  -1   4   0  102.88    2.54
  -1   4   0  100.24    2.53
  -1   4   0  103.50    2.39
  -1   4   0  105.32    2.38
  -1   4   0  104.88    2.55
   0  -4   0    9.87    0.27
   0  -4   0   10.29    0.29
   0  -4   0    9.73    0.29
   0  -4   0   10.31    0.27
   0   4   0   10.30    0.27
   0   4   0   10.20    0.29
   0   4   0   10.38    0.24
   0   4   0    9.99    0.26
   0   4   0   10.21    0.29
   0   4   0   10.46    0.30
  -1  -4   0  120.24    2.86
  -1  -4   0  119.05    2.70
  -1  -4   0  116.18    2.89
  -1  -4   0  113.69    2.70
   1   4   0  118.17    2.70
   1   4   0  114.06    2.86
   1   4   0  118.65    2.72
   1   4   0  120.28    2.92
   1   4   0  116.18    2.69
  -2  -4   0    0.73    0.04
  -2  -4   0    0.78    0.03
  -2  -4   0    0.72    0.04
  -2  -4   0    0.68    0.04
  -2  -4   0    0.74    0.03
   2   4   0    0.77    0.04
   2   4   0    0.70    0.04
   2   4   0    0.66    0.06
   2   4   0    0.81    0.05
  -3  -4   0   32.52    0.81
   3   4   0   34.14    0.88
   3   4   0   34.54    0.86
  -4  -4   0    7.99    0.24
   4   4   0    8.34    0.25
   4   4   0    8.06    0.25
  -5  -4   0    1.84    0.11
  -5  -4   0    1.70    0.05
  -5  -4   0    1.71    0.06
   5   4   0    1.73    0.11
   5   4   0    1.77    0.10
  -6  -4   0    2.42    0.09
  -6  -4   0    2.48    0.09
  -6  -4   0    2.45    0.09
  -6  -4   0    2.61    0.15
  -6  -4   0    2.55    0.10
   6   4   0    2.44    0.14
  -7  -4   0    0.12    0.04
  -7  -4   0    0.08    0.04
  -7  -4   0    0.08    0.05
  -7  -4   0    0.09    0.04
   7   4   0    0.17    0.06
   7   4   0    0.10    0.03
   7   4   0    0.09    0.03
  -8  -4   0    0.21    0.06
  -8  -4   0    0.28    0.07
  -8  -4   0    0.09    0.07
  -8  -4   0    0.25    0.07
  -8  -4   0    0.34    0.11
   8   4   0    0.33    0.05
   8   4   0    0.25    0.05
  -9  -4   0    0.14    0.09
  -9  -4   0    0.06    0.08
  -9  -4   0    0.03    0.14
  -9  -4   0    0.32    0.10
   9   4   0    0.01    0.06
   9   4   0    0.08    0.10
   9   4   0    0.04    0.06
   6  -5   0    0.35    0.16
   6  -5   0    0.21    0.15
   6  -5   0    0.33    0.19
   6  -5   0    0.55    0.14
   6  -5   0    0.44    0.11
  -6   5   0    0.37    0.21
  -6   5   0    0.05    0.20
   5  -5   0    0.89    0.13
   5  -5   0    0.76    0.13
   5  -5   0    1.15    0.13
   5  -5   0    1.06    0.13
  -5   5   0    1.20    0.14
  -5   5   0    1.01    0.15
  -5   5   0    0.82    0.09
  -5   5   0    1.29    0.19
  -5   5   0    1.24    0.17
   4  -5   0    2.07    0.15
   4  -5   0    2.00    0.15
   4  -5   0    1.74    0.18
   4  -5   0    2.01    0.12
   4  -5   0    2.08    0.19
  -4   5   0    2.18    0.19
  -4   5   0    2.03    0.18
  -4   5   0    2.33    0.21
  -4   5   0    1.98    0.11
  -4   5   0    1.61    0.16
   3  -5   0    1.77    0.14
   3  -5   0    1.88    0.10
   3  -5   0    1.76    0.13
   3  -5   0    2.00    0.15
  -3   5   0    1.58    0.13
  -3   5   0    1.91    0.15
  -3   5   0    2.14    0.17
  -3   5   0    1.86    0.09
  -3   5   0    1.85    0.15
  -3   5   0    1.72    0.09
   2  -5   0    2.98    0.14
   2  -5   0    2.74    0.13
   2  -5   0    2.74    0.15
   2  -5   0    2.67    0.14
  -2   5   0    2.83    0.09
  -2   5   0    2.53    0.15
  -2   5   0    2.66    0.13
  -2   5   0    2.75    0.11
  -2   5   0    2.91    0.16
  -2   5   0    2.69    0.14
   1  -5   0    1.82    0.10
   1  -5   0    1.72    0.11
   1  -5   0    1.88    0.10
  -1   5   0    1.80    0.12
  -1   5   0    1.77    0.09
  -1   5   0    1.68    0.09
  -1   5   0    1.84    0.10
  -1   5   0    1.78    0.11
   0  -5   0    4.82    0.17
   0  -5   0    5.01    0.16
   0  -5   0    5.23    0.16
   0   5   0    4.92    0.17
   0   5   0    4.88    0.18
   0   5   0    4.90    0.17
   0   5   0    5.15    0.16
   0   5   0    5.15    0.16
  -1  -5   0    0.12    0.03
  -1  -5   0    0.10    0.03
  -1  -5   0    0.13    0.03
   1   5   0    0.12    0.03
   1   5   0    0.11    0.04
   1   5   0    0.13    0.03
   1   5   0    0.11    0.02
  -2  -5   0   60.10    1.48
  -2  -5   0   59.62    1.40
  -2  -5   0   60.71    1.40
  -2  -5   0   61.21    1.48
  -2  -5   0   60.79    1.40
   2   5   0   58.29    1.53
   2   5   0   60.50    1.48
   2   5   0   60.92    1.48
  -3  -5   0    2.80    0.08
  -3  -5   0    2.72    0.08
  -3  -5   0    2.72    0.10
  -3  -5   0    2.77    0.08
  -3  -5   0    2.76    0.08
   3   5   0    2.65    0.08
   3   5   0    2.65    0.12
   3   5   0    2.74    0.11
   3   5   0    2.75    0.08
  -4  -5   0   51.88    1.22
   4   5   0   52.27    1.29
   4   5   0   49.15    1.31
  -5  -5   0    0.06    0.04
   5   5   0    0.15    0.06
   5   5   0    0.10    0.05
  -6  -5   0   19.97    0.47
  -6  -5   0   19.58    0.47
  -6  -5   0   20.48    0.54
   6   5   0   19.60    0.55
   6   5   0   19.41    0.57
  -7  -5   0    0.12    0.04
  -7  -5   0    0.27    0.09
  -7  -5   0    0.08    0.04
   7   5   0    0.20    0.07
  -8  -5   0    4.25    0.17
  -8  -5   0    4.45    0.14
  -8  -5   0    4.37    0.24
  -8  -5   0    4.40    0.18
  -8  -5   0    4.44    0.14
   8   5   0    4.47    0.24
  -9  -5   0   -0.05    0.09
  -9  -5   0    0.04    0.15
  -9  -5   0    0.22    0.09
  -9  -5   0    0.10    0.05
   9   5   0    0.09    0.10
   5  -6   0    0.26    0.14
   5  -6   0    0.57    0.15
   5  -6   0    0.78    0.10
   5  -6   0    0.38    0.18
   5  -6   0    0.54    0.12
  -5   6   0    0.96    0.21
  -5   6   0    0.79    0.20
  -5   6   0    0.80    0.18
  -5   6   0    0.63    0.15
   4  -6   0    0.78    0.13
   4  -6   0    1.02    0.13
   4  -6   0    0.80    0.15
   4  -6   0    1.05    0.11
   4  -6   0    0.88    0.12
  -4   6   0    0.87    0.16
  -4   6   0    1.11    0.15
  -4   6   0    1.01    0.16
  -4   6   0    0.61    0.12
   3  -6   0    0.50    0.10
   3  -6   0    0.37    0.09
   3  -6   0    0.57    0.11
   3  -6   0    0.74    0.07
  -3   6   0    0.46    0.09
  -3   6   0    0.41    0.10
  -3   6   0    0.55    0.05
  -3   6   0    0.57    0.06
  -3   6   0    0.61    0.12
   2  -6   0    1.77    0.08
   2  -6   0    1.64    0.14
   2  -6   0    1.94    0.15
   2  -6   0    1.85    0.13
  -2   6   0    1.70    0.13
  -2   6   0    1.97    0.16
  -2   6   0    1.65    0.09
  -2   6   0    1.71    0.06
  -2   6   0    1.71    0.15
   1  -6   0    2.14    0.13
   1  -6   0    2.18    0.13
   1  -6   0    1.78    0.12
   1  -6   0    1.81    0.12
  -1   6   0    2.00    0.11
  -1   6   0    1.95    0.10
  -1   6   0    2.10    0.13
  -1   6   0    1.87    0.12
  -1   6   0    2.05    0.15
   0  -6   0    1.66    0.11
   0  -6   0    1.84    0.11
   0  -6   0    1.83    0.10
   0  -6   0    1.74    0.10
   0   6   0    1.71    0.11
   0   6   0    1.91    0.12
   0   6   0    1.77    0.09
   0   6   0    1.65    0.10
   0   6   0    1.70    0.10
  -1  -6   0   20.62    0.56
  -1  -6   0   20.05    0.56
  -1  -6   0   20.32    0.52
  -1  -6   0   21.44    0.52
   1   6   0   21.65    0.56
   1   6   0   21.23    0.57
   1   6   0   20.59    0.51
   1   6   0   20.64    0.51
  -2  -6   0    0.86    0.06
  -2  -6   0    0.88    0.06
  -2  -6   0    0.89    0.06
  -2  -6   0    0.88    0.06
   2   6   0    0.91    0.07
   2   6   0    0.85    0.06
   2   6   0    0.76    0.08
  -3  -6   0   18.75    0.47
  -3  -6   0   18.10    0.44
  -3  -6   0   18.33    0.47
  -3  -6   0   18.12    0.44
  -3  -6   0   17.94    0.46
   3   6   0   18.54    0.46
   3   6   0   18.39    0.52
   3   6   0   17.99    0.46
  -4  -6   0    1.64    0.09
  -4  -6   0    1.68    0.05
  -4  -6   0    1.72    0.06
   4   6   0    1.60    0.10
   4   6   0    1.62    0.10
  -5  -6   0    4.39    0.17
   5   6   0    4.48    0.18
   5   6   0    4.08    0.17
   6   6   0    0.93    0.10
   6   6   0    0.94    0.10
  -7  -6   0    0.28    0.08
  -7  -6   0    0.40    0.04
  -7  -6   0    0.33    0.04
   7   6   0    0.40    0.09
  -8  -6   0    0.13    0.11
  -8  -6   0   -0.04    0.05
  -8  -6   0   -0.13    0.04
   8   6   0   -0.02    0.07
  -9  -6   0   -0.24    0.15
  -9  -6   0    0.06    0.09
  -9  -6   0   -0.10    0.07
   9   6   0   -0.10    0.09
   4  -7   0    1.99    0.18
   4  -7   0    2.15    0.19
   4  -7   0    1.90    0.19
   4  -7   0    2.16    0.22
  -4   7   0    2.40    0.26
  -4   7   0    1.71    0.19
  -4   7   0    1.84    0.22
  -4   7   0    2.50    0.24
   3  -7   0    2.22    0.19
   3  -7   0    2.05    0.21
   3  -7   0    2.71    0.21
   3  -7   0    2.05    0.22
  -3   7   0    2.46    0.24
  -3   7   0    2.43    0.19
  -3   7   0    2.10    0.12
  -3   7   0    2.19    0.26
  -3   7   0    1.97    0.22
   2  -7   0   13.46    0.44
   2  -7   0   13.76    0.41
   2  -7   0   12.83    0.42
   2  -7   0   12.85    0.44
  -2   7   0   13.75    0.46
  -2   7   0   12.57    0.38
  -2   7   0   13.79    0.45
  -2   7   0   13.25    0.41
   1  -7   0    9.83    0.34
   1  -7   0    9.96    0.32
   1  -7   0   10.09    0.32
   1  -7   0    9.94    0.34
  -1   7   0   10.09    0.36
  -1   7   0   10.02    0.34
  -1   7   0    9.83    0.31
  -1   7   0    9.73    0.31
  -1   7   0   10.11    0.31
   0  -7   0   32.87    0.89
   0  -7   0   33.10    0.83
   0  -7   0   33.15    0.82
   0  -7   0   32.26    0.88
   0   7   0   33.18    0.88
   0   7   0   33.71    0.81
   0   7   0   30.05    0.89
   0   7   0   33.71    0.81
   0   7   0   34.48    0.89
  -1  -7   0   23.50    0.64
  -1  -7   0   23.75    0.60
  -1  -7   0   23.98    0.60
  -1  -7   0   22.89    0.63
   1   7   0   23.59    0.58
   1   7   0   23.51    0.65
   1   7   0   23.71    0.58
   1   7   0   23.39    0.64
  -2  -7   0   21.54    0.57
  -2  -7   0   22.02    0.57
  -2  -7   0   21.18    0.54
  -2  -7   0   21.14    0.54
   2   7   0   21.39    0.57
   2   7   0   21.04    0.60
   2   7   0   21.31    0.57
  -3  -7   0   34.30    0.85
  -3  -7   0   35.04    0.89
  -3  -7   0   35.62    0.84
  -3  -7   0   35.60    0.85
  -3  -7   0   36.12    0.89
   3   7   0   36.03    0.89
   3   7   0   35.97    0.89
   3   7   0   34.93    0.95
  -4  -7   0    2.81    0.09
  -4  -7   0    2.81    0.09
  -4  -7   0    2.78    0.09
  -4  -7   0    2.81    0.12
  -4  -7   0    2.73    0.10
   4   7   0    2.57    0.14
  -5  -7   0   21.70    0.56
  -5  -7   0   21.22    0.50
   5   7   0   21.12    0.59
   5   7   0   21.66    0.61
  -6  -7   0    0.03    0.06
   6   7   0   -0.06    0.06
   6   7   0   -0.01    0.06
  -7  -7   0    4.84    0.23
   7   7   0    4.78    0.21
   7   7   0    4.40    0.22
  -8  -7   0    0.13    0.04
  -8  -7   0    0.13    0.11
  -8  -7   0    0.08    0.05
   8   7   0    0.02    0.08
  -9  -7   0    0.31    0.09
   3  -8   0    0.94    0.15
   3  -8   0    1.28    0.18
   3  -8   0    1.01    0.16
   3  -8   0    1.44    0.20
  -3   8   0    1.15    0.11
  -3   8   0    1.02    0.15
  -3   8   0    0.97    0.19
  -3   8   0    1.03    0.17
   2  -8   0   -0.17    0.09
   2  -8   0    0.04    0.12
   2  -8   0    0.07    0.10
   2  -8   0   -0.06    0.10
  -2   8   0    0.00    0.12
  -2   8   0    0.00    0.12
  -2   8   0    0.06    0.06
  -2   8   0   -0.08    0.09
  -2   8   0    0.04    0.11
   1  -8   0    2.63    0.19
   1  -8   0    2.44    0.17
   1  -8   0    2.12    0.18
   1  -8   0    2.16    0.18
  -1   8   0    2.25    0.19
  -1   8   0    2.19    0.13
  -1   8   0    2.43    0.16
  -1   8   0    2.33    0.21
  -1   8   0    2.08    0.17
   0  -8   0    0.09    0.06
   0  -8   0    0.53    0.09
   0  -8   0    0.10    0.07
   0  -8   0    0.21    0.07
   0   8   0    0.20    0.06
   0   8   0    0.12    0.06
   0   8   0    0.10    0.07
   0   8   0    0.28    0.10
   0   8   0    0.20    0.07
  -1  -8   0    0.19    0.07
  -1  -8   0    0.23    0.07
  -1  -8   0    0.18    0.06
  -1  -8   0    0.04    0.06
   1   8   0    0.19    0.05
   1   8   0    0.19    0.05
   1   8   0    0.11    0.05
   1   8   0    0.23    0.08
  -2  -8   0    0.33    0.06
  -2  -8   0    0.41    0.06
  -2  -8   0    0.47    0.07
  -2  -8   0    0.40    0.06
   2   8   0    0.33    0.06
   2   8   0    0.42    0.07
   2   8   0    0.33    0.07
  -3  -8   0    1.05    0.08
  -3  -8   0    0.99    0.09
  -3  -8   0    0.97    0.08
  -3  -8   0    0.87    0.09
   3   8   0    0.89    0.08
   3   8   0    1.01    0.10
   3   8   0    1.02    0.08
  -4  -8   0    0.11    0.05
  -4  -8   0    0.09    0.04
  -4  -8   0    0.16    0.04
  -4  -8   0    0.09    0.03
   4   8   0    0.12    0.03
   4   8   0    0.05    0.06
   4   8   0    0.11    0.03
  -5  -8   0    0.49    0.05
  -5  -8   0    0.49    0.05
  -5  -8   0    0.46    0.07
  -6  -8   0    0.16    0.07
   6   8   0    0.04    0.08
   6   8   0    0.09    0.07
  -7  -8   0    0.00    0.08
   7   8   0    0.00    0.07
   7   8   0    0.07    0.07
  -8  -8   0   -0.21    0.12
   8   8   0    0.08    0.08
   2  -9   0    0.18    0.16
   2  -9   0    0.43    0.16
   2  -9   0    0.13    0.13
  -2   9   0   -0.29    0.18
  -2   9   0    0.40    0.15
  -2   9   0    0.46    0.18
  -2   9   0    0.37    0.13
  -2   9   0    0.36    0.09
   1  -9   0    0.80    0.12
   1  -9   0    0.62    0.14
   1  -9   0    0.86    0.15
   1  -9   0    0.73    0.15
  -1   9   0    0.88    0.10
  -1   9   0    0.64    0.13
  -1   9   0    0.68    0.14
   0  -9   0    3.86    0.22
   0  -9   0    3.71    0.23
   0  -9   0    3.88    0.21
   0  -9   0    3.90    0.23
   0   9   0    3.84    0.18
   0   9   0    3.87    0.18
   0   9   0    3.94    0.23
   0   9   0    3.86    0.20
  -1  -9   0    0.10    0.08
  -1  -9   0    0.27    0.08
  -1  -9   0    0.27    0.09
  -1  -9   0    0.16    0.08
   1   9   0    0.13    0.08
   1   9   0    0.21    0.06
   1   9   0   -0.11    0.08
   1   9   0    0.24    0.06
   1   9   0    0.19    0.07
  -2  -9   0    8.25    0.29
  -2  -9   0    8.38    0.29
   2   9   0    8.36    0.28
  -3  -9   0    0.10    0.06
  -3  -9   0    0.21    0.06
  -3  -9   0    0.20    0.06
  -3  -9   0    0.07    0.06
   3   9   0    0.20    0.07
   3   9   0    0.16    0.06
   3   9   0    0.15    0.06
  -4  -9   0    3.23    0.15
  -4  -9   0    3.49    0.15
  -4  -9   0    3.15    0.13
  -4  -9   0    3.25    0.13
   4   9   0    3.30    0.12
   4   9   0    3.47    0.18
  -5  -9   0    0.90    0.09
  -5  -9   0    0.98    0.08
  -5  -9   0    0.83    0.07
   5   9   0    0.66    0.11
  -6  -9   0    0.19    0.04
  -6  -9   0    0.21    0.09
  -6  -9   0    0.09    0.05
   6   9   0    0.14    0.08
  -7  -9   0    0.32    0.10
   7   9   0    0.33    0.10
  -8  -9   0   -0.03    0.14
   8   9   0    0.13    0.11
   0 -10   0    0.70    0.14
   0 -10   0    0.67    0.15
   0 -10   0    0.37    0.14
   0 -10   0    0.69    0.13
   0  10   0    0.16    0.15
   0  10   0    0.63    0.12
   0  10   0    0.19    0.13
   0  10   0    0.35    0.10
   0  10   0   -0.06    0.09
  -1 -10   0    2.16    0.20
  -1 -10   0    1.37    0.15
  -1 -10   0    1.80    0.20
  -1 -10   0    1.86    0.19
   1  10   0    1.69    0.20
   1  10   0    1.87    0.16
  -2 -10   0    2.28    0.18
  -2 -10   0    2.50    0.19
  -2 -10   0    2.36    0.18
  -2 -10   0    2.40    0.19
   2  10   0    2.54    0.17
   2  10   0    2.28    0.18
  -3 -10   0    0.02    0.08
  -3 -10   0    0.15    0.07
  -3 -10   0   -0.05    0.08
  -3 -10   0    0.06    0.07
   3  10   0    0.11    0.08
   3  10   0    0.05    0.08
   3  10   0    0.03    0.07
  -4 -10   0    2.49    0.14
  -4 -10   0    2.59    0.14
  -4 -10   0    2.53    0.16
  -4 -10   0    2.67    0.17
   4  10   0    2.64    0.18
   4  10   0    2.38    0.12
   4  10   0    1.86    0.12
  -5 -10   0    0.57    0.08
  -5 -10   0    0.67    0.08
   5  10   0    0.53    0.11
  -6 -10   0    1.06    0.11
  -6 -10   0    0.86    0.12
  -6 -10   0    1.05    0.08
   6  10   0    0.98    0.14
  -7 -10   0    0.37    0.13
  -7 -10   0    0.66    0.06
  -7 -10   0    0.66    0.06
   7  10   0    0.48    0.11
  -3 -11   0    0.30    0.11
  -3 -11   0   -0.03    0.10
  -3 -11   0    0.20    0.12
  -3 -11   0    0.25    0.10
   3  11   0    0.15    0.10
   3  11   0    0.19    0.10
   3  11   0    0.07    0.10
  -4 -11   0    1.50    0.16
  -4 -11   0    1.99    0.20
  -4 -11   0    2.02    0.19
  -4 -11   0    1.97    0.16
   4  11   0    2.20    0.19
   4  11   0    2.03    0.15
   6  10  -1    3.03    0.19
  -6 -10   1    2.83    0.14
  -6 -10   1    2.82    0.20
  -6 -10   1    2.92    0.15
   5  10  -1    2.75    0.19
  -5 -10   1    3.01    0.11
  -5 -10   1    3.06    0.16
  -5 -10   1    2.85    0.16
   4  10  -1    3.97    0.16
   4  10  -1    4.21    0.22
  -4 -10   1    3.83    0.17
  -4 -10   1    3.81    0.17
  -4 -10   1    3.89    0.19
  -4 -10   1    4.10    0.19
   3  10  -1    6.93    0.25
   3  10  -1    6.80    0.28
  -3 -10   1    6.79    0.26
  -3 -10   1    6.24    0.26
  -3 -10   1    6.47    0.25
  -3 -10   1    6.76    0.26
   2  10  -1    0.85    0.12
   2  10  -1    0.96    0.13
  -2 -10   1    1.00    0.12
  -2 -10   1    0.92    0.12
  -2 -10   1    0.96    0.13
  -2 -10   1    0.94    0.12
   1  10  -1    5.14    0.27
   1  10  -1    5.09    0.24
  -1 -10   1    4.66    0.27
  -1 -10   1    4.78    0.26
  -1 -10   1    4.74    0.27
  -1 -10   1    4.86    0.27
   0  10  -1   -0.04    0.08
   0  10  -1    0.21    0.12
   0 -10   1    0.07    0.14
   0 -10   1   -0.09    0.13
   0 -10   1    0.13    0.14
   0 -10   1   -0.12    0.12
   7   9  -1    0.08    0.08
  -7  -9   1   -0.06    0.10
   6   9  -1    1.35    0.14
  -6  -9   1    1.45    0.09
  -6  -9   1    1.34    0.09
  -6  -9   1    1.50    0.16
   5   9  -1   -0.02    0.07
  -5  -9   1    0.12    0.05
  -5  -9   1    0.10    0.07
  -5  -9   1    0.07    0.05
   4   9  -1    1.22    0.13
   4   9  -1    1.21    0.09
  -4  -9   1    1.24    0.11
  -4  -9   1    1.25    0.11
  -4  -9   1    1.17    0.09
  -4  -9   1    1.20    0.09
   3   9  -1    2.12    0.13
   3   9  -1    2.23    0.15
   3   9  -1    1.70    0.13
  -3  -9   1    2.30    0.13
  -3  -9   1    2.20    0.14
  -3  -9   1    2.23    0.14
  -3  -9   1    2.22    0.13
   2   9  -1    0.07    0.07
   2   9  -1    0.08    0.07
  -2  -9   1    0.07    0.07
  -2  -9   1    0.05    0.07
  -2  -9   1    0.09    0.07
  -2  -9   1    0.13    0.06
   1   9  -1    3.62    0.18
   1   9  -1    3.42    0.20
   1   9  -1    3.45    0.15
  -1  -9   1    3.70    0.19
  -1  -9   1    3.48    0.20
  -1  -9   1    3.57    0.20
  -1  -9   1    3.80    0.21
   0   9  -1    0.00    0.11
   0   9  -1    0.24    0.10
   0   9  -1    0.21    0.07
   0   9  -1    0.28    0.08
   0   9  -1    0.24    0.11
   0  -9   1    0.25    0.11
   0  -9   1    0.30    0.11
   0  -9   1    0.21    0.10
   0  -9   1    0.21    0.10
  -1   9  -1    0.83    0.12
  -1   9  -1    0.87    0.16
  -1   9  -1    0.84    0.10
  -1   9  -1    0.88    0.13
   1  -9   1    0.69    0.15
   1  -9   1    0.94    0.15
   1  -9   1    0.68    0.15
   1  -9   1    0.66    0.12
   8   8  -1    0.19    0.10
  -8  -8   1    0.09    0.12
   7   8  -1    0.74    0.12
  -7  -8   1    0.70    0.12
   6   8  -1    1.29    0.12
   6   8  -1    1.28    0.12
  -6  -8   1    1.31    0.07
  -6  -8   1    1.51    0.07
  -6  -8   1    1.46    0.15
   5   8  -1    0.15    0.07
   5   8  -1    0.34    0.07
  -5  -8   1    0.31    0.05
  -5  -8   1    0.33    0.07
  -5  -8   1    0.31    0.04
   4   8  -1    5.52    0.16
   4   8  -1    5.73    0.23
   4   8  -1    5.75    0.16
  -4  -8   1    5.53    0.19
  -4  -8   1    5.51    0.17
  -4  -8   1    5.55    0.18
  -4  -8   1    5.72    0.18
  -4  -8   1    5.77    0.17
   3   8  -1    0.49    0.06
   3   8  -1    0.56    0.09
   3   8  -1    0.64    0.06
  -3  -8   1    0.47    0.06
  -3  -8   1    0.44    0.06
  -3  -8   1    0.50    0.06
  -3  -8   1    0.55    0.06
   2   8  -1    6.62    0.23
   2   8  -1    6.14    0.23
  -2  -8   1    6.19    0.22
  -2  -8   1    6.14    0.23
  -2  -8   1    5.98    0.22
  -2  -8   1    6.58    0.21
   1   8  -1    1.61    0.09
   1   8  -1    1.50    0.11
   1   8  -1    1.48    0.14
   1   8  -1    1.45    0.10
  -1  -8   1    1.46    0.13
  -1  -8   1    1.62    0.13
   0   8  -1    0.46    0.08
   0   8  -1    0.60    0.08
   0   8  -1    0.46    0.09
   0   8  -1    0.54    0.08
   0   8  -1    0.56    0.11
   0  -8   1    0.53    0.09
   0  -8   1    0.42    0.08
   0  -8   1    0.44    0.09
   0  -8   1    0.36    0.08
  -1   8  -1    1.05    0.13
  -1   8  -1    1.03    0.12
  -1   8  -1    0.87    0.10
  -1   8  -1    0.85    0.14
  -1   8  -1    0.99    0.10
   1  -8   1    1.15    0.13
   1  -8   1    0.77    0.11
   1  -8   1    1.03    0.13
   1  -8   1    0.95    0.12
  -2   8  -1    0.27    0.11
  -2   8  -1    0.19    0.07
  -2   8  -1   -0.01    0.14
  -2   8  -1    0.29    0.12
  -2   8  -1    0.23    0.10
   2  -8   1    0.21    0.12
   2  -8   1    0.30    0.12
   2  -8   1    0.23    0.11
   2  -8   1    0.08    0.11
  -3   8  -1    0.19    0.18
  -3   8  -1    0.13    0.14
  -3   8  -1    0.09    0.13
  -3   8  -1    0.35    0.20
   3  -8   1    0.12    0.17
   3  -8   1    0.13    0.12
   3  -8   1    0.01    0.15
   8   7  -1    0.70    0.13
  -8  -7   1    0.77    0.08
  -8  -7   1    1.04    0.15
  -8  -7   1    0.77    0.09
   7   7  -1    1.01    0.12
  -7  -7   1    1.00    0.13
   6   7  -1    0.19    0.06
  -6  -7   1    0.22    0.08
   5   7  -1    2.98    0.16
   5   7  -1    2.96    0.15
  -5  -7   1    2.92    0.14
  -5  -7   1    3.02    0.09
  -5  -7   1    3.07    0.09
   4   7  -1    0.83    0.09
   4   7  -1    0.94    0.08
  -4  -7   1    0.89    0.05
  -4  -7   1    0.82    0.05
  -4  -7   1    0.86    0.06
  -4  -7   1    0.86    0.06
  -4  -7   1    0.93    0.09
   3   7  -1    1.45    0.08
   3   7  -1    1.35    0.08
   3   7  -1    1.26    0.10
  -3  -7   1    1.50    0.08
  -3  -7   1    1.42    0.08
  -3  -7   1    1.30    0.08
  -3  -7   1    1.32    0.08
   2   7  -1    1.33    0.10
   2   7  -1    1.47    0.09
   2   7  -1    1.50    0.10
  -2  -7   1    1.46    0.09
  -2  -7   1    1.50    0.09
  -2  -7   1    1.43    0.09
   1   7  -1    0.59    0.06
   1   7  -1    0.50    0.05
   1   7  -1    0.34    0.06
   1   7  -1    0.44    0.07
  -1  -7   1    0.61    0.07
  -1  -7   1    0.47    0.06
   0   7  -1    0.30    0.06
   0   7  -1    0.44    0.09
   0   7  -1    0.37    0.07
   0   7  -1    0.42    0.07
   0   7  -1    0.49    0.06
   0  -7   1    0.49    0.07
   0  -7   1    0.31    0.07
   0  -7   1    0.40    0.07
  -1   7  -1    1.43    0.14
  -1   7  -1    1.54    0.12
  -1   7  -1    1.61    0.11
  -1   7  -1    1.55    0.17
  -1   7  -1    1.75    0.16
   1  -7   1    1.69    0.15
   1  -7   1    1.65    0.14
   1  -7   1    1.46    0.13
   1  -7   1    1.73    0.15
  -2   7  -1    0.00    0.11
  -2   7  -1    0.05    0.05
  -2   7  -1    0.02    0.09
  -2   7  -1    0.07    0.08
   2  -7   1    0.06    0.08
   2  -7   1    0.10    0.09
   2  -7   1    0.10    0.09
   2  -7   1    0.27    0.09
  -3   7  -1   -0.15    0.14
  -3   7  -1    0.17    0.10
  -3   7  -1    0.26    0.13
  -3   7  -1    0.17    0.12
   3  -7   1    0.24    0.12
   3  -7   1    0.30    0.11
   3  -7   1    0.22    0.13
   3  -7   1    0.37    0.13
  -4   7  -1   -0.23    0.15
  -4   7  -1   -0.36    0.19
  -4   7  -1   -0.12    0.17
  -4   7  -1    0.06    0.14
  -4   7  -1   -0.01    0.06
   4  -7   1   -0.05    0.11
   4  -7   1    0.25    0.17
   4  -7   1   -0.09    0.15
   9   6  -1    0.15    0.12
  -9  -6   1    0.40    0.08
  -9  -6   1    0.35    0.09
   8   6  -1    0.08    0.09
  -8  -6   1    0.04    0.10
  -8  -6   1    0.04    0.05
  -8  -6   1    0.15    0.06
   7   6  -1    1.82    0.14
  -7  -6   1    1.53    0.07
  -7  -6   1    1.54    0.07
  -7  -6   1    1.50    0.15
   6   6  -1   -0.01    0.06
  -6  -6   1    0.01    0.06
   5   6  -1    2.90    0.14
   5   6  -1    2.83    0.14
  -5  -6   1    3.03    0.14
   4   6  -1    2.14    0.12
   4   6  -1    1.92    0.11
  -4  -6   1    1.95    0.06
  -4  -6   1    1.96    0.07
  -4  -6   1    1.81    0.10
  -4  -6   1    1.95    0.07
   3   6  -1    0.08    0.04
   3   6  -1    0.03    0.02
   3   6  -1    0.03    0.03
   3   6  -1    0.03    0.02
  -3  -6   1    0.06    0.02
  -3  -6   1    0.02    0.03
  -3  -6   1    0.06    0.02
  -3  -6   1    0.01    0.02
   2   6  -1    9.33    0.31
   2   6  -1   10.14    0.29
   2   6  -1   10.46    0.29
   2   6  -1   10.04    0.27
  -2  -6   1   10.05    0.27
  -2  -6   1    9.96    0.27
  -2  -6   1   10.33    0.29
  -2  -6   1   10.26    0.29
   1   6  -1    7.93    0.25
   1   6  -1    7.98    0.26
   1   6  -1    8.08    0.22
   1   6  -1    8.30    0.21
   1   6  -1    8.04    0.22
  -1  -6   1    8.12    0.24
  -1  -6   1    8.23    0.24
  -1  -6   1    8.34    0.25
  -1  -6   1    7.96    0.26
   0   6  -1    6.45    0.20
   0   6  -1    6.46    0.21
   0   6  -1    6.62    0.21
   0   6  -1    6.67    0.24
   0   6  -1    6.54    0.17
   0   6  -1    6.27    0.23
   0  -6   1    6.56    0.21
   0  -6   1    6.39    0.23
   0  -6   1    6.50    0.23
   0  -6   1    6.32    0.21
  -1   6  -1   11.56    0.38
  -1   6  -1   12.08    0.34
  -1   6  -1   12.37    0.35
  -1   6  -1   11.92    0.29
  -1   6  -1   12.45    0.37
  -1   6  -1   11.28    0.34
   1  -6   1   11.42    0.35
   1  -6   1   11.61    0.37
   1  -6   1   11.92    0.34
   1  -6   1   11.57    0.38
  -2   6  -1    0.03    0.08
  -2   6  -1    0.00    0.07
  -2   6  -1    0.04    0.04
   2  -6   1   -0.01    0.06
  -3   6  -1    7.22    0.32
  -3   6  -1    7.68    0.22
  -3   6  -1    8.33    0.34
  -3   6  -1    7.96    0.30
  -3   6  -1    7.29    0.28
   3  -6   1    7.86    0.28
   3  -6   1    8.18    0.32
   3  -6   1    7.49    0.31
  -4   6  -1    0.86    0.14
  -4   6  -1    0.85    0.14
  -4   6  -1    0.73    0.17
  -4   6  -1    0.63    0.14
   4  -6   1    0.46    0.10
   4  -6   1    0.99    0.16
   4  -6   1    0.87    0.15
   4  -6   1    0.93    0.14
  -5   6  -1    2.49    0.25
  -5   6  -1    2.09    0.25
  -5   6  -1    2.19    0.22
   5  -6   1    1.96    0.21
   5  -6   1    2.28    0.25
   5  -6   1    2.57    0.28
   5  -6   1    1.87    0.18
   9   5  -1   -0.02    0.10
  -9  -5   1    0.02    0.06
  -9  -5   1    0.01    0.05
  -9  -5   1   -0.02    0.08
  -9  -5   1    0.09    0.10
  -9  -5   1    0.10    0.15
  -8  -5   1    3.07    0.15
  -8  -5   1    3.42    0.23
  -8  -5   1    3.32    0.15
   7   5  -1    0.50    0.08
  -7  -5   1    0.69    0.06
  -7  -5   1    0.61    0.07
  -7  -5   1    0.62    0.10
   6   5  -1    7.14    0.26
  -6  -5   1    6.89    0.18
  -6  -5   1    7.24    0.18
   5   5  -1    3.34    0.15
   5   5  -1    3.25    0.14
  -5  -5   1    3.60    0.15
   4   5  -1    1.60    0.10
   4   5  -1    1.68    0.10
  -4  -5   1    1.65    0.09
   3   5  -1    5.13    0.18
   3   5  -1    5.36    0.14
   3   5  -1    5.43    0.18
   3   5  -1    5.49    0.15
  -3  -5   1    5.52    0.15
  -3  -5   1    5.17    0.16
  -3  -5   1    5.42    0.14
  -3  -5   1    5.27    0.14
  -3  -5   1    5.36    0.15
   2   5  -1    4.98    0.15
   2   5  -1    4.65    0.17
   2   5  -1    4.92    0.15
   2   5  -1    4.83    0.15
   2   5  -1    4.75    0.15
  -2  -5   1    4.99    0.15
  -2  -5   1    4.76    0.14
  -2  -5   1    4.72    0.14
  -2  -5   1    4.53    0.15
  -2  -5   1    4.84    0.14
   1   5  -1    1.22    0.06
   1   5  -1    1.11    0.07
   1   5  -1    1.10    0.07
   1   5  -1    1.28    0.06
   1   5  -1    1.22    0.06
  -1  -5   1    1.31    0.07
  -1  -5   1    1.26    0.07
  -1  -5   1    1.18    0.07
   0   5  -1    7.15    0.18
   0   5  -1    7.35    0.21
   0   5  -1    7.35    0.23
   0   5  -1    6.89    0.24
   0   5  -1    6.92    0.22
   0   5  -1    7.30    0.21
   0  -5   1    7.10    0.23
   0  -5   1    7.45    0.22
   0  -5   1    7.32    0.24
   0  -5   1    6.97    0.21
  -1   5  -1    2.57    0.14
  -1   5  -1    2.60    0.11
  -1   5  -1    2.83    0.13
  -1   5  -1    2.68    0.12
  -1   5  -1    2.74    0.12
   1  -5   1    2.86    0.15
   1  -5   1    2.80    0.14
   1  -5   1    2.55    0.12
   1  -5   1    2.56    0.12
  -2   5  -1    3.41    0.18
  -2   5  -1    3.34    0.15
  -2   5  -1    3.30    0.16
  -2   5  -1    3.37    0.12
  -2   5  -1    3.29    0.17
   2  -5   1    3.37    0.18
   2  -5   1    3.39    0.17
   2  -5   1    3.40    0.15
   2  -5   1    3.49    0.16
  -3   5  -1    3.77    0.18
  -3   5  -1    3.61    0.19
  -3   5  -1    3.34    0.19
  -3   5  -1    3.94    0.22
   3  -5   1    3.77    0.18
   3  -5   1    3.84    0.20
   3  -5   1    3.54    0.12
  -4   5  -1    1.18    0.12
  -4   5  -1    1.45    0.16
  -4   5  -1    1.44    0.17
  -4   5  -1    1.12    0.13
  -4   5  -1    1.20    0.11
   4  -5   1    1.22    0.14
   4  -5   1    1.23    0.12
   4  -5   1    1.27    0.09
   4  -5   1    1.32    0.15
  -5   5  -1    0.28    0.08
  -5   5  -1    0.52    0.14
  -5   5  -1    0.53    0.13
  -5   5  -1    0.34    0.14
  -5   5  -1    0.38    0.15
   5  -5   1    0.54    0.15
   5  -5   1    0.46    0.08
   5  -5   1    0.38    0.10
   5  -5   1    0.36    0.11
   5  -5   1    0.33    0.12
   9   4  -1    0.03    0.09
   9   4  -1    0.06    0.06
   9   4  -1    0.04    0.05
  -9  -4   1   -0.12    0.09
  -9  -4   1    0.05    0.09
  -9  -4   1   -0.03    0.08
  -9  -4   1    0.25    0.14
   8   4  -1    0.09    0.04
   8   4  -1    0.12    0.04
  -8  -4   1    0.10    0.06
  -8  -4   1   -0.02    0.06
  -8  -4   1    0.08    0.06
  -8  -4   1    0.06    0.07
  -8  -4   1   -0.02    0.09
   7   4  -1    0.03    0.02
   7   4  -1    0.08    0.08
   7   4  -1    0.12    0.03
  -7  -4   1    0.08    0.04
  -7  -4   1    0.13    0.04
  -7  -4   1    0.12    0.04
  -7  -4   1    0.07    0.05
   6   4  -1    1.11    0.11
  -6  -4   1    1.22    0.06
  -6  -4   1    1.07    0.06
  -6  -4   1    1.23    0.06
  -6  -4   1    1.24    0.07
  -6  -4   1    1.28    0.12
   5   4  -1    0.33    0.07
  -5  -4   1    0.24    0.02
  -5  -4   1    0.25    0.02
  -5  -4   1    0.21    0.05
   4   4  -1   14.46    0.41
   4   4  -1   14.44    0.40
  -4  -4   1   14.30    0.38
   3   4  -1    2.76    0.11
   3   4  -1    2.62    0.11
   3   4  -1    2.62    0.10
  -3  -4   1    2.73    0.08
  -3  -4   1    2.76    0.10
  -3  -4   1    2.71    0.08
   2   4  -1   61.21    1.58
   2   4  -1   63.67    1.54
   2   4  -1   63.40    1.53
   2   4  -1   62.46    1.46
   2   4  -1   64.05    1.53
  -2  -4   1   61.96    1.53
  -2  -4   1   62.54    1.44
  -2  -4   1   63.19    1.46
  -2  -4   1   64.41    1.44
  -2  -4   1   59.92    1.53
   1   4  -1   -0.01    0.02
   1   4  -1    0.03    0.02
   1   4  -1    0.03    0.02
   1   4  -1    0.04    0.02
   1   4  -1    0.03    0.02
  -1  -4   1    0.02    0.02
  -1  -4   1   -0.01    0.02
  -1  -4   1    0.02    0.02
  -1  -4   1    0.02    0.02
   0   4  -1   98.46    2.35
   0   4  -1  102.42    2.53
   0   4  -1  100.31    2.50
   0   4  -1  105.99    2.51
   0   4  -1  102.35    2.36
   0   4  -1  101.74    2.36
   0  -4   1  102.33    2.36
   0  -4   1   99.82    2.51
   0  -4   1  103.49    2.50
   0  -4   1  102.71    2.36
  -1   4  -1    0.31    0.04
  -1   4  -1    0.34    0.05
  -1   4  -1    0.37    0.04
  -1   4  -1    0.34    0.04
  -1   4  -1    0.40    0.05
   1  -4   1    0.34    0.05
   1  -4   1    0.31    0.05
   1  -4   1    0.27    0.04
   1  -4   1    0.34    0.05
  -2   4  -1   46.39    1.17
  -2   4  -1   46.38    1.13
  -2   4  -1   47.46    1.21
  -2   4  -1   46.66    1.20
  -2   4  -1   47.11    1.13
   2  -4   1   44.88    1.13
   2  -4   1   48.85    1.15
   2  -4   1   48.75    1.21
   2  -4   1   45.28    1.21
   2  -4   1   47.01    1.13
  -3   4  -1   -0.02    0.05
  -3   4  -1    0.04    0.04
  -3   4  -1    0.03    0.05
  -3   4  -1   -0.02    0.06
   3  -4   1    0.04    0.05
   3  -4   1    0.07    0.07
   3  -4   1   -0.02    0.04
   3  -4   1    0.02    0.04
   3  -4   1   -0.02    0.06
  -4   4  -1    6.42    0.27
  -4   4  -1    6.62    0.28
  -4   4  -1    6.24    0.25
   4  -4   1    6.14    0.20
   4  -4   1    6.71    0.27
   4  -4   1    6.33    0.23
   4  -4   1    6.42    0.25
  -5   4  -1    0.01    0.10
  -5   4  -1   -0.08    0.08
  -5   4  -1    0.04    0.10
  -5   4  -1    0.06    0.07
  -5   4  -1    0.17    0.12
   5  -4   1    0.05    0.10
   5  -4   1   -0.02    0.08
   5  -4   1    0.03    0.07
   5  -4   1    0.07    0.09
   5  -4   1    0.05    0.06
  -6   4  -1    0.11    0.15
  -6   4  -1    0.55    0.15
  -6   4  -1    0.16    0.14
  -6   4  -1    0.28    0.16
  -6   4  -1    0.21    0.10
   6  -4   1    0.43    0.10
   6  -4   1    0.08    0.12
   6  -4   1    0.34    0.13
   6  -4   1    0.39    0.11
   6  -4   1    0.21    0.16
   9   3  -1   -0.06    0.08
   9   3  -1   -0.01    0.09
   9   3  -1    0.06    0.08
  -9  -3   1   -0.06    0.10
  -9  -3   1   -0.12    0.14
  -9  -3   1   -0.03    0.09
  -9  -3   1   -0.11    0.11
  -9  -3   1    0.18    0.12
   8   3  -1    0.08    0.06
   8   3  -1   -0.02    0.05
  -8  -3   1   -0.01    0.07
  -8  -3   1    0.05    0.07
  -8  -3   1   -0.08    0.09
  -8  -3   1    0.00    0.07
  -8  -3   1   -0.02    0.07
   7   3  -1    0.66    0.10
   7   3  -1    0.88    0.07
   7   3  -1    0.90    0.08
  -7  -3   1    0.88    0.09
  -7  -3   1    0.79    0.08
  -7  -3   1    0.83    0.09
  -7  -3   1    0.82    0.08
   6   3  -1    1.00    0.06
   6   3  -1    0.85    0.06
   6   3  -1    0.85    0.10
  -6  -3   1    0.87    0.07
  -6  -3   1    0.96    0.10
  -6  -3   1    0.85    0.07
  -6  -3   1    0.87    0.07
  -6  -3   1    0.93    0.07
   5   3  -1   13.31    0.34
   5   3  -1   13.52    0.34
   5   3  -1   12.46    0.39
  -5  -3   1   12.94    0.37
  -5  -3   1   13.80    0.33
  -5  -3   1   13.22    0.33
  -5  -3   1   13.41    0.35
  -5  -3   1   13.24    0.35
   4   3  -1    0.82    0.07
   4   3  -1    0.98    0.04
   4   3  -1    0.91    0.03
  -4  -3   1    0.90    0.04
  -4  -3   1    0.94    0.04
  -4  -3   1    0.93    0.04
  -4  -3   1    0.93    0.04
  -4  -3   1    0.90    0.07
   3   3  -1   49.84    1.27
   3   3  -1   51.37    1.21
   3   3  -1   52.25    1.29
  -3  -3   1   50.09    1.20
  -3  -3   1   52.53    1.24
  -3  -3   1   49.50    1.23
   2   3  -1   18.27    0.46
   2   3  -1   17.67    0.49
   2   3  -1   18.64    0.46
   2   3  -1   18.37    0.46
   2   3  -1   18.87    0.48
  -2  -3   1   18.78    0.43
  -2  -3   1   19.00    0.43
  -2  -3   1   18.76    0.46
  -2  -3   1   18.81    0.46
  -2  -3   1   18.95    0.46
   1   3  -1   62.37    1.59
   1   3  -1   66.17    1.58
   1   3  -1   66.86    1.51
   1   3  -1   62.22    1.60
   1   3  -1   65.60    1.63
   1   3  -1   67.14    1.50
   1   3  -1   67.29    1.50
  -1  -3   1   66.62    1.59
  -1  -3   1   64.49    1.50
  -1  -3   1   64.86    1.50
  -1  -3   1   63.33    1.60
   0   3  -1   61.73    1.55
   0   3  -1   63.25    1.56
   0   3  -1   63.62    1.46
   0   3  -1   63.95    1.57
   0   3  -1   65.79    1.46
   0  -3   1   64.81    1.46
   0  -3   1   61.42    1.47
   0  -3   1   60.65    1.55
   0  -3   1   62.07    1.56
  -1   3  -1   16.33    0.44
  -1   3  -1   16.28    0.44
  -1   3  -1   15.90    0.41
  -1   3  -1   15.30    0.41
  -1   3  -1   16.62    0.42
   1  -3   1   16.13    0.41
   1  -3   1   15.82    0.41
   1  -3   1   16.12    0.44
   1  -3   1   16.20    0.42
   1  -3   1   17.14    0.40
   1  -3   1   15.95    0.44
  -2   3  -1   14.42    0.36
  -2   3  -1   14.07    0.37
  -2   3  -1   14.79    0.41
  -2   3  -1   14.33    0.38
  -2   3  -1   14.44    0.40
   2  -3   1   13.46    0.38
   2  -3   1   14.68    0.36
   2  -3   1   13.83    0.40
   2  -3   1   14.08    0.41
   2  -3   1   13.78    0.37
  -3   3  -1    0.81    0.08
  -3   3  -1    0.82    0.09
  -3   3  -1    0.89    0.09
  -3   3  -1    1.03    0.10
   3  -3   1    0.98    0.10
   3  -3   1    0.81    0.08
   3  -3   1    0.89    0.08
   3  -3   1    0.98    0.07
   3  -3   1    0.79    0.09
  -4   3  -1    1.71    0.13
  -4   3  -1    1.79    0.15
  -4   3  -1    1.78    0.13
  -4   3  -1    1.84    0.12
   4  -3   1    1.65    0.13
   4  -3   1    1.74    0.10
   4  -3   1    1.53    0.11
   4  -3   1    1.60    0.14
   4  -3   1    1.63    0.12
  -5   3  -1    3.45    0.21
  -5   3  -1    2.83    0.18
  -5   3  -1    3.09    0.20
   5  -3   1    2.87    0.15
   5  -3   1    2.74    0.14
   5  -3   1    3.00    0.18
   5  -3   1    3.00    0.17
   5  -3   1    2.90    0.19
  -6   3  -1   -0.02    0.13
  -6   3  -1    0.13    0.10
  -6   3  -1    0.05    0.08
  -6   3  -1   -0.03    0.13
  -6   3  -1    0.10    0.11
   6  -3   1    0.11    0.08
   6  -3   1   -0.07    0.09
   6  -3   1    0.02    0.08
   6  -3   1    0.09    0.11
   6  -3   1    0.06    0.07
  -7   3  -1    1.00    0.19
  -7   3  -1    0.88    0.19
  -7   3  -1    1.06    0.19
  -7   3  -1    0.94    0.14
  -7   3  -1    0.97    0.16
   7  -3   1    0.81    0.14
   7  -3   1    0.63    0.15
   7  -3   1    0.84    0.13
   7  -3   1    1.00    0.13
   9   2  -1    0.08    0.10
   9   2  -1    0.05    0.11
   9   2  -1    0.01    0.10
  -9  -2   1    0.13    0.13
  -9  -2   1   -0.16    0.12
  -9  -2   1   -0.07    0.13
  -9  -2   1    0.10    0.16
  -9  -2   1    0.04    0.12
   8   2  -1    0.01    0.07
   8   2  -1    0.01    0.06
  -8  -2   1    0.05    0.09
  -8  -2   1    0.08    0.07
  -8  -2   1    0.17    0.09
  -8  -2   1   -0.09    0.09
  -8  -2   1    0.05    0.09
   7   2  -1    0.29    0.08
   7   2  -1    0.22    0.08
   7   2  -1    0.20    0.06
  -7  -2   1    0.17    0.06
  -7  -2   1    0.36    0.07
  -7  -2   1    0.28    0.07
  -7  -2   1    0.21    0.06
   6   2  -1    0.82    0.07
   6   2  -1    0.74    0.09
   6   2  -1    0.96    0.08
   6   2  -1    0.81    0.10
  -6  -2   1    0.71    0.08
  -6  -2   1    0.59    0.07
  -6  -2   1    0.76    0.08
  -6  -2   1    0.80    0.08
  -6  -2   1    0.72    0.08
   5   2  -1    0.30    0.06
   5   2  -1    0.26    0.03
   5   2  -1    0.27    0.04
  -5  -2   1    0.29    0.04
  -5  -2   1    0.20    0.03
  -5  -2   1    0.21    0.03
  -5  -2   1    0.17    0.04
  -5  -2   1    0.26    0.04
   4   2  -1    0.08    0.02
   4   2  -1    0.10    0.04
   4   2  -1    0.06    0.02
  -4  -2   1    0.07    0.02
  -4  -2   1    0.07    0.03
  -4  -2   1    0.07    0.02
  -4  -2   1    0.10    0.02
  -4  -2   1    0.06    0.02
   3   2  -1    0.91    0.04
   3   2  -1    1.00    0.06
   3   2  -1    1.00    0.04
  -3  -2   1    0.99    0.04
  -3  -2   1    0.99    0.04
  -3  -2   1    0.87    0.06
  -3  -2   1    1.01    0.03
  -3  -2   1    0.96    0.07
  -3  -2   1    1.01    0.03
   2   2  -1    6.69    0.17
   2   2  -1    6.85    0.20
   2   2  -1    6.52    0.19
   2   2  -1    7.09    0.20
   2   2  -1    6.77    0.17
  -2  -2   1    7.04    0.18
  -2  -2   1    6.49    0.18
  -2  -2   1    7.04    0.18
   1   2  -1    5.45    0.15
   1   2  -1    5.35    0.13
   1   2  -1    5.41    0.13
   1   2  -1    5.51    0.15
   1   2  -1    5.35    0.15
   1   2  -1    5.27    0.15
   1   2  -1    5.29    0.16
  -1  -2   1    5.38    0.14
  -1  -2   1    5.16    0.16
  -1  -2   1    5.35    0.15
  -1  -2   1    5.38    0.15
  -1  -2   1    5.37    0.14
  -1  -2   1    5.39    0.14
   0   2  -1   14.19    0.33
   0   2  -1   12.97    0.35
   0   2  -1   13.85    0.35
   0   2  -1   12.73    0.32
   0   2  -1   13.70    0.35
   0  -2   1   12.86    0.33
   0  -2   1   13.44    0.35
   0  -2   1   13.05    0.33
   0  -2   1   13.84    0.35
   0  -2   1   12.83    0.35
  -1   2  -1    1.12    0.06
  -1   2  -1    1.27    0.07
   1  -2   1    1.30    0.04
   1  -2   1    1.29    0.05
   1  -2   1    1.30    0.07
   1  -2   1    1.19    0.06
   1  -2   1    1.19    0.06
   1  -2   1    1.15    0.06
  -2   2  -1    8.60    0.24
  -2   2  -1    8.63    0.22
  -2   2  -1    8.11    0.25
  -2   2  -1    8.40    0.25
  -2   2  -1    8.56    0.23
   2  -2   1    8.29    0.25
   2  -2   1    8.50    0.26
   2  -2   1    8.49    0.23
   2  -2   1    8.76    0.23
   2  -2   1    8.25    0.23
  -3   2  -1    3.40    0.14
  -3   2  -1    3.25    0.13
  -3   2  -1    3.22    0.13
  -3   2  -1    3.32    0.15
   3  -2   1    3.25    0.13
   3  -2   1    3.09    0.14
   3  -2   1    3.35    0.14
   3  -2   1    3.23    0.12
   3  -2   1    3.44    0.12
  -4   2  -1    1.84    0.12
  -4   2  -1    1.86    0.12
  -4   2  -1    1.67    0.11
  -4   2  -1    1.71    0.10
   4  -2   1    1.80    0.12
   4  -2   1    1.61    0.12
   4  -2   1    1.60    0.10
   4  -2   1    1.60    0.09
   4  -2   1    1.71    0.10
  -5   2  -1    0.47    0.07
  -5   2  -1    0.88    0.11
  -5   2  -1    0.64    0.09
  -5   2  -1    0.69    0.09
   5  -2   1    0.64    0.07
   5  -2   1    0.62    0.08
   5  -2   1    0.75    0.08
   5  -2   1    0.59    0.09
  -6   2  -1   -0.10    0.08
  -6   2  -1    0.08    0.08
  -6   2  -1    0.15    0.10
  -6   2  -1    0.01    0.07
  -6   2  -1   -0.05    0.09
   6  -2   1   -0.02    0.07
   6  -2   1   -0.03    0.09
   6  -2   1    0.11    0.06
   6  -2   1    0.07    0.07
   6  -2   1    0.06    0.07
  -7   2  -1    0.14    0.12
  -7   2  -1   -0.28    0.12
  -7   2  -1   -0.12    0.10
  -7   2  -1    0.03    0.12
  -7   2  -1   -0.03    0.14
   7  -2   1    0.03    0.08
   7  -2   1    0.14    0.09
   7  -2   1    0.06    0.12
   7  -2   1   -0.06    0.11
   8   1  -1    0.36    0.11
   8   1  -1    0.11    0.09
  -8  -1   1    0.21    0.11
  -8  -1   1    0.39    0.12
  -8  -1   1    0.34    0.11
  -8  -1   1    0.23    0.10
  -8  -1   1    0.41    0.11
   7   1  -1    0.95    0.06
   7   1  -1    1.02    0.12
   7   1  -1    1.04    0.12
   7   1  -1    1.06    0.06
  -7  -1   1    1.01    0.11
  -7  -1   1    0.99    0.11
  -7  -1   1    1.09    0.12
  -7  -1   1    1.20    0.12
   6   1  -1    5.57    0.16
   6   1  -1    5.56    0.22
   6   1  -1    5.69    0.16
   6   1  -1    5.75    0.24
   6   1  -1    5.80    0.21
  -6  -1   1    5.90    0.22
  -6  -1   1    5.79    0.20
  -6  -1   1    5.86    0.21
  -6  -1   1    5.48    0.20
   5   1  -1    0.46    0.04
   5   1  -1    0.53    0.07
   5   1  -1    0.50    0.06
   5   1  -1    0.47    0.05
   5   1  -1    0.44    0.04
   5   1  -1    0.50    0.07
  -5  -1   1    0.42    0.06
  -5  -1   1    0.50    0.05
  -5  -1   1    0.56    0.06
  -5  -1   1    0.48    0.05
  -5  -1   1    0.50    0.06
   4   1  -1   61.43    1.46
   4   1  -1   59.56    1.36
   4   1  -1   58.67    1.48
   4   1  -1   58.41    1.36
   4   1  -1   58.44    1.79
   4   1  -1   59.12    1.46
  -4  -1   1   59.49    1.40
  -4  -1   1   58.43    1.38
  -4  -1   1   58.31    1.47
  -4  -1   1   59.29    1.47
  -4  -1   1   60.12    1.38
   3   1  -1    0.59    0.04
   3   1  -1    0.65    0.03
   3   1  -1    0.59    0.05
   3   1  -1    0.58    0.04
   3   1  -1    0.60    0.03
   3   1  -1    0.62    0.05
  -3  -1   1    0.58    0.03
  -3  -1   1    0.58    0.04
  -3  -1   1    0.66    0.04
  -3  -1   1    0.57    0.04
  -3  -1   1    0.51    0.05
   2   1  -1  197.86    4.93
   2   1  -1  199.89    4.61
   2   1  -1  201.47    4.94
   2   1  -1  194.88    4.73
   2   1  -1  194.96    4.92
  -2  -1   1  193.83    4.93
  -2  -1   1  203.98    4.65
  -2  -1   1  210.82    4.65
  -2  -1   1  209.68    4.95
  -2  -1   1  202.75    4.73
  -2  -1   1  204.38    6.02
  -2  -1   1  208.34    5.01
   1   1  -1    0.70    0.03
   1   1  -1    0.75    0.03
   1   1  -1    0.68    0.02
   1   1  -1    0.68    0.03
   1   1  -1    0.72    0.03
  -1  -1   1    0.65    0.03
  -1  -1   1    0.71    0.03
  -1  -1   1    0.69    0.03
  -1  -1   1    0.75    0.02
  -1  -1   1    0.68    0.03
  -1  -1   1    0.71    0.02
   0   1  -1   76.14    1.77
   0   1  -1   74.51    1.87
   0   1  -1   71.74    1.87
   0   1  -1   77.03    1.75
   0  -1   1   78.38    1.88
   0  -1   1   74.20    1.87
   0  -1   1   79.25    1.76
   0  -1   1   75.13    1.88
   0  -1   1   77.12    1.77
  -1   1  -1    8.91    0.22
  -1   1  -1    8.03    0.21
  -1   1  -1    8.35    0.23
  -1   1  -1    8.00    0.23
   1  -1   1    9.18    0.22
   1  -1   1    8.98    0.21
   1  -1   1    8.46    0.21
   1  -1   1    8.17    0.22
   1  -1   1    8.29    0.23
  -2   1  -1    0.11    0.02
  -2   1  -1    0.08    0.02
  -2   1  -1    0.07    0.02
  -2   1  -1    0.08    0.02
   2  -1   1    0.06    0.02
   2  -1   1    0.11    0.02
   2  -1   1    0.11    0.03
   2  -1   1    0.09    0.02
   2  -1   1    0.10    0.03
  -3   1  -1    5.34    0.16
  -3   1  -1    5.45    0.18
  -3   1  -1    5.32    0.17
  -3   1  -1    5.41    0.18
   3  -1   1    5.41    0.16
   3  -1   1    5.26    0.18
   3  -1   1    5.28    0.16
   3  -1   1    5.60    0.17
   3  -1   1    5.49    0.18
  -4   1  -1    0.85    0.08
  -4   1  -1    0.94    0.07
  -4   1  -1    0.82    0.08
  -4   1  -1    0.94    0.09
   4  -1   1    0.73    0.06
   4  -1   1    0.76    0.07
   4  -1   1    0.82    0.08
   4  -1   1    0.88    0.09
   4  -1   1    0.76    0.07
  -5   1  -1    0.07    0.06
  -5   1  -1    0.09    0.05
  -5   1  -1    0.11    0.06
  -5   1  -1    0.13    0.06
   5  -1   1    0.22    0.05
   5  -1   1    0.13    0.06
   5  -1   1    0.16    0.06
   5  -1   1    0.11    0.04
   5  -1   1    0.11    0.05
  -6   1  -1    0.24    0.07
  -6   1  -1    0.32    0.09
  -6   1  -1    0.46    0.09
  -6   1  -1    0.25    0.09
   6  -1   1    0.33    0.08
   6  -1   1    0.29    0.06
   6  -1   1    0.37    0.07
   6  -1   1    0.28    0.07
   6  -1   1    0.40    0.08
  -7   1  -1    0.11    0.11
  -7   1  -1    0.15    0.11
  -7   1  -1   -0.12    0.10
  -7   1  -1   -0.02    0.09
  -7   1  -1    0.03    0.09
   7  -1   1    0.02    0.07
   7  -1   1   -0.08    0.08
   7  -1   1   -0.12    0.09
   7  -1   1    0.01    0.07
  -8   1  -1    0.20    0.16
  -8   1  -1    0.17    0.14
  -8   1  -1   -0.05    0.14
  -8   1  -1    0.08    0.13
  -8   1  -1   -0.18    0.16
   8  -1   1    0.03    0.14
   8  -1   1    0.09    0.10
   8  -1   1    0.10    0.09
   8  -1   1    0.17    0.10
   8   0  -1    0.28    0.07
   8   0  -1    0.26    0.11
   8   0  -1    0.29    0.10
   8   0  -1   -0.05    0.11
   8   0  -1    0.06    0.06
  -8   0   1    0.32    0.13
  -8   0   1    0.27    0.12
  -8   0   1    0.28    0.12
  -8   0   1    0.38    0.12
  -8   0   1    0.26    0.12
   7   0  -1    0.68    0.11
   7   0  -1    0.71    0.11
   7   0  -1    0.64    0.11
   7   0  -1    0.67    0.07
   7   0  -1    0.62    0.07
  -7   0   1    0.67    0.10
  -7   0   1    0.60    0.10
  -7   0   1    0.78    0.10
  -7   0   1    0.70    0.11
   6   0  -1    4.56    0.20
   6   0  -1    4.44    0.16
   6   0  -1    4.67    0.20
   6   0  -1    4.38    0.15
  -6   0   1    4.94    0.19
  -6   0   1    4.54    0.19
  -6   0   1    4.51    0.18
  -6   0   1    4.35    0.20
  -6   0   1    4.40    0.20
   5   0  -1    1.58    0.08
   5   0  -1    1.59    0.10
   5   0  -1    1.62    0.08
   5   0  -1    1.62    0.11
   5   0  -1    1.79    0.10
  -5   0   1    1.66    0.10
  -5   0   1    1.61    0.10
  -5   0   1    1.69    0.11
  -5   0   1    1.49    0.11
  -5   0   1    1.60    0.10
   4   0  -1   28.00    0.75
   4   0  -1   28.91    0.76
   4   0  -1   29.75    0.70
   4   0  -1   29.16    0.70
   4   0  -1   30.51    0.76
  -4   0   1   28.23    0.71
  -4   0   1   28.79    0.76
  -4   0   1   30.40    0.76
  -4   0   1   30.11    0.72
  -4   0   1   29.02    0.71
   3   0  -1    0.11    0.03
   3   0  -1    0.13    0.03
   3   0  -1    0.10    0.02
   3   0  -1    0.11    0.02
   3   0  -1    0.10    0.02
  -3   0   1    0.20    0.03
  -3   0   1    0.14    0.03
  -3   0   1    0.09    0.02
  -3   0   1    0.08    0.02
  -3   0   1    0.08    0.02
   2   0  -1   75.96    1.79
   2   0  -1   71.76    1.70
   2   0  -1   74.46    1.79
   2   0  -1   72.74    1.70
  -2   0   1   73.71    1.70
  -2   0   1   70.09    1.69
  -2   0   1   73.75    1.71
  -2   0   1   72.57    1.79
  -2   0   1   73.70    1.79
   1   0  -1   41.60    0.96
   1   0  -1   40.39    0.95
   1   0  -1   40.91    1.01
   1   0  -1   40.00    0.96
  -1   0   1   43.14    0.96
  -1   0   1   42.33    0.96
  -1   0   1   40.04    1.02
  -1   0   1   42.87    1.02
  -1   0   1   42.65    0.96
  -1   0  -1  109.69    2.91
  -1   0  -1  121.85    2.77
  -1   0  -1  118.47    2.73
  -1   0  -1  119.39    2.87
  -1   0  -1  120.07    2.94
   1   0   1  118.28    2.75
   1   0   1  116.09    2.91
   1   0   1  111.14    2.91
   1   0   1  122.91    2.88
   1   0   1  124.85    2.76
  -2   0  -1   70.67    1.77
  -2   0  -1   73.71    1.67
  -2   0  -1   70.37    1.67
  -2   0  -1   73.50    1.77
   2   0   1   72.15    1.77
   2   0   1   71.80    1.67
   2   0   1   75.71    1.77
   2   0   1   72.37    1.79
   2   0   1   69.82    1.77
   2   0   1   73.32    1.67
  -3   0  -1   19.72    0.50
  -3   0  -1   18.66    0.50
  -3   0  -1   18.60    0.47
  -3   0  -1   18.72    0.46
   3   0   1   19.30    0.49
   3   0   1   18.16    0.50
   3   0   1   19.28    0.46
   3   0   1   18.19    0.49
   3   0   1   19.65    0.46
  -4   0  -1   10.60    0.32
  -4   0  -1   11.02    0.32
  -4   0  -1   10.58    0.29
  -4   0  -1   10.76    0.30
   4   0   1   11.24    0.32
   4   0   1   11.12    0.28
   4   0   1   11.48    0.32
   4   0   1   10.76    0.29
   4   0   1   10.77    0.32
  -5   0  -1    0.34    0.05
  -5   0  -1    0.21    0.05
  -5   0  -1    0.38    0.06
  -5   0  -1    0.25    0.05
   5   0   1    0.28    0.06
   5   0   1    0.25    0.04
   5   0   1    0.27    0.05
   5   0   1    0.30    0.05
   5   0   1    0.34    0.06
  -6   0  -1    1.07    0.11
  -6   0  -1    1.19    0.11
  -6   0  -1    1.11    0.13
  -6   0  -1    1.25    0.13
  -6   0  -1    1.23    0.13
   6   0   1    1.10    0.12
   6   0   1    0.94    0.09
   6   0   1    1.11    0.11
   6   0   1    1.35    0.09
  -7   0  -1    0.03    0.08
  -7   0  -1    0.03    0.09
  -7   0  -1   -0.05    0.08
  -7   0  -1    0.06    0.08
  -7   0  -1    0.06    0.09
   7   0   1    0.04    0.05
   7   0   1   -0.04    0.08
   7   0   1   -0.02    0.07
   7   0   1    0.07    0.06
   7   0   1    0.03    0.05
  -8   0  -1    0.25    0.13
  -8   0  -1    0.26    0.13
  -8   0  -1    0.25    0.14
  -8   0  -1    0.27    0.13
  -8   0  -1    0.28    0.11
   8   0   1    0.21    0.10
   8   0   1    0.19    0.07
   8   0   1   -0.05    0.12
   8   0   1    0.31    0.12
   8   0   1    0.23    0.10
   8   0   1   -0.02    0.07
   8  -1  -1    0.10    0.10
   8  -1  -1    0.03    0.13
   8  -1  -1   -0.07    0.11
   8  -1  -1    0.01    0.09
  -8   1   1    0.09    0.13
  -8   1   1    0.02    0.15
  -8   1   1    0.47    0.16
  -8   1   1    0.08    0.13
  -8   1   1    0.06    0.15
   7  -1  -1    0.60    0.10
   7  -1  -1    0.62    0.11
   7  -1  -1    0.66    0.08
   7  -1  -1    0.72    0.08
   7  -1  -1    0.28    0.11
  -7   1   1    0.81    0.12
  -7   1   1    0.76    0.12
  -7   1   1    0.68    0.11
  -7   1   1    0.34    0.09
  -7   1   1    0.71    0.12
   6  -1  -1    0.43    0.07
   6  -1  -1    0.48    0.06
   6  -1  -1    0.59    0.07
   6  -1  -1    0.50    0.09
   6  -1  -1    0.47    0.09
  -6   1   1    0.47    0.08
  -6   1   1    0.50    0.08
  -6   1   1    0.47    0.07
  -6   1   1    0.63    0.10
  -6   1   1    0.43    0.09
   5  -1  -1    2.77    0.14
   5  -1  -1    2.77    0.14
   5  -1  -1    2.57    0.12
   5  -1  -1    2.68    0.14
   5  -1  -1    2.81    0.12
  -5   1   1    2.66    0.13
  -5   1   1    2.75    0.15
  -5   1   1    2.71    0.15
  -5   1   1    2.74    0.13
  -5   1   1    2.81    0.13
   4  -1  -1    1.55    0.09
   4  -1  -1    1.57    0.09
   4  -1  -1    1.35    0.08
   4  -1  -1    1.59    0.09
   4  -1  -1    1.66    0.08
  -4   1   1    1.64    0.10
  -4   1   1    1.61    0.10
  -4   1   1    1.46    0.09
  -4   1   1    1.64    0.09
  -4   1   1    1.55    0.09
   3  -1  -1    1.80    0.09
   3  -1  -1    1.73    0.09
   3  -1  -1    1.80    0.08
   3  -1  -1    1.68    0.08
   3  -1  -1    1.76    0.08
  -3   1   1    1.75    0.09
  -3   1   1    1.73    0.09
  -3   1   1    1.69    0.08
  -3   1   1    1.79    0.08
  -3   1   1    1.76    0.08
   2  -1  -1    0.09    0.02
   2  -1  -1    0.05    0.02
   2  -1  -1    0.09    0.02
   2  -1  -1    0.05    0.02
  -2   1   1    0.05    0.02
  -2   1   1    0.05    0.02
  -2   1   1    0.10    0.02
  -2   1   1    0.04    0.02
  -2   1   1    0.03    0.02
   1  -1  -1    0.21    0.02
   1  -1  -1    0.25    0.02
   1  -1  -1    0.18    0.02
   1  -1  -1    0.22    0.03
   1  -1  -1    0.16    0.02
  -1   1   1    0.15    0.02
  -1   1   1    0.13    0.02
  -1   1   1    0.15    0.02
  -1   1   1    0.19    0.02
   0  -1  -1  116.17    2.71
   0  -1  -1  126.69    2.71
   0  -1  -1  114.50    2.86
   0   1   1  105.22    2.86
   0   1   1  111.17    2.85
   0   1   1  124.04    2.70
  -1  -1  -1    0.16    0.02
  -1  -1  -1    0.11    0.01
  -1  -1  -1    0.09    0.01
  -1  -1  -1    0.14    0.01
   1   1   1    0.11    0.02
   1   1   1    0.12    0.02
   1   1   1    0.11    0.01
   1   1   1    0.11    0.01
   1   1   1    0.12    0.01
  -2  -1  -1  405.96   10.28
  -2  -1  -1  441.32    9.71
  -2  -1  -1  446.48   10.44
  -2  -1  -1  411.47    9.68
  -2  -1  -1  403.97   10.29
   2   1   1  413.31   10.32
   2   1   1  445.64    9.68
   2   1   1  403.10   12.64
   2   1   1  427.97   10.44
   2   1   1  426.43   10.30
  -3  -1  -1    2.04    0.07
  -3  -1  -1    1.85    0.08
  -3  -1  -1    2.05    0.07
  -3  -1  -1    2.03    0.08
  -3  -1  -1    1.92    0.07
   3   1   1    1.92    0.09
   3   1   1    1.94    0.08
   3   1   1    2.09    0.07
   3   1   1    1.99    0.06
   3   1   1    2.02    0.06
  -4  -1  -1  281.10    6.91
  -4  -1  -1  280.41    6.88
  -4  -1  -1  283.92    6.54
  -4  -1  -1  279.92    6.49
   4   1   1  280.34    6.92
   4   1   1  286.09    6.48
   4   1   1  275.61    6.89
   4   1   1  281.48    6.47
  -5  -1  -1    1.73    0.10
  -5  -1  -1    1.81    0.10
  -5  -1  -1    1.75    0.09
   5   1   1    1.78    0.10
   5   1   1    1.75    0.07
   5   1   1    1.79    0.08
  -6  -1  -1   82.49    1.94
  -6  -1  -1   82.23    1.96
  -6  -1  -1   81.68    1.93
  -6  -1  -1   83.77    2.05
   6   1   1   79.38    1.90
   6   1   1   84.29    2.51
   6   1   1   82.88    1.90
   6   1   1   79.87    2.06
  -7  -1  -1    0.08    0.07
  -7  -1  -1    0.12    0.07
  -7  -1  -1    0.12    0.08
   7   1   1    0.09    0.08
   7   1   1    0.20    0.08
   7   1   1    0.16    0.04
   7   1   1    0.13    0.04
  -8  -1  -1   16.55    0.51
  -8  -1  -1   15.78    0.48
  -8  -1  -1   16.62    0.50
  -8  -1  -1   14.77    0.50
  -8  -1  -1   16.07    0.51
   8   1   1   15.77    0.60
   8   1   1   15.34    0.48
   8   1   1   15.95    0.51
   7  -2  -1    0.47    0.09
   7  -2  -1    0.23    0.11
   7  -2  -1    0.44    0.10
   7  -2  -1   -0.08    0.12
  -7   2   1    0.36    0.13
  -7   2   1    0.48    0.13
  -7   2   1    0.33    0.10
  -7   2   1    0.44    0.12
  -7   2   1    0.20    0.11
   6  -2  -1    0.90    0.12
   6  -2  -1    0.75    0.10
   6  -2  -1    0.91    0.11
   6  -2  -1    0.67    0.09
  -6   2   1    0.79    0.11
  -6   2   1    0.58    0.09
  -6   2   1    0.92    0.13
  -6   2   1    0.75    0.10
  -6   2   1    0.57    0.11
   5  -2  -1    1.52    0.11
   5  -2  -1    1.54    0.11
   5  -2  -1    1.53    0.11
   5  -2  -1    1.62    0.14
   5  -2  -1    1.49    0.12
  -5   2   1    1.75    0.14
  -5   2   1    1.59    0.11
  -5   2   1    1.73    0.14
  -5   2   1    1.57    0.14
  -5   2   1    1.50    0.13
  -5   2   1    1.42    0.08
   4  -2  -1    0.27    0.05
   4  -2  -1    0.32    0.06
   4  -2  -1    0.26    0.04
   4  -2  -1    0.23    0.05
   4  -2  -1    0.27    0.04
  -4   2   1    0.22    0.05
  -4   2   1    0.40    0.05
  -4   2   1    0.29    0.04
  -4   2   1    0.34    0.07
  -4   2   1    0.38    0.07
   3  -2  -1    1.15    0.07
   3  -2  -1    1.10    0.08
   3  -2  -1    1.19    0.07
   3  -2  -1    1.18    0.08
   3  -2  -1    1.04    0.07
  -3   2   1    1.21    0.08
  -3   2   1    1.08    0.06
  -3   2   1    1.19    0.08
  -3   2   1    1.13    0.09
  -3   2   1    1.07    0.07
   2  -2  -1    0.21    0.03
   2  -2  -1    0.12    0.02
   2  -2  -1    0.17    0.03
   2  -2  -1    0.14    0.03
  -2   2   1    0.18    0.03
  -2   2   1    0.17    0.02
  -2   2   1    0.16    0.03
  -2   2   1    0.12    0.02
  -2   2   1    0.21    0.04
   1  -2  -1    5.77    0.17
   1  -2  -1    5.77    0.16
   1  -2  -1    5.64    0.17
  -1   2   1    5.67    0.17
  -1   2   1    5.54    0.16
  -1   2   1    5.72    0.16
  -1   2   1    5.70    0.14
  -1   2   1    5.45    0.17
   0  -2  -1    0.37    0.03
   0  -2  -1    0.30    0.02
   0  -2  -1    0.36    0.03
   0  -2  -1    0.34    0.02
   0   2   1    0.30    0.02
   0   2   1    0.32    0.03
   0   2   1    0.30    0.03
   0   2   1    0.31    0.02
  -1  -2  -1  123.50    2.91
  -1  -2  -1  136.44    2.91
  -1  -2  -1  127.19    3.09
  -1  -2  -1  128.22    3.09
   1   2   1  124.19    3.09
   1   2   1  131.32    2.89
   1   2   1  119.18    2.89
   1   2   1  121.42    3.15
   1   2   1  122.82    3.10
  -2  -2  -1    2.27    0.10
  -2  -2  -1    2.32    0.08
  -2  -2  -1    2.35    0.06
  -2  -2  -1    2.37    0.07
  -2  -2  -1    2.44    0.07
   2   2   1    2.23    0.07
   2   2   1    2.37    0.08
   2   2   1    2.44    0.08
   2   2   1    2.34    0.07
  -3  -2  -1  119.08    2.87
  -3  -2  -1  114.56    2.69
  -3  -2  -1  117.27    2.86
  -3  -2  -1  120.54    2.71
   3   2   1  118.01    2.89
   3   2   1  114.70    2.86
   3   2   1  117.02    2.87
   3   2   1  114.54    3.50
  -4  -2  -1   10.15    0.28
  -4  -2  -1   10.28    0.26
  -4  -2  -1   10.11    0.25
  -4  -2  -1   10.52    0.28
   4   2   1   10.01    0.27
   4   2   1    9.81    0.35
   4   2   1   10.03    0.30
   4   2   1   10.25    0.28
   4   2   1    9.89    0.28
  -5  -2  -1   15.53    0.42
  -5  -2  -1   15.50    0.39
  -5  -2  -1   15.29    0.39
  -5  -2  -1   15.30    0.41
   5   2   1   15.29    0.52
   5   2   1   15.66    0.41
   5   2   1   14.83    0.44
  -6  -2  -1    3.68    0.17
  -6  -2  -1    3.66    0.15
  -6  -2  -1    3.42    0.13
  -6  -2  -1    3.65    0.15
  -6  -2  -1    3.61    0.15
   6   2   1    3.20    0.18
   6   2   1    3.55    0.14
   6   2   1    3.48    0.16
   6   2   1    3.66    0.14
  -7  -2  -1    0.65    0.08
  -7  -2  -1    0.59    0.08
  -7  -2  -1    0.61    0.08
  -7  -2  -1    0.76    0.09
   7   2   1    0.68    0.11
   7   2   1    0.67    0.08
   7   2   1    0.57    0.09
  -8  -2  -1    1.78    0.15
  -8  -2  -1    1.51    0.16
  -8  -2  -1    1.73    0.17
  -8  -2  -1    1.63    0.16
  -8  -2  -1    1.66    0.18
   8   2   1    1.70    0.14
   8   2   1    1.66    0.15
   8   2   1    1.45    0.17
  -9  -2  -1    0.04    0.12
  -9  -2  -1    0.07    0.14
  -9  -2  -1    0.00    0.12
  -9  -2  -1    0.03    0.15
  -9  -2  -1    0.04    0.14
   9   2   1    0.11    0.11
   9   2   1    0.04    0.11
   7  -3  -1    0.01    0.11
   7  -3  -1   -0.15    0.13
   7  -3  -1   -0.01    0.10
   7  -3  -1   -0.03    0.15
   7  -3  -1    0.02    0.09
  -7   3   1    0.05    0.17
  -7   3   1    0.06    0.13
  -7   3   1    0.25    0.15
  -7   3   1    0.28    0.16
  -7   3   1   -0.06    0.10
   6  -3  -1    0.59    0.11
   6  -3  -1    0.38    0.08
   6  -3  -1    0.49    0.10
   6  -3  -1    0.38    0.12
  -6   3   1    0.48    0.09
  -6   3   1    0.50    0.12
  -6   3   1    0.62    0.14
  -6   3   1    0.61    0.13
  -6   3   1    0.35    0.10
   5  -3  -1    0.19    0.07
   5  -3  -1    0.24    0.07
   5  -3  -1    0.16    0.06
   5  -3  -1    0.09    0.08
  -5   3   1   -0.02    0.08
  -5   3   1    0.21    0.09
  -5   3   1    0.18    0.07
  -5   3   1    0.08    0.07
  -5   3   1    0.13    0.05
   4  -3  -1    0.41    0.06
   4  -3  -1    0.48    0.07
   4  -3  -1    0.34    0.06
   4  -3  -1    0.27    0.06
   4  -3  -1    0.38    0.07
  -4   3   1    0.36    0.06
  -4   3   1    0.43    0.08
  -4   3   1    0.41    0.07
  -4   3   1    0.38    0.08
  -4   3   1    0.27    0.05
   3  -3  -1    2.60    0.12
   3  -3  -1    2.51    0.12
   3  -3  -1    2.68    0.13
   3  -3  -1    2.36    0.11
   3  -3  -1    2.68    0.11
  -3   3   1    2.48    0.13
  -3   3   1    2.46    0.10
  -3   3   1    2.51    0.14
  -3   3   1    2.55    0.12
  -3   3   1    2.67    0.12
   2  -3  -1   -0.04    0.02
   2  -3  -1    0.06    0.03
   2  -3  -1    0.00    0.03
   2  -3  -1    0.01    0.03
  -2   3   1    0.00    0.03
  -2   3   1    0.00    0.03
  -2   3   1    0.02    0.03
  -2   3   1    0.02    0.02
  -2   3   1   -0.01    0.02
   1  -3  -1    1.74    0.08
   1  -3  -1    1.70    0.08
   1  -3  -1    1.86    0.08
   1  -3  -1    1.78    0.08
  -1   3   1    1.69    0.08
  -1   3   1    1.72    0.08
  -1   3   1    1.79    0.09
  -1   3   1    1.80    0.05
  -1   3   1    1.71    0.07
   0  -3  -1    4.37    0.14
   0  -3  -1    4.22    0.13
   0  -3  -1    4.32    0.14
   0  -3  -1    4.42    0.13
   0   3   1    4.31    0.14
   0   3   1    4.21    0.14
   0   3   1    4.29    0.13
   0   3   1    4.26    0.12
   0   3   1    4.30    0.12
  -1  -3  -1    0.14    0.02
  -1  -3  -1    0.18    0.02
  -1  -3  -1    0.21    0.02
  -1  -3  -1    0.19    0.02
   1   3   1    0.21    0.02
   1   3   1    0.19    0.02
   1   3   1    0.25    0.03
   1   3   1    0.24    0.03
  -2  -3  -1    5.57    0.13
  -2  -3  -1    5.74    0.13
  -2  -3  -1    5.57    0.15
  -2  -3  -1    5.62    0.15
   2   3   1    5.66    0.16
   2   3   1    5.56    0.15
   2   3   1    5.57    0.17
   2   3   1    5.46    0.15
  -3  -3  -1    0.12    0.01
  -3  -3  -1    0.11    0.01
   3   3   1    0.12    0.01
   3   3   1    0.11    0.01
   3   3   1    0.11    0.03
   3   3   1    0.09    0.03
  -4  -3  -1    0.19    0.02
  -4  -3  -1    0.14    0.02
  -4  -3  -1    0.15    0.02
   4   3   1    0.13    0.04
   4   3   1    0.14    0.03
   4   3   1    0.16    0.02
  -5  -3  -1    0.17    0.03
  -5  -3  -1    0.21    0.03
  -5  -3  -1    0.19    0.03
  -5  -3  -1    0.16    0.03
   5   3   1    0.10    0.04
   5   3   1    0.25    0.04
   5   3   1    0.20    0.03
   5   3   1    0.21    0.03
  -6  -3  -1    0.98    0.10
  -6  -3  -1    0.74    0.07
  -6  -3  -1    0.77    0.07
  -6  -3  -1    0.80    0.07
  -6  -3  -1    0.68    0.06
   6   3   1    0.66    0.09
   6   3   1    0.72    0.06
   6   3   1    0.78    0.06
  -7  -3  -1    0.08    0.06
  -7  -3  -1    0.02    0.05
  -7  -3  -1    0.07    0.05
  -7  -3  -1    0.11    0.05
   7   3   1    0.01    0.06
   7   3   1    0.07    0.04
  -8  -3  -1    0.15    0.08
  -8  -3  -1    0.17    0.10
  -8  -3  -1    0.08    0.08
  -8  -3  -1    0.25    0.09
  -8  -3  -1    0.07    0.07
   8   3   1    0.16    0.06
   8   3   1    0.26    0.09
   8   3   1   -0.02    0.06
  -9  -3  -1    0.08    0.11
  -9  -3  -1    0.21    0.13
  -9  -3  -1    0.02    0.11
  -9  -3  -1   -0.17    0.10
  -9  -3  -1   -0.18    0.14
   9   3   1    0.20    0.09
   9   3   1    0.01    0.08
   9   3   1    0.05    0.10
   6  -4  -1   -0.17    0.09
   6  -4  -1    0.02    0.14
   6  -4  -1   -0.05    0.10
   6  -4  -1   -0.03    0.08
   6  -4  -1   -0.09    0.08
  -6   4   1    0.13    0.14
  -6   4   1    0.11    0.08
  -6   4   1    0.04    0.13
  -6   4   1   -0.02    0.12
  -6   4   1    0.14    0.14
   5  -4  -1    3.26    0.22
   5  -4  -1    3.58    0.18
   5  -4  -1    3.15    0.16
   5  -4  -1    2.65    0.19
  -5   4   1    3.26    0.21
  -5   4   1    3.02    0.24
  -5   4   1    3.09    0.22
  -5   4   1    2.85    0.15
   4  -4  -1    0.19    0.05
   4  -4  -1    0.24    0.08
   4  -4  -1    0.25    0.06
   4  -4  -1    0.16    0.06
   4  -4  -1    0.28    0.07
  -4   4   1    0.31    0.04
  -4   4   1    0.28    0.10
  -4   4   1    0.23    0.08
  -4   4   1    0.24    0.05
  -4   4   1    0.18    0.08
   3  -4  -1   14.39    0.44
   3  -4  -1   15.02    0.40
   3  -4  -1   14.23    0.41
   3  -4  -1   15.39    0.44
   3  -4  -1   14.59    0.41
  -3   4   1   14.37    0.44
  -3   4   1   14.45    0.37
  -3   4   1   15.02    0.41
  -3   4   1   15.43    0.45
  -3   4   1   14.84    0.41
  -3   4   1   14.38    0.39
   2  -4  -1   19.02    0.53
   2  -4  -1   18.19    0.50
   2  -4  -1   19.48    0.54
   2  -4  -1   18.92    0.50
  -2   4   1   19.31    0.51
  -2   4   1   19.83    0.50
  -2   4   1   19.84    0.54
  -2   4   1   19.23    0.46
  -2   4   1   19.46    0.50
  -2   4   1   19.90    0.54
   1  -4  -1   41.07    1.06
   1  -4  -1   41.70    1.06
   1  -4  -1   40.78    1.00
   1  -4  -1   43.15    1.00
  -1   4   1   41.79    1.00
  -1   4   1   43.00    1.00
  -1   4   1   41.03    1.07
  -1   4   1   41.02    1.07
  -1   4   1   43.21    1.06
   0  -4  -1  101.99    2.50
   0  -4  -1  100.19    2.36
   0  -4  -1  101.07    2.50
   0  -4  -1  102.28    2.36
   0   4   1  106.57    2.51
   0   4   1  105.31    2.54
   0   4   1  101.19    2.35
   0   4   1   97.53    2.50
   0   4   1  101.52    2.35
  -1  -4  -1   41.39    0.96
  -1  -4  -1   40.52    1.02
  -1  -4  -1   41.15    0.96
  -1  -4  -1   40.64    0.94
  -1  -4  -1   41.51    1.02
   1   4   1   42.08    1.04
   1   4   1   39.38    1.02
   1   4   1   40.37    0.95
   1   4   1   40.94    0.95
  -2  -4  -1   90.41    2.02
  -2  -4  -1   87.67    2.15
  -2  -4  -1   84.46    2.03
  -2  -4  -1   87.90    2.02
  -2  -4  -1   87.70    2.14
   2   4   1   88.67    2.15
   2   4   1   89.94    2.20
   2   4   1   86.84    2.14
  -3  -4  -1    0.07    0.01
  -3  -4  -1    0.07    0.01
  -3  -4  -1    0.09    0.03
   3   4   1    0.12    0.04
   3   4   1    0.07    0.03
  -4  -4  -1   29.71    0.73
   4   4   1   29.57    0.78
  -5  -4  -1    3.14    0.09
  -5  -4  -1    2.90    0.09
  -5  -4  -1    3.06    0.09
  -5  -4  -1    2.88    0.14
  -5  -4  -1    2.97    0.09
   5   4   1    3.00    0.14
   5   4   1    2.98    0.13
  -6  -4  -1    4.61    0.14
  -6  -4  -1    4.56    0.14
  -6  -4  -1    4.54    0.14
  -6  -4  -1    4.56    0.20
  -6  -4  -1    4.70    0.14
   6   4   1    4.67    0.13
   6   4   1    4.30    0.19
   6   4   1    4.44    0.13
   6   4   1    4.57    0.17
  -7  -4  -1    0.81    0.08
  -7  -4  -1    0.87    0.08
  -7  -4  -1    0.84    0.08
  -7  -4  -1    0.74    0.08
   7   4   1    0.72    0.06
   7   4   1    0.67    0.09
  -8  -4  -1    0.27    0.10
  -8  -4  -1    0.36    0.07
  -8  -4  -1    0.33    0.08
  -8  -4  -1    0.40    0.07
  -8  -4  -1    0.33    0.07
   8   4   1    0.24    0.05
   8   4   1    0.37    0.06
  -9  -4  -1    0.06    0.11
  -9  -4  -1    0.10    0.09
  -9  -4  -1    0.08    0.14
  -9  -4  -1    0.02    0.10
  -9  -4  -1    0.31    0.09
   9   4   1    0.08    0.06
   9   4   1   -0.01    0.08
   9   4   1   -0.01    0.06
   6  -5  -1    0.14    0.19
   6  -5  -1    0.44    0.15
   6  -5  -1   -0.07    0.13
   6  -5  -1    0.26    0.12
   6  -5  -1    0.30    0.12
  -6   5   1    0.18    0.16
  -6   5   1    0.34    0.20
  -6   5   1   -0.02    0.09
  -6   5   1    0.50    0.19
   5  -5  -1    0.11    0.11
   5  -5  -1    0.00    0.09
   5  -5  -1    0.03    0.08
   5  -5  -1    0.02    0.13
   5  -5  -1    0.02    0.09
  -5   5   1    0.11    0.12
  -5   5   1    0.21    0.13
  -5   5   1    0.09    0.06
  -5   5   1   -0.04    0.10
   4  -5  -1    0.26    0.08
   4  -5  -1    0.46    0.08
   4  -5  -1    0.30    0.09
   4  -5  -1    0.33    0.10
   4  -5  -1    0.43    0.08
  -4   5   1    0.33    0.09
  -4   5   1    0.42    0.06
  -4   5   1    0.40    0.11
  -4   5   1    0.43    0.13
  -4   5   1    0.50    0.06
  -4   5   1    0.25    0.11
   3  -5  -1    1.11    0.13
   3  -5  -1    1.22    0.12
   3  -5  -1    0.82    0.09
   3  -5  -1    1.19    0.09
  -3   5   1    1.03    0.11
  -3   5   1    1.11    0.07
  -3   5   1    1.27    0.13
  -3   5   1    1.20    0.14
  -3   5   1    1.12    0.08
  -3   5   1    1.05    0.12
   2  -5  -1    0.08    0.04
   2  -5  -1    0.14    0.05
   2  -5  -1    0.11    0.05
   2  -5  -1    0.11    0.06
  -2   5   1    0.10    0.04
  -2   5   1    0.10    0.02
  -2   5   1    0.14    0.06
  -2   5   1    0.11    0.05
  -2   5   1    0.05    0.06
  -2   5   1    0.10    0.04
   1  -5  -1    0.67    0.07
   1  -5  -1    0.75    0.07
   1  -5  -1    0.78    0.08
   1  -5  -1    0.77    0.08
  -1   5   1    0.79    0.07
  -1   5   1    0.74    0.08
  -1   5   1    0.71    0.06
  -1   5   1    0.70    0.08
  -1   5   1    0.77    0.08
   0  -5  -1    0.25    0.04
   0  -5  -1    0.18    0.04
   0  -5  -1    0.23    0.04
   0  -5  -1    0.12    0.03
   0   5   1    0.29    0.05
   0   5   1    0.18    0.03
   0   5   1    0.16    0.04
   0   5   1    0.25    0.04
   0   5   1    0.11    0.03
  -1  -5  -1   13.26    0.35
  -1  -5  -1   12.84    0.33
  -1  -5  -1   12.84    0.33
   1   5   1   13.23    0.37
   1   5   1   12.75    0.35
   1   5   1   12.59    0.32
   1   5   1   12.70    0.32
  -2  -5  -1    7.74    0.20
  -2  -5  -1    7.63    0.21
  -2  -5  -1    7.63    0.21
  -2  -5  -1    7.47    0.20
  -2  -5  -1    7.57    0.20
   2   5   1    7.82    0.21
   2   5   1    7.43    0.21
   2   5   1    7.24    0.24
  -3  -5  -1   45.58    1.10
  -3  -5  -1   45.02    1.04
  -3  -5  -1   44.77    1.04
  -3  -5  -1   44.08    1.07
  -3  -5  -1   45.49    1.10
   3   5   1   44.56    1.16
   3   5   1   45.90    1.10
   3   5   1   45.39    1.10
  -4  -5  -1    7.11    0.22
   4   5   1    7.22    0.23
   4   5   1    7.19    0.24
  -5  -5  -1   23.50    0.60
   5   5   1   22.35    0.63
   5   5   1   23.88    0.64
  -6  -5  -1    0.26    0.07
  -6  -5  -1    0.47    0.05
  -6  -5  -1    0.37    0.04
   6   5   1    0.39    0.08
   6   5   1    0.50    0.07
  -7  -5  -1    6.24    0.25
  -7  -5  -1    5.82    0.17
  -7  -5  -1    6.04    0.19
  -7  -5  -1    5.69    0.17
  -7  -5  -1    5.85    0.17
   7   5   1    5.92    0.24
   7   5   1    6.20    0.22
  -8  -5  -1   -0.04    0.06
  -8  -5  -1    0.10    0.04
  -8  -5  -1    0.05    0.04
  -8  -5  -1   -0.07    0.10
  -8  -5  -1    0.06    0.07
   8   5   1    0.02    0.08
  -9  -5  -1    0.66    0.08
  -9  -5  -1    0.85    0.11
  -9  -5  -1    0.80    0.08
  -9  -5  -1    0.67    0.12
  -9  -5  -1    0.64    0.17
   9   5   1    0.79    0.14
   5  -6  -1    0.27    0.12
   5  -6  -1    0.22    0.17
   5  -6  -1    0.49    0.11
   5  -6  -1    0.64    0.16
   5  -6  -1    0.16    0.13
  -5   6   1    0.34    0.17
  -5   6   1    0.20    0.15
  -5   6   1    0.67    0.19
  -5   6   1    0.43    0.14
  -5   6   1    0.00    0.07
   4  -6  -1    0.07    0.11
   4  -6  -1   -0.03    0.08
   4  -6  -1   -0.07    0.11
   4  -6  -1    0.11    0.08
   4  -6  -1    0.03    0.10
  -4   6   1    0.06    0.13
  -4   6   1   -0.02    0.04
  -4   6   1    0.01    0.13
  -4   6   1   -0.02    0.10
  -4   6   1    0.13    0.09
  -4   6   1    0.04    0.06
   3  -6  -1    4.21    0.20
   3  -6  -1    4.13    0.22
   3  -6  -1    4.05    0.16
  -3   6   1    4.07    0.21
  -3   6   1    4.09    0.12
  -3   6   1    4.39    0.25
  -3   6   1    3.90    0.15
   2  -6  -1    0.22    0.08
   2  -6  -1    0.28    0.07
   2  -6  -1    0.44    0.08
  -2   6   1    0.27    0.07
  -2   6   1    0.17    0.08
  -2   6   1    0.36    0.06
  -2   6   1    0.22    0.07
   1  -6  -1   15.99    0.44
   1  -6  -1   16.63    0.44
   1  -6  -1   16.66    0.47
   1  -6  -1   15.62    0.47
  -1   6   1   16.50    0.48
  -1   6   1   15.88    0.45
  -1   6   1   16.24    0.47
  -1   6   1   16.29    0.44
  -1   6   1   15.67    0.43
   0  -6  -1   12.23    0.34
   0  -6  -1   12.62    0.34
   0  -6  -1   12.37    0.36
   0  -6  -1   12.33    0.36
   0   6   1   11.92    0.36
   0   6   1   12.50    0.37
   0   6   1   12.28    0.33
   0   6   1   12.34    0.33
   0   6   1   12.05    0.37
  -1  -6  -1   37.56    0.89
  -1  -6  -1   38.36    0.95
  -1  -6  -1   35.89    0.89
  -1  -6  -1   36.54    0.95
   1   6   1   36.42    0.88
   1   6   1   37.80    0.88
   1   6   1   36.89    0.97
   1   6   1   36.93    0.95
  -2  -6  -1   28.53    0.68
  -2  -6  -1   27.65    0.68
  -2  -6  -1   28.30    0.67
  -2  -6  -1   28.24    0.72
  -2  -6  -1   28.26    0.72
   2   6   1   29.11    0.73
   2   6   1   28.60    0.72
   2   6   1   27.11    0.76
  -3  -6  -1   28.46    0.72
  -3  -6  -1   28.78    0.68
  -3  -6  -1   28.20    0.69
  -3  -6  -1   28.83    0.72
  -3  -6  -1   28.81    0.68
   3   6   1   27.65    0.77
   3   6   1   29.13    0.71
   3   6   1   28.81    0.71
  -4  -6  -1    8.74    0.21
  -4  -6  -1    8.52    0.25
  -4  -6  -1    8.77    0.21
   4   6   1    8.61    0.28
   4   6   1    8.79    0.27
  -5  -6  -1    4.56    0.17
   5   6   1    4.47    0.18
   5   6   1    4.42    0.18
  -6  -6  -1    0.31    0.03
   6   6   1    0.37    0.08
   6   6   1    0.25    0.06
  -7  -6  -1    0.35    0.04
  -7  -6  -1    0.30    0.05
  -7  -6  -1    0.50    0.09
   7   6   1    0.31    0.08
   7   6   1    0.34    0.07
  -8  -6  -1    0.27    0.05
  -8  -6  -1    0.18    0.06
  -8  -6  -1    0.26    0.11
   8   6   1    0.24    0.09
  -9  -6  -1    0.00    0.14
  -9  -6  -1    0.15    0.09
  -9  -6  -1    0.10    0.08
   9   6   1    0.02    0.09
   4  -7  -1    2.41    0.25
   4  -7  -1    1.92    0.20
   4  -7  -1    1.84    0.21
   4  -7  -1    2.45    0.25
   4  -7  -1    1.88    0.15
  -4   7   1    1.99    0.12
  -4   7   1    2.36    0.26
  -4   7   1    1.52    0.17
  -4   7   1    1.72    0.21
  -4   7   1    2.78    0.32
   3  -7  -1    2.02    0.20
   3  -7  -1    1.79    0.12
   3  -7  -1    1.96    0.18
   3  -7  -1    1.71    0.20
   3  -7  -1    1.55    0.16
  -3   7   1    1.83    0.18
  -3   7   1    2.29    0.20
  -3   7   1    2.39    0.25
  -3   7   1    1.80    0.12
  -3   7   1    2.35    0.22
   2  -7  -1    7.33    0.27
   2  -7  -1    6.96    0.29
   2  -7  -1    6.99    0.22
   2  -7  -1    7.07    0.27
   2  -7  -1    6.39    0.28
  -2   7   1    7.16    0.30
  -2   7   1    6.93    0.24
  -2   7   1    7.37    0.32
  -2   7   1    6.94    0.27
   1  -7  -1   10.80    0.37
   1  -7  -1   11.17    0.37
   1  -7  -1   11.07    0.35
   1  -7  -1   11.55    0.35
  -1   7   1   11.30    0.34
  -1   7   1   11.34    0.34
  -1   7   1   11.30    0.34
  -1   7   1   11.79    0.39
  -1   7   1   11.21    0.37
   0  -7  -1   13.65    0.39
   0  -7  -1   14.00    0.39
   0  -7  -1   13.39    0.41
   0   7   1   13.77    0.41
   0   7   1   14.27    0.38
   0   7   1   14.15    0.43
   0   7   1   13.27    0.37
  -1  -7  -1   15.83    0.42
  -1  -7  -1   16.57    0.42
  -1  -7  -1   15.19    0.44
  -1  -7  -1   16.12    0.45
   1   7   1   15.68    0.46
   1   7   1   15.75    0.44
   1   7   1   13.60    0.44
   1   7   1   16.03    0.40
   1   7   1   15.65    0.40
  -2  -7  -1   14.63    0.41
  -2  -7  -1   14.00    0.39
  -2  -7  -1   14.26    0.38
  -2  -7  -1   15.21    0.41
   2   7   1   14.61    0.44
   2   7   1   15.13    0.41
   2   7   1   15.19    0.41
  -3  -7  -1    2.03    0.09
  -3  -7  -1    2.05    0.09
  -3  -7  -1    2.06    0.09
  -3  -7  -1    2.08    0.09
  -3  -7  -1    2.25    0.09
   3   7   1    2.07    0.09
   3   7   1    2.07    0.09
   3   7   1    2.14    0.13
  -4  -7  -1    4.76    0.14
  -4  -7  -1    4.75    0.17
  -4  -7  -1    4.87    0.14
  -4  -7  -1    5.00    0.14
  -4  -7  -1    4.89    0.14
   4   7   1    4.55    0.20
  -5  -7  -1    0.37    0.04
  -5  -7  -1    0.24    0.06
  -5  -7  -1    0.39    0.03
   5   7   1    0.29    0.06
   6   7   1    1.15    0.11
   6   7   1    1.08    0.10
  -7  -7  -1    0.66    0.10
  -7  -7  -1    0.78    0.05
   7   7   1    0.84    0.11
   7   7   1    0.68    0.10
  -8  -7  -1    0.54    0.13
  -8  -7  -1    0.44    0.05
  -8  -7  -1    0.45    0.06
   8   7   1    0.43    0.10
  -9  -7  -1    0.24    0.08
  -9  -7  -1    0.27    0.09
   9   7   1    0.28    0.11
   3  -8  -1    0.62    0.18
   3  -8  -1    0.39    0.13
   3  -8  -1    0.50    0.15
   3  -8  -1    0.39    0.14
  -3   8   1    0.64    0.18
  -3   8   1    0.55    0.09
  -3   8   1    0.51    0.16
  -3   8   1    0.63    0.13
   2  -8  -1    0.55    0.12
   2  -8  -1    0.34    0.10
   2  -8  -1    0.48    0.12
   2  -8  -1    0.54    0.13
  -2   8   1    0.38    0.10
  -2   8   1    0.48    0.09
  -2   8   1    0.37    0.11
  -2   8   1    0.72    0.15
  -2   8   1    0.49    0.13
   1  -8  -1    0.48    0.09
   1  -8  -1    0.85    0.12
   1  -8  -1    0.78    0.11
   1  -8  -1    0.75    0.11
  -1   8   1    0.55    0.11
  -1   8   1    0.74    0.09
  -1   8   1    0.78    0.13
  -1   8   1    0.68    0.10
  -1   8   1    0.73    0.09
   0  -8  -1    0.04    0.06
   0  -8  -1   -0.05    0.06
   0  -8  -1    0.05    0.07
   0  -8  -1    0.00    0.07
   0   8   1    0.03    0.06
   0   8   1    0.07    0.06
   0   8   1    0.03    0.08
   0   8   1    0.17    0.07
   0   8   1   -0.04    0.06
  -1  -8  -1    1.47    0.12
  -1  -8  -1    1.54    0.12
  -1  -8  -1    1.48    0.12
  -1  -8  -1    1.54    0.12
   1   8   1    1.59    0.09
   1   8   1    1.52    0.10
   1   8   1    1.78    0.14
   1   8   1    1.73    0.12
  -2  -8  -1    9.05    0.27
  -2  -8  -1    8.87    0.28
  -2  -8  -1    9.15    0.28
  -2  -8  -1    8.61    0.27
   2   8   1    8.78    0.30
   2   8   1    8.85    0.28
   2   8   1    8.83    0.28
  -3  -8  -1    2.74    0.12
  -3  -8  -1    2.91    0.12
  -3  -8  -1    2.61    0.10
  -3  -8  -1    2.83    0.13
  -3  -8  -1    2.66    0.12
   3   8   1    2.77    0.12
   3   8   1    2.67    0.15
  -4  -8  -1   22.22    0.55
  -4  -8  -1   21.94    0.57
  -4  -8  -1   22.47    0.57
  -4  -8  -1   22.34    0.55
  -4  -8  -1   22.14    0.56
   4   8   1   22.20    0.56
   4   8   1   22.36    0.56
   4   8   1   22.32    0.65
  -5  -8  -1    4.83    0.15
  -5  -8  -1    4.67    0.20
  -5  -8  -1    4.97    0.15
  -6  -8  -1   13.94    0.34
  -6  -8  -1   14.17    0.41
   6   8   1   13.97    0.45
  -7  -8  -1    5.37    0.25
   7   8   1    5.48    0.24
   7   8   1    5.02    0.24
  -8  -8  -1    3.90    0.27
   8   8   1    4.27    0.23
   8   8   1    4.45    0.22
   2  -9  -1    1.25    0.19
   2  -9  -1    1.55    0.18
   2  -9  -1    1.03    0.14
  -2   9   1    1.48    0.16
  -2   9   1    1.27    0.14
  -2   9   1    1.60    0.21
  -2   9   1    1.13    0.17
  -2   9   1    0.96    0.21
   1  -9  -1    0.17    0.12
   1  -9  -1    0.38    0.12
   1  -9  -1    0.19    0.09
   1  -9  -1    0.38    0.12
  -1   9   1    0.30    0.09
  -1   9   1    0.49    0.14
  -1   9   1    0.35    0.12
  -1   9   1    0.06    0.14
   0  -9  -1    2.32    0.18
   0  -9  -1    2.58    0.19
   0  -9  -1    2.13    0.19
   0  -9  -1    2.26    0.19
   0   9   1    2.06    0.16
   0   9   1    2.16    0.19
   0   9   1    1.72    0.14
   0   9   1    2.21    0.15
  -1  -9  -1    5.75    0.24
  -1  -9  -1    5.32    0.23
  -1  -9  -1    5.81    0.25
  -1  -9  -1    5.73    0.24
   1   9   1    5.77    0.20
   1   9   1    5.82    0.24
   1   9   1    5.63    0.19
  -2  -9  -1    1.29    0.13
  -2  -9  -1    1.43    0.13
  -2  -9  -1    1.34    0.13
   2   9   1    1.34    0.13
   2   9   1    1.22    0.14
   2   9   1    1.51    0.13
  -3  -9  -1   11.20    0.33
  -3  -9  -1   11.22    0.32
  -3  -9  -1   11.37    0.32
  -3  -9  -1   11.16    0.33
   3   9   1    9.97    0.39
   3   9   1   11.22    0.33
  -4  -9  -1    0.24    0.05
  -4  -9  -1    0.31    0.05
  -4  -9  -1    0.30    0.06
  -4  -9  -1    0.34    0.06
  -4  -9  -1    0.25    0.05
   4   9   1    0.34    0.04
   4   9   1    0.44    0.09
  -5  -9  -1    5.27    0.20
  -5  -9  -1    5.23    0.17
  -5  -9  -1    5.00    0.17
   5   9   1    5.35    0.24
  -6  -9  -1    0.02    0.04
  -6  -9  -1   -0.02    0.07
  -6  -9  -1    0.01    0.04
   6   9   1    0.07    0.08
  -7  -9  -1    1.07    0.13
   7   9   1    1.04    0.13
  -8  -9  -1   -0.08    0.13
   8   9   1   -0.07    0.08
   0 -10  -1    1.40    0.15
   0 -10  -1    1.41    0.17
   0 -10  -1    1.16    0.16
   0 -10  -1    1.31    0.16
   0  10   1    1.28    0.13
   0  10   1    1.14    0.16
   0  10   1    1.54    0.16
  -1 -10  -1    0.50    0.12
  -1 -10  -1    0.59    0.11
  -1 -10  -1    0.40    0.11
  -1 -10  -1    0.66    0.12
   1  10   1    0.54    0.09
   1  10   1    0.56    0.11
   1  10   1    0.41    0.10
  -2 -10  -1    1.07    0.13
  -2 -10  -1    0.86    0.11
  -2 -10  -1    1.10    0.13
  -2 -10  -1    0.83    0.11
   2  10   1    1.04    0.12
   2  10   1    0.80    0.12
  -3 -10  -1    1.33    0.12
  -3 -10  -1    1.31    0.13
  -3 -10  -1    1.22    0.14
  -3 -10  -1    1.41    0.13
   3  10   1    1.35    0.13
   3  10   1    1.23    0.14
  -4 -10  -1    0.15    0.06
  -4 -10  -1    0.02    0.07
  -4 -10  -1    0.01    0.06
  -4 -10  -1    0.12    0.07
   4  10   1    0.02    0.05
   4  10   1    0.19    0.06
   4  10   1    0.04    0.08
  -5 -10  -1    1.13    0.08
  -5 -10  -1    1.44    0.13
  -5 -10  -1    1.19    0.13
  -5 -10  -1    1.17    0.12
  -5 -10  -1    1.02    0.07
   5  10   1    1.33    0.15
  -6 -10  -1    0.97    0.08
  -6 -10  -1    1.03    0.12
  -6 -10  -1    1.28    0.11
   6  10   1    1.03    0.14
  -7 -10  -1    0.34    0.06
  -7 -10  -1    0.33    0.06
  -7 -10  -1    0.22    0.13
   7  10   1    0.24    0.11
  -2 -11  -1    3.22    0.26
  -2 -11  -1    3.08    0.23
  -2 -11  -1    3.04    0.24
  -2 -11  -1    2.80    0.25
   2  11   1    3.12    0.20
  -3 -11  -1    3.01    0.23
  -3 -11  -1    2.36    0.20
  -3 -11  -1    2.15    0.23
  -3 -11  -1    2.49    0.20
   3  11   1    2.69    0.20
   3  11   1    2.61    0.19
  -4 -11  -1    0.95    0.11
  -4 -11  -1    1.16    0.13
  -4 -11  -1    1.24    0.13
  -4 -11  -1    1.06    0.11
   4  11   1    0.87    0.13
   4  11   1    1.04    0.10
  -5 -11  -1    3.04    0.20
  -5 -11  -1    2.89    0.21
  -5 -11  -1    2.87    0.13
   5  11   1    3.25    0.21
  -6 -10   2    0.94    0.10
  -6 -10   2    0.98    0.09
  -5 -10   2    2.81    0.17
  -5 -10   2    2.90    0.16
  -5 -10   2    2.88    0.13
   4  10  -2    0.08    0.07
   4  10  -2    0.05    0.08
   4  10  -2    0.09    0.06
  -4 -10   2   -0.08    0.06
  -4 -10   2    0.09    0.09
  -4 -10   2   -0.09    0.07
   3  10  -2    2.69    0.17
   3  10  -2    2.48    0.17
  -3 -10   2    2.38    0.18
  -3 -10   2    2.54    0.19
  -3 -10   2    2.51    0.20
  -3 -10   2    2.59    0.18
   2  10  -2    0.02    0.10
   2  10  -2    0.29    0.09
   2  10  -2    0.12    0.11
  -2 -10   2    0.21    0.10
  -2 -10   2    0.23    0.10
  -2 -10   2    0.17    0.10
  -2 -10   2    0.32    0.11
   1  10  -2   -0.15    0.07
   1  10  -2   -0.11    0.14
   1  10  -2   -0.04    0.07
  -1 -10   2    0.11    0.12
  -1 -10   2    0.25    0.14
  -1 -10   2    0.19    0.11
  -1 -10   2    0.12    0.12
   7   9  -2    1.14    0.13
  -7  -9   2    1.18    0.09
  -7  -9   2    1.17    0.15
  -7  -9   2    1.40    0.10
   6   9  -2    0.53    0.10
  -6  -9   2    0.59    0.11
  -6  -9   2    0.57    0.06
  -6  -9   2    0.57    0.07
  -5  -9   2    3.12    0.11
  -5  -9   2    3.31    0.11
  -5  -9   2    3.23    0.14
  -5  -9   2    3.03    0.15
   4   9  -2   -0.01    0.05
   4   9  -2    0.00    0.04
   4   9  -2    0.07    0.07
  -4  -9   2   -0.01    0.06
  -4  -9   2   -0.02    0.05
  -4  -9   2   -0.02    0.05
  -4  -9   2    0.04    0.06
   3   9  -2    1.89    0.13
   3   9  -2    2.02    0.14
  -3  -9   2    1.80    0.13
  -3  -9   2    2.08    0.14
  -3  -9   2    1.90    0.14
  -3  -9   2    1.73    0.15
   2   9  -2    2.02    0.14
   2   9  -2    1.59    0.15
  -2  -9   2    1.61    0.15
  -2  -9   2    1.57    0.16
  -2  -9   2    1.86    0.15
  -2  -9   2    1.64    0.15
   1   9  -2   -0.05    0.09
   1   9  -2    0.06    0.06
   1   9  -2    0.04    0.08
   1   9  -2    0.05    0.06
  -1  -9   2   -0.07    0.09
  -1  -9   2   -0.10    0.09
  -1  -9   2    0.09    0.09
  -1  -9   2    0.10    0.08
   0   9  -2    3.08    0.18
   0   9  -2    3.12    0.23
   0  -9   2    3.15    0.23
   0  -9   2    3.32    0.22
   0  -9   2    3.18    0.24
   0  -9   2    3.56    0.23
  -1   9  -2   -0.08    0.15
  -1   9  -2    0.45    0.14
  -1   9  -2    0.41    0.11
  -1   9  -2    0.23    0.14
   1  -9   2    0.19    0.15
   1  -9   2    0.24    0.13
   1  -9   2    0.53    0.15
   1  -9   2    0.18    0.14
   8   8  -2    1.11    0.14
  -8  -8   2    1.28    0.09
  -8  -8   2    0.96    0.09
  -8  -8   2    1.23    0.17
  -7  -8   2    0.23    0.04
  -7  -8   2    0.19    0.10
  -7  -8   2    0.23    0.04
   6   8  -2    1.24    0.13
  -6  -8   2    1.19    0.08
  -6  -8   2    1.34    0.15
  -6  -8   2    1.21    0.08
   5   8  -2    1.24    0.11
  -5  -8   2    1.47    0.13
  -5  -8   2    1.20    0.09
  -5  -8   2    1.17    0.08
   4   8  -2    0.06    0.03
   4   8  -2    0.02    0.04
  -4  -8   2    0.02    0.04
  -4  -8   2   -0.01    0.04
  -4  -8   2   -0.02    0.04
  -4  -8   2    0.02    0.03
   3   8  -2    3.93    0.16
   3   8  -2    4.16    0.18
  -3  -8   2    4.16    0.16
  -3  -8   2    4.20    0.16
  -3  -8   2    4.16    0.16
   2   8  -2    2.20    0.11
   2   8  -2    2.14    0.13
   2   8  -2    2.44    0.14
  -2  -8   2    2.26    0.16
  -2  -8   2    2.29    0.14
  -2  -8   2    2.25    0.14
  -2  -8   2    2.29    0.13
   1   8  -2    3.09    0.14
   1   8  -2    3.05    0.13
   1   8  -2    2.94    0.15
   1   8  -2    2.76    0.18
   1   8  -2    3.20    0.12
  -1  -8   2    3.05    0.17
  -1  -8   2    3.10    0.19
  -1  -8   2    2.97    0.17
  -1  -8   2    3.34    0.16
   0   8  -2    2.70    0.15
   0   8  -2    2.69    0.21
   0   8  -2    2.74    0.10
   0   8  -2    2.71    0.18
   0   8  -2    2.47    0.17
   0   8  -2    2.58    0.14
   0  -8   2    2.93    0.19
   0  -8   2    2.84    0.19
   0  -8   2    2.88    0.17
  -1   8  -2    0.11    0.12
  -1   8  -2    0.09    0.10
  -1   8  -2    0.08    0.10
   1  -8   2    0.19    0.10
   1  -8   2    0.15    0.10
   1  -8   2    0.13    0.10
  -2   8  -2    0.91    0.19
  -2   8  -2    1.07    0.15
  -2   8  -2    0.88    0.13
  -2   8  -2    0.84    0.16
   2  -8   2    0.90    0.16
   2  -8   2    0.84    0.13
   2  -8   2    1.10    0.17
   2  -8   2    0.84    0.14
   8   7  -2    0.25    0.11
  -8  -7   2    0.22    0.06
  -8  -7   2    0.31    0.12
  -8  -7   2    0.36    0.06
   7   7  -2   -0.10    0.08
  -7  -7   2    0.02    0.03
  -7  -7   2    0.07    0.04
  -7  -7   2    0.05    0.09
   6   7  -2    0.05    0.07
  -6  -7   2    0.05    0.03
  -6  -7   2    0.08    0.07
  -6  -7   2    0.06    0.03
   5   7  -2    1.43    0.11
  -5  -7   2    1.35    0.07
  -5  -7   2    1.41    0.12
  -5  -7   2    1.23    0.07
   4   7  -2    1.51    0.06
   4   7  -2    1.48    0.11
   4   7  -2    1.39    0.06
   4   7  -2    1.49    0.10
  -4  -7   2    1.47    0.08
  -4  -7   2    1.36    0.08
  -4  -7   2    1.43    0.08
  -4  -7   2    1.42    0.10
   3   7  -2    5.54    0.19
   3   7  -2    5.47    0.18
   3   7  -2    5.56    0.18
   3   7  -2    5.62    0.18
   3   7  -2    5.27    0.21
  -3  -7   2    5.41    0.19
  -3  -7   2    5.34    0.18
  -3  -7   2    5.45    0.17
  -3  -7   2    5.40    0.19
   2   7  -2    0.56    0.07
   2   7  -2    0.77    0.07
   2   7  -2    0.58    0.07
  -2  -7   2    0.64    0.07
  -2  -7   2    0.65    0.07
  -2  -7   2    0.71    0.07
  -2  -7   2    0.69    0.08
   1   7  -2    3.17    0.13
   1   7  -2    3.00    0.14
   1   7  -2    3.24    0.11
   1   7  -2    3.06    0.12
   1   7  -2    3.45    0.17
  -1  -7   2    3.05    0.14
  -1  -7   2    3.08    0.15
  -1  -7   2    3.18    0.17
  -1  -7   2    3.12    0.16
   0   7  -2    0.70    0.10
   0   7  -2    0.69    0.06
   0   7  -2    0.65    0.07
   0   7  -2    0.64    0.09
   0   7  -2    0.66    0.08
   0   7  -2    0.62    0.08
   0  -7   2    0.46    0.07
   0  -7   2    0.59    0.08
   0  -7   2    0.51    0.08
   0  -7   2    0.53    0.09
  -1   7  -2    0.67    0.09
  -1   7  -2    0.44    0.11
  -1   7  -2    0.71    0.06
  -1   7  -2    0.45    0.09
   1  -7   2    0.64    0.10
   1  -7   2    0.84    0.13
   1  -7   2    0.54    0.09
   1  -7   2    0.80    0.11
  -2   7  -2    1.27    0.14
  -2   7  -2    1.17    0.16
  -2   7  -2    1.29    0.13
  -2   7  -2    1.25    0.14
   2  -7   2    1.29    0.16
   2  -7   2    1.15    0.14
   2  -7   2    0.86    0.12
   2  -7   2    1.26    0.13
  -3   7  -2    0.08    0.13
  -3   7  -2   -0.13    0.10
  -3   7  -2   -0.09    0.11
  -3   7  -2   -0.17    0.15
   3  -7   2    0.11    0.10
   3  -7   2    0.18    0.12
   3  -7   2   -0.20    0.12
   9   6  -2    0.95    0.13
  -9  -6   2    1.54    0.15
  -9  -6   2    1.37    0.12
   8   6  -2    1.75    0.17
  -8  -6   2    1.65    0.11
  -8  -6   2    1.57    0.11
  -8  -6   2    1.97    0.20
   7   6  -2    3.75    0.20
  -7  -6   2    3.86    0.13
  -7  -6   2    3.63    0.12
  -7  -6   2    3.83    0.21
   6   6  -2   10.44    0.35
  -6  -6   2   10.86    0.33
  -6  -6   2   10.38    0.26
  -6  -6   2   10.26    0.26
   5   6  -2    3.50    0.16
  -5  -6   2    3.10    0.09
  -5  -6   2    3.31    0.15
  -5  -6   2    3.10    0.10
   4   6  -2   24.83    0.66
   4   6  -2   24.80    0.63
   4   6  -2   23.73    0.68
  -4  -6   2   24.81    0.63
  -4  -6   2   24.58    0.62
  -4  -6   2   25.35    0.59
  -4  -6   2   24.98    0.59
  -4  -6   2   25.31    0.62
   3   6  -2    0.03    0.03
   3   6  -2    0.06    0.04
   3   6  -2    0.06    0.04
   3   6  -2    0.06    0.04
   3   6  -2    0.05    0.03
  -3  -6   2    0.00    0.03
  -3  -6   2    0.01    0.03
  -3  -6   2    0.07    0.03
  -3  -6   2    0.05    0.03
   2   6  -2   13.59    0.40
   2   6  -2   13.88    0.36
   2   6  -2   13.24    0.38
   2   6  -2   13.51    0.37
  -2  -6   2   13.77    0.35
  -2  -6   2   13.47    0.38
  -2  -6   2   13.35    0.36
  -2  -6   2   13.73    0.38
   1   6  -2    4.89    0.15
   1   6  -2    4.33    0.18
   1   6  -2    4.89    0.18
   1   6  -2    4.92    0.18
   1   6  -2    4.83    0.15
   1   6  -2    5.02    0.15
  -1  -6   2    4.99    0.17
  -1  -6   2    4.93    0.18
  -1  -6   2    5.11    0.17
  -1  -6   2    5.16    0.19
   0   6  -2    1.85    0.08
   0   6  -2    1.81    0.10
   0   6  -2    1.78    0.10
   0   6  -2    1.84    0.11
   0   6  -2    1.85    0.12
   0   6  -2    1.62    0.13
   0  -6   2    1.63    0.11
   0  -6   2    1.92    0.12
   0  -6   2    1.84    0.13
   0  -6   2    1.92    0.11
  -1   6  -2    6.00    0.21
  -1   6  -2    5.66    0.19
  -1   6  -2    5.76    0.23
  -1   6  -2    5.69    0.21
  -1   6  -2    5.81    0.24
   1  -6   2    5.69    0.24
   1  -6   2    5.64    0.24
  -2   6  -2    0.10    0.07
  -2   6  -2    0.06    0.08
  -2   6  -2    0.05    0.07
  -2   6  -2    0.08    0.07
   2  -6   2   -0.06    0.07
   2  -6   2    0.04    0.07
   2  -6   2   -0.05    0.08
  -3   6  -2    0.71    0.13
  -3   6  -2    0.99    0.12
  -3   6  -2    1.28    0.16
  -3   6  -2    1.00    0.12
   3  -6   2    1.12    0.16
   3  -6   2    0.64    0.12
   3  -6   2    0.88    0.13
   3  -6   2    0.98    0.12
  -4   6  -2    0.01    0.12
  -4   6  -2    0.24    0.12
  -4   6  -2    0.04    0.11
  -4   6  -2    0.16    0.16
   4  -6   2    0.08    0.13
   4  -6   2    0.06    0.13
   4  -6   2    0.02    0.09
   4  -6   2    0.00    0.11
   9   5  -2   -0.01    0.10
  -9  -5   2    0.01    0.05
  -9  -5   2   -0.04    0.08
  -9  -5   2    0.01    0.05
  -9  -5   2   -0.24    0.09
   8   5  -2    0.27    0.09
  -8  -5   2    0.14    0.11
  -8  -5   2    0.15    0.06
  -8  -5   2    0.29    0.07
   7   5  -2    0.09    0.07
  -7  -5   2    0.06    0.04
  -7  -5   2    0.08    0.08
  -7  -5   2   -0.01    0.04
   6   5  -2    2.47    0.15
  -6  -5   2    2.57    0.09
  -6  -5   2    2.55    0.09
  -6  -5   2    2.40    0.15
   5   5  -2    0.98    0.10
  -5  -5   2    0.71    0.07
  -5  -5   2    0.83    0.04
   4   5  -2    6.80    0.23
   4   5  -2    6.73    0.22
  -4  -5   2    6.58    0.18
  -4  -5   2    6.77    0.17
  -4  -5   2    6.68    0.17
  -4  -5   2    6.83    0.18
  -4  -5   2    6.54    0.21
   3   5  -2   11.03    0.33
   3   5  -2   11.10    0.30
   3   5  -2   11.54    0.32
   3   5  -2   11.29    0.29
   3   5  -2   11.21    0.31
  -3  -5   2   11.27    0.28
  -3  -5   2   11.09    0.30
  -3  -5   2   11.34    0.30
  -3  -5   2   11.42    0.30
  -3  -5   2   11.15    0.28
   2   5  -2    7.75    0.21
   2   5  -2    7.40    0.22
   2   5  -2    7.23    0.23
   2   5  -2    7.49    0.22
   2   5  -2    7.42    0.21
  -2  -5   2    7.23    0.22
  -2  -5   2    7.56    0.22
  -2  -5   2    7.56    0.20
  -2  -5   2    7.06    0.20
   1   5  -2   18.01    0.49
   1   5  -2   18.31    0.45
   1   5  -2   18.47    0.45
   1   5  -2   18.04    0.50
   1   5  -2   18.59    0.45
  -1  -5   2   18.92    0.46
  -1  -5   2   18.58    0.50
  -1  -5   2   18.88    0.50
  -1  -5   2   18.12    0.47
   0   5  -2    1.31    0.08
   0   5  -2    1.25    0.06
   0   5  -2    1.12    0.07
   0   5  -2    1.34    0.10
   0   5  -2    1.28    0.09
   0   5  -2    1.28    0.09
   0  -5   2    1.36    0.09
   0  -5   2    1.43    0.09
   0  -5   2    1.33    0.10
   0  -5   2    1.33    0.08
  -1   5  -2    4.88    0.18
  -1   5  -2    5.47    0.21
  -1   5  -2    5.21    0.16
  -1   5  -2    5.06    0.18
  -1   5  -2    5.04    0.20
   1  -5   2    4.79    0.18
   1  -5   2    5.26    0.18
   1  -5   2    5.35    0.21
   1  -5   2    5.20    0.20
  -2   5  -2    0.49    0.09
  -2   5  -2    0.44    0.08
  -2   5  -2    0.57    0.08
  -2   5  -2    0.49    0.08
   2  -5   2    0.40    0.07
   2  -5   2    0.41    0.08
  -3   5  -2    0.12    0.09
  -3   5  -2    0.23    0.09
  -3   5  -2    0.25    0.08
   3  -5   2    0.12    0.08
   3  -5   2    0.14    0.08
   3  -5   2    0.19    0.07
  -4   5  -2    0.53    0.10
  -4   5  -2    0.46    0.12
  -4   5  -2    0.52    0.12
   4  -5   2    0.56    0.13
   4  -5   2    0.35    0.10
   4  -5   2    0.70    0.11
  -5   5  -2    0.17    0.13
  -5   5  -2    0.06    0.08
  -5   5  -2    0.07    0.14
  -5   5  -2    0.26    0.17
  -5   5  -2    0.04    0.12
   5  -5   2   -0.04    0.09
   5  -5   2   -0.04    0.14
   5  -5   2    0.10    0.12
   5  -5   2   -0.08    0.12
   9   4  -2    0.58    0.06
   9   4  -2    0.44    0.11
  -9  -4   2    0.57    0.16
  -9  -4   2    0.68    0.10
  -9  -4   2    0.37    0.09
  -9  -4   2    0.60    0.11
  -9  -4   2    0.47    0.12
   8   4  -2    1.13    0.08
   8   4  -2    1.06    0.07
   8   4  -2    0.99    0.14
  -8  -4   2    0.94    0.10
  -8  -4   2    1.16    0.11
  -8  -4   2    1.14    0.12
  -8  -4   2    0.85    0.08
  -8  -4   2    1.05    0.13
   7   4  -2    2.43    0.09
   7   4  -2    2.14    0.16
  -7  -4   2    2.32    0.11
  -7  -4   2    2.45    0.11
  -7  -4   2    2.30    0.11
  -7  -4   2    2.41    0.12
   6   4  -2    8.98    0.32
  -6  -4   2    9.24    0.25
  -6  -4   2    9.61    0.26
  -6  -4   2    9.05    0.25
  -6  -4   2    9.45    0.25
   5   4  -2    3.98    0.17
  -5  -4   2    4.32    0.12
  -5  -4   2    3.72    0.16
  -5  -4   2    4.17    0.12
  -5  -4   2    4.06    0.12
  -5  -4   2    4.41    0.12
   4   4  -2   62.39    1.56
   4   4  -2   62.57    1.48
  -4  -4   2   63.22    1.43
  -4  -4   2   62.44    1.52
  -4  -4   2   60.75    1.48
  -4  -4   2   61.55    1.43
  -4  -4   2   63.22    1.52
   3   4  -2    5.44    0.15
   3   4  -2    5.30    0.17
   3   4  -2    5.39    0.15
   3   4  -2    5.49    0.18
  -3  -4   2    5.46    0.17
  -3  -4   2    5.16    0.14
  -3  -4   2    5.49    0.15
  -3  -4   2    5.53    0.15
  -3  -4   2    5.32    0.14
   2   4  -2  127.90    3.19
   2   4  -2  126.57    3.12
   2   4  -2  132.99    2.96
   2   4  -2  132.00    3.13
   2   4  -2  126.43    3.12
  -2  -4   2  130.09    3.12
  -2  -4   2  125.13    3.12
  -2  -4   2  124.83    2.95
  -2  -4   2  128.83    2.96
   1   4  -2    1.60    0.08
   1   4  -2    1.44    0.06
   1   4  -2    1.69    0.06
   1   4  -2    1.32    0.06
   1   4  -2    1.40    0.07
   1   4  -2    1.45    0.06
  -1  -4   2    1.39    0.07
  -1  -4   2    1.32    0.06
  -1  -4   2    1.44    0.07
   0   4  -2   58.06    1.34
   0   4  -2   56.28    1.43
   0   4  -2   57.99    1.34
   0   4  -2   55.42    1.44
   0   4  -2   58.21    1.43
   0  -4   2   56.04    1.35
   0  -4   2   55.15    1.43
   0  -4   2   58.97    1.35
   0  -4   2   59.01    1.43
  -1   4  -2    2.94    0.14
  -1   4  -2    2.96    0.13
  -1   4  -2    3.04    0.10
  -1   4  -2    2.94    0.13
  -1   4  -2    3.00    0.12
   1  -4   2    3.08    0.14
   1  -4   2    3.14    0.13
   1  -4   2    2.93    0.12
   1  -4   2    3.10    0.13
  -2   4  -2    8.38    0.29
  -2   4  -2    8.71    0.26
  -2   4  -2    8.39    0.26
  -2   4  -2    8.47    0.28
   2  -4   2    8.51    0.29
   2  -4   2    7.71    0.26
   2  -4   2    7.93    0.25
   2  -4   2    8.19    0.28
  -3   4  -2    2.24    0.15
  -3   4  -2    2.01    0.13
  -3   4  -2    1.99    0.15
  -3   4  -2    2.22    0.15
   3  -4   2    2.31    0.16
   3  -4   2    2.32    0.14
   3  -4   2    2.32    0.15
   3  -4   2    2.23    0.08
  -4   4  -2    0.27    0.10
  -4   4  -2    0.23    0.09
   4  -4   2    0.41    0.10
   4  -4   2    0.26    0.09
   4  -4   2    0.43    0.08
   4  -4   2    0.37    0.05
  -5   4  -2    0.18    0.11
  -5   4  -2    0.45    0.13
  -5   4  -2    0.06    0.10
  -5   4  -2    0.25    0.09
   5  -4   2    0.11    0.10
   5  -4   2   -0.04    0.07
   5  -4   2    0.08    0.06
   5  -4   2    0.04    0.11
  -6   4  -2    0.02    0.13
  -6   4  -2   -0.13    0.15
  -6   4  -2   -0.11    0.16
  -6   4  -2    0.16    0.15
   6  -4   2   -0.02    0.08
   6  -4   2    0.09    0.13
   6  -4   2   -0.02    0.15
   6  -4   2    0.04    0.14
   6  -4   2    0.15    0.11
   9   3  -2   -0.02    0.08
   9   3  -2    0.08    0.11
   9   3  -2   -0.10    0.08
  -9  -3   2   -0.10    0.14
  -9  -3   2    0.11    0.11
  -9  -3   2   -0.11    0.10
  -9  -3   2    0.04    0.12
  -9  -3   2   -0.05    0.10
   8   3  -2    0.03    0.06
   8   3  -2    0.15    0.10
   8   3  -2    0.12    0.06
  -8  -3   2    0.20    0.08
  -8  -3   2    0.16    0.08
  -8  -3   2    0.23    0.07
  -8  -3   2    0.16    0.09
  -8  -3   2    0.16    0.08
   7   3  -2    0.44    0.06
   7   3  -2    0.35    0.08
  -7  -3   2    0.31    0.07
  -7  -3   2    0.39    0.06
  -7  -3   2    0.39    0.06
  -7  -3   2    0.41    0.07
   6   3  -2   -0.01    0.03
   6   3  -2   -0.02    0.03
   6   3  -2    0.06    0.05
  -6  -3   2   -0.01    0.04
  -6  -3   2    0.05    0.04
  -6  -3   2   -0.01    0.03
  -6  -3   2   -0.01    0.03
   5   3  -2    7.64    0.21
   5   3  -2    7.32    0.25
   5   3  -2    7.36    0.21
  -5  -3   2    7.53    0.24
  -5  -3   2    7.30    0.20
  -5  -3   2    7.60    0.21
  -5  -3   2    7.32    0.20
  -5  -3   2    7.46    0.21
   4   3  -2    0.38    0.05
   4   3  -2    0.46    0.06
   4   3  -2    0.39    0.03
   4   3  -2    0.35    0.03
  -4  -3   2    0.41    0.03
  -4  -3   2    0.37    0.03
  -4  -3   2    0.52    0.06
  -4  -3   2    0.41    0.04
  -4  -3   2    0.38    0.03
   3   3  -2   25.20    0.62
   3   3  -2   25.19    0.65
   3   3  -2   25.13    0.62
   3   3  -2   23.96    0.62
  -3  -3   2   24.77    0.62
  -3  -3   2   25.71    0.58
  -3  -3   2   25.16    0.62
  -3  -3   2   25.24    0.62
  -3  -3   2   25.22    0.59
   2   3  -2    0.61    0.05
   2   3  -2    0.56    0.03
   2   3  -2    0.67    0.05
   2   3  -2    0.60    0.04
  -2  -3   2    0.64    0.04
  -2  -3   2    0.58    0.03
  -2  -3   2    0.61    0.04
  -2  -3   2    0.58    0.04
  -2  -3   2    0.67    0.03
   1   3  -2    4.70    0.14
   1   3  -2    4.92    0.15
   1   3  -2    4.79    0.14
   1   3  -2    4.87    0.14
   1   3  -2    4.81    0.13
   1   3  -2    4.82    0.13
  -1  -3   2    4.60    0.15
  -1  -3   2    4.83    0.15
  -1  -3   2    4.96    0.13
  -1  -3   2    4.85    0.14
   0   3  -2    2.96    0.11
   0   3  -2    3.03    0.11
   0   3  -2    3.27    0.12
   0   3  -2    3.34    0.10
   0  -3   2    3.16    0.11
   0  -3   2    3.34    0.11
   0  -3   2    3.27    0.12
   0  -3   2    3.32    0.12
  -1   3  -2    1.34    0.07
  -1   3  -2    1.34    0.08
  -1   3  -2    1.30    0.08
  -1   3  -2    1.32    0.08
   1  -3   2    1.54    0.08
   1  -3   2    1.40    0.07
   1  -3   2    1.26    0.07
   1  -3   2    1.45    0.09
   1  -3   2    1.35    0.07
  -2   3  -2    5.10    0.19
  -2   3  -2    5.61    0.20
  -2   3  -2    5.46    0.18
  -2   3  -2    5.30    0.17
   2  -3   2    5.37    0.19
   2  -3   2    5.28    0.20
   2  -3   2    5.54    0.17
   2  -3   2    5.22    0.18
  -3   3  -2    1.03    0.10
  -3   3  -2    0.99    0.11
  -3   3  -2    1.01    0.10
  -3   3  -2    1.02    0.09
   3  -3   2    1.12    0.06
   3  -3   2    1.14    0.11
   3  -3   2    1.17    0.09
   3  -3   2    1.03    0.10
   3  -3   2    1.25    0.09
  -4   3  -2    7.18    0.28
  -4   3  -2    7.20    0.26
  -4   3  -2    7.29    0.28
   4  -3   2    7.38    0.25
   4  -3   2    6.83    0.22
   4  -3   2    7.03    0.28
   4  -3   2    7.52    0.28
  -5   3  -2    0.38    0.10
  -5   3  -2    0.47    0.10
  -5   3  -2    0.21    0.09
   5  -3   2    0.37    0.08
   5  -3   2    0.30    0.07
   5  -3   2    0.33    0.10
   5  -3   2    0.43    0.10
  -6   3  -2    2.80    0.21
  -6   3  -2    3.13    0.26
  -6   3  -2    2.57    0.24
  -6   3  -2    3.06    0.24
   6  -3   2    2.81    0.21
   6  -3   2    2.97    0.22
   6  -3   2    2.65    0.25
   6  -3   2    2.65    0.16
   6  -3   2    2.97    0.19
  -7   3  -2   -0.04    0.17
  -7   3  -2   -0.13    0.18
  -7   3  -2    0.11    0.19
   7  -3   2    0.01    0.12
   7  -3   2   -0.12    0.17
   7  -3   2   -0.12    0.15
   7  -3   2    0.08    0.10
   7  -3   2    0.26    0.14
   9   2  -2    0.14    0.11
   9   2  -2   -0.06    0.11
  -9  -2   2   -0.03    0.11
  -9  -2   2    0.16    0.13
  -9  -2   2    0.22    0.13
  -9  -2   2    0.12    0.12
  -9  -2   2   -0.06    0.14
   8   2  -2    1.10    0.12
   8   2  -2    0.81    0.12
  -8  -2   2    1.29    0.15
  -8  -2   2    0.96    0.11
  -8  -2   2    0.90    0.13
  -8  -2   2    0.80    0.12
  -8  -2   2    0.91    0.11
   7   2  -2    1.08    0.11
   7   2  -2    1.21    0.11
  -7  -2   2    1.08    0.12
  -7  -2   2    1.19    0.11
  -7  -2   2    1.09    0.12
  -7  -2   2    1.30    0.12
   6   2  -2    3.84    0.15
   6   2  -2    3.99    0.18
   6   2  -2    3.87    0.14
  -6  -2   2    3.96    0.18
  -6  -2   2    3.70    0.15
  -6  -2   2    3.93    0.16
  -6  -2   2    3.82    0.14
  -6  -2   2    3.66    0.15
   5   2  -2    6.37    0.23
   5   2  -2    6.45    0.19
   5   2  -2    6.38    0.19
  -5  -2   2    6.36    0.20
  -5  -2   2    6.40    0.21
  -5  -2   2    6.51    0.19
  -5  -2   2    6.66    0.20
  -5  -2   2    6.36    0.19
   4   2  -2    5.24    0.15
   4   2  -2    5.06    0.18
   4   2  -2    4.99    0.15
  -4  -2   2    5.10    0.14
  -4  -2   2    5.04    0.14
  -4  -2   2    5.18    0.15
  -4  -2   2    5.24    0.17
  -4  -2   2    5.16    0.16
   3   2  -2    7.27    0.21
   3   2  -2    7.09    0.20
   3   2  -2    7.02    0.22
   3   2  -2    7.23    0.20
  -3  -2   2    7.56    0.20
  -3  -2   2    7.30    0.18
  -3  -2   2    7.22    0.20
  -3  -2   2    7.37    0.18
  -3  -2   2    7.41    0.25
  -3  -2   2    7.27    0.21
   2   2  -2    2.07    0.08
   2   2  -2    2.02    0.07
   2   2  -2    2.12    0.08
   2   2  -2    2.13    0.07
  -2  -2   2    2.04    0.06
  -2  -2   2    2.11    0.07
  -2  -2   2    2.11    0.08
  -2  -2   2    2.07    0.07
  -2  -2   2    2.13    0.06
   1   2  -2    2.54    0.07
   1   2  -2    2.49    0.07
   1   2  -2    2.58    0.08
   1   2  -2    2.57    0.08
   1   2  -2    2.66    0.08
  -1  -2   2    2.56    0.08
  -1  -2   2    2.40    0.08
  -1  -2   2    2.59    0.09
  -1  -2   2    2.46    0.08
   0   2  -2   13.10    0.31
   0   2  -2   12.42    0.31
   0   2  -2   12.60    0.33
   0   2  -2   12.65    0.34
   0  -2   2   12.04    0.33
   0  -2   2   12.58    0.33
   0  -2   2   12.50    0.31
   0  -2   2   12.37    0.31
   0  -2   2   12.45    0.34
  -1   2  -2    3.17    0.12
  -1   2  -2    3.02    0.11
  -1   2  -2    3.25    0.08
  -1   2  -2    3.00    0.11
  -1   2  -2    3.23    0.10
   1  -2   2    3.27    0.10
   1  -2   2    2.94    0.11
   1  -2   2    2.86    0.11
   1  -2   2    3.10    0.10
   1  -2   2    3.07    0.11
  -2   2  -2    0.83    0.07
  -2   2  -2    0.85    0.06
  -2   2  -2    0.90    0.07
  -2   2  -2    0.84    0.07
   2  -2   2    0.88    0.04
   2  -2   2    0.96    0.06
   2  -2   2    0.92    0.06
   2  -2   2    0.85    0.07
   2  -2   2    0.82    0.07
   2  -2   2    0.94    0.04
  -3   2  -2   10.54    0.32
  -3   2  -2   10.44    0.29
  -3   2  -2   10.21    0.30
  -3   2  -2   10.36    0.32
   3  -2   2   10.26    0.28
   3  -2   2   10.38    0.29
   3  -2   2   10.07    0.29
   3  -2   2   10.83    0.32
   3  -2   2   10.47    0.32
  -4   2  -2    0.01    0.04
  -4   2  -2    0.04    0.05
  -4   2  -2   -0.04    0.05
  -4   2  -2   -0.03    0.05
   4  -2   2    0.05    0.06
   4  -2   2    0.03    0.04
   4  -2   2    0.00    0.04
   4  -2   2    0.00    0.04
   4  -2   2   -0.03    0.05
  -5   2  -2    2.27    0.17
  -5   2  -2    2.85    0.15
  -5   2  -2    2.85    0.17
   5  -2   2    2.64    0.15
   5  -2   2    2.82    0.14
   5  -2   2    2.73    0.17
   5  -2   2    2.60    0.13
  -6   2  -2    0.06    0.10
  -6   2  -2    0.19    0.11
  -6   2  -2    0.00    0.10
  -6   2  -2   -0.02    0.08
   6  -2   2    0.03    0.07
   6  -2   2    0.11    0.08
   6  -2   2    0.22    0.10
   6  -2   2    0.08    0.06
  -7   2  -2    0.10    0.15
  -7   2  -2   -0.01    0.14
  -7   2  -2    0.00    0.13
  -7   2  -2    0.16    0.12
  -7   2  -2    0.37    0.12
   7  -2   2    0.10    0.09
   7  -2   2    0.18    0.09
   7  -2   2    0.27    0.12
   7  -2   2    0.29    0.10
   7  -2   2   -0.14    0.13
   8   1  -2    0.08    0.09
   8   1  -2   -0.01    0.08
   8   1  -2    0.00    0.09
   8   1  -2    0.09    0.09
  -8  -1   2   -0.01    0.11
  -8  -1   2   -0.10    0.10
  -8  -1   2    0.10    0.09
  -8  -1   2    0.03    0.10
  -8  -1   2    0.22    0.11
   7   1  -2    0.15    0.03
   7   1  -2    0.15    0.07
   7   1  -2    0.14    0.03
   7   1  -2    0.22    0.08
   7   1  -2    0.09    0.07
  -7  -1   2    0.07    0.07
  -7  -1   2    0.16    0.07
  -7  -1   2    0.10    0.08
   6   1  -2    0.05    0.03
   6   1  -2    0.10    0.06
   6   1  -2    0.04    0.03
   6   1  -2    0.04    0.05
   6   1  -2    0.10    0.06
  -6  -1   2    0.05    0.05
  -6  -1   2    0.05    0.05
  -6  -1   2   -0.05    0.04
  -6  -1   2    0.03    0.05
  -6  -1   2    0.05    0.06
   5   1  -2    3.05    0.12
   5   1  -2    2.87    0.14
   5   1  -2    2.75    0.14
   5   1  -2    2.97    0.09
   5   1  -2    2.90    0.12
   5   1  -2    2.95    0.09
  -5  -1   2    2.87    0.12
  -5  -1   2    3.06    0.13
  -5  -1   2    3.07    0.14
  -5  -1   2    2.87    0.11
  -5  -1   2    2.95    0.13
   4   1  -2   10.13    0.25
   4   1  -2   10.18    0.34
   4   1  -2   10.41    0.28
   4   1  -2   10.07    0.28
   4   1  -2    9.71    0.30
   4   1  -2   10.03    0.25
  -4  -1   2    9.64    0.28
  -4  -1   2    9.77    0.26
  -4  -1   2   10.43    0.27
  -4  -1   2   10.27    0.29
   3   1  -2   36.49    0.92
   3   1  -2   36.83    0.93
   3   1  -2   37.83    0.89
   3   1  -2   37.04    0.85
   3   1  -2   37.64    0.85
   3   1  -2   36.39    0.92
  -3  -1   2   35.98    0.88
  -3  -1   2   36.54    0.92
  -3  -1   2   37.47    0.92
  -3  -1   2   35.97    0.86
  -3  -1   2   37.74    0.86
   2   1  -2   55.71    1.29
   2   1  -2   56.48    1.31
   2   1  -2   54.85    1.37
   2   1  -2   56.90    1.38
   2   1  -2   55.04    1.29
  -2  -1   2   55.22    1.37
  -2  -1   2   56.41    1.29
  -2  -1   2   60.67    1.67
  -2  -1   2   55.66    1.29
  -2  -1   2   53.90    1.31
  -2  -1   2   54.97    1.37
   1   1  -2   86.36    2.16
   1   1  -2   93.33    2.07
   1   1  -2   87.37    2.06
   1   1  -2   85.96    2.04
  -1  -1   2   85.47    2.04
  -1  -1   2   92.32    2.08
  -1  -1   2   90.45    2.20
   0   1  -2   43.35    1.01
   0   1  -2   42.45    1.07
   0   1  -2   43.76    1.00
   0   1  -2   45.43    1.07
   0  -1   2   43.37    1.01
   0  -1   2   45.46    1.07
   0  -1   2   41.89    1.07
   0  -1   2   41.52    1.00
  -1   1  -2    6.92    0.20
  -1   1  -2    7.27    0.18
  -1   1  -2    6.81    0.20
  -1   1  -2    7.23    0.18
  -1   1  -2    6.89    0.19
   1  -1   2    6.82    0.20
   1  -1   2    7.46    0.19
   1  -1   2    6.83    0.20
   1  -1   2    6.50    0.18
  -2   1  -2   19.56    0.52
  -2   1  -2   19.71    0.49
  -2   1  -2   19.80    0.52
  -2   1  -2   18.93    0.49
   2  -1   2   21.30    0.50
   2  -1   2   19.89    0.49
   2  -1   2   20.59    0.49
   2  -1   2   20.01    0.52
   2  -1   2   19.18    0.53
  -3   1  -2    0.44    0.05
  -3   1  -2    0.38    0.04
  -3   1  -2    0.44    0.05
  -3   1  -2    0.36    0.04
   3  -1   2    0.54    0.06
   3  -1   2    0.49    0.05
   3  -1   2    0.47    0.05
   3  -1   2    0.51    0.05
   3  -1   2    0.51    0.06
  -4   1  -2    2.49    0.13
  -4   1  -2    2.32    0.11
  -4   1  -2    2.57    0.12
  -4   1  -2    2.55    0.13
   4  -1   2    2.49    0.13
   4  -1   2    2.44    0.11
   4  -1   2    2.51    0.11
   4  -1   2    2.52    0.11
   4  -1   2    2.59    0.13
  -5   1  -2    0.17    0.05
  -5   1  -2    0.24    0.07
  -5   1  -2    0.10    0.05
  -5   1  -2    0.15    0.06
   5  -1   2    0.15    0.04
   5  -1   2    0.17    0.06
   5  -1   2    0.13    0.05
   5  -1   2    0.19    0.05
   5  -1   2    0.21    0.07
  -6   1  -2    0.10    0.09
  -6   1  -2    0.11    0.08
  -6   1  -2    0.03    0.06
  -6   1  -2   -0.02    0.07
   6  -1   2    0.04    0.05
   6  -1   2    0.02    0.06
   6  -1   2    0.04    0.08
   6  -1   2    0.03    0.06
   6  -1   2    0.00    0.08
  -7   1  -2   -0.02    0.10
  -7   1  -2   -0.13    0.10
  -7   1  -2    0.02    0.11
  -7   1  -2    0.07    0.11
  -7   1  -2   -0.08    0.11
   7  -1   2   -0.02    0.07
   7  -1   2    0.00    0.10
   7  -1   2    0.10    0.09
   7  -1   2   -0.03    0.07
   7  -1   2    0.17    0.09
  -8   1  -2   -0.06    0.16
  -8   1  -2   -0.12    0.18
  -8   1  -2   -0.12    0.14
  -8   1  -2   -0.22    0.16
  -8   1  -2   -0.10    0.13
   8  -1   2    0.08    0.10
   8  -1   2   -0.05    0.10
   8   0  -2   -0.09    0.11
   8   0  -2    0.11    0.06
   8   0  -2    0.35    0.11
   8   0  -2   -0.01    0.10
   8   0  -2    0.18    0.10
   8   0  -2   -0.07    0.06
  -8   0   2    0.00    0.10
  -8   0   2    0.35    0.11
  -8   0   2    0.14    0.12
  -8   0   2    0.47    0.13
  -8   0   2    0.17    0.12
   7   0  -2    0.13    0.05
   7   0  -2    0.17    0.09
   7   0  -2    0.19    0.05
   7   0  -2    0.05    0.07
  -7   0   2    0.01    0.08
  -7   0   2    0.03    0.08
  -7   0   2    0.07    0.08
  -7   0   2    0.09    0.08
   6   0  -2    1.23    0.09
   6   0  -2    1.35    0.11
   6   0  -2    1.20    0.09
   6   0  -2    1.26    0.12
   6   0  -2    1.37    0.12
  -6   0   2    0.97    0.11
  -6   0   2    1.32    0.12
  -6   0   2    1.33    0.12
  -6   0   2    1.23    0.11
  -6   0   2    1.28    0.12
   5   0  -2    5.47    0.20
   5   0  -2    5.92    0.17
   5   0  -2    5.56    0.17
   5   0  -2    5.99    0.20
   5   0  -2    5.34    0.21
  -5   0   2    5.71    0.19
  -5   0   2    5.69    0.21
  -5   0   2    5.79    0.19
  -5   0   2    5.66    0.20
  -5   0   2    5.82    0.20
   4   0  -2    6.07    0.20
   4   0  -2    6.09    0.17
   4   0  -2    6.24    0.20
   4   0  -2    6.37    0.18
   4   0  -2    6.14    0.21
  -4   0   2    6.15    0.19
  -4   0   2    6.03    0.20
  -4   0   2    5.95    0.19
  -4   0   2    5.80    0.20
  -4   0   2    6.34    0.19
   3   0  -2   30.59    0.72
   3   0  -2   30.40    0.78
   3   0  -2   31.43    0.74
   3   0  -2   30.88    0.77
   3   0  -2   31.36    0.72
   3   0  -2   30.10    0.77
  -3   0   2   29.34    0.77
  -3   0   2   31.07    0.74
  -3   0   2   30.27    0.73
  -3   0   2   29.89    0.78
  -3   0   2   30.61    0.73
   2   0  -2    2.26    0.07
   2   0  -2    2.28    0.08
   2   0  -2    2.19    0.08
   2   0  -2    2.44    0.08
   2   0  -2    2.50    0.07
  -2   0   2    2.13    0.08
  -2   0   2    2.37    0.08
  -2   0   2    2.24    0.08
  -2   0   2    2.32    0.08
  -2   0   2    2.38    0.08
   1   0  -2   41.72    1.05
   1   0  -2   43.23    0.99
   1   0  -2   43.20    1.05
   1   0  -2   41.29    0.98
   1   0  -2   42.41    0.99
  -1   0   2   44.30    0.99
  -1   0   2   41.92    1.05
  -1   0   2   43.05    0.99
  -1   0   2   43.91    1.05
  -1   0   2   40.18    0.99
   0   0  -2   58.06    1.42
   0   0  -2   55.07    1.34
   0   0  -2   58.99    1.34
   0   0  -2   54.66    1.42
   0   0   2   59.99    1.42
   0   0   2   58.53    1.35
   0   0   2   60.02    1.42
   0   0   2   59.05    1.34
  -1   0  -2   21.70    0.53
  -1   0  -2   20.36    0.49
  -1   0  -2   20.60    0.53
  -1   0  -2   21.92    0.50
   1   0   2   20.95    0.53
   1   0   2   20.38    0.53
   1   0   2   21.25    0.50
   1   0   2   20.34    0.49
  -2   0  -2   80.95    1.97
  -2   0  -2   77.32    1.97
  -2   0  -2   80.54    1.85
  -2   0  -2   80.55    1.86
   2   0   2   80.79    1.85
   2   0   2   80.48    1.85
   2   0   2   81.12    1.97
   2   0   2   80.29    1.97
  -3   0  -2    1.67    0.07
  -3   0  -2    1.63    0.09
  -3   0  -2    1.70    0.08
  -3   0  -2    1.86    0.08
   3   0   2    1.70    0.07
   3   0   2    1.67    0.08
   3   0   2    1.77    0.05
   3   0   2    1.73    0.07
   3   0   2    1.73    0.08
   3   0   2    1.63    0.09
  -4   0  -2   14.59    0.39
  -4   0  -2   14.99    0.42
  -4   0  -2   14.84    0.38
  -4   0  -2   13.75    0.41
   4   0   2   14.57    0.40
   4   0   2   14.85    0.37
   4   0   2   15.42    0.41
   4   0   2   14.47    0.38
   4   0   2   14.59    0.41
  -5   0  -2    0.06    0.04
  -5   0  -2    0.06    0.05
  -5   0  -2    0.04    0.05
  -5   0  -2    0.03    0.05
   5   0   2    0.01    0.05
   5   0   2    0.09    0.05
   5   0   2    0.12    0.04
   5   0   2    0.14    0.04
   5   0   2    0.06    0.05
  -6   0  -2    1.06    0.11
  -6   0  -2    1.34    0.14
  -6   0  -2    1.26    0.13
   6   0   2    1.49    0.10
   6   0   2    1.24    0.13
   6   0   2    1.28    0.13
   6   0   2    1.29    0.11
   6   0   2    1.29    0.10
  -7   0  -2    0.07    0.09
  -7   0  -2    0.09    0.08
  -7   0  -2    0.04    0.10
  -7   0  -2    0.05    0.09
   7   0   2    0.07    0.08
   7   0   2   -0.02    0.07
   7   0   2    0.17    0.08
   7   0   2   -0.01    0.06
   7   0   2    0.15    0.06
  -8   0  -2   -0.01    0.14
  -8   0  -2   -0.14    0.12
  -8   0  -2    0.18    0.13
  -8   0  -2    0.02    0.14
  -8   0  -2    0.10    0.12
   8   0   2   -0.05    0.07
   8   0   2    0.04    0.11
   8   0   2    0.01    0.12
   8   0   2    0.17    0.09
   8   0   2    0.03    0.11
   8   0   2    0.05    0.08
   8  -1  -2    0.67    0.13
   8  -1  -2    0.66    0.13
   8  -1  -2    0.54    0.14
  -8   1   2    0.48    0.14
  -8   1   2    0.61    0.16
  -8   1   2    0.53    0.14
  -8   1   2    0.36    0.16
  -8   1   2    0.25    0.13
   7  -1  -2   -0.11    0.08
   7  -1  -2    0.06    0.06
   7  -1  -2    0.04    0.06
   7  -1  -2   -0.10    0.10
   7  -1  -2    0.11    0.09
  -7   1   2   -0.12    0.10
  -7   1   2   -0.08    0.09
  -7   1   2    0.01    0.10
  -7   1   2    0.05    0.09
  -7   1   2    0.09    0.08
   6  -1  -2    2.99    0.17
   6  -1  -2    2.74    0.16
   6  -1  -2    2.70    0.15
   6  -1  -2    2.86    0.13
   6  -1  -2    2.77    0.13
  -6   1   2    2.92    0.17
  -6   1   2    2.82    0.16
  -6   1   2    2.54    0.18
  -6   1   2    2.94    0.18
  -6   1   2    2.91    0.16
   5  -1  -2    0.68    0.09
   5  -1  -2    0.63    0.08
   5  -1  -2    0.49    0.06
   5  -1  -2    0.52    0.06
   5  -1  -2    0.42    0.06
  -5   1   2    0.58    0.07
  -5   1   2    0.61    0.08
  -5   1   2    0.53    0.07
  -5   1   2    0.52    0.06
  -5   1   2    0.65    0.07
   4  -1  -2    4.64    0.17
   4  -1  -2    4.62    0.17
   4  -1  -2    4.46    0.15
   4  -1  -2    4.26    0.15
   4  -1  -2    4.55    0.17
  -4   1   2    4.42    0.15
  -4   1   2    4.61    0.17
  -4   1   2    4.47    0.16
  -4   1   2    4.43    0.16
  -4   1   2    4.15    0.17
   3  -1  -2   19.59    0.49
   3  -1  -2   20.17    0.53
   3  -1  -2   19.89    0.49
   3  -1  -2   19.73    0.53
   3  -1  -2   19.63    0.53
  -3   1   2   19.53    0.53
  -3   1   2   20.34    0.50
  -3   1   2   20.77    0.54
  -3   1   2   19.77    0.50
  -3   1   2   20.43    0.50
   2  -1  -2    2.49    0.08
   2  -1  -2    2.48    0.09
   2  -1  -2    2.37    0.09
   2  -1  -2    2.45    0.08
   2  -1  -2    2.48    0.09
  -2   1   2    2.30    0.09
  -2   1   2    2.51    0.09
  -2   1   2    2.60    0.10
  -2   1   2    2.50    0.09
  -2   1   2    2.37    0.08
   1  -1  -2  188.92    4.46
   1  -1  -2  194.99    4.78
   1  -1  -2  186.13    4.49
   1  -1  -2  192.63    4.48
   1  -1  -2  197.73    4.74
  -1   1   2  195.15    4.51
  -1   1   2  203.42    4.79
  -1   1   2  200.93    4.52
  -1   1   2  188.98    4.48
  -1   1   2  182.72    4.73
   0  -1  -2   45.61    1.10
   0  -1  -2   45.07    1.10
   0  -1  -2   45.92    1.03
   0   1   2   44.61    1.04
   0   1   2   44.26    1.10
   0   1   2   41.80    1.10
   0   1   2   44.44    1.03
  -1  -1  -2  211.88    5.04
  -1  -1  -2  210.24    5.03
  -1  -1  -2  226.99    5.37
  -1  -1  -2  216.60    5.35
   1   1   2  217.16    5.33
   1   1   2  218.61    5.04
   1   1   2  224.74    6.55
   1   1   2  216.17    5.03
  -2  -1  -2   48.20    1.14
  -2  -1  -2   50.43    1.15
  -2  -1  -2   49.72    1.22
  -2  -1  -2   48.30    1.22
   2   1   2   49.32    1.15
   2   1   2   50.56    1.22
   2   1   2   50.81    1.22
   2   1   2   48.66    1.14
  -3  -1  -2   18.90    0.45
  -3  -1  -2   18.22    0.48
  -3  -1  -2   17.95    0.45
  -3  -1  -2   18.26    0.48
   3   1   2   18.11    0.48
   3   1   2   18.67    0.48
   3   1   2   18.70    0.44
   3   1   2   18.35    0.45
   3   1   2   19.20    0.47
  -4  -1  -2   31.09    0.81
  -4  -1  -2   31.88    0.76
  -4  -1  -2   31.72    0.77
  -4  -1  -2   31.10    0.81
   4   1   2   33.43    0.80
   4   1   2   31.69    0.75
   4   1   2   32.69    0.75
   4   1   2   30.90    0.81
   4   1   2   30.32    0.81
  -5  -1  -2    0.00    0.04
  -5  -1  -2   -0.05    0.04
  -5  -1  -2   -0.01    0.03
  -5  -1  -2    0.07    0.04
   5   1   2    0.03    0.03
   5   1   2    0.02    0.04
   5   1   2    0.03    0.03
   5   1   2    0.00    0.03
   5   1   2   -0.02    0.04
  -6  -1  -2    9.48    0.31
  -6  -1  -2   10.01    0.30
  -6  -1  -2    9.23    0.30
  -6  -1  -2    9.73    0.28
   6   1   2    9.42    0.25
   6   1   2    9.48    0.26
   6   1   2    8.99    0.31
   6   1   2    8.36    0.30
  -7  -1  -2    0.04    0.08
  -7  -1  -2    0.12    0.08
  -7  -1  -2    0.19    0.08
  -7  -1  -2    0.07    0.08
   7   1   2   -0.07    0.07
   7   1   2    0.06    0.07
   7   1   2    0.08    0.05
   7   1   2    0.03    0.06
  -8  -1  -2    1.51    0.15
  -8  -1  -2    1.40    0.16
  -8  -1  -2    2.11    0.22
  -8  -1  -2    1.84    0.22
  -8  -1  -2    1.92    0.20
   8   1   2    1.91    0.18
   8   1   2    1.64    0.16
   8   1   2    1.86    0.16
   7  -2  -2    0.06    0.12
   7  -2  -2    0.11    0.08
   7  -2  -2   -0.04    0.08
   7  -2  -2    0.04    0.10
   7  -2  -2    0.10    0.09
  -7   2   2   -0.02    0.09
  -7   2   2    0.09    0.13
  -7   2   2    0.11    0.10
  -7   2   2   -0.08    0.12
  -7   2   2   -0.02    0.12
   6  -2  -2    0.16    0.10
   6  -2  -2    0.22    0.08
   6  -2  -2    0.24    0.08
   6  -2  -2    0.25    0.06
  -6   2   2    0.15    0.10
  -6   2   2    0.35    0.08
  -6   2   2    0.20    0.08
  -6   2   2    0.15    0.07
  -6   2   2    0.23    0.09
   5  -2  -2    0.84    0.09
   5  -2  -2    0.88    0.10
   5  -2  -2    0.75    0.09
   5  -2  -2    0.67    0.07
   5  -2  -2    0.72    0.07
  -5   2   2    0.56    0.08
  -5   2   2    0.65    0.09
  -5   2   2    0.76    0.08
  -5   2   2    0.82    0.11
   4  -2  -2    0.29    0.05
   4  -2  -2    0.33    0.05
   4  -2  -2    0.45    0.05
   4  -2  -2    0.57    0.07
   4  -2  -2    0.33    0.06
  -4   2   2    0.40    0.06
  -4   2   2    0.39    0.06
  -4   2   2    0.38    0.05
  -4   2   2    0.44    0.07
  -4   2   2    0.43    0.08
   3  -2  -2   11.46    0.31
   3  -2  -2   10.54    0.33
   3  -2  -2   11.35    0.31
   3  -2  -2   11.48    0.33
  -3   2   2   11.38    0.31
  -3   2   2   11.63    0.31
  -3   2   2   11.52    0.34
  -3   2   2   10.91    0.30
  -3   2   2   11.27    0.33
   2  -2  -2    1.11    0.07
   2  -2  -2    1.03    0.06
   2  -2  -2    1.08    0.07
   2  -2  -2    1.09    0.06
  -2   2   2    1.14    0.06
  -2   2   2    1.08    0.06
  -2   2   2    1.16    0.07
  -2   2   2    1.08    0.06
  -2   2   2    1.18    0.05
   1  -2  -2   35.84    0.82
   1  -2  -2   34.60    0.83
   1  -2  -2   33.47    0.88
   1  -2  -2   35.12    0.83
   1  -2  -2   35.49    0.88
  -1   2   2   37.09    0.88
  -1   2   2   35.59    0.88
  -1   2   2   33.35    0.83
  -1   2   2   35.46    0.83
  -1   2   2   34.27    0.81
   0  -2  -2   10.48    0.28
   0  -2  -2   10.48    0.26
   0  -2  -2    9.96    0.28
   0  -2  -2   10.69    0.26
   0   2   2   10.12    0.28
   0   2   2   10.57    0.26
   0   2   2   10.54    0.26
   0   2   2   10.16    0.28
  -1  -2  -2    9.80    0.24
  -1  -2  -2    9.29    0.26
  -1  -2  -2    9.68    0.24
   1   2   2   10.06    0.24
   1   2   2    9.78    0.26
   1   2   2    9.92    0.24
  -2  -2  -2   28.57    0.86
  -2  -2  -2   26.75    0.65
  -2  -2  -2   28.05    0.69
  -2  -2  -2   27.69    0.69
  -2  -2  -2   27.32    0.65
   2   2   2   28.04    0.69
   2   2   2   27.90    0.64
   2   2   2   27.55    0.69
   2   2   2   28.05    0.65
   2   2   2   28.74    0.71
  -3  -2  -2    0.43    0.04
  -3  -2  -2    0.45    0.04
  -3  -2  -2    0.40    0.03
  -3  -2  -2    0.41    0.04
   3   2   2    0.43    0.05
   3   2   2    0.47    0.04
   3   2   2    0.41    0.02
   3   2   2    0.44    0.04
   3   2   2    0.42    0.04
   3   2   2    0.44    0.05
   3   2   2    0.45    0.02
  -4  -2  -2    1.21    0.07
  -4  -2  -2    1.15    0.06
  -4  -2  -2    1.17    0.06
  -4  -2  -2    1.37    0.07
   4   2   2    1.20    0.04
   4   2   2    1.21    0.06
   4   2   2    1.22    0.09
   4   2   2    1.04    0.08
   4   2   2    1.16    0.04
   4   2   2    1.28    0.07
   4   2   2    1.28    0.07
  -5  -2  -2    0.07    0.04
  -5  -2  -2    0.10    0.04
  -5  -2  -2   -0.02    0.03
  -5  -2  -2    0.06    0.03
   5   2   2    0.06    0.04
   5   2   2    0.13    0.04
   5   2   2    0.02    0.03
   5   2   2    0.04    0.02
   5   2   2    0.04    0.02
   5   2   2    0.10    0.05
   5   2   2    0.06    0.03
  -6  -2  -2    4.20    0.16
  -6  -2  -2    4.38    0.17
  -6  -2  -2    3.71    0.15
   6   2   2    3.55    0.17
   6   2   2    4.07    0.16
   6   2   2    3.59    0.19
   6   2   2    3.99    0.11
   6   2   2    3.88    0.11
   6   2   2    3.70    0.16
  -7  -2  -2    0.39    0.08
  -7  -2  -2    0.51    0.08
  -7  -2  -2    0.41    0.08
  -7  -2  -2    0.44    0.08
   7   2   2    0.44    0.07
   7   2   2    0.52    0.09
   7   2   2    0.33    0.09
  -8  -2  -2    4.87    0.25
  -8  -2  -2    4.98    0.25
  -8  -2  -2    4.49    0.23
  -8  -2  -2    4.76    0.28
  -8  -2  -2    4.80    0.23
   8   2   2    4.74    0.21
   8   2   2    4.44    0.27
   8   2   2    4.56    0.23
   7  -3  -2   -0.09    0.10
   7  -3  -2   -0.10    0.15
   7  -3  -2    0.22    0.13
   7  -3  -2    0.05    0.09
   7  -3  -2    0.09    0.10
  -7   3   2   -0.18    0.10
  -7   3   2   -0.11    0.14
  -7   3   2   -0.28    0.15
  -7   3   2   -0.06    0.16
  -7   3   2    0.05    0.12
   6  -3  -2    0.97    0.12
   6  -3  -2    0.98    0.12
   6  -3  -2    0.87    0.14
   6  -3  -2    0.77    0.10
  -6   3   2    0.97    0.13
  -6   3   2    0.66    0.11
  -6   3   2    0.94    0.14
  -6   3   2    0.71    0.10
  -6   3   2    0.89    0.14
   5  -3  -2    0.42    0.09
   5  -3  -2    0.22    0.07
   5  -3  -2    0.35    0.06
   5  -3  -2    0.28    0.07
  -5   3   2    0.26    0.09
  -5   3   2    0.35    0.06
  -5   3   2    0.30    0.08
  -5   3   2    0.41    0.08
  -5   3   2    0.30    0.09
   4  -3  -2   12.02    0.37
   4  -3  -2   11.74    0.37
   4  -3  -2   11.50    0.34
   4  -3  -2   11.68    0.34
   4  -3  -2   11.44    0.35
  -4   3   2   11.58    0.38
  -4   3   2   11.88    0.35
  -4   3   2   11.90    0.34
  -4   3   2   11.44    0.37
  -4   3   2   11.63    0.32
   3  -3  -2    6.13    0.22
   3  -3  -2    6.42    0.22
   3  -3  -2    6.51    0.20
   3  -3  -2    6.18    0.20
  -3   3   2    6.41    0.22
  -3   3   2    6.38    0.21
  -3   3   2    6.19    0.18
  -3   3   2    6.47    0.21
  -3   3   2    6.00    0.23
   2  -3  -2   52.22    1.25
   2  -3  -2   52.00    1.33
   2  -3  -2   53.05    1.25
   2  -3  -2   51.17    1.33
  -2   3   2   53.58    1.23
  -2   3   2   54.45    1.34
  -2   3   2   52.48    1.25
  -2   3   2   55.48    1.34
  -2   3   2   51.36    1.25
   1  -3  -2   46.38    1.21
   1  -3  -2   48.76    1.21
   1  -3  -2   46.79    1.14
   1  -3  -2   48.36    1.14
  -1   3   2   46.96    1.21
  -1   3   2   48.56    1.14
  -1   3   2   48.64    1.21
  -1   3   2   51.21    1.14
   0  -3  -2   70.76    1.65
   0  -3  -2   74.17    1.75
   0  -3  -2   72.81    1.75
   0  -3  -2   72.60    1.65
   0   3   2   68.03    1.65
   0   3   2   71.72    1.75
   0   3   2   70.47    1.65
   0   3   2   69.22    1.75
  -1  -3  -2  131.89    2.94
  -1  -3  -2  118.24    2.92
  -1  -3  -2  123.72    3.08
   1   3   2  130.18    2.90
   1   3   2  130.20    3.10
   1   3   2  121.66    2.91
  -2  -3  -2   45.89    1.10
  -2  -3  -2   44.71    1.10
  -2  -3  -2   43.88    1.03
  -2  -3  -2   45.88    1.03
   2   3   2   44.08    1.10
   2   3   2   45.04    1.10
   2   3   2   43.19    1.13
  -3  -3  -2   39.57    0.91
  -3  -3  -2   38.67    0.90
  -3  -3  -2   39.45    0.97
  -3  -3  -2   38.96    0.96
   3   3   2   39.59    1.00
   3   3   2   38.95    0.98
   3   3   2   39.56    0.96
   3   3   2   38.31    0.96
  -4  -3  -2    6.99    0.20
  -4  -3  -2    7.15    0.19
  -4  -3  -2    7.01    0.20
  -4  -3  -2    7.01    0.18
   4   3   2    6.91    0.19
   4   3   2    6.85    0.20
   4   3   2    7.09    0.21
   4   3   2    6.88    0.22
  -5  -3  -2    0.27    0.04
  -5  -3  -2    0.21    0.04
  -5  -3  -2    0.25    0.03
  -5  -3  -2    0.26    0.04
   5   3   2    0.23    0.04
   5   3   2    0.28    0.04
   5   3   2    0.22    0.05
   5   3   2    0.28    0.05
  -6  -3  -2    0.01    0.04
  -6  -3  -2   -0.04    0.04
  -6  -3  -2    0.02    0.03
  -6  -3  -2    0.01    0.04
   6   3   2    0.01    0.04
   6   3   2   -0.07    0.05
   6   3   2    0.01    0.04
   6   3   2    0.00    0.03
   6   3   2    0.00    0.04
  -7  -3  -2    0.44    0.07
  -7  -3  -2    0.37    0.06
  -7  -3  -2    0.39    0.07
  -7  -3  -2    0.38    0.07
   7   3   2    0.40    0.10
   7   3   2    0.36    0.08
   7   3   2    0.41    0.06
  -8  -3  -2    0.23    0.09
  -8  -3  -2    0.30    0.09
  -8  -3  -2    0.27    0.08
  -8  -3  -2    0.08    0.11
   8   3   2    0.22    0.09
   8   3   2    0.18    0.07
   8   3   2    0.03    0.07
  -9  -3  -2    0.17    0.12
  -9  -3  -2   -0.32    0.16
  -9  -3  -2   -0.03    0.13
  -9  -3  -2    0.13    0.11
  -9  -3  -2    0.25    0.12
   9   3   2    0.17    0.10
   9   3   2    0.03    0.09
   9   3   2    0.11    0.10
   6  -4  -2    0.05    0.09
   6  -4  -2    0.05    0.09
   6  -4  -2    0.08    0.10
   6  -4  -2    0.16    0.11
   6  -4  -2   -0.05    0.13
  -6   4   2   -0.11    0.12
  -6   4   2    0.04    0.08
  -6   4   2    0.09    0.10
  -6   4   2    0.03    0.14
  -6   4   2    0.11    0.14
   5  -4  -2    3.07    0.21
   5  -4  -2    2.45    0.19
   5  -4  -2    3.02    0.17
   5  -4  -2    3.17    0.16
  -5   4   2    2.81    0.12
  -5   4   2    2.95    0.14
  -5   4   2    2.59    0.23
  -5   4   2    3.01    0.22
  -5   4   2    3.03    0.20
   4  -4  -2    1.84    0.13
   4  -4  -2    1.86    0.14
   4  -4  -2    1.84    0.12
   4  -4  -2    1.81    0.13
   4  -4  -2    1.60    0.14
  -4   4   2    1.57    0.16
  -4   4   2    1.68    0.10
  -4   4   2    1.89    0.16
  -4   4   2    1.80    0.14
   3  -4  -2    7.40    0.24
   3  -4  -2    7.13    0.26
   3  -4  -2    7.25    0.24
   3  -4  -2    7.01    0.25
  -3   4   2    7.28    0.20
  -3   4   2    7.32    0.24
  -3   4   2    7.21    0.27
  -3   4   2    7.36    0.24
  -3   4   2    7.44    0.26
   2  -4  -2    6.59    0.23
   2  -4  -2    6.84    0.21
   2  -4  -2    6.77    0.23
   2  -4  -2    6.54    0.21
  -2   4   2    6.54    0.23
  -2   4   2    6.91    0.24
  -2   4   2    6.77    0.17
  -2   4   2    6.78    0.22
  -2   4   2    6.71    0.21
   1  -4  -2    1.51    0.09
   1  -4  -2    1.35    0.08
   1  -4  -2    1.31    0.08
   1  -4  -2    1.41    0.08
  -1   4   2    1.31    0.08
  -1   4   2    1.25    0.09
  -1   4   2    1.25    0.08
  -1   4   2    1.40    0.08
   0  -4  -2   16.04    0.40
   0  -4  -2   16.74    0.43
   0  -4  -2   15.73    0.40
   0  -4  -2   14.86    0.43
   0   4   2   15.72    0.40
   0   4   2   15.87    0.40
   0   4   2   15.99    0.43
   0   4   2   16.60    0.43
  -1  -4  -2    0.46    0.04
  -1  -4  -2    0.50    0.04
  -1  -4  -2    0.54    0.04
   1   4   2    0.47    0.04
   1   4   2    0.53    0.04
   1   4   2    0.48    0.05
   1   4   2    0.47    0.04
  -2  -4  -2    5.38    0.15
  -2  -4  -2    5.22    0.15
  -2  -4  -2    5.36    0.14
  -2  -4  -2    5.17    0.14
   2   4   2    5.27    0.15
   2   4   2    5.07    0.17
   2   4   2    5.28    0.15
  -3  -4  -2    0.04    0.02
  -3  -4  -2    0.06    0.02
  -3  -4  -2    0.07    0.01
  -3  -4  -2    0.07    0.02
   3   4   2    0.07    0.02
   3   4   2    0.05    0.03
   3   4   2    0.06    0.01
  -4  -4  -2    0.94    0.05
  -4  -4  -2    0.93    0.05
  -4  -4  -2    0.95    0.04
  -4  -4  -2    0.96    0.05
   4   4   2    0.91    0.04
   4   4   2    0.91    0.07
   4   4   2    0.92    0.04
   4   4   2    0.92    0.07
  -5  -4  -2    0.06    0.02
  -5  -4  -2    0.04    0.02
  -5  -4  -2    0.05    0.03
  -5  -4  -2    0.02    0.02
   5   4   2    0.05    0.05
   5   4   2    0.06    0.02
   5   4   2    0.04    0.02
   5   4   2    0.00    0.04
  -6  -4  -2    0.80    0.07
  -6  -4  -2    0.82    0.07
  -6  -4  -2    0.72    0.07
  -6  -4  -2    0.76    0.06
   6   4   2    0.72    0.05
   6   4   2    0.79    0.08
   6   4   2    0.90    0.09
   6   4   2    0.73    0.05
  -7  -4  -2   -0.02    0.05
  -7  -4  -2    0.05    0.05
  -7  -4  -2   -0.01    0.04
  -7  -4  -2   -0.01    0.04
   7   4   2   -0.04    0.06
   7   4   2    0.01    0.05
   7   4   2    0.00    0.03
   7   4   2    0.07    0.04
  -8  -4  -2    0.03    0.06
  -8  -4  -2    0.03    0.07
  -8  -4  -2    0.17    0.08
  -8  -4  -2    0.03    0.06
  -8  -4  -2    0.02    0.11
   8   4   2   -0.04    0.05
   8   4   2   -0.04    0.05
  -9  -4  -2   -0.11    0.10
  -9  -4  -2    0.00    0.09
  -9  -4  -2    0.13    0.10
  -9  -4  -2   -0.26    0.14
  -9  -4  -2   -0.25    0.11
   9   4   2   -0.02    0.07
   9   4   2    0.07    0.10
   9   4   2    0.00    0.07
   6  -5  -2    0.02    0.17
   6  -5  -2   -0.09    0.11
   6  -5  -2    0.12    0.15
   6  -5  -2    0.01    0.11
   6  -5  -2    0.04    0.12
  -6   5   2    0.01    0.09
  -6   5   2    0.29    0.18
  -6   5   2   -0.04    0.17
  -6   5   2    0.07    0.19
   5  -5  -2    0.80    0.12
   5  -5  -2    1.04    0.14
   5  -5  -2    1.21    0.13
   5  -5  -2    1.21    0.14
   5  -5  -2    1.17    0.17
  -5   5   2    1.01    0.16
  -5   5   2    1.24    0.16
  -5   5   2    0.96    0.12
  -5   5   2    1.04    0.09
  -5   5   2    1.18    0.10
  -5   5   2    1.25    0.18
   4  -5  -2    0.64    0.10
   4  -5  -2    0.55    0.09
   4  -5  -2    0.60    0.11
   4  -5  -2    0.52    0.09
   4  -5  -2    0.55    0.08
  -4   5   2    0.53    0.12
  -4   5   2    0.61    0.06
  -4   5   2    0.41    0.08
  -4   5   2    0.66    0.08
  -4   5   2    0.75    0.12
  -4   5   2    0.71    0.11
   3  -5  -2    0.47    0.08
   3  -5  -2    0.64    0.09
   3  -5  -2    0.68    0.09
  -3   5   2    0.53    0.05
  -3   5   2    0.51    0.10
  -3   5   2    0.57    0.07
  -3   5   2    0.56    0.09
  -3   5   2    0.38    0.07
  -3   5   2    0.48    0.08
   2  -5  -2    9.79    0.29
   2  -5  -2    9.66    0.31
   2  -5  -2    9.94    0.32
   2  -5  -2    9.55    0.29
  -2   5   2    9.47    0.32
  -2   5   2    9.63    0.29
  -2   5   2    9.79    0.30
  -2   5   2   10.10    0.29
  -2   5   2    9.86    0.33
   1  -5  -2    0.36    0.05
   1  -5  -2    0.42    0.06
   1  -5  -2    0.59    0.07
   1  -5  -2    0.40    0.06
  -1   5   2    0.51    0.06
  -1   5   2    0.42    0.07
  -1   5   2    0.42    0.05
  -1   5   2    0.68    0.08
  -1   5   2    0.51    0.06
   0  -5  -2   19.03    0.50
   0  -5  -2   20.49    0.54
   0  -5  -2   19.30    0.50
   0  -5  -2   19.19    0.53
   0   5   2   20.51    0.54
   0   5   2   20.48    0.50
   0   5   2   20.22    0.50
   0   5   2   20.02    0.54
   0   5   2   19.23    0.53
  -1  -5  -2   11.60    0.33
  -1  -5  -2   11.55    0.31
  -1  -5  -2   11.87    0.33
  -1  -5  -2   12.19    0.28
  -1  -5  -2   12.04    0.31
   1   5   2   12.41    0.30
   1   5   2   11.77    0.33
   1   5   2   11.73    0.34
   1   5   2   12.04    0.30
  -2  -5  -2    2.29    0.09
  -2  -5  -2    2.25    0.09
  -2  -5  -2    2.20    0.08
  -2  -5  -2    2.27    0.08
  -2  -5  -2    2.29    0.08
   2   5   2    2.18    0.09
   2   5   2    2.14    0.10
   2   5   2    2.34    0.09
  -3  -5  -2   34.31    0.80
  -3  -5  -2   34.05    0.80
  -3  -5  -2   34.02    0.85
  -3  -5  -2   34.28    0.85
   3   5   2   33.90    0.85
   3   5   2   35.07    0.90
  -4  -5  -2    0.95    0.04
  -4  -5  -2    1.03    0.05
  -4  -5  -2    0.96    0.04
  -4  -5  -2    0.95    0.04
   4   5   2    1.00    0.08
  -5  -5  -2   16.49    0.40
  -5  -5  -2   16.23    0.40
  -5  -5  -2   15.99    0.38
  -5  -5  -2   15.60    0.38
   5   5   2   15.72    0.46
   5   5   2   15.17    0.45
  -6  -5  -2    2.48    0.10
  -6  -5  -2    2.54    0.09
  -6  -5  -2    2.63    0.09
  -6  -5  -2    2.58    0.09
  -6  -5  -2    2.59    0.15
   6   5   2    2.54    0.14
   6   5   2    2.71    0.13
  -7  -5  -2    2.67    0.11
  -7  -5  -2    2.99    0.19
  -7  -5  -2    2.54    0.12
  -7  -5  -2    2.85    0.11
  -7  -5  -2    2.76    0.11
   7   5   2    2.73    0.14
   7   5   2    2.50    0.16
  -8  -5  -2    1.27    0.10
  -8  -5  -2    1.26    0.16
  -8  -5  -2    1.27    0.14
  -8  -5  -2    1.44    0.11
  -8  -5  -2    1.38    0.10
   8   5   2    1.37    0.15
  -9  -5  -2    0.36    0.12
  -9  -5  -2    0.29    0.11
  -9  -5  -2    0.15    0.08
  -9  -5  -2    0.41    0.16
  -9  -5  -2    0.37    0.08
   9   5   2    0.24    0.10
   5  -6  -2   -0.20    0.12
   5  -6  -2    0.23    0.12
   5  -6  -2    0.10    0.16
   5  -6  -2    0.08    0.10
   5  -6  -2    0.17    0.15
  -5   6   2    0.16    0.14
  -5   6   2    0.15    0.17
  -5   6   2   -0.02    0.06
  -5   6   2    0.06    0.07
  -5   6   2   -0.05    0.13
  -5   6   2   -0.03    0.19
   4  -6  -2    1.72    0.17
   4  -6  -2    1.24    0.16
   4  -6  -2    1.65    0.17
   4  -6  -2    1.87    0.19
   4  -6  -2    1.61    0.13
  -4   6   2    1.63    0.12
  -4   6   2    1.59    0.16
  -4   6   2    1.75    0.19
  -4   6   2    1.50    0.19
  -4   6   2    1.52    0.14
   3  -6  -2    0.68    0.10
   3  -6  -2    0.81    0.09
   3  -6  -2    0.85    0.11
  -3   6   2    0.77    0.09
  -3   6   2    0.77    0.13
  -3   6   2    0.66    0.10
   2  -6  -2    5.85    0.22
   2  -6  -2    5.84    0.24
   2  -6  -2    5.87    0.24
  -2   6   2    5.92    0.24
  -2   6   2    5.83    0.22
  -2   6   2    6.09    0.26
  -2   6   2    5.79    0.20
   1  -6  -2    0.10    0.05
   1  -6  -2    0.12    0.05
   1  -6  -2    0.05    0.05
   1  -6  -2    0.06    0.05
  -1   6   2    0.09    0.04
  -1   6   2    0.00    0.05
  -1   6   2    0.06    0.06
  -1   6   2    0.04    0.06
  -1   6   2    0.09    0.04
   0  -6  -2   10.10    0.32
   0  -6  -2   10.46    0.33
   0  -6  -2   11.07    0.31
   0  -6  -2   11.05    0.31
   0   6   2   11.25    0.30
   0   6   2   11.16    0.33
   0   6   2   10.61    0.33
   0   6   2   10.52    0.33
   0   6   2   10.54    0.30
  -1  -6  -2    6.73    0.20
  -1  -6  -2    6.60    0.20
  -1  -6  -2    6.65    0.21
  -1  -6  -2    6.43    0.21
   1   6   2    6.35    0.21
   1   6   2    6.60    0.19
   1   6   2    5.66    0.21
   1   6   2    6.64    0.22
   1   6   2    6.74    0.19
  -2  -6  -2   12.94    0.32
  -2  -6  -2   13.65    0.34
  -2  -6  -2   13.24    0.36
  -2  -6  -2   13.59    0.36
  -2  -6  -2   12.74    0.34
   2   6   2   13.56    0.36
   2   6   2   12.62    0.39
   2   6   2   12.99    0.36
  -3  -6  -2   10.05    0.25
  -3  -6  -2    9.80    0.25
  -3  -6  -2    9.93    0.27
  -3  -6  -2    9.88    0.27
  -3  -6  -2    9.90    0.27
   3   6   2    9.75    0.27
   3   6   2    9.02    0.30
   3   6   2    9.86    0.27
  -4  -6  -2    2.82    0.09
  -4  -6  -2    2.69    0.09
  -4  -6  -2    2.60    0.09
  -4  -6  -2    2.58    0.12
  -4  -6  -2    2.71    0.09
   4   6   2    2.59    0.13
  -5  -6  -2    1.09    0.10
  -5  -6  -2    1.09    0.05
  -5  -6  -2    1.18    0.06
   5   6   2    1.09    0.09
  -6  -6  -2    0.10    0.03
   6   6   2    0.16    0.06
   6   6   2    0.11    0.06
  -7  -6  -2    0.09    0.05
  -7  -6  -2    0.03    0.03
  -7  -6  -2   -0.09    0.07
   7   6   2    0.14    0.07
   7   6   2    0.03    0.06
  -8  -6  -2    0.27    0.12
  -8  -6  -2    0.23    0.07
  -8  -6  -2    0.25    0.06
   8   6   2    0.24    0.07
   8   6   2    0.22    0.08
  -9  -6  -2    0.24    0.10
  -9  -6  -2    0.42    0.18
  -9  -6  -2    0.35    0.09
   9   6   2    0.25    0.10
   4  -7  -2    0.33    0.16
   4  -7  -2    0.20    0.15
   4  -7  -2    0.46    0.13
   4  -7  -2    0.35    0.10
   4  -7  -2    0.26    0.11
  -4   7   2    0.29    0.16
  -4   7   2    0.39    0.15
  -4   7   2    0.35    0.09
  -4   7   2    0.27    0.12
  -4   7   2    0.03    0.19
   3  -7  -2    0.56    0.13
   3  -7  -2    0.64    0.12
   3  -7  -2    0.41    0.10
   3  -7  -2    0.39    0.13
   3  -7  -2    0.74    0.09
  -3   7   2    0.35    0.14
  -3   7   2    0.46    0.10
  -3   7   2    0.52    0.09
  -3   7   2    0.38    0.11
  -3   7   2    0.34    0.12
   2  -7  -2   -0.02    0.08
   2  -7  -2   -0.13    0.07
   2  -7  -2   -0.06    0.07
   2  -7  -2   -0.05    0.07
  -2   7   2   -0.09    0.10
  -2   7   2   -0.08    0.08
  -2   7   2   -0.02    0.06
  -2   7   2    0.00    0.09
   1  -7  -2    0.26    0.07
   1  -7  -2    0.09    0.07
   1  -7  -2    0.19    0.07
   1  -7  -2    0.23    0.07
  -1   7   2    0.30    0.08
  -1   7   2    0.22    0.08
  -1   7   2    0.33    0.07
  -1   7   2    0.15    0.07
  -1   7   2    0.17    0.06
   0  -7  -2    2.96    0.15
   0  -7  -2    2.89    0.15
   0  -7  -2    2.98    0.16
   0  -7  -2    2.87    0.15
   0   7   2    2.86    0.14
   0   7   2    2.78    0.14
   0   7   2    2.66    0.15
   0   7   2    2.41    0.16
   0   7   2    2.63    0.13
  -1  -7  -2    0.02    0.04
  -1  -7  -2   -0.03    0.04
  -1  -7  -2    0.00    0.04
  -1  -7  -2    0.03    0.04
   1   7   2   -0.02    0.05
   1   7   2    0.06    0.03
   1   7   2   -0.05    0.04
   1   7   2    0.09    0.05
   1   7   2    0.04    0.05
  -2  -7  -2    3.19    0.10
  -2  -7  -2    3.31    0.14
  -2  -7  -2    3.15    0.13
  -2  -7  -2    3.30    0.14
  -2  -7  -2    3.30    0.13
   2   7   2    3.33    0.16
   2   7   2    3.39    0.14
   2   7   2    3.32    0.14
  -3  -7  -2    2.29    0.10
  -3  -7  -2    2.36    0.10
  -3  -7  -2    2.38    0.10
  -3  -7  -2    2.40    0.10
  -3  -7  -2    2.38    0.10
   3   7   2    2.42    0.10
   3   7   2    2.35    0.10
   3   7   2    2.23    0.13
  -4  -7  -2    0.00    0.03
  -4  -7  -2   -0.01    0.02
  -4  -7  -2   -0.03    0.03
  -4  -7  -2    0.04    0.04
  -4  -7  -2   -0.01    0.02
   4   7   2    0.05    0.06
   4   7   2   -0.02    0.02
   4   7   2    0.01    0.02
  -5  -7  -2    6.38    0.22
  -5  -7  -2    6.45    0.18
  -5  -7  -2    6.43    0.17
   5   7   2    6.36    0.24
  -6  -7  -2    0.70    0.06
  -6  -7  -2    0.55    0.05
   6   7   2    0.83    0.10
  -7  -7  -2    3.43    0.12
  -7  -7  -2    3.29    0.11
  -7  -7  -2    3.38    0.21
   7   7   2    3.34    0.18
  -8  -7  -2    0.42    0.07
  -8  -7  -2    0.43    0.05
  -8  -7  -2    0.39    0.13
   8   7   2    0.32    0.09
   8   7   2    0.33    0.11
   3  -8  -2    0.12    0.14
   3  -8  -2    0.59    0.15
   3  -8  -2    0.26    0.16
   3  -8  -2    0.16    0.10
   3  -8  -2    0.25    0.13
  -3   8   2    0.20    0.09
  -3   8   2    0.19    0.15
  -3   8   2    0.50    0.12
  -3   8   2    0.22    0.13
   2  -8  -2    0.10    0.10
   2  -8  -2    0.24    0.12
   2  -8  -2    0.07    0.11
   2  -8  -2   -0.04    0.10
  -2   8   2    0.07    0.10
  -2   8   2    0.15    0.07
  -2   8   2    0.18    0.14
  -2   8   2    0.16    0.12
  -2   8   2    0.12    0.09
   1  -8  -2    0.97    0.11
   1  -8  -2    1.16    0.13
   1  -8  -2    1.07    0.12
   1  -8  -2    1.15    0.13
  -1   8   2    1.01    0.11
  -1   8   2    0.94    0.11
  -1   8   2    1.01    0.12
  -1   8   2    0.92    0.14
  -1   8   2    0.95    0.12
   0  -8  -2    3.58    0.18
   0  -8  -2    3.42    0.18
   0  -8  -2    3.29    0.18
   0  -8  -2    3.50    0.18
   0   8   2    3.50    0.17
   0   8   2    3.54    0.17
   0   8   2    3.56    0.19
   0   8   2    3.55    0.21
   0   8   2    3.31    0.16
  -1  -8  -2    0.30    0.07
  -1  -8  -2    0.14    0.06
  -1  -8  -2    0.13    0.06
  -1  -8  -2    0.10    0.06
   1   8   2    0.12    0.06
   1   8   2    0.17    0.08
   1   8   2    0.12    0.05
   1   8   2    0.11    0.05
  -2  -8  -2   12.25    0.35
  -2  -8  -2   12.55    0.35
  -2  -8  -2   12.32    0.37
  -2  -8  -2   12.53    0.37
   2   8   2   12.26    0.37
   2   8   2   12.05    0.39
   2   8   2   12.73    0.37
  -3  -8  -2    2.82    0.11
  -3  -8  -2    2.97    0.13
  -3  -8  -2    2.98    0.13
  -3  -8  -2    3.06    0.13
  -3  -8  -2    3.34    0.13
   3   8   2    3.01    0.16
   3   8   2    3.17    0.13
   3   8   2    2.83    0.13
  -4  -8  -2   17.89    0.46
  -4  -8  -2   18.15    0.47
  -4  -8  -2   18.33    0.48
  -4  -8  -2   18.19    0.46
   4   8   2   18.12    0.46
   4   8   2   17.91    0.54
   4   8   2   18.55    0.47
  -5  -8  -2    4.65    0.15
  -5  -8  -2    4.83    0.15
  -6  -8  -2    9.64    0.25
  -6  -8  -2    9.95    0.32
  -6  -8  -2    9.70    0.25
   6   8   2   10.03    0.35
  -7  -8  -2    1.89    0.09
  -7  -8  -2    1.82    0.08
  -7  -8  -2    1.37    0.14
   7   8   2    1.73    0.15
  -8  -8  -2    2.78    0.11
  -8  -8  -2    2.83    0.13
  -8  -8  -2    2.34    0.24
   8   8   2    3.00    0.20
   2  -9  -2    0.04    0.14
   2  -9  -2    0.05    0.15
   2  -9  -2    0.15    0.14
   2  -9  -2    0.16    0.15
  -2   9   2    0.24    0.18
  -2   9   2    0.06    0.13
  -2   9   2    0.06    0.09
  -2   9   2   -0.11    0.13
  -2   9   2   -0.18    0.16
   1  -9  -2    2.11    0.22
   1  -9  -2    1.98    0.18
   1  -9  -2    2.12    0.21
   1  -9  -2    1.96    0.17
  -1   9   2    1.84    0.18
  -1   9   2    2.08    0.20
  -1   9   2    1.69    0.15
   0  -9  -2    0.41    0.11
   0  -9  -2    0.67    0.11
   0  -9  -2    0.60    0.11
   0  -9  -2    0.53    0.10
   0   9   2    0.52    0.10
   0   9   2    0.18    0.12
   0   9   2    0.58    0.09
   0   9   2    0.50    0.10
   0   9   2    0.45    0.09
  -1  -9  -2    3.40    0.19
  -1  -9  -2    3.51    0.19
  -1  -9  -2    3.36    0.19
  -1  -9  -2    3.27    0.19
   1   9   2    3.34    0.15
   1   9   2    3.69    0.19
   1   9   2    3.43    0.15
  -2  -9  -2    4.31    0.18
  -2  -9  -2    3.90    0.19
  -2  -9  -2    3.81    0.18
   2   9   2    4.22    0.20
   2   9   2    3.93    0.18
  -3  -9  -2    3.73    0.16
  -3  -9  -2    3.42    0.16
  -3  -9  -2    3.93    0.17
  -3  -9  -2    3.82    0.16
   3   9   2    3.51    0.16
   3   9   2    3.76    0.20
  -4  -9  -2    2.32    0.12
  -4  -9  -2    2.49    0.12
  -4  -9  -2    2.34    0.11
  -4  -9  -2    2.41    0.12
  -4  -9  -2    2.31    0.12
   4   9   2    2.29    0.11
   4   9   2    2.55    0.17
  -5  -9  -2    2.20    0.14
  -5  -9  -2    2.36    0.08
  -5  -9  -2    2.54    0.09
  -5  -9  -2    2.33    0.12
  -5  -9  -2    2.47    0.12
   5   9   2    2.66    0.18
  -6  -9  -2    0.08    0.04
  -6  -9  -2   -0.01    0.05
  -6  -9  -2    0.06    0.08
   6   9   2   -0.03    0.08
  -7  -9  -2    1.07    0.07
  -7  -9  -2    1.15    0.09
  -7  -9  -2    1.16    0.14
   7   9   2    1.49    0.15
  -8  -9  -2    0.45    0.16
  -8  -9  -2    0.75    0.06
   8   9   2    0.74    0.14
   0 -10  -2    0.05    0.12
   0 -10  -2    0.02    0.12
   0 -10  -2   -0.04    0.12
   0 -10  -2    0.10    0.12
   0  10   2   -0.09    0.10
   0  10   2    0.23    0.15
   0  10   2    0.14    0.09
   0  10   2    0.20    0.13
  -1 -10  -2    6.76    0.30
  -1 -10  -2    7.10    0.30
  -1 -10  -2    6.75    0.29
  -1 -10  -2    6.67    0.29
   1  10   2    7.06    0.29
   1  10   2    6.50    0.23
   1  10   2    6.68    0.30
  -2 -10  -2    0.78    0.11
  -2 -10  -2    0.92    0.12
  -2 -10  -2    0.84    0.11
  -2 -10  -2    0.79    0.11
   2  10   2    1.01    0.13
   2  10   2    0.89    0.11
  -3 -10  -2    4.22    0.20
  -3 -10  -2    3.91    0.19
  -3 -10  -2    4.24    0.19
   3  10   2    4.13    0.22
   3  10   2    4.00    0.19
  -4 -10  -2    1.66    0.14
  -4 -10  -2    1.65    0.14
  -4 -10  -2    1.64    0.12
  -4 -10  -2    1.92    0.13
   4  10   2    1.76    0.17
   4  10   2    1.89    0.11
  -5 -10  -2    0.28    0.07
  -5 -10  -2    0.07    0.04
  -5 -10  -2    0.22    0.07
  -5 -10  -2    0.14    0.05
  -5 -10  -2    0.26    0.08
   5  10   2    0.06    0.08
  -6 -10  -2    1.66    0.12
  -6 -10  -2    1.60    0.17
  -6 -10  -2    1.46    0.11
   6  10   2    1.70    0.16
  -7 -10  -2    0.24    0.12
  -7 -10  -2    0.24    0.06
  -7 -10  -2    0.34    0.06
   7  10   2    0.45    0.11
  -2 -11  -2   -0.07    0.12
  -2 -11  -2   -0.27    0.11
  -2 -11  -2    0.05    0.11
  -2 -11  -2   -0.01    0.12
   2  11   2   -0.05    0.09
  -3 -11  -2    0.66    0.11
  -3 -11  -2    0.67    0.12
  -3 -11  -2    0.71    0.13
  -3 -11  -2    0.55    0.11
   3  11   2    0.74    0.14
   3  11   2    0.50    0.11
  -4 -11  -2    0.91    0.10
  -4 -11  -2    0.61    0.11
  -4 -11  -2    0.86    0.13
  -4 -11  -2    0.65    0.09
   4  11   2    0.69    0.13
   4  11   2    0.77    0.09
  -5 -11  -2    0.34    0.10
  -5 -11  -2    0.12    0.08
  -5 -11  -2    0.13    0.06
   5  11   2    0.07    0.11
  -5 -10   3    0.70    0.10
  -5 -10   3    0.63    0.07
  -5 -10   3    0.47    0.07
   4  10  -3    2.87    0.15
  -4 -10   3    2.84    0.19
  -4 -10   3    2.72    0.21
  -4 -10   3    2.70    0.17
  -4 -10   3    2.69    0.17
   3  10  -3   -0.14    0.09
   3  10  -3   -0.09    0.10
  -3 -10   3    0.07    0.10
  -3 -10   3    0.05    0.10
  -3 -10   3    0.02    0.09
  -3 -10   3    0.05    0.11
  -2 -10   3    1.87    0.21
  -2 -10   3    1.82    0.21
  -2 -10   3    1.87    0.18
  -2 -10   3    1.72    0.20
   7   9  -3    1.22    0.14
  -7  -9   3    1.18    0.09
  -7  -9   3    1.35    0.16
   6   9  -3    3.13    0.18
  -6  -9   3    2.91    0.15
  -6  -9   3    2.97    0.14
   5   9  -3    1.70    0.13
  -5  -9   3    1.36    0.13
  -5  -9   3    1.55    0.12
  -5  -9   3    1.50    0.10
  -5  -9   3    1.56    0.09
   4   9  -3    8.19    0.25
  -4  -9   3    7.80    0.26
  -4  -9   3    7.90    0.26
  -4  -9   3    8.25    0.27
  -4  -9   3    7.88    0.27
   3   9  -3    0.12    0.07
   3   9  -3    0.00    0.08
  -3  -9   3    0.13    0.07
  -3  -9   3    0.13    0.07
  -3  -9   3    0.21    0.08
   2   9  -3    7.36    0.28
   2   9  -3    7.12    0.24
  -2  -9   3    7.66    0.31
  -2  -9   3    7.23    0.28
  -2  -9   3    6.93    0.28
  -2  -9   3    7.64    0.27
   1   9  -3    0.72    0.12
   1   9  -3    0.90    0.09
  -1  -9   3    0.86    0.12
  -1  -9   3    1.04    0.12
  -1  -9   3    0.70    0.12
  -1  -9   3    1.00    0.15
   0   9  -3    3.03    0.21
   0   9  -3    2.88    0.23
   0  -9   3    3.24    0.23
   0  -9   3    3.26    0.26
   0  -9   3    2.44    0.23
  -7  -8   3    1.24    0.14
  -7  -8   3    1.19    0.09
  -7  -8   3    0.98    0.10
   6   8  -3    0.16    0.07
  -6  -8   3    0.19    0.06
  -6  -8   3    0.09    0.05
  -6  -8   3    0.19    0.08
   5   8  -3    0.71    0.09
  -5  -8   3    0.55    0.06
  -5  -8   3    0.58    0.07
  -5  -8   3    0.56    0.06
  -5  -8   3    0.62    0.06
   4   8  -3    0.65    0.09
   4   8  -3    0.72    0.08
   4   8  -3    0.69    0.06
  -4  -8   3    0.73    0.08
  -4  -8   3    0.62    0.07
  -4  -8   3    0.51    0.07
  -4  -8   3    0.69    0.07
   3   8  -3    0.28    0.06
   3   8  -3    0.33    0.06
   3   8  -3    0.27    0.07
  -3  -8   3    0.27    0.06
  -3  -8   3    0.16    0.07
  -3  -8   3    0.24    0.07
  -3  -8   3    0.25    0.06
   2   8  -3    3.47    0.17
   2   8  -3    3.80    0.15
   2   8  -3    3.46    0.18
  -2  -8   3    3.68    0.20
  -2  -8   3    3.64    0.17
  -2  -8   3    3.35    0.17
   1   8  -3    2.11    0.13
   1   8  -3    2.09    0.11
   1   8  -3    2.25    0.12
  -1  -8   3    2.05    0.16
  -1  -8   3    1.98    0.15
  -1  -8   3    2.08    0.16
  -1  -8   3    2.08    0.18
   0   8  -3    1.75    0.11
   0   8  -3    1.80    0.16
   0   8  -3    1.90    0.14
   0   8  -3    1.72    0.17
   0  -8   3    1.66    0.18
   0  -8   3    1.83    0.16
   0  -8   3    2.08    0.18
   0  -8   3    1.51    0.16
  -1   8  -3    1.62    0.16
  -1   8  -3    0.99    0.16
  -1   8  -3    1.34    0.15
   1  -8   3    1.91    0.18
   1  -8   3    1.80    0.21
   1  -8   3    1.97    0.20
   1  -8   3    1.31    0.15
  -2   8  -3    0.03    0.13
  -2   8  -3    0.07    0.12
  -2   8  -3    0.00    0.05
  -2   8  -3    0.06    0.14
  -2   8  -3   -0.13    0.16
   2  -8   3    0.08    0.11
   2  -8   3   -0.02    0.15
   2  -8   3    0.03    0.13
   8   7  -3    1.48    0.16
  -8  -7   3    1.42    0.12
  -8  -7   3    1.34    0.17
  -8  -7   3    1.30    0.12
   7   7  -3    1.82    0.15
  -7  -7   3    1.94    0.10
  -7  -7   3    1.85    0.10
  -7  -7   3    2.06    0.19
   6   7  -3    4.25    0.20
  -6  -7   3    4.34    0.20
  -6  -7   3    4.17    0.14
   5   7  -3    0.27    0.07
  -5  -7   3    0.10    0.04
  -5  -7   3    0.12    0.04
  -5  -7   3    0.14    0.03
   4   7  -3   12.80    0.34
   4   7  -3   12.96    0.37
   4   7  -3   12.62    0.37
  -4  -7   3   12.52    0.35
  -4  -7   3   12.65    0.33
  -4  -7   3   12.48    0.35
  -4  -7   3   12.44    0.34
   3   7  -3    1.06    0.08
   3   7  -3    1.28    0.08
   3   7  -3    1.09    0.09
   3   7  -3    1.16    0.11
  -3  -7   3    1.22    0.09
  -3  -7   3    1.11    0.09
  -3  -7   3    1.14    0.10
  -3  -7   3    1.26    0.09
   2   7  -3   14.78    0.42
   2   7  -3   13.85    0.41
   2   7  -3   14.06    0.34
   2   7  -3   14.01    0.38
  -2  -7   3   13.99    0.41
  -2  -7   3   14.07    0.39
  -2  -7   3   13.64    0.38
  -2  -7   3   13.75    0.41
   1   7  -3    0.59    0.06
   1   7  -3    0.61    0.07
   1   7  -3    0.69    0.07
   1   7  -3    0.45    0.09
  -1  -7   3    0.76    0.09
  -1  -7   3    0.75    0.10
  -1  -7   3    0.58    0.08
  -1  -7   3    0.88    0.09
   0   7  -3    4.81    0.16
   0   7  -3    4.72    0.18
   0   7  -3    4.81    0.19
   0   7  -3    5.01    0.23
   0   7  -3    4.38    0.21
   0  -7   3    4.66    0.21
   0  -7   3    5.10    0.21
   0  -7   3    4.62    0.20
   0  -7   3    4.37    0.23
  -1   7  -3    0.19    0.10
  -1   7  -3    0.02    0.08
  -1   7  -3    0.16    0.05
  -1   7  -3    0.03    0.07
  -1   7  -3    0.31    0.09
   1  -7   3    0.18    0.09
   1  -7   3    0.11    0.08
   1  -7   3    0.20    0.10
   1  -7   3    0.24    0.08
  -2   7  -3    0.39    0.11
  -2   7  -3    0.71    0.15
  -2   7  -3    0.49    0.10
  -2   7  -3    0.72    0.12
   2  -7   3    0.66    0.10
   2  -7   3    0.43    0.14
   2  -7   3    0.72    0.13
   2  -7   3    0.71    0.13
  -3   7  -3    0.11    0.13
  -3   7  -3    0.34    0.15
  -3   7  -3    0.21    0.14
   3  -7   3    0.12    0.13
   3  -7   3    0.61    0.19
   3  -7   3    0.32    0.15
   3  -7   3    0.32    0.12
   8   6  -3    4.99    0.25
  -8  -6   3    4.99    0.19
  -8  -6   3    4.78    0.19
  -8  -6   3    5.59    0.28
   7   6  -3    0.58    0.12
  -7  -6   3    0.73    0.12
  -7  -6   3    0.90    0.09
  -7  -6   3    0.61    0.06
   6   6  -3   13.03    0.42
  -6  -6   3   13.09    0.39
  -6  -6   3   13.15    0.33
  -6  -6   3   13.17    0.34
   5   6  -3    4.14    0.18
   5   6  -3    4.14    0.19
  -5  -6   3    4.09    0.13
  -5  -6   3    4.27    0.18
  -5  -6   3    4.09    0.12
  -5  -6   3    4.23    0.13
  -5  -6   3    4.11    0.12
   4   6  -3   14.65    0.41
   4   6  -3   14.80    0.42
   4   6  -3   14.94    0.38
   4   6  -3   14.78    0.38
  -4  -6   3   14.19    0.39
  -4  -6   3   14.97    0.37
  -4  -6   3   14.64    0.37
  -4  -6   3   14.71    0.40
  -4  -6   3   14.78    0.39
   3   6  -3    4.66    0.15
   3   6  -3    4.66    0.17
   3   6  -3    4.55    0.16
   3   6  -3    4.52    0.16
  -3  -6   3    4.59    0.16
  -3  -6   3    4.46    0.16
  -3  -6   3    4.47    0.15
  -3  -6   3    4.73    0.15
   2   6  -3    3.40    0.10
   2   6  -3    3.21    0.14
   2   6  -3    3.36    0.10
   2   6  -3    3.52    0.14
   2   6  -3    3.53    0.12
   2   6  -3    3.37    0.13
  -2  -6   3    3.29    0.14
  -2  -6   3    3.47    0.13
  -2  -6   3    3.45    0.15
  -2  -6   3    3.36    0.14
   1   6  -3    0.11    0.04
   1   6  -3    0.06    0.05
   1   6  -3    0.08    0.04
   1   6  -3    0.07    0.05
   1   6  -3    0.06    0.04
  -1  -6   3    0.08    0.04
  -1  -6   3    0.07    0.05
  -1  -6   3    0.11    0.05
  -1  -6   3    0.08    0.05
   0   6  -3    0.27    0.07
   0   6  -3    0.28    0.04
   0   6  -3    0.22    0.05
   0   6  -3    0.23    0.06
   0  -6   3    0.17    0.06
   0  -6   3    0.24    0.06
   0  -6   3    0.26    0.07
  -1   6  -3    0.41    0.08
  -1   6  -3    0.29    0.08
  -1   6  -3    0.34    0.07
  -1   6  -3    0.46    0.09
   1  -6   3    0.54    0.10
   1  -6   3    0.44    0.08
   1  -6   3    0.53    0.08
   1  -6   3    0.41    0.09
  -2   6  -3    0.50    0.10
  -2   6  -3    0.37    0.11
  -2   6  -3    0.40    0.09
   2  -6   3    0.27    0.07
   2  -6   3    0.49    0.10
   2  -6   3    0.44    0.11
   2  -6   3    0.29    0.09
  -3   6  -3    0.27    0.13
  -3   6  -3    0.27    0.09
  -3   6  -3    0.46    0.11
  -3   6  -3    0.41    0.11
   3  -6   3    0.30    0.14
   3  -6   3    0.59    0.12
   3  -6   3    0.38    0.11
   3  -6   3    0.12    0.11
  -4   6  -3   -0.13    0.13
  -4   6  -3   -0.05    0.11
  -4   6  -3    0.15    0.17
  -4   6  -3    0.17    0.14
   4  -6   3   -0.06    0.09
   4  -6   3   -0.16    0.16
   4  -6   3   -0.19    0.14
   4  -6   3    0.11    0.13
   8   5  -3    0.17    0.10
  -8  -5   3    0.20    0.04
  -8  -5   3    0.29    0.07
  -8  -5   3    0.20    0.11
  -8  -5   3    0.23    0.07
  -8  -5   3    0.26    0.05
   7   5  -3    1.03    0.12
  -7  -5   3    1.16    0.09
  -7  -5   3    1.07    0.07
  -7  -5   3    1.12    0.13
  -7  -5   3    1.01    0.06
  -7  -5   3    1.13    0.09
   6   5  -3    0.72    0.10
  -6  -5   3    0.86    0.05
  -6  -5   3    0.81    0.07
  -6  -5   3    0.76    0.07
  -6  -5   3    0.59    0.08
  -6  -5   3    0.78    0.05
   5   5  -3    9.57    0.32
   5   5  -3   10.10    0.31
  -5  -5   3   10.10    0.31
  -5  -5   3    9.87    0.25
  -5  -5   3    9.93    0.26
  -5  -5   3   10.33    0.27
  -5  -5   3    9.97    0.26
   4   5  -3    0.09    0.05
   4   5  -3    0.08    0.02
   4   5  -3    0.04    0.02
   4   5  -3    0.11    0.04
  -4  -5   3    0.07    0.03
  -4  -5   3    0.07    0.02
  -4  -5   3    0.09    0.03
  -4  -5   3    0.05    0.03
  -4  -5   3    0.08    0.04
   3   5  -3   34.87    0.89
   3   5  -3   35.24    0.88
   3   5  -3   34.82    0.86
   3   5  -3   35.20    0.88
  -3  -5   3   35.40    0.88
  -3  -5   3   35.35    0.83
  -3  -5   3   35.37    0.83
  -3  -5   3   33.83    0.88
   2   5  -3   13.08    0.36
   2   5  -3   12.64    0.34
   2   5  -3   12.69    0.31
   2   5  -3   12.69    0.31
   2   5  -3   12.71    0.36
   2   5  -3   13.34    0.35
  -2  -5   3   13.30    0.34
  -2  -5   3   13.09    0.33
  -2  -5   3   12.90    0.36
  -2  -5   3   12.66    0.36
   1   5  -3   50.87    1.17
   1   5  -3   50.61    1.16
   1   5  -3   49.95    1.17
   1   5  -3   50.03    1.25
   1   5  -3   48.31    1.25
  -1  -5   3   47.49    1.25
  -1  -5   3   49.12    1.26
  -1  -5   3   49.02    1.18
  -1  -5   3   49.31    1.17
   0   5  -3   21.11    0.52
   0   5  -3   19.12    0.55
   0   5  -3   20.82    0.56
   0   5  -3   20.12    0.51
   0  -5   3   20.11    0.53
   0  -5   3   20.04    0.56
   0  -5   3   21.07    0.52
   0  -5   3   19.69    0.56
  -1   5  -3   17.73    0.47
  -1   5  -3   18.02    0.51
  -1   5  -3   18.14    0.48
  -1   5  -3   17.59    0.52
   1  -5   3   18.54    0.48
   1  -5   3   17.71    0.52
   1  -5   3   17.65    0.51
   1  -5   3   17.14    0.48
  -2   5  -3    9.29    0.30
  -2   5  -3    9.56    0.34
  -2   5  -3   10.04    0.33
   2  -5   3    9.50    0.33
   2  -5   3    9.83    0.30
   2  -5   3    9.33    0.34
  -3   5  -3    1.69    0.19
  -3   5  -3    1.45    0.14
   3  -5   3    1.61    0.14
   3  -5   3    1.57    0.18
  -4   5  -3    2.49    0.25
  -4   5  -3    2.83    0.20
  -4   5  -3    2.19    0.21
  -4   5  -3    2.25    0.21
   4  -5   3    2.36    0.18
   4  -5   3    2.45    0.25
   4  -5   3    2.02    0.20
   4  -5   3    2.24    0.22
  -5   5  -3   -0.04    0.14
  -5   5  -3    0.13    0.17
  -5   5  -3   -0.12    0.14
  -5   5  -3   -0.08    0.12
   5  -5   3   -0.08    0.15
   5  -5   3    0.24    0.12
   5  -5   3   -0.19    0.13
   5  -5   3    0.19    0.17
   9   4  -3    0.13    0.06
   9   4  -3    0.11    0.11
  -9  -4   3    0.18    0.09
  -9  -4   3    0.05    0.10
  -9  -4   3    0.05    0.11
  -9  -4   3    0.08    0.09
   8   4  -3    0.36    0.10
   8   4  -3    0.44    0.05
   8   4  -3    0.33    0.05
  -8  -4   3    0.41    0.08
  -8  -4   3    0.42    0.07
  -8  -4   3    0.37    0.11
  -8  -4   3    0.26    0.08
  -8  -4   3    0.30    0.08
   7   4  -3    0.25    0.04
   7   4  -3    0.27    0.04
   7   4  -3    0.24    0.08
  -7  -4   3    0.27    0.05
  -7  -4   3    0.19    0.05
  -7  -4   3    0.21    0.06
  -7  -4   3    0.23    0.05
   6   4  -3    0.99    0.11
   6   4  -3    0.89    0.06
   6   4  -3    0.97    0.05
  -6  -4   3    0.95    0.07
  -6  -4   3    1.09    0.07
  -6  -4   3    0.86    0.07
  -6  -4   3    0.75    0.08
  -6  -4   3    0.92    0.07
   5   4  -3    0.08    0.02
   5   4  -3    0.01    0.05
   5   4  -3   -0.01    0.05
   5   4  -3    0.05    0.02
  -5  -4   3    0.06    0.05
  -5  -4   3    0.08    0.03
  -5  -4   3    0.05    0.03
  -5  -4   3    0.03    0.02
  -5  -4   3    0.06    0.03
   4   4  -3    0.04    0.05
   4   4  -3    0.04    0.02
   4   4  -3    0.01    0.02
   4   4  -3    0.01    0.04
  -4  -4   3    0.04    0.03
  -4  -4   3    0.03    0.03
  -4  -4   3    0.01    0.02
  -4  -4   3    0.05    0.03
   3   4  -3    7.97    0.24
   3   4  -3    8.11    0.22
   3   4  -3    7.88    0.24
   3   4  -3    7.89    0.22
  -3  -4   3    8.44    0.23
  -3  -4   3    8.07    0.21
  -3  -4   3    7.88    0.23
  -3  -4   3    7.87    0.23
  -3  -4   3    8.06    0.21
   2   4  -3    1.91    0.06
   2   4  -3    1.90    0.09
   2   4  -3    1.86    0.06
   2   4  -3    1.87    0.08
   2   4  -3    1.85    0.08
   2   4  -3    1.96    0.08
  -2  -4   3    2.05    0.09
  -2  -4   3    1.99    0.08
  -2  -4   3    2.07    0.08
  -2  -4   3    1.92    0.08
   1   4  -3    9.97    0.26
   1   4  -3    9.95    0.26
   1   4  -3    9.70    0.28
   1   4  -3    9.44    0.25
   1   4  -3    9.85    0.29
   1   4  -3    9.56    0.26
  -1  -4   3    9.86    0.29
  -1  -4   3   10.00    0.28
  -1  -4   3    9.57    0.26
  -1  -4   3    9.76    0.27
   0   4  -3    7.26    0.21
   0   4  -3    6.88    0.23
   0   4  -3    7.07    0.23
   0   4  -3    7.37    0.21
   0  -4   3    7.11    0.22
   0  -4   3    7.43    0.21
   0  -4   3    7.36    0.24
   0  -4   3    7.34    0.23
  -1   4  -3    0.00    0.04
  -1   4  -3    0.02    0.04
  -1   4  -3   -0.01    0.04
  -1   4  -3    0.00    0.03
   1  -4   3   -0.04    0.03
   1  -4   3   -0.01    0.04
   1  -4   3   -0.01    0.04
   1  -4   3    0.00    0.04
  -2   4  -3    8.85    0.30
  -2   4  -3    8.18    0.26
  -2   4  -3    8.73    0.28
  -2   4  -3    8.58    0.29
   2  -4   3    8.80    0.30
   2  -4   3    9.01    0.27
   2  -4   3    8.81    0.28
   2  -4   3    8.17    0.29
  -3   4  -3    1.04    0.11
  -3   4  -3    1.18    0.13
  -3   4  -3    0.92    0.10
  -3   4  -3    0.83    0.09
   3  -4   3    1.12    0.11
   3  -4   3    1.10    0.13
   3  -4   3    1.05    0.12
  -4   4  -3    2.59    0.19
  -4   4  -3    2.25    0.20
  -4   4  -3    2.28    0.19
   4  -4   3    2.29    0.15
   4  -4   3    2.30    0.19
   4  -4   3    2.56    0.20
  -5   4  -3    0.57    0.13
  -5   4  -3    0.70    0.15
  -5   4  -3    0.67    0.14
  -5   4  -3    0.58    0.12
   5  -4   3    0.54    0.12
   5  -4   3    0.56    0.15
   5  -4   3    0.47    0.13
   5  -4   3    0.59    0.09
  -6   4  -3    0.32    0.18
  -6   4  -3    0.49    0.17
  -6   4  -3    0.26    0.16
   6  -4   3    0.04    0.12
   6  -4   3    0.32    0.13
   6  -4   3    0.10    0.16
   9   3  -3    0.04    0.11
   9   3  -3   -0.13    0.09
   9   3  -3    0.11    0.08
  -9  -3   3    0.11    0.11
  -9  -3   3    0.07    0.11
  -9  -3   3    0.08    0.12
  -9  -3   3   -0.16    0.11
   8   3  -3    0.37    0.07
   8   3  -3    0.35    0.10
  -8  -3   3    0.41    0.09
  -8  -3   3    0.42    0.09
  -8  -3   3    0.29    0.10
  -8  -3   3    0.43    0.09
   7   3  -3    0.36    0.06
   7   3  -3    0.22    0.08
  -7  -3   3    0.33    0.06
  -7  -3   3    0.39    0.06
  -7  -3   3    0.35    0.06
  -7  -3   3    0.24    0.07
   6   3  -3    0.22    0.04
   6   3  -3    0.31    0.07
   6   3  -3    0.24    0.04
  -6  -3   3    0.13    0.04
  -6  -3   3    0.18    0.05
  -6  -3   3    0.08    0.04
  -6  -3   3    0.20    0.05
   5   3  -3    2.57    0.14
   5   3  -3    2.63    0.10
   5   3  -3    2.81    0.14
   5   3  -3    2.81    0.10
  -5  -3   3    2.79    0.10
  -5  -3   3    2.77    0.13
  -5  -3   3    2.87    0.10
  -5  -3   3    2.83    0.10
  -5  -3   3    2.80    0.11
   4   3  -3    0.37    0.06
   4   3  -3    0.30    0.03
   4   3  -3    0.22    0.04
   4   3  -3    0.30    0.03
  -4  -3   3    0.27    0.03
  -4  -3   3    0.32    0.03
  -4  -3   3    0.27    0.03
  -4  -3   3    0.33    0.05
  -4  -3   3    0.30    0.04
   3   3  -3    9.97    0.30
   3   3  -3   10.60    0.29
   3   3  -3   10.37    0.28
   3   3  -3   10.80    0.28
  -3  -3   3   10.48    0.27
  -3  -3   3   10.57    0.26
  -3  -3   3   10.69    0.28
  -3  -3   3   10.50    0.28
  -3  -3   3   10.65    0.29
   2   3  -3    2.60    0.10
   2   3  -3    2.66    0.08
   2   3  -3    2.65    0.08
   2   3  -3    2.56    0.10
   2   3  -3    2.54    0.09
   2   3  -3    2.83    0.10
  -2  -3   3    2.65    0.09
  -2  -3   3    2.75    0.10
  -2  -3   3    2.82    0.09
  -2  -3   3    2.73    0.10
   1   3  -3   19.43    0.48
   1   3  -3   18.71    0.46
   1   3  -3   19.63    0.47
   1   3  -3   18.99    0.46
   1   3  -3   18.59    0.49
  -1  -3   3   19.36    0.47
  -1  -3   3   18.30    0.50
  -1  -3   3   19.44    0.46
  -1  -3   3   18.20    0.50
   0   3  -3   35.37    0.85
   0   3  -3   35.95    0.91
   0   3  -3   35.33    0.92
   0   3  -3   36.83    0.86
   0   3  -3   37.10    0.87
   0  -3   3   36.23    0.86
   0  -3   3   35.80    0.86
   0  -3   3   36.80    0.92
   0  -3   3   34.05    0.91
  -1   3  -3   14.55    0.42
  -1   3  -3   15.08    0.39
  -1   3  -3   14.57    0.39
  -1   3  -3   14.97    0.42
   1  -3   3   15.13    0.43
   1  -3   3   15.01    0.39
   1  -3   3   14.89    0.40
   1  -3   3   15.53    0.42
  -2   3  -3   28.89    0.75
  -2   3  -3   28.44    0.76
  -2   3  -3   28.80    0.71
  -2   3  -3   27.69    0.70
   2  -3   3   28.20    0.71
   2  -3   3   28.52    0.75
   2  -3   3   27.30    0.76
   2  -3   3   27.88    0.70
   2  -3   3   28.77    0.72
  -3   3  -3    3.07    0.15
  -3   3  -3    2.95    0.16
  -3   3  -3    2.96    0.15
  -3   3  -3    3.11    0.14
   3  -3   3    3.06    0.14
   3  -3   3    3.05    0.17
   3  -3   3    3.16    0.14
   3  -3   3    2.92    0.16
  -4   3  -3    8.04    0.30
  -4   3  -3    7.89    0.29
  -4   3  -3    8.32    0.31
   4  -3   3    8.08    0.31
   4  -3   3    8.48    0.31
   4  -3   3    8.07    0.26
   4  -3   3    8.35    0.28
  -5   3  -3    0.23    0.10
  -5   3  -3    0.15    0.11
  -5   3  -3    0.08    0.09
   5  -3   3    0.05    0.09
   5  -3   3    0.31    0.08
   5  -3   3    0.18    0.10
  -6   3  -3    1.11    0.14
  -6   3  -3    1.32    0.18
  -6   3  -3    1.42    0.18
  -6   3  -3    1.39    0.18
   6  -3   3    1.63    0.19
   6  -3   3    1.19    0.14
   6  -3   3    1.14    0.17
   6  -3   3    1.40    0.14
   8   2  -3    0.20    0.07
   8   2  -3    0.01    0.08
   8   2  -3    0.26    0.09
  -8  -2   3    0.18    0.09
  -8  -2   3    0.19    0.11
  -8  -2   3    0.31    0.10
  -8  -2   3    0.18    0.10
  -8  -2   3    0.11    0.09
   7   2  -3    4.41    0.22
   7   2  -3    4.84    0.19
  -7  -2   3    4.73    0.19
  -7  -2   3    4.86    0.20
  -7  -2   3    4.35    0.20
  -7  -2   3    4.73    0.20
  -7  -2   3    3.93    0.21
   6   2  -3    2.45    0.12
   6   2  -3    2.24    0.15
  -6  -2   3    2.42    0.12
  -6  -2   3    2.46    0.13
  -6  -2   3    2.46    0.13
  -6  -2   3    2.46    0.12
  -6  -2   3    2.22    0.14
   5   2  -3   12.94    0.40
   5   2  -3   13.22    0.36
   5   2  -3   13.32    0.36
  -5  -2   3   13.27    0.37
  -5  -2   3   13.34    0.35
  -5  -2   3   13.48    0.37
  -5  -2   3   13.33    0.36
  -5  -2   3   13.06    0.34
   4   2  -3    7.34    0.23
   4   2  -3    7.48    0.22
   4   2  -3    7.14    0.24
   4   2  -3    7.47    0.22
  -4  -2   3    7.62    0.23
  -4  -2   3    7.42    0.22
  -4  -2   3    7.24    0.20
  -4  -2   3    7.65    0.20
  -4  -2   3    7.68    0.22
   3   2  -3    3.74    0.12
   3   2  -3    3.78    0.14
   3   2  -3    3.85    0.10
   3   2  -3    3.83    0.12
   3   2  -3    3.96    0.14
  -3  -2   3    3.87    0.11
  -3  -2   3    4.10    0.15
  -3  -2   3    3.83    0.12
  -3  -2   3    3.94    0.13
  -3  -2   3    3.56    0.13
  -3  -2   3    3.76    0.12
   2   2  -3    6.60    0.19
   2   2  -3    6.69    0.16
   2   2  -3    6.12    0.19
   2   2  -3    6.95    0.19
   2   2  -3    6.75    0.19
   2   2  -3    6.54    0.17
  -2  -2   3    6.29    0.19
  -2  -2   3    6.59    0.19
  -2  -2   3    6.72    0.18
  -2  -2   3    6.58    0.17
  -2  -2   3    6.56    0.19
   1   2  -3   38.23    0.90
   1   2  -3   38.28    0.90
   1   2  -3   39.30    0.96
   1   2  -3   38.26    0.91
  -1  -2   3   40.45    0.97
  -1  -2   3   36.72    0.96
  -1  -2   3   38.74    0.91
  -1  -2   3   38.97    0.90
   0   2  -3   10.07    0.26
   0   2  -3    9.55    0.27
   0   2  -3    9.24    0.25
   0   2  -3    9.60    0.27
   0  -2   3    9.99    0.25
   0  -2   3    9.29    0.26
   0  -2   3    9.94    0.27
   0  -2   3    9.82    0.28
  -1   2  -3   53.83    1.30
  -1   2  -3   56.35    1.35
  -1   2  -3   56.34    1.39
  -1   2  -3   57.22    1.31
  -1   2  -3   53.99    1.38
   1  -2   3   54.44    1.39
   1  -2   3   57.00    1.30
   1  -2   3   56.70    1.39
   1  -2   3   54.38    1.31
   1  -2   3   55.07    1.38
  -2   2  -3    2.70    0.13
  -2   2  -3    2.56    0.12
  -2   2  -3    2.53    0.10
  -2   2  -3    2.58    0.11
   2  -2   3    2.71    0.12
   2  -2   3    2.51    0.12
   2  -2   3    2.63    0.09
   2  -2   3    2.62    0.10
   2  -2   3    2.73    0.11
  -3   2  -3    9.88    0.29
  -3   2  -3   10.46    0.30
  -3   2  -3    9.86    0.32
  -3   2  -3   10.96    0.33
   3  -2   3   10.15    0.30
   3  -2   3   10.82    0.32
   3  -2   3   10.23    0.29
   3  -2   3    9.90    0.33
  -4   2  -3    0.13    0.05
  -4   2  -3    0.08    0.06
  -4   2  -3    0.00    0.05
  -4   2  -3    0.11    0.07
   4  -2   3    0.07    0.06
   4  -2   3    0.06    0.04
   4  -2   3    0.12    0.07
   4  -2   3    0.08    0.05
   4  -2   3    0.10    0.04
  -5   2  -3    1.01    0.13
  -5   2  -3    1.07    0.12
  -5   2  -3    1.04    0.12
  -5   2  -3    0.93    0.11
   5  -2   3    0.85    0.11
   5  -2   3    0.92    0.12
   5  -2   3    0.90    0.09
   5  -2   3    0.91    0.09
  -6   2  -3    0.20    0.11
  -6   2  -3    0.16    0.10
  -6   2  -3    0.05    0.11
  -6   2  -3   -0.16    0.10
   6  -2   3    0.11    0.06
   6  -2   3   -0.07    0.11
   6  -2   3    0.18    0.10
   6  -2   3    0.22    0.08
  -7   2  -3    0.02    0.15
  -7   2  -3    0.17    0.15
  -7   2  -3   -0.14    0.12
  -7   2  -3   -0.34    0.14
   7  -2   3    0.06    0.11
   7  -2   3    0.04    0.08
   7  -2   3   -0.12    0.14
   7  -2   3   -0.04    0.10
   8   1  -3   -0.07    0.08
   8   1  -3    0.02    0.08
   8   1  -3    0.06    0.10
  -8  -1   3   -0.05    0.10
  -8  -1   3   -0.03    0.09
  -8  -1   3   -0.03    0.10
  -8  -1   3   -0.12    0.09
  -8  -1   3    0.09    0.11
   7   1  -3    0.87    0.12
   7   1  -3    0.79    0.09
   7   1  -3    0.76    0.05
   7   1  -3    0.88    0.10
   7   1  -3    0.89    0.05
  -7  -1   3    0.83    0.10
  -7  -1   3    0.84    0.09
  -7  -1   3    0.59    0.09
  -7  -1   3    0.86    0.10
   6   1  -3    0.49    0.05
   6   1  -3    0.74    0.09
   6   1  -3    0.54    0.09
   6   1  -3    0.55    0.07
   6   1  -3    0.55    0.05
  -6  -1   3    0.50    0.08
  -6  -1   3    0.54    0.08
  -6  -1   3    0.51    0.07
  -6  -1   3    0.43    0.06
   5   1  -3    0.21    0.04
   5   1  -3    0.24    0.03
   5   1  -3    0.23    0.05
   5   1  -3    0.24    0.03
   5   1  -3    0.17    0.06
  -5  -1   3    0.21    0.04
  -5  -1   3    0.27    0.05
  -5  -1   3    0.18    0.05
  -5  -1   3    0.22    0.04
   4   1  -3   11.41    0.32
   4   1  -3   11.08    0.34
   4   1  -3   11.65    0.28
   4   1  -3   11.51    0.32
   4   1  -3   11.69    0.28
  -4  -1   3   11.74    0.32
  -4  -1   3   11.17    0.30
  -4  -1   3   11.34    0.32
  -4  -1   3   11.41    0.30
  -4  -1   3   11.55    0.32
   3   1  -3    9.87    0.28
   3   1  -3   10.42    0.26
   3   1  -3    9.99    0.29
   3   1  -3   10.13    0.28
   3   1  -3   10.39    0.25
  -3  -1   3    9.98    0.27
  -3  -1   3   10.37    0.28
  -3  -1   3   10.78    0.27
  -3  -1   3   10.60    0.28
  -3  -1   3   10.31    0.29
   2   1  -3   76.32    1.80
   2   1  -3   78.36    1.78
   2   1  -3   76.85    1.78
   2   1  -3   79.03    1.90
  -2  -1   3   75.75    1.80
  -2  -1   3   79.18    1.79
  -2  -1   3   74.39    1.90
  -2  -1   3   80.05    1.79
   1   1  -3   51.92    1.22
   1   1  -3   50.28    1.20
   1   1  -3   52.99    1.28
   1   1  -3   52.39    1.21
   1   1  -3   54.12    1.29
  -1  -1   3   51.13    1.29
  -1  -1   3   51.98    1.28
  -1  -1   3   51.72    1.21
   0   1  -3   73.94    1.82
   0   1  -3   73.58    1.72
   0   1  -3   69.89    1.82
   0   1  -3   77.65    1.71
   0  -1   3   75.18    1.71
   0  -1   3   72.52    1.82
   0  -1   3   73.78    1.82
   0  -1   3   76.76    1.72
  -1   1  -3   29.82    0.76
  -1   1  -3   30.18    0.76
  -1   1  -3   30.53    0.72
  -1   1  -3   29.73    0.71
   1  -1   3   30.13    0.76
   1  -1   3   30.79    0.76
   1  -1   3   29.70    0.71
   1  -1   3   27.77    0.71
  -2   1  -3    5.68    0.17
  -2   1  -3    5.97    0.19
  -2   1  -3    6.12    0.19
  -2   1  -3    5.84    0.18
   2  -1   3    5.76    0.17
   2  -1   3    5.59    0.19
   2  -1   3    6.21    0.19
   2  -1   3    5.69    0.18
  -3   1  -3    5.19    0.19
  -3   1  -3    5.10    0.18
  -3   1  -3    5.40    0.19
  -3   1  -3    5.15    0.17
   3  -1   3    5.23    0.17
   3  -1   3    5.55    0.20
   3  -1   3    5.53    0.17
   3  -1   3    5.52    0.19
  -4   1  -3    0.01    0.05
  -4   1  -3    0.07    0.04
  -4   1  -3    0.03    0.05
  -4   1  -3    0.00    0.03
   4  -1   3   -0.01    0.04
   4  -1   3    0.08    0.04
   4  -1   3    0.03    0.05
   4  -1   3    0.04    0.03
   4  -1   3    0.01    0.04
  -5   1  -3    0.11    0.07
  -5   1  -3    0.19    0.08
   5  -1   3    0.22    0.05
   5  -1   3    0.20    0.06
   5  -1   3    0.30    0.08
   5  -1   3    0.10    0.06
   5  -1   3    0.17    0.05
  -6   1  -3    0.01    0.07
  -6   1  -3    0.03    0.08
  -6   1  -3    0.05    0.08
  -6   1  -3    0.04    0.08
   6  -1   3    0.03    0.09
   6  -1   3    0.00    0.09
   6  -1   3    0.02    0.06
   6  -1   3    0.01    0.07
  -7   1  -3    0.08    0.10
  -7   1  -3    0.04    0.12
  -7   1  -3    0.16    0.12
  -7   1  -3    0.02    0.12
   7  -1   3    0.03    0.11
   7  -1   3   -0.02    0.09
   7  -1   3    0.09    0.08
   7  -1   3   -0.01    0.07
   8   0  -3    0.00    0.12
   8   0  -3    0.23    0.11
   8   0  -3    0.16    0.11
   8   0  -3   -0.10    0.05
   8   0  -3    0.00    0.06
   8   0  -3    0.25    0.11
  -8   0   3    0.27    0.12
  -8   0   3    0.05    0.11
  -8   0   3   -0.11    0.12
  -8   0   3    0.29    0.12
  -8   0   3    0.01    0.13
   7   0  -3    0.03    0.08
   7   0  -3   -0.03    0.05
   7   0  -3    0.03    0.07
   7   0  -3    0.01    0.05
   7   0  -3   -0.06    0.08
   7   0  -3    0.00    0.08
  -7   0   3   -0.07    0.08
  -7   0   3   -0.02    0.08
  -7   0   3    0.02    0.07
  -7   0   3   -0.05    0.07
  -7   0   3   -0.08    0.07
   6   0  -3    0.19    0.07
   6   0  -3    0.32    0.07
   6   0  -3    0.30    0.07
   6   0  -3    0.24    0.05
   6   0  -3    0.19    0.05
  -6   0   3    0.22    0.07
  -6   0   3    0.29    0.08
  -6   0   3    0.26    0.07
  -6   0   3    0.30    0.07
   5   0  -3    1.80    0.09
   5   0  -3    1.83    0.11
   5   0  -3    1.84    0.10
   5   0  -3    1.72    0.11
   5   0  -3    1.62    0.11
   5   0  -3    1.70    0.08
  -5   0   3    1.77    0.11
  -5   0   3    1.73    0.11
  -5   0   3    1.65    0.12
  -5   0   3    1.76    0.11
  -5   0   3    1.68    0.10
   4   0  -3    0.58    0.07
   4   0  -3    0.50    0.05
   4   0  -3    0.56    0.05
   4   0  -3    0.56    0.06
   4   0  -3    0.59    0.07
   4   0  -3    0.53    0.05
   4   0  -3    0.62    0.07
  -4   0   3    0.60    0.06
  -4   0   3    0.52    0.06
  -4   0   3    0.53    0.06
  -4   0   3    0.61    0.06
  -4   0   3    0.40    0.05
   3   0  -3   16.89    0.44
   3   0  -3   16.90    0.41
   3   0  -3   17.29    0.51
   3   0  -3   16.72    0.40
   3   0  -3   16.80    0.42
   3   0  -3   16.07    0.44
  -3   0   3   16.33    0.41
  -3   0   3   15.74    0.42
  -3   0   3   16.16    0.41
  -3   0   3   15.94    0.44
  -3   0   3   15.82    0.44
   2   0  -3    0.46    0.04
   2   0  -3    0.41    0.04
   2   0  -3    0.40    0.04
   2   0  -3    0.42    0.04
   2   0  -3    0.50    0.03
  -2   0   3    0.47    0.04
  -2   0   3    0.57    0.04
  -2   0   3    0.53    0.05
  -2   0   3    0.39    0.04
  -2   0   3    0.41    0.04
   1   0  -3    7.46    0.20
   1   0  -3    7.42    0.21
   1   0  -3    7.11    0.19
   1   0  -3    7.71    0.19
  -1   0   3    7.61    0.21
  -1   0   3    7.24    0.19
  -1   0   3    7.25    0.19
  -1   0   3    7.34    0.21
   0   0  -3    4.12    0.13
   0   0  -3    4.12    0.12
   0   0  -3    4.28    0.13
   0   0   3    4.24    0.13
  -1   0  -3   13.62    0.35
  -1   0  -3   13.91    0.34
  -1   0  -3   13.80    0.37
   1   0   3   13.68    0.35
   1   0   3   13.86    0.37
   1   0   3   13.81    0.37
   1   0   3   14.58    0.34
  -2   0  -3    2.26    0.09
  -2   0  -3    2.26    0.09
  -2   0  -3    2.19    0.09
  -2   0  -3    2.36    0.08
   2   0   3    2.38    0.10
   2   0   3    2.24    0.08
   2   0   3    2.28    0.09
   2   0   3    2.24    0.10
  -3   0  -3   10.91    0.29
  -3   0  -3   11.23    0.30
  -3   0  -3   11.27    0.32
  -3   0  -3   10.79    0.32
   3   0   3   11.13    0.29
   3   0   3   11.45    0.32
   3   0   3   10.29    0.29
   3   0   3   10.50    0.32
  -4   0  -3    1.42    0.10
  -4   0  -3    1.47    0.10
  -4   0  -3    1.38    0.08
  -4   0  -3    1.51    0.10
   4   0   3    1.45    0.08
   4   0   3    1.43    0.10
   4   0   3    1.51    0.10
   4   0   3    1.50    0.09
   4   0   3    1.59    0.08
  -5   0  -3    2.17    0.13
  -5   0  -3    2.40    0.14
  -5   0  -3    2.12    0.11
  -5   0  -3    2.12    0.13
   5   0   3    2.19    0.11
   5   0   3    2.00    0.13
   5   0   3    1.88    0.11
   5   0   3    2.16    0.10
   5   0   3    2.22    0.13
  -6   0  -3    0.75    0.10
  -6   0  -3    0.90    0.11
  -6   0  -3    0.67    0.08
  -6   0  -3    0.67    0.09
   6   0   3    0.61    0.09
   6   0   3    0.70    0.07
   6   0   3    0.71    0.08
   6   0   3    0.61    0.10
   6   0   3    0.68    0.09
  -7   0  -3    0.26    0.11
  -7   0  -3    0.09    0.10
  -7   0  -3    0.15    0.09
  -7   0  -3    0.16    0.11
   7   0   3    0.25    0.07
   7   0   3    0.28    0.11
   7   0   3    0.02    0.09
   7   0   3    0.38    0.08
   7   0   3    0.26    0.08
  -8   0  -3    0.08    0.14
  -8   0  -3    0.05    0.14
  -8   0  -3    0.05    0.14
  -8   0  -3    0.03    0.14
  -8   0  -3    0.18    0.14
   8   0   3   -0.06    0.08
   8   0   3    0.11    0.09
   8   0   3    0.17    0.11
   8   0   3    0.01    0.13
   8   0   3    0.13    0.12
   8  -1  -3    0.26    0.12
   8  -1  -3    0.05    0.15
   8  -1  -3    0.46    0.10
   8  -1  -3    0.38    0.12
  -8   1   3    0.34    0.17
  -8   1   3    0.45    0.14
  -8   1   3    0.32    0.13
  -8   1   3    0.36    0.14
  -8   1   3    0.43    0.16
   7  -1  -3    1.01    0.13
   7  -1  -3    1.04    0.12
   7  -1  -3    1.16    0.13
   7  -1  -3    1.07    0.10
  -7   1   3    1.11    0.15
  -7   1   3    1.13    0.15
  -7   1   3    1.18    0.13
  -7   1   3    1.07    0.13
  -7   1   3    1.13    0.12
   6  -1  -3    0.71    0.09
   6  -1  -3    0.70    0.09
   6  -1  -3    0.73    0.10
   6  -1  -3    0.69    0.07
   6  -1  -3    0.86    0.08
  -6   1   3    0.92    0.10
  -6   1   3    0.95    0.11
  -6   1   3    0.56    0.08
  -6   1   3    0.97    0.11
   5  -1  -3    3.77    0.17
   5  -1  -3    3.79    0.14
   5  -1  -3    3.73    0.17
   5  -1  -3    3.52    0.17
   5  -1  -3    3.70    0.14
  -5   1   3    3.86    0.16
  -5   1   3    3.77    0.16
  -5   1   3    3.85    0.17
  -5   1   3    3.70    0.16
  -5   1   3    3.58    0.18
   4  -1  -3    0.29    0.05
   4  -1  -3    0.26    0.05
   4  -1  -3    0.30    0.05
   4  -1  -3    0.24    0.05
   4  -1  -3    0.30    0.04
  -4   1   3    0.36    0.06
  -4   1   3    0.21    0.04
  -4   1   3    0.27    0.05
  -4   1   3    0.26    0.05
   3  -1  -3    0.11    0.03
   3  -1  -3    0.14    0.03
   3  -1  -3    0.11    0.03
   3  -1  -3    0.17    0.03
   3  -1  -3    0.15    0.04
  -3   1   3    0.14    0.03
  -3   1   3    0.12    0.03
  -3   1   3    0.09    0.03
  -3   1   3    0.08    0.03
  -3   1   3    0.12    0.04
   2  -1  -3    6.69    0.18
   2  -1  -3    6.81    0.18
   2  -1  -3    6.52    0.20
   2  -1  -3    6.84    0.19
  -2   1   3    6.46    0.20
  -2   1   3    6.68    0.19
  -2   1   3    6.59    0.20
  -2   1   3    6.44    0.18
  -2   1   3    6.56    0.19
   1  -1  -3   50.17    1.26
   1  -1  -3   50.49    1.26
   1  -1  -3   51.59    1.18
   1  -1  -3   50.98    1.19
   1  -1  -3   51.09    1.19
  -1   1   3   52.12    1.26
  -1   1   3   48.66    1.18
  -1   1   3   52.03    1.26
   0  -1  -3   85.35    2.11
   0  -1  -3   87.41    1.99
   0  -1  -3   83.04    2.11
   0   1   3   89.47    2.00
   0   1   3   82.70    1.99
   0   1   3   86.75    2.11
   0   1   3   90.92    2.12
  -1  -1  -3  104.25    2.27
  -1  -1  -3   96.41    2.39
  -1  -1  -3  100.97    2.28
  -1  -1  -3   94.49    2.39
   1   1   3   97.73    2.96
   1   1   3   95.62    2.39
   1   1   3   97.91    2.39
   1   1   3   94.52    2.28
   1   1   3   99.50    2.27
  -2  -1  -3   42.65    1.13
  -2  -1  -3   47.40    1.07
  -2  -1  -3   45.78    1.07
  -2  -1  -3   47.09    1.14
   2   1   3   44.82    1.06
   2   1   3   45.02    1.07
   2   1   3   47.26    1.14
   2   1   3   45.62    1.14
  -3  -1  -3   34.49    0.79
  -3  -1  -3   31.58    0.83
  -3  -1  -3   33.05    0.78
  -3  -1  -3   32.65    0.84
   3   1   3   31.20    0.78
   3   1   3   32.65    0.84
   3   1   3   33.31    0.83
   3   1   3   33.53    0.83
  -4  -1  -3    1.04    0.08
  -4  -1  -3    1.00    0.08
  -4  -1  -3    0.99    0.06
  -4  -1  -3    0.94    0.08
   4   1   3    1.12    0.08
   4   1   3    1.09    0.05
   4   1   3    1.21    0.08
   4   1   3    1.02    0.06
   4   1   3    1.05    0.07
   4   1   3    1.06    0.06
  -5  -1  -3    7.66    0.24
  -5  -1  -3    7.10    0.22
  -5  -1  -3    7.53    0.25
  -5  -1  -3    7.47    0.25
   5   1   3    7.40    0.24
   5   1   3    7.48    0.21
   5   1   3    7.57    0.22
   5   1   3    7.50    0.20
   5   1   3    7.63    0.25
   5   1   3    7.35    0.25
  -6  -1  -3    0.10    0.07
  -6  -1  -3    0.28    0.07
  -6  -1  -3    0.17    0.07
  -6  -1  -3    0.17    0.05
   6   1   3    0.15    0.07
   6   1   3    0.11    0.06
   6   1   3    0.12    0.04
  -7  -1  -3    0.78    0.11
  -7  -1  -3    0.83    0.11
  -7  -1  -3    1.16    0.11
  -7  -1  -3    0.86    0.11
   7   1   3    0.59    0.10
   7   1   3    0.88    0.11
   7   1   3    0.97    0.13
   7   1   3    0.94    0.10
   7   1   3    0.94    0.09
  -8  -1  -3    0.32    0.12
  -8  -1  -3    0.28    0.13
  -8  -1  -3    0.07    0.11
  -8  -1  -3    0.14    0.12
   8   1   3    0.10    0.09
   8   1   3    0.06    0.06
   8   1   3   -0.25    0.10
   8   1   3    0.04    0.11
   8   1   3    0.15    0.07
   8   1   3    0.15    0.10
   7  -2  -3    0.00    0.12
   7  -2  -3    0.22    0.09
   7  -2  -3    0.45    0.12
   7  -2  -3    0.43    0.12
   7  -2  -3    0.20    0.09
  -7   2   3    0.63    0.15
  -7   2   3    0.33    0.10
  -7   2   3    0.27    0.12
  -7   2   3    0.24    0.11
  -7   2   3    0.30    0.14
   6  -2  -3   -0.04    0.07
   6  -2  -3    0.11    0.08
   6  -2  -3    0.19    0.07
   6  -2  -3    0.27    0.08
  -6   2   3    0.05    0.09
  -6   2   3    0.15    0.09
  -6   2   3    0.20    0.08
  -6   2   3    0.07    0.08
   5  -2  -3    3.98    0.19
   5  -2  -3    3.94    0.18
   5  -2  -3    4.24    0.17
   5  -2  -3    3.85    0.16
  -5   2   3    4.00    0.20
  -5   2   3    4.16    0.17
   4  -2  -3    3.74    0.16
   4  -2  -3    3.46    0.14
   4  -2  -3    3.59    0.14
   4  -2  -3    3.25    0.14
   4  -2  -3    3.28    0.15
  -4   2   3    3.33    0.14
  -4   2   3    3.43    0.16
  -4   2   3    3.28    0.16
  -4   2   3    2.97    0.14
  -4   2   3    3.46    0.13
   3  -2  -3   25.07    0.61
   3  -2  -3   25.03    0.66
   3  -2  -3   24.72    0.66
   3  -2  -3   24.33    0.61
  -3   2   3   24.23    0.62
  -3   2   3   24.68    0.61
  -3   2   3   24.67    0.62
  -3   2   3   25.14    0.66
  -3   2   3   25.13    0.66
   2  -2  -3   37.40    0.87
   2  -2  -3   36.30    0.88
   2  -2  -3   36.72    0.94
   2  -2  -3   35.37    0.94
   2  -2  -3   37.64    0.88
  -2   2   3   35.48    0.88
  -2   2   3   37.54    0.94
  -2   2   3   36.81    0.87
  -2   2   3   37.26    0.88
  -2   2   3   38.60    0.94
   1  -2  -3   87.71    2.23
   1  -2  -3   90.93    2.10
   1  -2  -3   92.06    2.10
   1  -2  -3   87.37    2.10
   1  -2  -3   92.01    2.23
  -1   2   3   92.56    2.23
  -1   2   3   94.58    2.23
  -1   2   3   89.28    2.10
  -1   2   3   90.67    2.10
   0  -2  -3   56.88    1.27
   0  -2  -3   57.14    1.35
   0  -2  -3   55.93    1.35
   0  -2  -3   53.70    1.27
   0   2   3   53.06    1.27
   0   2   3   52.66    1.35
   0   2   3   55.46    1.27
   0   2   3   51.70    1.35
  -1  -2  -3   41.87    1.00
  -1  -2  -3   43.63    1.07
  -1  -2  -3   41.22    1.00
  -1  -2  -3   43.91    1.06
  -1  -2  -3   45.60    1.30
   1   2   3   42.57    1.00
   1   2   3   42.27    1.06
   1   2   3   43.82    1.07
   1   2   3   41.31    1.00
  -2  -2  -3   14.24    0.37
  -2  -2  -3   14.33    0.34
  -2  -2  -3   13.65    0.36
  -2  -2  -3   14.05    0.34
   2   2   3   13.20    0.45
   2   2   3   13.55    0.36
   2   2   3   13.65    0.33
   2   2   3   13.60    0.34
  -3  -2  -3    0.39    0.04
  -3  -2  -3    0.42    0.05
  -3  -2  -3    0.46    0.04
  -3  -2  -3    0.48    0.05
   3   2   3    0.49    0.03
   3   2   3    0.39    0.04
   3   2   3    0.39    0.04
   3   2   3    0.46    0.05
   3   2   3    0.59    0.03
  -4  -2  -3    1.51    0.08
  -4  -2  -3    1.73    0.08
  -4  -2  -3    1.47    0.08
  -4  -2  -3    1.55    0.07
   4   2   3    1.60    0.07
   4   2   3    1.41    0.08
   4   2   3    1.58    0.06
   4   2   3    1.49    0.09
   4   2   3    1.65    0.06
   4   2   3    1.66    0.10
  -5  -2  -3    3.32    0.14
  -5  -2  -3    3.27    0.14
  -5  -2  -3    3.25    0.12
  -5  -2  -3    3.29    0.13
   5   2   3    3.20    0.10
   5   2   3    3.22    0.10
   5   2   3    3.01    0.16
   5   2   3    3.16    0.14
   5   2   3    3.37    0.12
   5   2   3    3.17    0.14
  -6  -2  -3    0.00    0.05
  -6  -2  -3    0.06    0.05
  -6  -2  -3   -0.01    0.05
  -6  -2  -3    0.04    0.04
   6   2   3    0.08    0.05
   6   2   3    0.04    0.03
   6   2   3   -0.06    0.06
   6   2   3    0.04    0.03
   6   2   3    0.05    0.03
  -7  -2  -3    0.66    0.10
  -7  -2  -3    0.83    0.10
   7   2   3    1.10    0.12
   7   2   3    0.86    0.06
   7   2   3    0.94    0.14
   7   2   3    0.67    0.09
   7   2   3    0.88    0.06
  -8  -2  -3    0.50    0.11
  -8  -2  -3    0.64    0.12
  -8  -2  -3    0.56    0.12
  -8  -2  -3    0.61    0.11
   8   2   3    0.37    0.11
   8   2   3    0.05    0.09
   8   2   3    0.39    0.10
   8   2   3    0.35    0.10
   7  -3  -3    0.01    0.10
   7  -3  -3   -0.09    0.15
   7  -3  -3    0.05    0.10
   7  -3  -3    0.10    0.14
  -7   3   3   -0.09    0.16
  -7   3   3   -0.02    0.14
  -7   3   3    0.21    0.13
  -7   3   3    0.19    0.17
  -7   3   3    0.07    0.11
   6  -3  -3    1.60    0.17
   6  -3  -3    1.31    0.14
   6  -3  -3    1.22    0.14
   6  -3  -3    0.97    0.11
  -6   3   3    1.39    0.16
  -6   3   3    1.28    0.16
  -6   3   3    1.14    0.13
  -6   3   3    1.24    0.14
   5  -3  -3    0.07    0.08
   5  -3  -3   -0.01    0.06
   5  -3  -3    0.00    0.06
   5  -3  -3    0.03    0.05
   5  -3  -3   -0.01    0.07
  -5   3   3    0.00    0.06
  -5   3   3   -0.05    0.06
  -5   3   3   -0.10    0.08
  -5   3   3   -0.07    0.08
  -5   3   3   -0.03    0.05
   4  -3  -3    2.70    0.13
   4  -3  -3    2.82    0.14
   4  -3  -3    3.01    0.16
   4  -3  -3    2.75    0.14
   4  -3  -3    2.92    0.15
  -4   3   3    3.04    0.15
  -4   3   3    2.91    0.12
  -4   3   3    2.53    0.16
  -4   3   3    2.79    0.15
  -4   3   3    2.96    0.17
   3  -3  -3    0.72    0.08
   3  -3  -3    0.69    0.07
   3  -3  -3    0.67    0.08
   3  -3  -3    0.70    0.07
  -3   3   3    0.54    0.07
  -3   3   3    0.58    0.07
  -3   3   3    0.52    0.07
  -3   3   3    0.61    0.06
  -3   3   3    0.55    0.06
   2  -3  -3    4.18    0.16
   2  -3  -3    3.90    0.16
   2  -3  -3    4.31    0.15
   2  -3  -3    4.01    0.14
   2  -3  -3    4.14    0.13
  -2   3   3    4.05    0.15
  -2   3   3    4.08    0.12
  -2   3   3    4.17    0.16
  -2   3   3    4.08    0.15
  -2   3   3    4.46    0.16
   1  -3  -3    0.73    0.04
   1  -3  -3    0.66    0.06
   1  -3  -3    0.65    0.06
   1  -3  -3    0.67    0.05
   1  -3  -3    0.72    0.06
  -1   3   3    0.65    0.06
  -1   3   3    0.62    0.06
  -1   3   3    0.67    0.05
  -1   3   3    0.71    0.06
   0  -3  -3    0.38    0.04
   0  -3  -3    0.22    0.03
   0   3   3    0.21    0.03
   0   3   3    0.39    0.04
  -1  -3  -3   32.51    0.76
  -1  -3  -3   31.08    0.81
  -1  -3  -3   32.38    0.76
  -1  -3  -3   33.12    0.81
   1   3   3   32.65    0.81
   1   3   3   30.51    0.81
   1   3   3   33.04    0.76
   1   3   3   31.99    0.76
  -2  -3  -3    6.88    0.18
  -2  -3  -3    6.99    0.19
  -2  -3  -3    7.22    0.20
  -2  -3  -3    7.06    0.20
   2   3   3    7.01    0.18
   2   3   3    7.07    0.18
   2   3   3    6.85    0.20
  -3  -3  -3   21.60    0.53
  -3  -3  -3   22.63    0.54
  -3  -3  -3   22.54    0.57
  -3  -3  -3   22.46    0.57
   3   3   3   22.45    0.52
   3   3   3   22.31    0.52
   3   3   3   22.06    0.57
   3   3   3   21.70    0.58
   3   3   3   22.29    0.57
  -4  -3  -3    0.75    0.05
  -4  -3  -3    0.80    0.06
  -4  -3  -3    0.75    0.06
  -4  -3  -3    0.79    0.06
   4   3   3    0.77    0.06
   4   3   3    0.78    0.06
   4   3   3    0.73    0.06
   4   3   3    0.76    0.05
  -5  -3  -3    6.52    0.19
  -5  -3  -3    6.23    0.18
  -5  -3  -3    6.64    0.20
  -5  -3  -3    6.21    0.20
   5   3   3    6.44    0.20
   5   3   3    6.55    0.20
   5   3   3    5.88    0.26
   5   3   3    6.61    0.22
   5   3   3    6.29    0.20
  -6  -3  -3    0.28    0.04
  -6  -3  -3    0.29    0.05
  -6  -3  -3    0.28    0.06
   6   3   3    0.26    0.05
   6   3   3    0.35    0.05
   6   3   3    0.34    0.07
   6   3   3    0.23    0.06
  -7  -3  -3    1.35    0.11
  -7  -3  -3    1.38    0.12
  -7  -3  -3    1.50    0.13
  -7  -3  -3    1.20    0.12
   7   3   3    1.38    0.11
   7   3   3    1.38    0.15
   7   3   3    1.33    0.12
  -8  -3  -3    0.10    0.09
  -8  -3  -3    0.07    0.08
  -8  -3  -3   -0.04    0.08
  -8  -3  -3    0.01    0.07
   8   3   3    0.01    0.07
   8   3   3   -0.03    0.07
   8   3   3    0.00    0.09
  -9  -3  -3    0.00    0.13
  -9  -3  -3    0.04    0.12
  -9  -3  -3    0.29    0.13
  -9  -3  -3    0.09    0.14
   9   3   3    0.24    0.10
   6  -4  -3   -0.16    0.13
   6  -4  -3   -0.08    0.12
   6  -4  -3    0.05    0.10
   6  -4  -3   -0.07    0.08
   6  -4  -3   -0.12    0.09
  -6   4   3    0.11    0.09
  -6   4   3    0.12    0.12
  -6   4   3   -0.02    0.14
  -6   4   3   -0.20    0.10
  -6   4   3   -0.01    0.15
   5  -4  -3    0.16    0.08
   5  -4  -3    0.09    0.07
   5  -4  -3   -0.01    0.08
   5  -4  -3    0.06    0.07
   5  -4  -3   -0.02    0.09
  -5   4   3   -0.08    0.10
  -5   4   3    0.05    0.06
  -5   4   3    0.05    0.08
  -5   4   3    0.00    0.11
  -5   4   3    0.05    0.07
   4  -4  -3    1.09    0.12
   4  -4  -3    1.11    0.12
   4  -4  -3    0.96    0.11
   4  -4  -3    1.14    0.11
   4  -4  -3    1.08    0.10
  -4   4   3    1.03    0.09
  -4   4   3    0.92    0.10
  -4   4   3    1.02    0.12
  -4   4   3    1.18    0.12
   3  -4  -3   -0.05    0.05
   3  -4  -3   -0.01    0.05
   3  -4  -3    0.02    0.04
   3  -4  -3    0.00    0.05
  -3   4   3   -0.04    0.05
  -3   4   3    0.01    0.05
  -3   4   3   -0.02    0.05
  -3   4   3    0.00    0.03
  -3   4   3   -0.05    0.06
   2  -4  -3    0.43    0.06
   2  -4  -3    0.54    0.06
   2  -4  -3    0.37    0.05
   2  -4  -3    0.42    0.05
  -2   4   3    0.55    0.06
  -2   4   3    0.50    0.06
  -2   4   3    0.52    0.07
  -2   4   3    0.35    0.06
   1  -4  -3    0.11    0.04
   1  -4  -3    0.07    0.03
   1  -4  -3    0.11    0.02
   1  -4  -3    0.13    0.03
   1  -4  -3    0.09    0.04
  -1   4   3    0.07    0.03
  -1   4   3    0.08    0.03
  -1   4   3    0.06    0.03
  -1   4   3    0.06    0.04
   0  -4  -3    8.74    0.26
   0  -4  -3    8.76    0.26
   0  -4  -3    8.92    0.25
   0  -4  -3    9.16    0.25
   0   4   3    8.86    0.27
   0   4   3    9.15    0.26
   0   4   3    9.17    0.24
   0   4   3    8.87    0.24
  -1  -4  -3    0.12    0.03
  -1  -4  -3    0.15    0.03
  -1  -4  -3    0.25    0.04
  -1  -4  -3    0.18    0.03
   1   4   3    0.11    0.02
   1   4   3    0.16    0.03
   1   4   3    0.11    0.03
   1   4   3    0.25    0.03
  -2  -4  -3   24.56    0.59
  -2  -4  -3   24.89    0.63
  -2  -4  -3   24.61    0.63
  -2  -4  -3   24.92    0.59
   2   4   3   24.89    0.58
   2   4   3   24.39    0.63
   2   4   3   24.74    0.58
   2   4   3   24.69    0.65
   2   4   3   23.97    0.62
  -3  -4  -3    3.78    0.12
  -3  -4  -3    3.71    0.11
  -3  -4  -3    3.67    0.12
  -3  -4  -3    3.81    0.11
   3   4   3    3.61    0.12
   3   4   3    3.58    0.12
   3   4   3    3.59    0.14
  -4  -4  -3   15.61    0.40
  -4  -4  -3   15.87    0.40
  -4  -4  -3   15.13    0.38
  -4  -4  -3   15.25    0.38
   4   4   3   15.23    0.40
   4   4   3   15.33    0.40
   4   4   3   15.14    0.43
  -5  -4  -3    4.67    0.15
  -5  -4  -3    4.59    0.14
  -5  -4  -3    4.74    0.15
  -5  -4  -3    4.71    0.15
   5   4   3    4.75    0.15
   5   4   3    4.74    0.17
   5   4   3    4.76    0.15
   5   4   3    4.51    0.18
  -6  -4  -3    5.53    0.19
  -6  -4  -3    5.65    0.18
  -6  -4  -3    5.53    0.17
  -6  -4  -3    5.79    0.18
   6   4   3    5.49    0.18
   6   4   3    5.55    0.20
   6   4   3    5.42    0.21
   6   4   3    5.53    0.18
  -7  -4  -3    0.95    0.09
  -7  -4  -3    0.94    0.10
  -7  -4  -3    0.95    0.10
  -7  -4  -3    0.95    0.09
   7   4   3    1.05    0.09
   7   4   3    0.91    0.11
   7   4   3    1.02    0.09
  -8  -4  -3    0.88    0.10
  -8  -4  -3    1.09    0.15
  -8  -4  -3    0.89    0.10
  -8  -4  -3    0.92    0.11
   8   4   3    0.74    0.12
   8   4   3    0.82    0.08
  -9  -4  -3    0.21    0.10
  -9  -4  -3    0.12    0.12
  -9  -4  -3    0.06    0.11
  -9  -4  -3   -0.05    0.12
   9   4   3    0.23    0.08
   9   4   3    0.09    0.09
   9   4   3    0.14    0.10
   6  -5  -3    1.49    0.16
   6  -5  -3    1.73    0.18
   6  -5  -3    1.28    0.20
   6  -5  -3    1.01    0.16
   6  -5  -3    1.09    0.21
  -6   5   3    1.45    0.24
  -6   5   3    1.25    0.25
  -6   5   3    1.66    0.21
   5  -5  -3    0.41    0.13
   5  -5  -3    0.28    0.09
   5  -5  -3    0.32    0.10
   5  -5  -3    0.40    0.13
   5  -5  -3    0.39    0.09
  -5   5   3    0.22    0.13
  -5   5   3    0.34    0.10
  -5   5   3    0.35    0.15
  -5   5   3    0.31    0.07
  -5   5   3    0.17    0.06
  -5   5   3    0.30    0.13
   4  -5  -3    3.86    0.22
   4  -5  -3    3.73    0.19
   4  -5  -3    3.18    0.18
   4  -5  -3    3.89    0.17
  -4   5   3    3.48    0.22
  -4   5   3    3.78    0.21
  -4   5   3    3.77    0.14
   3  -5  -3    1.05    0.11
   3  -5  -3    1.27    0.13
   3  -5  -3    1.19    0.13
   3  -5  -3    1.08    0.12
  -3   5   3    1.09    0.12
  -3   5   3    1.12    0.12
  -3   5   3    1.06    0.12
  -3   5   3    1.07    0.12
   2  -5  -3    2.39    0.14
   2  -5  -3    2.34    0.13
   2  -5  -3    2.23    0.13
   2  -5  -3    2.25    0.14
  -2   5   3    2.38    0.15
  -2   5   3    2.44    0.13
  -2   5   3    2.46    0.13
  -2   5   3    2.50    0.14
   1  -5  -3   32.71    0.86
   1  -5  -3   32.62    0.81
   1  -5  -3   33.27    0.86
   1  -5  -3   32.66    0.81
  -1   5   3   33.34    0.87
  -1   5   3   32.19    0.86
  -1   5   3   33.42    0.81
  -1   5   3   31.60    0.80
   0  -5  -3    0.06    0.03
   0  -5  -3    0.05    0.04
   0  -5  -3    0.08    0.03
   0  -5  -3    0.04    0.03
   0   5   3    0.09    0.03
   0   5   3    0.06    0.03
   0   5   3    0.05    0.04
  -1  -5  -3   74.13    1.71
  -1  -5  -3   72.72    1.71
  -1  -5  -3   72.43    1.82
  -1  -5  -3   72.98    1.82
   1   5   3   70.69    1.85
   1   5   3   75.36    1.82
   1   5   3   72.66    1.70
   1   5   3   74.55    1.81
   1   5   3   74.05    1.70
  -2  -5  -3    5.14    0.16
  -2  -5  -3    5.03    0.15
  -2  -5  -3    5.01    0.16
  -2  -5  -3    4.94    0.15
   2   5   3    4.97    0.13
   2   5   3    4.89    0.13
   2   5   3    4.95    0.16
   2   5   3    4.91    0.16
   2   5   3    4.89    0.18
  -3  -5  -3   40.21    0.94
  -3  -5  -3   41.13    0.94
  -3  -5  -3   39.65    1.00
  -3  -5  -3   40.85    1.00
   3   5   3   39.94    1.00
   3   5   3   38.74    1.04
   3   5   3   39.69    0.99
  -4  -5  -3   11.31    0.29
  -4  -5  -3   11.47    0.31
  -4  -5  -3   11.35    0.29
  -4  -5  -3   11.61    0.30
   4   5   3   11.25    0.30
   4   5   3   11.13    0.34
   4   5   3   11.50    0.30
  -5  -5  -3   10.42    0.28
  -5  -5  -3   10.46    0.27
  -5  -5  -3   10.37    0.28
  -5  -5  -3   10.23    0.26
   5   5   3   10.58    0.28
   5   5   3   10.07    0.32
   5   5   3   10.52    0.27
  -6  -5  -3    3.52    0.13
  -6  -5  -3    3.48    0.12
  -6  -5  -3    3.36    0.13
  -6  -5  -3    3.50    0.12
   6   5   3    3.54    0.11
   6   5   3    3.56    0.17
   6   5   3    3.42    0.12
   6   5   3    3.44    0.16
  -7  -5  -3    1.42    0.10
  -7  -5  -3    1.67    0.10
  -7  -5  -3    1.51    0.09
  -7  -5  -3    1.62    0.11
   7   5   3    1.43    0.07
   7   5   3    1.47    0.08
   7   5   3    1.36    0.12
   7   5   3    1.53    0.11
  -8  -5  -3    0.57    0.07
  -8  -5  -3    0.37    0.13
  -8  -5  -3    0.47    0.07
  -8  -5  -3    0.49    0.09
  -8  -5  -3    0.39    0.07
   8   5   3    0.40    0.05
   8   5   3    0.55    0.05
   8   5   3    0.48    0.11
   8   5   3    0.45    0.08
  -9  -5  -3    0.26    0.09
  -9  -5  -3    0.24    0.09
  -9  -5  -3    0.31    0.12
  -9  -5  -3    0.06    0.09
   9   5   3    0.15    0.06
   9   5   3    0.32    0.11
   5  -6  -3    0.87    0.19
   5  -6  -3    1.19    0.14
   5  -6  -3    0.85    0.15
   5  -6  -3    0.91    0.17
   5  -6  -3    1.15    0.14
  -5   6   3    0.78    0.17
  -5   6   3    1.18    0.23
  -5   6   3    1.06    0.16
  -5   6   3    1.13    0.11
  -5   6   3    0.95    0.18
   4  -6  -3    2.98    0.20
   4  -6  -3    2.54    0.19
   4  -6  -3    2.85    0.23
   4  -6  -3    2.94    0.22
   4  -6  -3    2.84    0.17
  -4   6   3    2.49    0.26
  -4   6   3    2.82    0.24
  -4   6   3    2.52    0.22
  -4   6   3    2.74    0.14
  -4   6   3    2.51    0.20
   3  -6  -3    5.23    0.24
   3  -6  -3    5.40    0.23
  -3   6   3    5.02    0.23
  -3   6   3    5.47    0.27
  -3   6   3    5.37    0.20
   2  -6  -3    9.81    0.34
   2  -6  -3    9.72    0.33
   2  -6  -3    9.75    0.31
  -2   6   3    9.83    0.35
  -2   6   3   10.07    0.34
  -2   6   3    9.23    0.30
   1  -6  -3   10.80    0.32
   1  -6  -3   10.33    0.31
   1  -6  -3   10.70    0.34
   1  -6  -3   10.04    0.34
  -1   6   3   10.56    0.35
  -1   6   3   10.07    0.32
  -1   6   3   10.84    0.31
  -1   6   3   10.80    0.34
  -1   6   3   10.44    0.31
   0  -6  -3    6.55    0.23
   0  -6  -3    6.58    0.21
   0  -6  -3    6.27    0.22
   0  -6  -3    6.31    0.21
   0   6   3    6.46    0.22
   0   6   3    6.84    0.24
   0   6   3    6.50    0.20
   0   6   3    6.12    0.20
   0   6   3    6.15    0.22
  -1  -6  -3    8.29    0.24
  -1  -6  -3    8.37    0.26
  -1  -6  -3    8.32    0.24
  -1  -6  -3    8.65    0.26
   1   6   3    8.67    0.23
   1   6   3    8.39    0.23
   1   6   3    8.82    0.27
   1   6   3    8.11    0.27
   1   6   3    8.20    0.26
  -2  -6  -3    0.37    0.04
  -2  -6  -3    0.37    0.04
  -2  -6  -3    0.41    0.05
  -2  -6  -3    0.40    0.05
   2   6   3    0.28    0.04
   2   6   3    0.43    0.06
   2   6   3    0.32    0.03
   2   6   3    0.38    0.04
  -3  -6  -3    3.50    0.12
  -3  -6  -3    3.59    0.12
  -3  -6  -3    3.65    0.13
  -3  -6  -3    3.28    0.11
   3   6   3    3.47    0.12
   3   6   3    3.43    0.15
   3   6   3    3.56    0.12
  -4  -6  -3    3.12    0.11
  -4  -6  -3    3.28    0.11
  -4  -6  -3    3.14    0.11
  -4  -6  -3    3.02    0.10
   4   6   3    3.16    0.10
   4   6   3    3.21    0.15
   4   6   3    3.37    0.10
  -5  -6  -3   -0.01    0.02
  -5  -6  -3    0.03    0.03
  -5  -6  -3   -0.01    0.02
  -5  -6  -3    0.04    0.03
   5   6   3    0.03    0.05
  -6  -6  -3    1.25    0.06
  -6  -6  -3    1.17    0.06
  -6  -6  -3    1.24    0.08
   6   6   3    1.39    0.11
  -7  -6  -3    0.87    0.06
  -7  -6  -3    1.19    0.08
  -7  -6  -3    0.99    0.11
  -7  -6  -3    0.92    0.07
  -7  -6  -3    1.10    0.10
   7   6   3    1.08    0.11
  -8  -6  -3    0.13    0.05
  -8  -6  -3    0.13    0.05
  -8  -6  -3    0.14    0.06
  -8  -6  -3    0.04    0.11
  -8  -6  -3    0.07    0.08
   8   6   3    0.14    0.08
   8   6   3    0.17    0.07
  -9  -6  -3    0.72    0.13
  -9  -6  -3    0.51    0.07
  -9  -6  -3    0.56    0.07
   9   6   3    0.69    0.12
   4  -7  -3    0.17    0.11
   4  -7  -3    0.16    0.15
   4  -7  -3    0.26    0.11
   4  -7  -3    0.07    0.12
   4  -7  -3    0.24    0.16
  -4   7   3    0.12    0.18
  -4   7   3    0.12    0.14
  -4   7   3    0.21    0.09
  -4   7   3    0.14    0.12
  -4   7   3    0.14    0.16
   3  -7  -3    1.08    0.13
   3  -7  -3    1.04    0.13
   3  -7  -3    1.14    0.16
   3  -7  -3    1.27    0.14
  -3   7   3    1.11    0.14
  -3   7   3    0.94    0.16
  -3   7   3    1.40    0.14
  -3   7   3    1.07    0.12
  -3   7   3    1.16    0.16
   2  -7  -3    0.17    0.08
   2  -7  -3    0.18    0.09
   2  -7  -3    0.39    0.09
   2  -7  -3    0.35    0.09
  -2   7   3    0.23    0.07
  -2   7   3    0.26    0.09
  -2   7   3    0.30    0.10
  -2   7   3    0.12    0.10
   1  -7  -3    0.09    0.06
   1  -7  -3    0.06    0.06
   1  -7  -3    0.05    0.06
   1  -7  -3    0.02    0.06
  -1   7   3    0.04    0.07
  -1   7   3    0.08    0.07
  -1   7   3    0.00    0.05
  -1   7   3    0.06    0.05
  -1   7   3   -0.03    0.06
   0  -7  -3    1.31    0.11
   0  -7  -3    1.32    0.12
   0  -7  -3    1.40    0.11
   0   7   3    1.25    0.10
   0   7   3    1.43    0.11
   0   7   3    1.33    0.11
   0   7   3    1.17    0.12
  -1  -7  -3    4.63    0.18
  -1  -7  -3    4.65    0.17
  -1  -7  -3    4.99    0.18
  -1  -7  -3    4.95    0.19
   1   7   3    4.79    0.19
   1   7   3    4.77    0.16
   1   7   3    4.75    0.19
   1   7   3    4.74    0.19
   1   7   3    4.75    0.16
  -2  -7  -3    2.63    0.12
  -2  -7  -3    2.63    0.12
  -2  -7  -3    2.69    0.12
  -2  -7  -3    2.54    0.09
  -2  -7  -3    2.75    0.12
   2   7   3    2.46    0.09
   2   7   3    2.60    0.09
   2   7   3    2.77    0.14
   2   7   3    2.64    0.13
   2   7   3    2.44    0.12
  -3  -7  -3    5.54    0.18
  -3  -7  -3    5.44    0.17
  -3  -7  -3    5.31    0.18
  -3  -7  -3    5.25    0.17
  -3  -7  -3    5.40    0.17
   3   7   3    5.31    0.18
   3   7   3    5.31    0.21
   3   7   3    5.33    0.18
  -4  -7  -3    4.61    0.15
  -4  -7  -3    4.75    0.15
  -4  -7  -3    4.80    0.15
  -4  -7  -3    4.72    0.17
  -4  -7  -3    4.68    0.15
   4   7   3    4.93    0.15
   4   7   3    4.81    0.20
   4   7   3    4.94    0.15
  -5  -7  -3    0.74    0.05
  -5  -7  -3    0.75    0.08
  -5  -7  -3    0.80    0.05
  -5  -7  -3    0.75    0.06
  -5  -7  -3    0.57    0.06
   5   7   3    0.70    0.09
  -6  -7  -3    3.49    0.11
  -6  -7  -3    3.47    0.13
  -6  -7  -3    3.46    0.18
   6   7   3    3.52    0.18
  -7  -7  -3    0.10    0.05
  -7  -7  -3    0.00    0.09
  -7  -7  -3   -0.02    0.04
  -8  -7  -3    0.79    0.07
  -8  -7  -3    0.32    0.12
  -8  -7  -3    0.70    0.09
   8   7   3    0.89    0.12
   3  -8  -3    0.19    0.12
   3  -8  -3   -0.07    0.09
   3  -8  -3    0.04    0.15
   3  -8  -3    0.05    0.15
   3  -8  -3   -0.17    0.13
  -3   8   3    0.07    0.13
  -3   8   3    0.12    0.15
  -3   8   3   -0.09    0.12
  -3   8   3    0.07    0.08
   2  -8  -3    1.92    0.21
   2  -8  -3    1.80    0.21
   2  -8  -3    1.86    0.20
   2  -8  -3    2.12    0.21
  -2   8   3    1.80    0.20
  -2   8   3    1.97    0.14
  -2   8   3    2.34    0.22
  -2   8   3    1.92    0.18
  -2   8   3    1.87    0.21
   1  -8  -3    0.14    0.09
   1  -8  -3    0.14    0.09
   1  -8  -3    0.12    0.08
   1  -8  -3    0.22    0.09
  -1   8   3    0.09    0.08
  -1   8   3    0.05    0.11
  -1   8   3    0.19    0.07
  -1   8   3    0.04    0.07
  -1   8   3    0.25    0.10
   0  -8  -3    7.17    0.26
   0  -8  -3    6.78    0.27
   0  -8  -3    7.03    0.27
   0  -8  -3    7.09    0.26
   0   8   3    7.25    0.27
   0   8   3    6.98    0.26
   0   8   3    6.77    0.24
   0   8   3    7.01    0.24
   0   8   3    7.03    0.29
  -1  -8  -3    0.72    0.08
  -1  -8  -3    0.63    0.08
  -1  -8  -3    0.68    0.08
  -1  -8  -3    0.91    0.09
   1   8   3    0.73    0.10
   1   8   3    0.90    0.10
   1   8   3    0.76    0.07
   1   8   3    0.83    0.09
  -2  -8  -3    4.12    0.18
  -2  -8  -3    4.19    0.18
  -2  -8  -3    4.51    0.17
  -2  -8  -3    4.42    0.17
   2   8   3    4.31    0.20
   2   8   3    4.27    0.13
   2   8   3    4.30    0.13
   2   8   3    4.49    0.18
  -3  -8  -3    1.00    0.07
  -3  -8  -3    1.02    0.09
  -3  -8  -3    1.13    0.09
  -3  -8  -3    1.11    0.09
  -3  -8  -3    1.12    0.09
   3   8   3    0.97    0.11
   3   8   3    1.15    0.10
   3   8   3    1.04    0.09
  -4  -8  -3    0.14    0.05
  -4  -8  -3    0.10    0.04
  -4  -8  -3    0.23    0.05
  -4  -8  -3    0.12    0.04
  -4  -8  -3    0.21    0.05
   4   8   3    0.23    0.08
   4   8   3    0.14    0.04
  -5  -8  -3    0.54    0.05
  -5  -8  -3    0.64    0.06
  -5  -8  -3    0.54    0.08
  -5  -8  -3    0.57    0.06
  -6  -8  -3   -0.02    0.04
  -6  -8  -3    0.00    0.04
  -6  -8  -3   -0.02    0.07
   6   8   3   -0.07    0.07
  -7  -8  -3   -0.02    0.09
  -7  -8  -3   -0.01    0.05
   7   8   3    0.01    0.08
  -8  -8  -3    0.08    0.05
  -8  -8  -3    0.03    0.07
  -8  -8  -3    0.03    0.13
   8   8   3   -0.06    0.08
   2  -9  -3    1.32    0.19
   2  -9  -3    0.96    0.16
   2  -9  -3    1.26    0.17
   2  -9  -3    1.07    0.17
  -2   9   3    1.43    0.23
  -2   9   3    1.61    0.20
  -2   9   3    1.20    0.17
  -2   9   3    1.48    0.17
  -2   9   3    1.36    0.14
   1  -9  -3    1.82    0.17
   1  -9  -3    2.10    0.22
   1  -9  -3    1.86    0.21
   1  -9  -3    1.92    0.17
  -1   9   3    1.93    0.15
  -1   9   3    1.60    0.17
  -1   9   3    2.11    0.21
  -1   9   3    1.71    0.20
   0  -9  -3    3.91    0.22
   0  -9  -3    3.04    0.21
   0  -9  -3    3.58    0.21
   0  -9  -3    3.67    0.21
   0   9   3    3.63    0.19
   0   9   3    2.64    0.24
   0   9   3    3.69    0.20
   0   9   3    3.97    0.18
   0   9   3    3.67    0.22
  -1  -9  -3    0.23    0.08
  -1  -9  -3    0.15    0.07
  -1  -9  -3    0.19    0.07
  -1  -9  -3    0.29    0.08
   1   9   3    0.19    0.06
   1   9   3    0.06    0.10
   1   9   3    0.06    0.07
   1   9   3    0.31    0.07
  -2  -9  -3    3.41    0.17
  -2  -9  -3    3.21    0.17
   2   9   3    3.14    0.18
  -3  -9  -3    0.63    0.08
  -3  -9  -3    0.75    0.08
  -3  -9  -3    0.64    0.06
  -3  -9  -3    0.78    0.08
  -3  -9  -3    0.58    0.08
   3   9   3    0.47    0.09
   3   9   3    0.56    0.07
   3   9   3    0.68    0.08
  -4  -9  -3    0.80    0.08
  -4  -9  -3    0.73    0.07
  -4  -9  -3    0.76    0.08
  -4  -9  -3    0.68    0.08
  -4  -9  -3    0.87    0.09
   4   9   3    0.71    0.11
   4   9   3    0.74    0.07
  -5  -9  -3    0.60    0.07
  -5  -9  -3    0.57    0.08
  -5  -9  -3    0.66    0.07
  -5  -9  -3    0.55    0.05
  -5  -9  -3    0.63    0.07
   5   9   3    0.38    0.09
  -6  -9  -3    0.16    0.06
  -6  -9  -3    0.18    0.05
  -6  -9  -3    0.08    0.08
   6   9   3    0.23    0.10
  -7  -9  -3   -0.04    0.11
  -7  -9  -3   -0.10    0.06
  -7  -9  -3    0.01    0.05
   7   9   3   -0.01    0.08
  -8  -9  -3    0.42    0.16
  -8  -9  -3    0.67    0.08
  -8  -9  -3    0.80    0.07
   8   9   3    0.55    0.12
   0 -10  -3    1.15    0.16
   0 -10  -3    1.23    0.16
   0 -10  -3    1.17    0.15
   0 -10  -3    1.42    0.16
   0  10   3    1.33    0.17
   0  10   3    1.31    0.14
   0  10   3    1.46    0.15
   0  10   3    1.34    0.15
  -1 -10  -3    0.08    0.10
  -1 -10  -3    0.08    0.10
  -1 -10  -3    0.07    0.10
  -1 -10  -3    0.52    0.12
   1  10   3    0.04    0.10
   1  10   3   -0.03    0.07
   1  10   3   -0.06    0.13
   1  10   3    0.08    0.08
   1  10   3    0.19    0.08
  -2 -10  -3    2.25    0.17
  -2 -10  -3    2.38    0.18
  -2 -10  -3    2.53    0.19
  -2 -10  -3    2.20    0.18
   2  10   3    2.36    0.18
   2  10   3    2.22    0.18
  -3 -10  -3    0.16    0.08
  -3 -10  -3    0.25    0.09
  -3 -10  -3    0.21    0.08
  -3 -10  -3    0.25    0.07
   3  10   3    0.18    0.08
   3  10   3    0.12    0.09
  -4 -10  -3    0.46    0.07
  -4 -10  -3    0.52    0.06
  -4 -10  -3    0.45    0.09
  -4 -10  -3    0.40    0.09
  -4 -10  -3    0.51    0.08
   4  10   3    0.59    0.12
   4  10   3    0.48    0.07
  -5 -10  -3    0.93    0.09
  -5 -10  -3    1.18    0.13
  -5 -10  -3    0.98    0.10
  -5 -10  -3    1.14    0.10
  -5 -10  -3    1.12    0.10
   5  10   3    1.26    0.16
  -6 -10  -3    0.01    0.07
  -6 -10  -3   -0.02    0.07
  -6 -10  -3   -0.03    0.09
   6  10   3    0.00    0.10
  -7 -10  -3    0.97    0.11
  -7 -10  -3    1.15    0.15
  -7 -10  -3    1.11    0.10
   7  10   3    1.10    0.15
  -2 -11  -3    0.93    0.15
  -2 -11  -3    0.82    0.15
  -2 -11  -3    0.77    0.14
  -2 -11  -3    1.00    0.15
   2  11   3    0.97    0.15
  -3 -11  -3    1.86    0.19
  -3 -11  -3    1.96    0.21
  -3 -11  -3    1.95    0.21
  -3 -11  -3    1.63    0.18
   3  11   3    1.73    0.18
   3  11   3    1.69    0.19
  -4 -11  -3    0.66    0.10
  -4 -11  -3    0.39    0.11
  -4 -11  -3    0.69    0.11
  -4 -11  -3    0.45    0.11
   4  11   3    0.68    0.14
   4  11   3    0.76    0.09
  -5 -11  -3    2.90    0.15
  -5 -11  -3    3.58    0.20
  -5 -11  -3    3.10    0.20
  -5 -11  -3    3.37    0.16
  -5 -11  -3    3.27    0.17
   5  11   3    3.49    0.23
   6   9  -4    0.97    0.12
  -6  -9   4    1.13    0.11
  -6  -9   4    0.95    0.10
   5   9  -4    0.86    0.10
  -5  -9   4    0.97    0.10
  -5  -9   4    0.82    0.08
  -5  -9   4    0.72    0.09
   4   9  -4    0.72    0.11
   4   9  -4    0.76    0.09
  -4  -9   4    0.96    0.11
  -4  -9   4    0.79    0.11
  -4  -9   4    0.87    0.10
   3   9  -4    3.30    0.18
   3   9  -4    3.05    0.19
  -3  -9   4    3.53    0.19
  -3  -9   4    3.15    0.18
  -3  -9   4    2.86    0.20
  -3  -9   4    2.98    0.22
   2   9  -4    0.00    0.08
   2   9  -4    0.06    0.10
   2   9  -4    0.06    0.09
  -2  -9   4    0.07    0.10
  -2  -9   4    0.01    0.09
  -2  -9   4   -0.01    0.12
  -2  -9   4   -0.02    0.09
   1   9  -4    2.66    0.22
   1   9  -4    2.08    0.16
  -1  -9   4    2.41    0.23
  -1  -9   4    2.80    0.22
  -1  -9   4    2.78    0.26
  -1  -9   4    2.65    0.22
   0   9  -4    0.03    0.17
   0   9  -4    0.74    0.13
   0  -9   4    0.74    0.14
   0  -9   4    0.59    0.19
   0  -9   4    0.72    0.16
   0  -9   4    0.73    0.15
   7   8  -4    0.02    0.09
  -7  -8   4   -0.06    0.06
  -7  -8   4   -0.03    0.11
  -7  -8   4   -0.12    0.07
   6   8  -4    1.69    0.15
  -6  -8   4    1.57    0.13
  -6  -8   4    1.58    0.11
   5   8  -4    0.22    0.08
   5   8  -4    0.21    0.09
  -5  -8   4    0.27    0.05
  -5  -8   4    0.11    0.06
  -5  -8   4    0.11    0.06
  -5  -8   4    0.18    0.06
   4   8  -4    1.29    0.10
   4   8  -4    1.50    0.11
   4   8  -4    1.39    0.11
  -4  -8   4    1.30    0.11
  -4  -8   4    1.61    0.12
  -4  -8   4    1.17    0.13
  -4  -8   4    1.40    0.12
   3   8  -4    1.84    0.13
   3   8  -4    1.91    0.15
  -3  -8   4    1.68    0.16
  -3  -8   4    2.11    0.13
  -3  -8   4    1.72    0.14
  -3  -8   4    1.87    0.14
   2   8  -4    0.00    0.06
   2   8  -4    0.04    0.07
   2   8  -4   -0.06    0.07
  -2  -8   4   -0.01    0.06
  -2  -8   4   -0.07    0.08
  -2  -8   4    0.01    0.08
  -2  -8   4    0.04    0.07
   1   8  -4    3.29    0.20
   1   8  -4    3.53    0.15
   1   8  -4    3.60    0.16
   1   8  -4    3.50    0.16
  -1  -8   4    3.54    0.23
  -1  -8   4    3.57    0.19
  -1  -8   4    3.20    0.20
  -1  -8   4    3.54    0.20
   0   8  -4    1.09    0.11
   0   8  -4    0.93    0.09
   0   8  -4    0.64    0.12
   0  -8   4    1.03    0.13
   0  -8   4    0.91    0.12
   0  -8   4    1.07    0.15
   0  -8   4    0.80    0.13
  -1   8  -4    1.41    0.15
  -1   8  -4    1.28    0.15
  -1   8  -4    1.37    0.14
   1  -8   4    1.24    0.16
   1  -8   4    1.63    0.20
   1  -8   4    1.25    0.16
   1  -8   4    1.03    0.13
   8   7  -4    0.57    0.12
  -8  -7   4    0.76    0.16
  -8  -7   4    0.81    0.09
  -8  -7   4    0.85    0.10
  -7  -7   4    0.58    0.11
  -7  -7   4    0.61    0.07
  -7  -7   4    0.56    0.08
   6   7  -4    3.25    0.18
  -6  -7   4    3.03    0.14
  -6  -7   4    3.21    0.19
  -6  -7   4    3.20    0.13
   5   7  -4    2.37    0.14
   5   7  -4    2.48    0.18
  -5  -7   4    2.29    0.12
  -5  -7   4    2.20    0.11
  -5  -7   4    2.20    0.10
  -5  -7   4    2.11    0.11
   4   7  -4    7.68    0.27
   4   7  -4    7.73    0.23
   4   7  -4    7.70    0.25
  -4  -7   4    7.57    0.24
  -4  -7   4    7.19    0.24
  -4  -7   4    7.56    0.25
  -4  -7   4    7.45    0.23
   3   7  -4    7.82    0.26
   3   7  -4    7.45    0.25
   3   7  -4    7.61    0.23
  -3  -7   4    7.28    0.26
  -3  -7   4    7.37    0.23
  -3  -7   4    7.62    0.25
  -3  -7   4    7.82    0.26
   2   7  -4    7.44    0.20
   2   7  -4    7.33    0.24
   2   7  -4    7.54    0.26
   2   7  -4    7.42    0.19
  -2  -7   4    7.37    0.24
  -2  -7   4    7.36    0.26
  -2  -7   4    7.43    0.25
  -2  -7   4    7.44    0.27
   1   7  -4    6.55    0.22
   1   7  -4    6.37    0.21
   1   7  -4    6.66    0.26
   1   7  -4    6.35    0.20
  -1  -7   4    6.62    0.25
  -1  -7   4    6.30    0.26
  -1  -7   4    6.77    0.23
  -1  -7   4    6.30    0.25
   0   7  -4    1.38    0.12
   0   7  -4    1.47    0.14
   0   7  -4    1.45    0.16
   0   7  -4    1.51    0.10
   0   7  -4    1.55    0.15
   0  -7   4    1.68    0.17
   0  -7   4    1.43    0.14
   0  -7   4    1.35    0.15
   0  -7   4    1.45    0.15
  -1   7  -4    1.90    0.19
  -1   7  -4    1.80    0.12
  -1   7  -4    1.99    0.18
  -1   7  -4    1.44    0.16
   1  -7   4    1.84    0.18
   1  -7   4    1.86    0.18
   1  -7   4    1.72    0.17
   1  -7   4    1.68    0.16
  -2   7  -4    0.05    0.14
  -2   7  -4   -0.05    0.12
  -2   7  -4   -0.17    0.11
  -2   7  -4   -0.08    0.09
   2  -7   4   -0.02    0.09
   2  -7   4   -0.01    0.13
   2  -7   4    0.07    0.15
   2  -7   4    0.14    0.12
  -3   7  -4   -0.02    0.16
  -3   7  -4   -0.01    0.19
  -3   7  -4    0.06    0.13
  -3   7  -4    0.28    0.16
   3  -7   4    0.08    0.16
   3  -7   4   -0.16    0.20
   3  -7   4    0.01    0.12
   8   6  -4    1.90    0.18
  -8  -6   4    2.00    0.15
  -8  -6   4    1.84    0.15
  -8  -6   4    1.79    0.17
   7   6  -4   11.59    0.42
  -7  -6   4   11.86    0.40
  -7  -6   4   11.88    0.32
  -7  -6   4   12.04    0.33
   6   6  -4    3.41    0.19
  -6  -6   4    3.27    0.14
  -6  -6   4    3.43    0.13
  -6  -6   4    3.22    0.11
  -6  -6   4    3.36    0.18
  -6  -6   4    3.34    0.11
   5   6  -4   31.40    0.85
   5   6  -4   32.02    0.78
   5   6  -4   32.50    0.82
   5   6  -4   31.80    0.78
  -5  -6   4   31.87    0.76
  -5  -6   4   32.26    0.81
  -5  -6   4   31.63    0.80
  -5  -6   4   30.80    0.80
  -5  -6   4   30.86    0.77
   4   6  -4    3.73    0.13
   4   6  -4    3.86    0.16
   4   6  -4    3.84    0.17
   4   6  -4    3.67    0.14
  -4  -6   4    3.53    0.14
  -4  -6   4    3.74    0.15
  -4  -6   4    3.69    0.13
   3   6  -4   35.53    0.91
   3   6  -4   35.35    0.90
   3   6  -4   36.27    0.88
  -3  -6   4   34.72    0.91
  -3  -6   4   35.33    0.86
  -3  -6   4   34.91    0.85
   2   6  -4    6.94    0.19
   2   6  -4    6.83    0.22
   2   6  -4    7.18    0.20
   2   6  -4    6.99    0.23
   2   6  -4    6.86    0.18
  -2  -6   4    7.04    0.22
  -2  -6   4    6.97    0.24
  -2  -6   4    6.30    0.24
  -2  -6   4    6.84    0.22
   1   6  -4   13.51    0.36
   1   6  -4   13.48    0.36
   1   6  -4   13.21    0.40
   1   6  -4   13.35    0.35
  -1  -6   4   13.14    0.40
  -1  -6   4   13.71    0.41
  -1  -6   4   13.35    0.38
  -1  -6   4   13.51    0.37
   0   6  -4    9.30    0.27
   0   6  -4    9.42    0.31
   0   6  -4    9.62    0.28
   0   6  -4    9.51    0.29
   0   6  -4    9.32    0.32
   0  -6   4    9.65    0.32
   0  -6   4    8.92    0.31
   0  -6   4    8.65    0.32
  -1   6  -4    1.81    0.13
  -1   6  -4    1.69    0.17
  -1   6  -4    1.68    0.15
   1  -6   4    1.89    0.15
   1  -6   4    1.74    0.17
   1  -6   4    1.78    0.16
   1  -6   4    1.69    0.14
  -2   6  -4    5.12    0.27
  -2   6  -4    5.29    0.24
  -2   6  -4    5.02    0.25
   2  -6   4    4.81    0.25
   2  -6   4    4.92    0.22
   2  -6   4    4.74    0.24
   2  -6   4    5.16    0.27
  -3   6  -4    0.26    0.12
  -3   6  -4    0.34    0.10
  -3   6  -4    0.24    0.14
  -3   6  -4    0.31    0.13
   3  -6   4    0.40    0.13
   3  -6   4    0.25    0.13
   3  -6   4    0.37    0.11
  -4   6  -4    1.32    0.19
  -4   6  -4    1.04    0.21
  -4   6  -4    1.24    0.18
  -4   6  -4    1.62    0.20
   4  -6   4    1.06    0.14
   4  -6   4    1.05    0.21
   4  -6   4    1.61    0.21
   8   5  -4    0.02    0.09
  -8  -5   4    0.00    0.10
  -8  -5   4    0.09    0.05
  -8  -5   4    0.08    0.08
  -8  -5   4    0.10    0.06
  -8  -5   4   -0.02    0.08
   7   5  -4    1.49    0.14
  -7  -5   4    1.61    0.10
  -7  -5   4    1.23    0.12
  -7  -5   4    1.68    0.11
  -7  -5   4    1.44    0.09
  -7  -5   4    1.81    0.12
   6   5  -4    2.94    0.17
  -6  -5   4    3.03    0.13
  -6  -5   4    3.01    0.12
  -6  -5   4    3.04    0.12
  -6  -5   4    3.02    0.11
  -6  -5   4    3.21    0.17
   5   5  -4    2.94    0.16
   5   5  -4    3.00    0.10
   5   5  -4    2.91    0.10
  -5  -5   4    3.01    0.11
  -5  -5   4    3.03    0.12
  -5  -5   4    2.94    0.12
  -5  -5   4    2.98    0.11
   4   5  -4   20.38    0.57
   4   5  -4   20.54    0.55
   4   5  -4   20.69    0.53
   4   5  -4   20.78    0.53
  -4  -5   4   20.54    0.54
  -4  -5   4   21.21    0.54
  -4  -5   4   20.34    0.51
  -4  -5   4   20.39    0.50
   3   5  -4    0.20    0.04
   3   5  -4    0.22    0.06
   3   5  -4    0.16    0.04
   3   5  -4    0.23    0.05
  -3  -5   4    0.21    0.05
  -3  -5   4    0.21    0.04
  -3  -5   4    0.15    0.04
  -3  -5   4    0.19    0.04
   2   5  -4   52.05    1.22
   2   5  -4   51.82    1.22
   2   5  -4   52.98    1.30
   2   5  -4   52.65    1.25
   2   5  -4   52.07    1.32
   2   5  -4   52.90    1.32
  -2  -5   4   51.70    1.24
  -2  -5   4   53.35    1.32
  -2  -5   4   52.35    1.32
  -2  -5   4   52.02    1.25
   1   5  -4    3.68    0.14
   1   5  -4    3.82    0.16
   1   5  -4    3.85    0.11
   1   5  -4    3.92    0.13
   1   5  -4    3.74    0.16
   1   5  -4    3.81    0.14
  -1  -5   4    3.64    0.16
  -1  -5   4    3.73    0.16
  -1  -5   4    4.08    0.15
  -1  -5   4    4.07    0.15
   0   5  -4   53.38    1.26
   0   5  -4   52.32    1.27
   0   5  -4   54.07    1.36
   0   5  -4   53.91    1.35
   0  -5   4   54.15    1.28
   0  -5   4   53.99    1.36
   0  -5   4   50.71    1.36
   0  -5   4   51.74    1.27
  -1   5  -4    4.43    0.20
  -1   5  -4    3.99    0.17
  -1   5  -4    4.30    0.19
  -1   5  -4    4.08    0.18
   1  -5   4    4.14    0.20
   1  -5   4    4.44    0.21
  -2   5  -4   17.06    0.53
  -2   5  -4   16.95    0.48
  -2   5  -4   17.17    0.48
   2  -5   4   16.81    0.47
   2  -5   4   17.48    0.53
  -3   5  -4    1.70    0.17
  -3   5  -4    1.69    0.18
  -3   5  -4    1.42    0.15
  -3   5  -4    1.36    0.15
   3  -5   4    1.76    0.20
   3  -5   4    1.59    0.15
   3  -5   4    1.67    0.19
  -4   5  -4    2.30    0.26
  -4   5  -4    2.40    0.21
  -4   5  -4    2.93    0.25
  -4   5  -4    2.43    0.24
   4  -5   4    2.57    0.26
   4  -5   4    2.84    0.20
   4  -5   4    2.92    0.23
   4  -5   4    2.85    0.25
  -5   5  -4    0.25    0.20
  -5   5  -4    0.32    0.19
  -5   5  -4    0.58    0.18
   5  -5   4    0.20    0.20
   5  -5   4    0.38    0.16
   5  -5   4    0.21    0.17
   5  -5   4    0.25    0.14
   8   4  -4    0.35    0.10
   8   4  -4    0.19    0.06
  -8  -4   4    0.22    0.08
  -8  -4   4    0.35    0.11
  -8  -4   4    0.27    0.08
  -8  -4   4    0.42    0.09
  -8  -4   4    0.35    0.09
   7   4  -4    2.02    0.10
   7   4  -4    1.87    0.15
  -7  -4   4    1.98    0.12
  -7  -4   4    2.08    0.13
  -7  -4   4    1.96    0.12
  -7  -4   4    1.34    0.14
  -7  -4   4    2.05    0.13
   6   4  -4    0.26    0.08
   6   4  -4    0.26    0.04
  -6  -4   4    0.28    0.04
  -6  -4   4    0.25    0.05
  -6  -4   4    0.30    0.05
  -6  -4   4    0.21    0.05
   5   4  -4    6.44    0.24
   5   4  -4    6.53    0.19
   5   4  -4    6.55    0.24
   5   4  -4    6.70    0.19
  -5  -4   4    6.54    0.19
  -5  -4   4    6.57    0.20
  -5  -4   4    6.76    0.23
  -5  -4   4    6.94    0.21
  -5  -4   4    6.45    0.19
   4   4  -4    0.64    0.08
   4   4  -4    0.58    0.05
   4   4  -4    0.70    0.06
   4   4  -4    0.69    0.08
  -4  -4   4    0.68    0.06
  -4  -4   4    0.49    0.06
  -4  -4   4    0.69    0.06
  -4  -4   4    0.62    0.05
  -4  -4   4    0.66    0.06
   3   4  -4    4.62    0.16
   3   4  -4    4.56    0.15
   3   4  -4    4.44    0.15
   3   4  -4    4.55    0.17
  -3  -4   4    4.46    0.15
  -3  -4   4    4.56    0.15
  -3  -4   4    4.36    0.14
  -3  -4   4    4.64    0.16
   2   4  -4    6.52    0.20
   2   4  -4    6.25    0.17
   2   4  -4    5.55    0.20
   2   4  -4    6.15    0.17
   2   4  -4    6.37    0.19
   2   4  -4    6.34    0.20
  -2  -4   4    6.52    0.18
  -2  -4   4    6.25    0.20
  -2  -4   4    6.26    0.19
  -2  -4   4    6.45    0.20
   1   4  -4    0.03    0.02
   1   4  -4    0.05    0.03
   1   4  -4    0.04    0.03
   1   4  -4   -0.04    0.03
   1   4  -4    0.02    0.03
  -1  -4   4    0.02    0.03
  -1  -4   4    0.05    0.04
  -1  -4   4    0.01    0.03
  -1  -4   4    0.01    0.03
   0   4  -4    1.95    0.10
   0   4  -4    2.00    0.11
   0   4  -4    2.04    0.12
   0   4  -4    2.22    0.11
   0  -4   4    1.91    0.12
   0  -4   4    2.06    0.11
   0  -4   4    2.15    0.10
   0  -4   4    2.15    0.11
  -1   4  -4    5.29    0.21
  -1   4  -4    5.50    0.21
  -1   4  -4    5.14    0.18
  -1   4  -4    5.62    0.19
   1  -4   4    5.37    0.21
   1  -4   4    5.14    0.19
   1  -4   4    5.23    0.18
   1  -4   4    5.37    0.21
  -2   4  -4    0.13    0.05
  -2   4  -4    0.12    0.06
  -2   4  -4    0.15    0.07
  -2   4  -4    0.14    0.06
   2  -4   4    0.19    0.07
   2  -4   4    0.14    0.06
  -3   4  -4    7.84    0.28
  -3   4  -4    7.59    0.29
  -3   4  -4    7.83    0.31
   3  -4   4    7.60    0.30
   3  -4   4    7.67    0.31
   3  -4   4    7.59    0.26
  -4   4  -4    0.79    0.12
  -4   4  -4    0.57    0.10
  -4   4  -4    0.56    0.14
  -4   4  -4    0.81    0.13
   4  -4   4    0.62    0.12
   4  -4   4    0.66    0.12
   4  -4   4    0.71    0.11
   4  -4   4    0.74    0.09
  -5   4  -4    2.72    0.26
  -5   4  -4    2.43    0.22
  -5   4  -4    3.06    0.28
  -5   4  -4    2.56    0.26
   5  -4   4    2.35    0.21
   5  -4   4    2.81    0.28
   5  -4   4    2.46    0.23
   5  -4   4    2.62    0.25
   8   3  -4   -0.04    0.07
   8   3  -4   -0.01    0.06
   8   3  -4   -0.02    0.07
  -8  -3   4    0.06    0.08
  -8  -3   4    0.00    0.08
  -8  -3   4   -0.10    0.10
  -8  -3   4   -0.03    0.08
  -8  -3   4   -0.14    0.09
   7   3  -4    0.16    0.05
   7   3  -4    0.17    0.08
   7   3  -4    0.18    0.06
  -7  -3   4    0.22    0.06
  -7  -3   4    0.19    0.06
  -7  -3   4    0.27    0.07
  -7  -3   4    0.11    0.07
  -7  -3   4    0.16    0.06
   6   3  -4   -0.02    0.06
   6   3  -4   -0.04    0.04
   6   3  -4   -0.03    0.04
  -6  -3   4    0.02    0.04
  -6  -3   4    0.01    0.05
  -6  -3   4    0.07    0.04
  -6  -3   4    0.01    0.04
   5   3  -4    3.49    0.17
   5   3  -4    3.37    0.16
   5   3  -4    3.63    0.13
   5   3  -4    3.53    0.13
  -5  -3   4    3.59    0.13
  -5  -3   4    3.63    0.14
  -5  -3   4    3.58    0.13
  -5  -3   4    3.51    0.16
  -5  -3   4    3.55    0.13
   4   3  -4    0.28    0.05
   4   3  -4    0.22    0.04
   4   3  -4    0.23    0.04
   4   3  -4    0.29    0.06
  -4  -3   4    0.24    0.04
  -4  -3   4    0.25    0.05
  -4  -3   4    0.26    0.04
  -4  -3   4    0.23    0.03
  -4  -3   4    0.23    0.03
   3   3  -4   19.82    0.51
   3   3  -4   19.84    0.51
   3   3  -4   19.24    0.53
   3   3  -4   19.94    0.51
  -3  -3   4   19.33    0.51
  -3  -3   4   20.04    0.52
  -3  -3   4   19.16    0.48
  -3  -3   4   19.83    0.48
   2   3  -4    0.24    0.03
   2   3  -4    0.22    0.03
   2   3  -4    0.24    0.04
   2   3  -4    0.23    0.03
   2   3  -4    0.25    0.04
  -2  -3   4    0.19    0.03
  -2  -3   4    0.23    0.04
  -2  -3   4    0.18    0.03
  -2  -3   4    0.22    0.03
   1   3  -4   13.01    0.33
   1   3  -4   13.26    0.34
   1   3  -4   12.54    0.36
   1   3  -4   13.24    0.34
   1   3  -4   12.82    0.33
   1   3  -4   12.97    0.36
  -1  -3   4   12.48    0.34
  -1  -3   4   12.43    0.36
  -1  -3   4   13.20    0.33
  -1  -3   4   13.01    0.36
   0   3  -4    0.57    0.05
   0   3  -4    0.56    0.06
   0   3  -4    0.57    0.06
   0   3  -4    0.68    0.07
   0  -3   4    0.55    0.06
   0  -3   4    0.66    0.06
   0  -3   4    0.70    0.07
   0  -3   4    0.55    0.06
  -1   3  -4    0.43    0.06
  -1   3  -4    0.55    0.07
  -1   3  -4    0.50    0.04
  -1   3  -4    0.52    0.06
  -1   3  -4    0.55    0.06
   1  -3   4    0.45    0.06
   1  -3   4    0.47    0.05
   1  -3   4    0.34    0.05
   1  -3   4    0.59    0.06
  -2   3  -4    1.19    0.09
  -2   3  -4    1.34    0.10
  -2   3  -4    1.28    0.10
  -2   3  -4    1.18    0.06
  -2   3  -4    1.27    0.11
   2  -3   4    1.36    0.11
   2  -3   4    1.26    0.11
   2  -3   4    1.13    0.10
   2  -3   4    1.25    0.09
  -3   3  -4   -0.05    0.06
  -3   3  -4    0.06    0.07
  -3   3  -4    0.03    0.06
  -3   3  -4   -0.03    0.05
   3  -3   4    0.06    0.07
   3  -3   4    0.02    0.05
   3  -3   4   -0.02    0.05
   3  -3   4    0.04    0.05
  -4   3  -4    0.04    0.08
  -4   3  -4    0.15    0.09
  -4   3  -4   -0.12    0.08
   4  -3   4    0.08    0.09
   4  -3   4    0.04    0.07
   4  -3   4    0.05    0.06
  -5   3  -4    0.10    0.12
  -5   3  -4    0.09    0.10
  -5   3  -4    0.12    0.08
  -5   3  -4   -0.03    0.09
   5  -3   4    0.13    0.08
   5  -3   4    0.03    0.10
   5  -3   4   -0.03    0.10
   5  -3   4   -0.02    0.11
  -6   3  -4   -0.01    0.13
  -6   3  -4   -0.26    0.13
  -6   3  -4    0.13    0.12
  -6   3  -4   -0.01    0.15
   6  -3   4    0.18    0.14
   6  -3   4   -0.07    0.15
   6  -3   4    0.11    0.12
   6  -3   4   -0.02    0.10
   8   2  -4    1.42    0.17
   8   2  -4    1.38    0.14
  -8  -2   4    1.38    0.14
  -8  -2   4    1.55    0.17
  -8  -2   4    1.47    0.14
  -8  -2   4    1.40    0.14
  -8  -2   4    1.40    0.15
   7   2  -4    0.62    0.08
   7   2  -4    0.89    0.10
   7   2  -4    0.95    0.12
  -7  -2   4    0.78    0.10
  -7  -2   4    0.82    0.10
  -7  -2   4    0.83    0.09
  -7  -2   4    0.91    0.11
  -7  -2   4    1.03    0.10
   6   2  -4    6.16    0.25
   6   2  -4    6.52    0.22
   6   2  -4    6.29    0.22
  -6  -2   4    6.39    0.21
  -6  -2   4    6.64    0.24
  -6  -2   4    6.67    0.23
  -6  -2   4    6.77    0.21
   5   2  -4    0.45    0.08
   5   2  -4    0.42    0.05
   5   2  -4    0.40    0.07
   5   2  -4    0.46    0.05
  -5  -2   4    0.48    0.06
  -5  -2   4    0.35    0.05
  -5  -2   4    0.43    0.05
  -5  -2   4    0.41    0.06
  -5  -2   4    0.50    0.05
   4   2  -4   14.88    0.40
   4   2  -4   14.88    0.35
   4   2  -4   14.52    0.43
   4   2  -4   14.83    0.35
   4   2  -4   14.76    0.41
   4   2  -4   15.29    0.40
  -4  -2   4   14.74    0.41
  -4  -2   4   15.37    0.38
  -4  -2   4   14.71    0.40
  -4  -2   4   14.33    0.40
  -4  -2   4   14.89    0.38
   3   2  -4    1.96    0.10
   3   2  -4    1.84    0.08
   3   2  -4    1.91    0.06
   3   2  -4    1.92    0.09
   3   2  -4    1.82    0.06
   3   2  -4    1.90    0.09
  -3  -2   4    1.79    0.08
  -3  -2   4    1.98    0.08
  -3  -2   4    1.90    0.08
  -3  -2   4    1.83    0.09
  -3  -2   4    2.03    0.09
   2   2  -4    5.18    0.15
   2   2  -4    5.19    0.16
   2   2  -4    5.21    0.14
   2   2  -4    5.41    0.16
  -2  -2   4    5.17    0.17
  -2  -2   4    5.27    0.15
  -2  -2   4    5.35    0.16
  -2  -2   4    4.96    0.17
   1   2  -4   10.86    0.28
   1   2  -4   10.50    0.30
   1   2  -4   11.43    0.31
   1   2  -4   10.82    0.28
  -1  -2   4   10.62    0.31
  -1  -2   4   11.00    0.31
  -1  -2   4   11.11    0.29
  -1  -2   4   10.77    0.28
   0   2  -4    2.20    0.09
   0   2  -4    2.12    0.08
   0   2  -4    2.20    0.10
   0   2  -4    2.19    0.10
   0  -2   4    2.09    0.08
   0  -2   4    2.03    0.09
   0  -2   4    2.12    0.10
   0  -2   4    1.99    0.09
  -1   2  -4    7.17    0.23
  -1   2  -4    6.90    0.20
  -1   2  -4    7.10    0.23
  -1   2  -4    7.19    0.21
   1  -2   4    7.20    0.23
   1  -2   4    7.13    0.23
   1  -2   4    7.12    0.21
   1  -2   4    7.04    0.21
  -2   2  -4    0.89    0.08
  -2   2  -4    0.89    0.08
  -2   2  -4    0.77    0.08
  -2   2  -4    1.06    0.07
   2  -2   4    0.78    0.09
   2  -2   4    0.88    0.07
   2  -2   4    0.94    0.08
   2  -2   4    0.83    0.07
   2  -2   4    0.86    0.07
  -3   2  -4    4.61    0.18
  -3   2  -4    4.71    0.19
  -3   2  -4    4.51    0.19
  -3   2  -4    4.53    0.17
   3  -2   4    4.66    0.17
   3  -2   4    4.68    0.17
   3  -2   4    4.51    0.13
   3  -2   4    4.63    0.20
   3  -2   4    4.45    0.19
  -4   2  -4    0.29    0.08
  -4   2  -4    0.23    0.07
  -4   2  -4    0.27    0.07
   4  -2   4    0.31    0.06
   4  -2   4    0.31    0.07
   4  -2   4    0.36    0.08
   4  -2   4    0.33    0.08
  -5   2  -4    2.37    0.16
  -5   2  -4    2.61    0.19
  -5   2  -4    2.46    0.19
  -5   2  -4    2.66    0.18
   5  -2   4    2.61    0.19
   5  -2   4    2.39    0.15
   5  -2   4    2.31    0.19
  -6   2  -4    0.54    0.13
  -6   2  -4    0.58    0.13
  -6   2  -4    0.59    0.11
  -6   2  -4    0.38    0.14
   6  -2   4    0.42    0.12
   6  -2   4    0.56    0.11
   6  -2   4    0.51    0.14
   6  -2   4    0.55    0.10
  -7   2  -4    0.61    0.18
  -7   2  -4    0.39    0.18
  -7   2  -4    0.58    0.16
   7  -2   4   -0.15    0.15
   7  -2   4    0.39    0.13
   7  -2   4    0.29    0.19
   7  -2   4    0.45    0.12
   8   1  -4    0.04    0.10
   8   1  -4    0.14    0.11
   8   1  -4   -0.09    0.09
  -8  -1   4   -0.02    0.11
  -8  -1   4    0.00    0.11
  -8  -1   4   -0.07    0.11
  -8  -1   4   -0.02    0.11
  -8  -1   4   -0.18    0.10
   7   1  -4    0.14    0.08
   7   1  -4    0.08    0.07
   7   1  -4    0.07    0.07
   7   1  -4    0.15    0.03
  -7  -1   4    0.19    0.08
  -7  -1   4    0.11    0.09
  -7  -1   4    0.07    0.07
  -7  -1   4    0.10    0.08
  -7  -1   4    0.14    0.08
   6   1  -4    0.22    0.03
   6   1  -4    0.14    0.06
   6   1  -4    0.11    0.07
   6   1  -4    0.13    0.03
  -6  -1   4    0.19    0.06
  -6  -1   4    0.13    0.05
  -6  -1   4    0.14    0.05
  -6  -1   4    0.20    0.06
   5   1  -4    5.27    0.15
   5   1  -4    4.86    0.20
   5   1  -4    5.23    0.15
   5   1  -4    5.23    0.18
   5   1  -4    5.00    0.20
  -5  -1   4    5.35    0.18
  -5  -1   4    5.29    0.19
  -5  -1   4    4.99    0.17
  -5  -1   4    4.95    0.18
   4   1  -4    0.22    0.04
   4   1  -4    0.28    0.03
   4   1  -4    0.22    0.05
   4   1  -4    0.23    0.05
   4   1  -4    0.32    0.03
  -4  -1   4    0.28    0.05
  -4  -1   4    0.26    0.04
  -4  -1   4    0.24    0.04
  -4  -1   4    0.22    0.04
   3   1  -4   57.45    1.30
   3   1  -4   56.93    1.33
   3   1  -4   54.64    1.39
   3   1  -4   54.47    1.30
  -3  -1   4   56.92    1.39
  -3  -1   4   55.16    1.31
  -3  -1   4   54.67    1.39
  -3  -1   4   56.02    1.31
  -3  -1   4   57.10    1.33
   2   1  -4    0.04    0.03
   2   1  -4    0.00    0.02
   2   1  -4    0.01    0.02
   2   1  -4    0.03    0.02
  -2  -1   4    0.08    0.03
  -2  -1   4    0.06    0.02
  -2  -1   4    0.02    0.02
   1   1  -4  181.72    4.18
   1   1  -4  177.53    4.38
   1   1  -4  179.27    4.38
   1   1  -4  167.69    4.13
  -1  -1   4  179.37    4.42
  -1  -1   4  184.12    4.16
  -1  -1   4  181.06    4.18
  -1  -1   4  178.38    4.36
   0   1  -4    0.98    0.07
   0   1  -4    0.97    0.06
   0   1  -4    1.16    0.07
   0   1  -4    1.17    0.06
   0  -1   4    0.96    0.06
   0  -1   4    1.30    0.06
   0  -1   4    1.01    0.07
   0  -1   4    1.06    0.07
  -1   1  -4   90.17    2.15
  -1   1  -4   95.17    2.16
  -1   1  -4   93.67    2.29
  -1   1  -4   95.55    2.29
   1  -1   4   96.56    2.16
   1  -1   4   90.86    2.15
   1  -1   4   89.29    2.29
   1  -1   4   92.41    2.29
  -2   1  -4    0.08    0.04
  -2   1  -4    0.05    0.04
  -2   1  -4    0.06    0.04
  -2   1  -4    0.06    0.03
   2  -1   4    0.09    0.04
   2  -1   4    0.12    0.04
   2  -1   4    0.08    0.04
   2  -1   4    0.14    0.03
  -3   1  -4   10.27    0.29
  -3   1  -4    9.97    0.31
  -3   1  -4   10.51    0.32
  -3   1  -4   10.04    0.30
   3  -1   4   10.34    0.28
   3  -1   4   10.57    0.32
   3  -1   4   10.12    0.29
   3  -1   4    9.95    0.31
  -4   1  -4    1.24    0.12
  -4   1  -4    1.13    0.09
  -4   1  -4    1.33    0.11
  -4   1  -4    1.31    0.12
   4  -1   4    1.29    0.10
   4  -1   4    1.39    0.09
   4  -1   4    1.37    0.12
   4  -1   4    1.32    0.12
  -5   1  -4    0.45    0.09
  -5   1  -4    0.34    0.08
  -5   1  -4    0.40    0.09
  -5   1  -4    0.48    0.08
   5  -1   4    0.44    0.09
   5  -1   4    0.45    0.07
   5  -1   4    0.39    0.06
   5  -1   4    0.40    0.09
  -6   1  -4    0.52    0.09
  -6   1  -4    0.50    0.11
  -6   1  -4    0.52    0.12
  -6   1  -4    0.39    0.10
   6  -1   4    0.42    0.11
   6  -1   4    0.62    0.12
   6  -1   4    0.43    0.09
   6  -1   4    0.52    0.08
  -7   1  -4   -0.24    0.13
  -7   1  -4   -0.03    0.12
  -7   1  -4    0.09    0.11
  -7   1  -4    0.06    0.13
   7  -1   4   -0.07    0.12
   7  -1   4   -0.20    0.13
   7  -1   4    0.07    0.09
   8   0  -4   -0.01    0.06
   8   0  -4    0.33    0.12
   8   0  -4    0.10    0.12
   8   0  -4    0.01    0.12
   8   0  -4    0.05    0.06
  -8   0   4   -0.02    0.12
  -8   0   4    0.40    0.14
  -8   0   4    0.09    0.11
  -8   0   4    0.13    0.12
  -8   0   4    0.26    0.12
   7   0  -4    0.54    0.06
   7   0  -4    0.53    0.09
   7   0  -4    0.52    0.11
   7   0  -4    0.61    0.06
   7   0  -4    0.62    0.11
  -7   0   4    0.58    0.10
  -7   0   4    0.55    0.11
  -7   0   4    0.57    0.11
  -7   0   4    0.58    0.10
  -7   0   4    0.47    0.10
   6   0  -4    2.89    0.12
   6   0  -4    2.83    0.16
   6   0  -4    2.76    0.15
   6   0  -4    2.53    0.16
   6   0  -4    2.73    0.12
  -6   0   4    2.58    0.16
  -6   0   4    2.75    0.16
  -6   0   4    2.65    0.17
  -6   0   4    2.80    0.17
   5   0  -4    5.95    0.18
   5   0  -4    5.84    0.18
   5   0  -4    6.23    0.22
   5   0  -4    5.83    0.21
   5   0  -4    5.64    0.22
   5   0  -4    5.88    0.22
  -5   0   4    5.80    0.20
  -5   0   4    5.96    0.22
  -5   0   4    6.06    0.21
  -5   0   4    6.02    0.21
  -5   0   4    5.78    0.20
   4   0  -4   14.69    0.37
   4   0  -4   15.24    0.47
   4   0  -4   14.51    0.41
   4   0  -4   14.88    0.41
   4   0  -4   14.37    0.42
   4   0  -4   14.45    0.37
   4   0  -4   15.21    0.40
  -4   0   4   14.31    0.42
  -4   0   4   14.46    0.39
  -4   0   4   14.39    0.41
  -4   0   4   14.75    0.39
  -4   0   4   14.36    0.39
   3   0  -4   38.17    0.90
   3   0  -4   38.98    0.90
   3   0  -4   36.99    0.96
   3   0  -4   39.41    0.97
   3   0  -4   38.20    0.92
  -3   0   4   37.64    0.91
  -3   0   4   37.20    0.97
  -3   0   4   36.33    0.91
  -3   0   4   37.92    0.91
  -3   0   4   38.09    0.96
   2   0  -4   35.92    0.91
   2   0  -4   36.20    0.86
   2   0  -4   37.10    0.87
   2   0  -4   36.34    0.91
   2   0  -4   35.25    0.85
  -2   0   4   36.69    0.92
  -2   0   4   37.38    0.86
  -2   0   4   36.45    0.86
  -2   0   4   33.39    0.91
   1   0  -4   45.24    1.08
   1   0  -4   42.37    1.01
   1   0  -4   42.22    1.01
   1   0  -4   43.56    1.08
  -1   0   4   44.40    1.02
  -1   0   4   39.97    1.08
  -1   0   4   43.87    1.08
  -1   0   4   43.49    1.01
   0   0  -4    1.96    0.09
   0   0  -4    1.94    0.08
   0   0  -4    1.97    0.08
   0   0  -4    1.94    0.07
   0   0   4    2.01    0.07
   0   0   4    1.88    0.08
   0   0   4    1.86    0.08
   0   0   4    1.93    0.08
  -1   0  -4    5.02    0.15
  -1   0  -4    4.96    0.16
  -1   0  -4    5.22    0.17
  -1   0  -4    5.15    0.16
   1   0   4    5.09    0.16
   1   0   4    4.86    0.15
   1   0   4    4.91    0.17
  -2   0  -4   20.00    0.53
  -2   0  -4   19.53    0.49
  -2   0  -4   19.97    0.50
  -2   0  -4   20.05    0.53
   2   0   4   19.59    0.50
   2   0   4   20.39    0.49
   2   0   4   19.31    0.53
   2   0   4   19.90    0.53
  -3   0  -4    0.02    0.04
  -3   0  -4    0.05    0.04
  -3   0  -4    0.08    0.04
  -3   0  -4    0.07    0.03
   3   0   4    0.04    0.03
   3   0   4    0.05    0.04
   3   0   4    0.00    0.04
   3   0   4    0.01    0.03
  -4   0  -4   11.60    0.35
  -4   0  -4   11.09    0.33
  -4   0  -4   11.45    0.35
  -4   0  -4   11.56    0.32
   4   0   4   11.96    0.36
   4   0   4   11.81    0.35
   4   0   4   11.63    0.32
   4   0   4   11.09    0.31
  -5   0  -4    0.36    0.08
  -5   0  -4    0.34    0.06
  -5   0  -4    0.35    0.07
  -5   0  -4    0.40    0.08
   5   0   4    0.45    0.06
   5   0   4    0.28    0.05
   5   0   4    0.28    0.07
   5   0   4    0.32    0.07
  -6   0  -4    1.96    0.17
  -6   0  -4    2.18    0.17
  -6   0  -4    2.16    0.14
  -6   0  -4    1.99    0.17
   6   0   4    1.86    0.16
   6   0   4    2.28    0.14
   6   0   4    2.00    0.13
   6   0   4    2.15    0.17
  -7   0  -4    0.27    0.11
  -7   0  -4    0.25    0.12
  -7   0  -4    0.25    0.12
  -7   0  -4    0.27    0.10
   7   0   4    0.25    0.08
   7   0   4    0.19    0.11
   7   0   4    0.16    0.11
  -8   0  -4    0.14    0.15
  -8   0  -4    0.30    0.15
  -8   0  -4    0.19    0.16
   8   0   4    0.20    0.12
   8   0   4    0.18    0.10
   8  -1  -4    0.02    0.11
   8  -1  -4   -0.03    0.09
   8  -1  -4   -0.10    0.09
   8  -1  -4    0.05    0.12
  -8   1   4    0.04    0.14
  -8   1   4    0.21    0.16
  -8   1   4   -0.03    0.13
  -8   1   4   -0.17    0.13
  -8   1   4    0.07    0.16
   7  -1  -4    3.20    0.17
   7  -1  -4    2.83    0.16
   7  -1  -4    3.20    0.19
   7  -1  -4    2.95    0.20
  -7   1   4    3.56    0.21
  -7   1   4    3.17    0.22
  -7   1   4    3.28    0.23
  -7   1   4    2.98    0.21
  -7   1   4    3.60    0.24
   6  -1  -4    1.14    0.10
   6  -1  -4    1.18    0.12
   6  -1  -4    0.97    0.11
   6  -1  -4    0.97    0.10
   6  -1  -4    1.06    0.11
   6  -1  -4    0.98    0.10
  -6   1   4    0.88    0.11
  -6   1   4    0.84    0.09
  -6   1   4    1.19    0.12
  -6   1   4    0.89    0.10
  -6   1   4    0.98    0.11
   5  -1  -4   11.52    0.36
   5  -1  -4   10.94    0.36
   5  -1  -4   11.56    0.32
   5  -1  -4   11.33    0.32
  -5   1   4   12.10    0.34
  -5   1   4   11.08    0.34
  -5   1   4   11.24    0.34
  -5   1   4   11.36    0.36
   4  -1  -4    7.68    0.22
   4  -1  -4    7.44    0.25
   4  -1  -4    7.95    0.23
   4  -1  -4    7.71    0.24
   4  -1  -4    7.92    0.25
  -4   1   4    7.83    0.25
  -4   1   4    7.27    0.23
  -4   1   4    7.41    0.23
  -4   1   4    7.28    0.23
  -4   1   4    7.32    0.25
   3  -1  -4   29.73    0.76
   3  -1  -4   29.67    0.70
   3  -1  -4   28.06    0.71
   3  -1  -4   28.14    0.75
   3  -1  -4   28.30    0.70
  -3   1   4   28.21    0.75
  -3   1   4   28.90    0.71
  -3   1   4   29.96    0.75
  -3   1   4   28.56    0.71
  -3   1   4   28.92    0.71
   2  -1  -4    8.46    0.23
   2  -1  -4    8.62    0.24
   2  -1  -4    8.60    0.26
   2  -1  -4    8.48    0.26
   2  -1  -4    9.02    0.24
  -2   1   4    8.98    0.26
  -2   1   4    8.75    0.24
  -2   1   4    9.08    0.26
  -2   1   4    8.18    0.24
   1  -1  -4   17.86    0.45
   1  -1  -4   19.10    0.45
   1  -1  -4   18.28    0.49
   1  -1  -4   17.67    0.48
   1  -1  -4   19.30    0.46
  -1   1   4   18.12    0.45
  -1   1   4   18.07    0.49
  -1   1   4   18.35    0.49
  -1   1   4   18.73    0.46
   0  -1  -4    1.61    0.08
   0  -1  -4    1.64    0.07
   0  -1  -4    1.76    0.07
   0  -1  -4    1.71    0.08
   0   1   4    1.67    0.08
   0   1   4    1.82    0.08
   0   1   4    1.71    0.07
  -1  -1  -4    0.36    0.04
  -1  -1  -4    0.23    0.03
  -1  -1  -4    0.35    0.04
   1   1   4    0.28    0.03
   1   1   4    0.22    0.03
   1   1   4    0.22    0.03
   1   1   4    0.26    0.04
  -2  -1  -4    1.25    0.07
  -2  -1  -4    1.29    0.07
  -2  -1  -4    1.34    0.06
  -2  -1  -4    1.24    0.07
   2   1   4    1.39    0.07
   2   1   4    1.26    0.07
   2   1   4    1.31    0.07
   2   1   4    1.28    0.06
  -3  -1  -4    1.21    0.08
  -3  -1  -4    1.19    0.06
  -3  -1  -4    1.13    0.08
  -3  -1  -4    1.11    0.07
   3   1   4    1.18    0.07
   3   1   4    1.18    0.08
   3   1   4    1.14    0.06
   3   1   4    1.22    0.08
  -4  -1  -4    0.53    0.06
  -4  -1  -4    0.55    0.06
  -4  -1  -4    0.45    0.05
  -4  -1  -4    0.53    0.06
   4   1   4    0.48    0.05
   4   1   4    0.43    0.06
   4   1   4    0.52    0.05
   4   1   4    0.48    0.05
   4   1   4    0.50    0.06
  -5  -1  -4    0.01    0.04
  -5  -1  -4    0.05    0.05
  -5  -1  -4    0.00    0.04
  -5  -1  -4    0.03    0.05
   5   1   4    0.04    0.04
   5   1   4    0.02    0.05
   5   1   4   -0.01    0.05
   5   1   4   -0.02    0.03
  -6  -1  -4    0.05    0.06
  -6  -1  -4    0.07    0.07
  -6  -1  -4    0.15    0.06
   6   1   4    0.01    0.05
   6   1   4   -0.01    0.06
   6   1   4    0.01    0.04
  -7  -1  -4    0.03    0.09
  -7  -1  -4    0.01    0.09
  -7  -1  -4    0.03    0.08
  -7  -1  -4    0.09    0.10
   7   1   4   -0.03    0.08
   7   1   4    0.11    0.08
   7   1   4    0.10    0.06
   7   1   4    0.08    0.08
   7   1   4   -0.01    0.06
  -8  -1  -4    0.01    0.12
  -8  -1  -4   -0.08    0.12
  -8  -1  -4   -0.06    0.12
  -8  -1  -4    0.03    0.13
   8   1   4   -0.02    0.12
   8   1   4   -0.11    0.07
   8   1   4   -0.11    0.07
   8   1   4   -0.09    0.11
   8   1   4   -0.07    0.07
   7  -2  -4    0.21    0.11
   7  -2  -4   -0.02    0.08
   7  -2  -4    0.08    0.12
  -7   2   4    0.11    0.10
  -7   2   4   -0.04    0.10
  -7   2   4   -0.02    0.13
  -7   2   4   -0.16    0.11
  -7   2   4   -0.05    0.13
   6  -2  -4    2.27    0.15
   6  -2  -4    2.15    0.18
   6  -2  -4    2.30    0.16
   6  -2  -4    2.29    0.17
  -6   2   4    2.23    0.20
  -6   2   4    1.99    0.20
  -6   2   4    2.04    0.17
  -6   2   4    2.11    0.16
  -6   2   4    2.11    0.17
   5  -2  -4    0.49    0.07
   5  -2  -4    0.55    0.09
   5  -2  -4    0.47    0.08
   5  -2  -4    0.47    0.08
   5  -2  -4    0.49    0.07
  -5   2   4    0.60    0.08
  -5   2   4    0.67    0.08
  -5   2   4    0.58    0.10
  -5   2   4    0.67    0.10
  -5   2   4    0.56    0.07
   4  -2  -4   14.67    0.43
   4  -2  -4   14.20    0.39
   4  -2  -4   15.27    0.40
   4  -2  -4   14.36    0.43
  -4   2   4   14.40    0.43
  -4   2   4   13.97    0.40
  -4   2   4   14.69    0.39
  -4   2   4   14.53    0.40
   3  -2  -4   14.69    0.37
   3  -2  -4   13.79    0.40
   3  -2  -4   13.57    0.40
   3  -2  -4   14.24    0.37
   3  -2  -4   14.06    0.37
  -3   2   4   13.39    0.40
  -3   2   4   14.17    0.36
  -3   2   4   13.35    0.38
  -3   2   4   13.65    0.40
  -3   2   4   14.55    0.38
   2  -2  -4   69.53    1.64
   2  -2  -4   70.62    1.75
   2  -2  -4   69.04    1.75
   2  -2  -4   69.86    1.64
   2  -2  -4   69.25    1.64
  -2   2   4   70.75    1.65
  -2   2   4   68.16    1.64
  -2   2   4   73.51    1.75
  -2   2   4   71.11    1.75
   1  -2  -4   81.20    1.87
   1  -2  -4   80.71    1.99
   1  -2  -4   83.94    1.88
   1  -2  -4   80.33    1.99
   1  -2  -4   80.24    1.87
  -1   2   4   80.63    1.99
  -1   2   4   76.78    1.99
  -1   2   4   82.01    1.87
  -1   2   4   79.26    1.87
   0  -2  -4  148.47    3.39
   0  -2  -4  148.69    3.56
   0  -2  -4  152.61    3.58
   0  -2  -4  140.79    3.37
   0   2   4  145.08    3.56
   0   2   4  143.03    3.42
   0   2   4  142.60    3.36
   0   2   4  146.38    3.58
  -1  -2  -4   56.74    1.30
  -1  -2  -4   55.81    1.29
  -1  -2  -4   54.80    1.38
  -1  -2  -4   52.35    1.37
   1   2   4   56.83    1.29
   1   2   4   55.73    1.30
   1   2   4   55.07    1.38
   1   2   4   55.87    1.38
  -2  -2  -4   37.85    0.88
  -2  -2  -4   35.71    0.93
  -2  -2  -4   36.86    0.87
  -2  -2  -4   36.16    0.93
   2   2   4   37.66    1.13
   2   2   4   36.73    0.93
   2   2   4   35.77    0.87
   2   2   4   37.21    0.87
   2   2   4   37.67    0.93
  -3  -2  -4    7.12    0.21
  -3  -2  -4    7.24    0.22
  -3  -2  -4    7.39    0.22
  -3  -2  -4    7.34    0.20
   3   2   4    7.56    0.22
   3   2   4    7.16    0.22
   3   2   4    7.42    0.27
   3   2   4    7.09    0.20
   3   2   4    7.25    0.20
  -4  -2  -4    0.03    0.03
  -4  -2  -4    0.00    0.03
  -4  -2  -4   -0.01    0.03
  -4  -2  -4   -0.02    0.03
   4   2   4    0.01    0.03
   4   2   4    0.03    0.04
   4   2   4    0.01    0.02
   4   2   4    0.02    0.03
   4   2   4    0.03    0.02
   4   2   4   -0.03    0.03
  -5  -2  -4    0.42    0.05
  -5  -2  -4    0.47    0.06
  -5  -2  -4    0.39    0.06
  -5  -2  -4    0.43    0.06
   5   2   4    0.44    0.05
   5   2   4    0.39    0.05
   5   2   4    0.49    0.06
   5   2   4    0.44    0.04
   5   2   4    0.32    0.07
  -6  -2  -4    0.69    0.09
  -6  -2  -4    0.68    0.09
  -6  -2  -4    0.78    0.09
  -6  -2  -4    0.73    0.07
   6   2   4    0.76    0.07
   6   2   4    0.51    0.09
   6   2   4    0.68    0.07
   6   2   4    0.70    0.07
  -7  -2  -4   -0.01    0.06
  -7  -2  -4   -0.03    0.08
  -7  -2  -4    0.06    0.08
  -7  -2  -4    0.10    0.08
   7   2   4   -0.04    0.07
   7   2   4    0.03    0.04
   7   2   4   -0.10    0.06
   7   2   4    0.07    0.04
   7   2   4    0.00    0.07
  -8  -2  -4   -0.04    0.11
  -8  -2  -4    0.25    0.12
  -8  -2  -4    0.19    0.11
  -8  -2  -4    0.08    0.10
   8   2   4   -0.02    0.09
   8   2   4    0.18    0.11
   8   2   4    0.03    0.04
   8   2   4    0.16    0.11
   7  -3  -4    0.23    0.12
   7  -3  -4    0.01    0.16
   7  -3  -4    0.26    0.11
   7  -3  -4    0.29    0.11
   7  -3  -4    0.36    0.15
  -7   3   4    0.26    0.12
  -7   3   4    0.20    0.14
  -7   3   4    0.39    0.18
  -7   3   4    0.18    0.17
  -7   3   4    0.31    0.15
   6  -3  -4    0.07    0.09
   6  -3  -4    0.24    0.09
   6  -3  -4    0.24    0.08
   6  -3  -4    0.10    0.11
  -6   3   4    0.23    0.12
  -6   3   4    0.08    0.09
  -6   3   4    0.05    0.08
  -6   3   4    0.33    0.12
  -6   3   4    0.08    0.10
   5  -3  -4    1.27    0.14
   5  -3  -4    1.12    0.12
   5  -3  -4    0.86    0.11
   5  -3  -4    0.84    0.09
   5  -3  -4    1.16    0.13
  -5   3   4    0.99    0.11
  -5   3   4    1.46    0.16
  -5   3   4    1.10    0.11
  -5   3   4    1.13    0.13
  -5   3   4    0.74    0.09
   4  -3  -4   -0.03    0.05
   4  -3  -4    0.04    0.06
   4  -3  -4    0.03    0.05
   4  -3  -4   -0.04    0.05
  -4   3   4   -0.01    0.06
  -4   3   4    0.00    0.04
  -4   3   4    0.07    0.07
   3  -3  -4    1.61    0.10
   3  -3  -4    1.76    0.12
   3  -3  -4    1.54    0.10
   3  -3  -4    1.74    0.11
   3  -3  -4    1.58    0.09
  -3   3   4    1.63    0.11
  -3   3   4    1.67    0.08
  -3   3   4    1.53    0.10
  -3   3   4    1.62    0.10
  -3   3   4    1.53    0.12
   2  -3  -4    0.22    0.05
   2  -3  -4    0.11    0.03
   2  -3  -4    0.12    0.03
   2  -3  -4    0.10    0.04
   2  -3  -4    0.19    0.04
  -2   3   4    0.14    0.04
  -2   3   4    0.15    0.04
  -2   3   4    0.09    0.03
  -2   3   4    0.12    0.04
   1  -3  -4    0.66    0.07
   1  -3  -4    0.67    0.06
   1  -3  -4    0.62    0.06
   1  -3  -4    0.58    0.04
   1  -3  -4    0.63    0.05
  -1   3   4    0.63    0.06
  -1   3   4    0.60    0.06
  -1   3   4    0.57    0.06
  -1   3   4    0.69    0.06
   0  -3  -4    8.24    0.23
   0  -3  -4    9.02    0.25
   0  -3  -4    8.05    0.23
   0   3   4    7.94    0.23
   0   3   4    8.45    0.25
   0   3   4    8.25    0.25
   0   3   4    8.50    0.23
  -1  -3  -4    7.79    0.23
  -1  -3  -4    8.22    0.22
  -1  -3  -4    7.85    0.23
  -1  -3  -4    7.95    0.22
   1   3   4    7.73    0.23
   1   3   4    7.98    0.23
   1   3   4    7.94    0.21
   1   3   4    8.02    0.22
  -2  -3  -4   34.92    0.87
  -2  -3  -4   34.83    0.82
  -2  -3  -4   33.89    0.81
  -2  -3  -4   33.27    0.87
   2   3   4   34.57    0.81
   2   3   4   33.65    0.87
   2   3   4   34.71    0.81
  -3  -3  -4   24.97    0.60
  -3  -3  -4   23.87    0.64
  -3  -3  -4   25.50    0.64
  -3  -3  -4   24.25    0.59
   3   3   4   24.64    0.59
   3   3   4   24.43    0.59
   3   3   4   25.28    0.64
  -4  -3  -4   14.74    0.38
  -4  -3  -4   14.96    0.41
  -4  -3  -4   14.90    0.41
  -4  -3  -4   15.47    0.39
   4   3   4   14.95    0.41
   4   3   4   14.49    0.51
   4   3   4   15.04    0.36
   4   3   4   14.90    0.41
   4   3   4   15.13    0.41
   4   3   4   14.85    0.36
  -5  -3  -4    6.27    0.21
  -5  -3  -4    6.31    0.19
  -5  -3  -4    6.71    0.21
  -5  -3  -4    6.31    0.21
   5   3   4    5.70    0.27
   5   3   4    6.58    0.17
   5   3   4    6.47    0.21
   5   3   4    6.74    0.21
   5   3   4    6.57    0.21
   5   3   4    6.25    0.17
  -6  -3  -4    3.76    0.15
  -6  -3  -4    3.66    0.16
  -6  -3  -4    3.83    0.16
  -6  -3  -4    3.67    0.17
   6   3   4    3.55    0.21
   6   3   4    3.85    0.15
   6   3   4    3.77    0.16
   6   3   4    3.88    0.16
  -7  -3  -4    0.42    0.09
  -7  -3  -4    0.41    0.07
  -7  -3  -4    0.34    0.08
  -7  -3  -4    0.45    0.08
   7   3   4    0.42    0.06
   7   3   4    0.34    0.10
   7   3   4    0.46    0.07
   7   3   4    0.32    0.08
  -8  -3  -4    0.48    0.10
  -8  -3  -4    0.47    0.10
  -8  -3  -4    0.69    0.11
  -8  -3  -4    0.34    0.11
   8   3   4    0.63    0.11
   8   3   4    0.52    0.13
   6  -4  -4    0.06    0.12
   6  -4  -4    0.11    0.10
   6  -4  -4   -0.10    0.13
   6  -4  -4    0.13    0.10
   6  -4  -4    0.01    0.09
  -6   4   4    0.29    0.16
  -6   4   4    0.03    0.11
  -6   4   4   -0.14    0.11
  -6   4   4   -0.05    0.15
   5  -4  -4    0.38    0.10
   5  -4  -4    0.55    0.10
   5  -4  -4    0.75    0.12
   5  -4  -4    0.66    0.10
   5  -4  -4    0.51    0.10
  -5   4   4    0.67    0.13
  -5   4   4    0.48    0.11
  -5   4   4    0.62    0.10
  -5   4   4    0.59    0.08
  -5   4   4    0.46    0.14
   4  -4  -4    0.83    0.11
   4  -4  -4    0.79    0.09
   4  -4  -4    0.74    0.09
   4  -4  -4    0.85    0.11
  -4   4   4    0.89    0.10
  -4   4   4    0.91    0.12
  -4   4   4    1.02    0.09
  -4   4   4    1.08    0.12
   3  -4  -4    4.95    0.21
   3  -4  -4    5.12    0.22
   3  -4  -4    5.02    0.19
   3  -4  -4    5.61    0.19
  -3   4   4    5.29    0.20
  -3   4   4    4.99    0.22
  -3   4   4    5.06    0.22
  -3   4   4    5.14    0.20
   2  -4  -4    7.62    0.24
   2  -4  -4    7.54    0.26
   2  -4  -4    7.73    0.26
   2  -4  -4    7.33    0.23
   2  -4  -4    7.48    0.21
  -2   4   4    7.34    0.24
  -2   4   4    7.64    0.26
  -2   4   4    7.43    0.26
  -2   4   4    7.50    0.24
   1  -4  -4    5.81    0.20
   1  -4  -4    5.83    0.19
   1  -4  -4    5.91    0.20
   1  -4  -4    5.53    0.19
   1  -4  -4    5.76    0.16
  -1   4   4    5.92    0.21
  -1   4   4    5.80    0.19
  -1   4   4    5.96    0.19
  -1   4   4    5.85    0.20
   0  -4  -4   35.06    0.90
   0  -4  -4   36.28    0.85
   0  -4  -4   34.05    0.84
   0  -4  -4   35.26    0.90
   0   4   4   34.61    0.84
   0   4   4   36.80    0.90
   0   4   4   34.46    0.90
   0   4   4   34.10    0.84
  -1  -4  -4    0.98    0.06
  -1  -4  -4    0.99    0.06
  -1  -4  -4    0.92    0.07
  -1  -4  -4    0.98    0.06
   1   4   4    0.91    0.06
   1   4   4    1.10    0.07
   1   4   4    0.88    0.07
   1   4   4    0.91    0.06
  -2  -4  -4   50.43    1.29
  -2  -4  -4   51.99    1.21
  -2  -4  -4   54.26    1.22
   2   4   4   51.94    1.21
   2   4   4   50.35    1.21
   2   4   4   52.48    1.29
  -3  -4  -4    1.13    0.07
  -3  -4  -4    1.11    0.07
  -3  -4  -4    0.99    0.07
  -3  -4  -4    1.04    0.06
   3   4   4    1.11    0.07
   3   4   4    0.99    0.06
   3   4   4    1.00    0.04
   3   4   4    1.05    0.06
   3   4   4    1.03    0.04
  -4  -4  -4   13.96    0.37
  -4  -4  -4   13.79    0.35
  -4  -4  -4   13.76    0.38
  -4  -4  -4   13.72    0.35
   4   4   4   13.68    0.37
   4   4   4   13.27    0.39
   4   4   4   13.80    0.37
  -5  -4  -4    1.00    0.08
  -5  -4  -4    0.94    0.07
  -5  -4  -4    0.90    0.08
  -5  -4  -4    0.91    0.08
   5   4   4    0.73    0.07
   5   4   4    0.96    0.07
   5   4   4    0.86    0.08
  -6  -4  -4    1.67    0.11
  -6  -4  -4    1.63    0.11
  -6  -4  -4    1.76    0.11
  -6  -4  -4    1.63    0.10
   6   4   4    1.68    0.10
   6   4   4    1.73    0.10
   6   4   4    1.64    0.11
  -7  -4  -4    0.45    0.08
  -7  -4  -4    0.37    0.07
  -7  -4  -4    0.50    0.07
  -7  -4  -4    0.38    0.07
   7   4   4    0.46    0.07
   7   4   4    0.44    0.07
   7   4   4    0.39    0.06
  -8  -4  -4    0.52    0.09
  -8  -4  -4    0.38    0.10
  -8  -4  -4    0.35    0.08
  -8  -4  -4    0.26    0.09
   8   4   4    0.06    0.07
   6  -5  -4    1.78    0.18
   6  -5  -4    2.06    0.22
  -6   5   4    2.33    0.27
   5  -5  -4    0.92    0.12
   5  -5  -4    0.59    0.13
   5  -5  -4    0.74    0.12
   5  -5  -4    0.68    0.14
   5  -5  -4    0.75    0.12
  -5   5   4    0.77    0.17
  -5   5   4    0.86    0.13
  -5   5   4    0.74    0.11
   4  -5  -4    3.92    0.22
   4  -5  -4    3.68    0.20
   4  -5  -4    3.78    0.23
   4  -5  -4    3.99    0.20
  -4   5   4    3.82    0.21
  -4   5   4    4.03    0.24
  -4   5   4    3.60    0.25
   3  -5  -4    2.44    0.17
   3  -5  -4    2.40    0.15
   3  -5  -4    2.31    0.16
   3  -5  -4    2.54    0.15
  -3   5   4    2.40    0.18
  -3   5   4    2.39    0.17
  -3   5   4    2.26    0.16
  -3   5   4    2.69    0.15
   2  -5  -4    0.42    0.07
   2  -5  -4    0.34    0.06
   2  -5  -4    0.36    0.06
   2  -5  -4    0.29    0.06
  -2   5   4    0.32    0.06
  -2   5   4    0.46    0.08
  -2   5   4    0.28    0.05
  -2   5   4    0.33    0.07
   1  -5  -4    2.40    0.13
   1  -5  -4    2.31    0.12
   1  -5  -4    2.30    0.11
   1  -5  -4    2.41    0.08
   1  -5  -4    2.30    0.13
  -1   5   4    2.42    0.13
  -1   5   4    2.16    0.11
  -1   5   4    2.21    0.13
  -1   5   4    2.33    0.12
   0  -5  -4    4.59    0.16
   0  -5  -4    5.10    0.18
   0  -5  -4    4.87    0.17
   0  -5  -4    4.90    0.13
   0  -5  -4    5.05    0.18
   0   5   4    5.09    0.18
   0   5   4    5.02    0.17
   0   5   4    4.75    0.18
   0   5   4    5.04    0.17
  -1  -5  -4    1.77    0.09
  -1  -5  -4    1.87    0.09
  -1  -5  -4    1.85    0.09
  -1  -5  -4    1.82    0.09
   1   5   4    1.77    0.08
   1   5   4    1.86    0.10
   1   5   4    1.82    0.09
   1   5   4    1.76    0.08
  -2  -5  -4    3.79    0.12
  -2  -5  -4    3.68    0.14
  -2  -5  -4    3.75    0.13
   2   5   4    3.62    0.11
   2   5   4    3.59    0.11
   2   5   4    3.83    0.15
   2   5   4    3.67    0.14
  -3  -5  -4   -0.04    0.02
  -3  -5  -4    0.03    0.03
  -3  -5  -4    0.01    0.03
  -3  -5  -4    0.01    0.02
   3   5   4    0.01    0.03
   3   5   4    0.04    0.02
   3   5   4    0.02    0.03
  -4  -5  -4   -0.03    0.03
  -4  -5  -4    0.01    0.03
  -4  -5  -4    0.00    0.03
  -4  -5  -4    0.05    0.02
   4   5   4   -0.04    0.03
   4   5   4    0.00    0.04
   4   5   4    0.00    0.02
  -5  -5  -4    0.28    0.05
  -5  -5  -4    0.31    0.05
  -5  -5  -4    0.25    0.04
   5   5   4    0.30    0.04
   5   5   4    0.26    0.04
   5   5   4    0.24    0.06
  -6  -5  -4    0.44    0.05
  -6  -5  -4    0.38    0.06
  -6  -5  -4    0.55    0.06
  -6  -5  -4    0.45    0.06
   6   5   4    0.50    0.08
   6   5   4    0.41    0.05
  -7  -5  -4    0.02    0.05
  -7  -5  -4   -0.01    0.06
  -7  -5  -4    0.01    0.05
  -7  -5  -4   -0.04    0.05
   7   5   4   -0.05    0.04
   7   5   4    0.04    0.06
  -8  -5  -4    0.64    0.09
  -8  -5  -4    0.57    0.11
  -8  -5  -4    0.60    0.09
  -8  -5  -4    0.51    0.08
   8   5   4    0.65    0.09
   8   5   4    0.51    0.07
   5  -6  -4    1.66    0.18
   5  -6  -4    1.73    0.21
   5  -6  -4    1.71    0.18
   5  -6  -4    1.80    0.20
   5  -6  -4    1.30    0.16
  -5   6   4    1.52    0.23
  -5   6   4    1.04    0.17
  -5   6   4    1.38    0.21
  -5   6   4    1.54    0.18
  -5   6   4    1.86    0.14
   4  -6  -4    1.42    0.14
   4  -6  -4    1.50    0.17
   4  -6  -4    1.81    0.14
   4  -6  -4    1.45    0.16
   4  -6  -4    1.28    0.14
  -4   6   4    1.78    0.13
  -4   6   4    1.31    0.14
  -4   6   4    1.58    0.17
  -4   6   4    1.59    0.18
  -4   6   4    1.27    0.14
   3  -6  -4   11.77    0.37
   3  -6  -4   12.09    0.40
  -3   6   4   10.32    0.36
  -3   6   4   11.67    0.37
  -3   6   4   11.79    0.42
   2  -6  -4    7.38    0.27
   2  -6  -4    8.28    0.30
   2  -6  -4    7.36    0.29
  -2   6   4    7.55    0.27
  -2   6   4    7.51    0.26
  -2   6   4    7.48    0.30
  -2   6   4    8.00    0.30
   1  -6  -4   35.38    0.90
   1  -6  -4   35.54    0.90
   1  -6  -4   35.56    0.96
   1  -6  -4   35.78    0.96
  -1   6   4   36.84    0.90
  -1   6   4   35.99    0.96
  -1   6   4   38.31    0.97
  -1   6   4   35.26    0.89
   0  -6  -4   13.52    0.39
   0  -6  -4   13.45    0.39
   0  -6  -4   12.88    0.36
   0  -6  -4   13.24    0.37
   0   6   4   13.53    0.36
   0   6   4   12.37    0.39
   0   6   4   12.89    0.36
  -1  -6  -4   24.77    0.63
  -1  -6  -4   25.00    0.64
  -1  -6  -4   25.22    0.68
  -1  -6  -4   25.66    0.68
   1   6   4   26.24    0.68
   1   6   4   25.86    0.62
   1   6   4   25.48    0.68
   1   6   4   25.25    0.62
   1   6   4   24.82    0.69
  -2  -6  -4   12.84    0.37
  -2  -6  -4   13.17    0.35
  -2  -6  -4   13.60    0.35
   2   6   4   13.14    0.33
   2   6   4   12.74    0.33
   2   6   4   12.97    0.37
   2   6   4   12.70    0.39
  -3  -6  -4    1.39    0.08
  -3  -6  -4    1.40    0.08
  -3  -6  -4    1.31    0.08
  -3  -6  -4    1.37    0.08
   3   6   4    1.20    0.08
   3   6   4    1.31    0.10
   3   6   4    1.54    0.08
  -4  -6  -4    7.17    0.22
  -4  -6  -4    7.06    0.21
  -4  -6  -4    7.16    0.20
  -4  -6  -4    6.94    0.21
   4   6   4    7.07    0.21
   4   6   4    6.97    0.25
   4   6   4    7.27    0.21
  -5  -6  -4    0.81    0.07
  -5  -6  -4    0.75    0.07
  -5  -6  -4    0.77    0.06
  -5  -6  -4    0.82    0.07
   5   6   4    0.91    0.09
   5   6   4    0.79    0.06
   5   6   4    0.78    0.06
  -6  -6  -4    1.07    0.08
  -6  -6  -4    1.12    0.08
  -6  -6  -4    1.04    0.08
  -6  -6  -4    1.11    0.09
   6   6   4    1.04    0.11
   6   6   4    1.12    0.07
   6   6   4    0.96    0.06
  -7  -6  -4    1.33    0.10
  -7  -6  -4    1.41    0.12
  -7  -6  -4    1.28    0.10
  -7  -6  -4    1.55    0.09
   7   6   4    1.47    0.07
   7   6   4    1.46    0.13
  -8  -6  -4    0.04    0.06
  -8  -6  -4    0.00    0.06
  -8  -6  -4   -0.07    0.06
  -8  -6  -4    0.13    0.11
  -8  -6  -4    0.12    0.08
   8   6   4    0.02    0.08
   4  -7  -4    0.01    0.11
   4  -7  -4   -0.08    0.15
   4  -7  -4   -0.15    0.14
   4  -7  -4    0.04    0.09
   4  -7  -4    0.09    0.11
  -4   7   4   -0.02    0.12
  -4   7   4    0.10    0.19
  -4   7   4    0.04    0.08
  -4   7   4    0.05    0.16
  -4   7   4    0.09    0.15
   3  -7  -4    0.02    0.09
   3  -7  -4    0.08    0.11
   3  -7  -4    0.15    0.12
   3  -7  -4    0.18    0.11
  -3   7   4    0.12    0.13
  -3   7   4    0.07    0.10
  -3   7   4    0.31    0.15
  -3   7   4    0.32    0.11
  -3   7   4    0.12    0.07
   2  -7  -4    0.02    0.08
   2  -7  -4    0.13    0.08
   2  -7  -4   -0.03    0.08
   2  -7  -4    0.10    0.09
  -2   7   4    0.15    0.10
  -2   7   4    0.17    0.06
  -2   7   4    0.02    0.11
  -2   7   4    0.09    0.08
   1  -7  -4    2.16    0.15
   1  -7  -4    1.81    0.14
   1  -7  -4    1.83    0.14
   1  -7  -4    1.91    0.15
  -1   7   4    1.82    0.15
  -1   7   4    1.74    0.12
  -1   7   4    2.04    0.17
  -1   7   4    1.98    0.14
   0  -7  -4    6.32    0.22
   0  -7  -4    6.05    0.22
   0  -7  -4    5.82    0.23
   0   7   4    6.40    0.21
   0   7   4    6.10    0.23
   0   7   4    6.24    0.25
   0   7   4    6.27    0.21
  -1  -7  -4    8.35    0.26
  -1  -7  -4    8.27    0.27
  -1  -7  -4    8.49    0.28
  -1  -7  -4    8.18    0.26
   1   7   4    8.26    0.24
   1   7   4    8.00    0.24
   1   7   4    8.05    0.27
   1   7   4    8.16    0.28
   1   7   4    8.19    0.28
  -2  -7  -4   24.61    0.65
  -2  -7  -4   23.61    0.61
  -2  -7  -4   23.87    0.61
   2   7   4   24.43    0.68
   2   7   4   24.45    0.58
   2   7   4   24.73    0.58
   2   7   4   23.99    0.65
  -3  -7  -4   10.43    0.29
  -3  -7  -4   10.40    0.30
  -3  -7  -4   10.24    0.31
  -3  -7  -4   10.27    0.29
   3   7   4   10.38    0.30
   3   7   4   10.04    0.30
   3   7   4   10.18    0.34
  -4  -7  -4   15.42    0.40
  -4  -7  -4   15.13    0.42
  -4  -7  -4   15.72    0.42
  -4  -7  -4   14.83    0.39
   4   7   4   15.62    0.41
   4   7   4   15.67    0.41
   4   7   4   14.98    0.47
  -5  -7  -4    7.95    0.23
  -5  -7  -4    8.16    0.24
  -5  -7  -4    8.06    0.24
   5   7   4    8.25    0.22
   5   7   4    8.30    0.22
   5   7   4    7.93    0.29
  -6  -7  -4    2.88    0.13
  -6  -7  -4    2.98    0.11
  -6  -7  -4    3.03    0.11
  -6  -7  -4    2.96    0.11
   6   7   4    2.93    0.17
  -7  -7  -4    3.01    0.14
  -7  -7  -4    2.83    0.10
  -7  -7  -4    2.95    0.13
  -7  -7  -4    2.84    0.20
  -7  -7  -4    2.77    0.10
  -8  -7  -4    0.25    0.09
  -8  -7  -4    0.03    0.13
  -8  -7  -4    0.08    0.07
   8   7   4    0.30    0.10
   3  -8  -4    0.26    0.15
   3  -8  -4    0.23    0.15
   3  -8  -4    0.31    0.15
   3  -8  -4    0.27    0.13
  -3   8   4    0.23    0.14
  -3   8   4    0.24    0.19
  -3   8   4    0.30    0.09
  -3   8   4    0.65    0.14
  -3   8   4    0.55    0.17
   2  -8  -4    1.32    0.15
   2  -8  -4    1.34    0.15
   2  -8  -4    1.30    0.15
   2  -8  -4    1.40    0.14
  -2   8   4    1.61    0.14
  -2   8   4    1.21    0.14
  -2   8   4    1.47    0.17
  -2   8   4    1.48    0.15
  -2   8   4    1.38    0.19
   1  -8  -4    5.25    0.25
   1  -8  -4    5.49    0.24
   1  -8  -4    4.93    0.25
   1  -8  -4    4.57    0.23
  -1   8   4    4.81    0.22
  -1   8   4    4.94    0.22
  -1   8   4    4.82    0.23
  -1   8   4    4.99    0.26
  -1   8   4    5.21    0.27
   0  -8  -4    2.15    0.16
   0  -8  -4    1.93    0.16
   0  -8  -4    2.25    0.15
   0  -8  -4    1.92    0.15
   0   8   4    2.10    0.14
   0   8   4    2.16    0.16
   0   8   4    1.69    0.17
   0   8   4    2.13    0.14
   0   8   4    2.10    0.14
  -1  -8  -4   14.21    0.44
  -1  -8  -4   14.79    0.45
   1   8   4   14.86    0.40
   1   8   4   14.90    0.46
   1   8   4   15.04    0.45
   1   8   4   14.79    0.40
  -2  -8  -4    3.18    0.09
  -2  -8  -4    3.26    0.15
  -2  -8  -4    3.11    0.16
  -2  -8  -4    3.25    0.15
   2   8   4    3.23    0.11
   2   8   4    3.40    0.17
   2   8   4    3.14    0.11
  -3  -8  -4    9.32    0.29
  -3  -8  -4    9.41    0.29
  -3  -8  -4    9.07    0.27
  -3  -8  -4    9.07    0.28
  -3  -8  -4    9.08    0.25
   3   8   4    9.43    0.29
   3   8   4    9.35    0.29
   3   8   4    8.92    0.32
  -4  -8  -4    2.85    0.13
  -4  -8  -4    2.95    0.13
  -4  -8  -4    2.84    0.13
  -4  -8  -4    2.72    0.13
  -4  -8  -4    2.65    0.13
   4   8   4    2.83    0.12
   4   8   4    2.73    0.12
   4   8   4    2.92    0.17
  -5  -8  -4    1.55    0.09
  -5  -8  -4    1.56    0.10
  -5  -8  -4    1.49    0.10
  -5  -8  -4    1.68    0.09
  -5  -8  -4    1.64    0.13
   5   8   4    1.80    0.08
  -6  -8  -4    1.58    0.07
  -6  -8  -4    1.77    0.07
  -6  -8  -4    1.50    0.15
  -6  -8  -4    1.63    0.10
  -6  -8  -4    1.60    0.11
   6   8   4    1.89    0.15
  -7  -8  -4    0.25    0.07
  -7  -8  -4    0.25    0.11
   7   8   4    0.30    0.10
  -8  -8  -4    0.48    0.15
  -8  -8  -4    0.96    0.11
  -8  -8  -4    0.97    0.09
   8   8   4    1.28    0.15
   2  -9  -4    1.00    0.17
   2  -9  -4    1.57    0.19
   2  -9  -4    1.84    0.21
  -2   9   4    1.71    0.24
  -2   9   4    1.37    0.17
  -2   9   4    1.43    0.18
  -2   9   4    1.52    0.22
  -2   9   4    1.35    0.15
   1  -9  -4    0.18    0.11
   1  -9  -4    0.20    0.11
   1  -9  -4    0.11    0.12
   1  -9  -4    0.28    0.12
  -1   9   4    0.25    0.15
  -1   9   4    0.29    0.11
  -1   9   4    0.31    0.11
  -1   9   4    0.23    0.12
  -1   9   4    0.25    0.10
   0  -9  -4    1.63    0.15
   0  -9  -4    1.33    0.14
   0  -9  -4    1.54    0.15
   0  -9  -4    1.67    0.18
   0   9   4    1.03    0.16
   0   9   4    1.56    0.18
   0   9   4    1.27    0.15
   0   9   4    1.64    0.15
  -1  -9  -4    0.61    0.10
  -1  -9  -4    0.63    0.10
  -1  -9  -4    0.71    0.10
  -1  -9  -4    0.41    0.09
   1   9   4    0.45    0.11
   1   9   4    0.76    0.08
   1   9   4    0.67    0.08
   1   9   4    0.57    0.10
   1   9   4    0.59    0.10
  -2  -9  -4    0.00    0.06
  -2  -9  -4    0.06    0.06
  -2  -9  -4   -0.03    0.07
   2   9   4   -0.07    0.07
   2   9   4   -0.01    0.03
   2   9   4    0.03    0.08
   2   9   4    0.00    0.04
  -3  -9  -4    0.38    0.07
  -3  -9  -4    0.33    0.07
  -3  -9  -4    0.35    0.07
  -3  -9  -4    0.33    0.04
  -3  -9  -4    0.38    0.07
   3   9   4    0.44    0.09
   3   9   4    0.35    0.07
   3   9   4    0.50    0.07
  -4  -9  -4    2.38    0.14
  -4  -9  -4    2.47    0.14
  -4  -9  -4    2.74    0.14
  -4  -9  -4    2.26    0.13
  -4  -9  -4    2.38    0.13
   4   9   4    2.51    0.17
   4   9   4    2.65    0.13
  -5  -9  -4   -0.03    0.05
  -5  -9  -4   -0.01    0.07
  -5  -9  -4    0.13    0.06
  -5  -9  -4    0.09    0.06
  -5  -9  -4    0.04    0.05
   5   9   4    0.06    0.04
   5   9   4    0.13    0.08
  -6  -9  -4    2.20    0.13
  -6  -9  -4    1.89    0.17
  -6  -9  -4    1.96    0.12
   6   9   4    2.21    0.18
  -7  -9  -4   -0.02    0.07
  -7  -9  -4    0.10    0.06
  -7  -9  -4    0.11    0.11
   7   9   4   -0.06    0.09
   0 -10  -4    0.51    0.14
   0 -10  -4    0.56    0.14
   0 -10  -4    0.29    0.13
   0 -10  -4    0.58    0.14
   0  10   4    0.45    0.12
   0  10   4    0.67    0.12
   0  10   4    0.77    0.12
   0  10   4    0.16    0.17
   0  10   4    0.53    0.14
  -1 -10  -4    3.43    0.22
  -1 -10  -4    3.03    0.23
  -1 -10  -4    3.06    0.22
  -1 -10  -4    3.30    0.23
   1  10   4    3.43    0.21
   1  10   4    3.36    0.18
   1  10   4    3.44    0.23
  -2 -10  -4    0.02    0.10
  -2 -10  -4   -0.04    0.09
  -2 -10  -4   -0.09    0.09
  -2 -10  -4    0.09    0.08
   2  10   4    0.05    0.09
   2  10   4    0.08    0.10
   2  10   4    0.05    0.09
  -3 -10  -4    6.31    0.25
  -3 -10  -4    5.96    0.24
  -3 -10  -4    6.16    0.25
  -3 -10  -4    5.78    0.24
   3  10   4    5.97    0.25
   3  10   4    6.29    0.28
  -4 -10  -4    0.65    0.07
  -4 -10  -4    0.64    0.09
  -4 -10  -4    0.60    0.10
  -4 -10  -4    0.74    0.09
   4  10   4    0.83    0.09
   4  10   4    0.58    0.11
  -5 -10  -4    2.74    0.17
  -5 -10  -4    2.54    0.13
  -5 -10  -4    2.70    0.17
  -5 -10  -4    2.76    0.15
  -5 -10  -4    2.81    0.16
   5  10   4    2.79    0.11
   5  10   4    2.78    0.20
   5  10   4    2.70    0.11
  -6 -10  -4    1.01    0.11
  -6 -10  -4    0.83    0.12
  -6 -10  -4    0.95    0.09
   6  10   4    0.98    0.15
  -7 -10  -4    0.48    0.10
  -7 -10  -4    0.38    0.13
  -7 -10  -4    0.44    0.08
   7  10   4    0.29    0.11
  -2 -11  -4    0.04    0.12
  -2 -11  -4    0.02    0.12
  -2 -11  -4    0.21    0.13
   2  11   4   -0.06    0.10
  -3 -11  -4    3.25    0.23
  -3 -11  -4    3.14    0.21
  -3 -11  -4    3.08    0.22
  -3 -11  -4    3.25    0.22
   3  11   4    3.54    0.22
   3  11   4    3.07    0.22
  -4 -11  -4    0.09    0.09
  -4 -11  -4    0.15    0.10
  -4 -11  -4    0.07    0.09
  -4 -11  -4    0.11    0.10
   4  11   4    0.09    0.09
   4  11   4   -0.08    0.09
   4  11   4    0.12    0.10
  -5 -11  -4    2.08    0.16
  -5 -11  -4    1.75    0.18
  -5 -11  -4    2.04    0.15
  -5 -11  -4    2.36    0.19
  -5 -11  -4    1.73    0.14
   5  11   4    1.91    0.10
   5  11   4    2.16    0.19
   5   9  -5    1.39    0.16
   5   9  -5    1.37    0.14
   5   9  -5    1.24    0.10
  -5  -9   5    1.42    0.14
  -5  -9   5    1.35    0.12
  -5  -9   5    1.41    0.12
  -5  -9   5    1.30    0.14
   4   9  -5    0.99    0.14
   4   9  -5    1.02    0.10
  -4  -9   5    1.05    0.11
  -4  -9   5    1.04    0.14
  -4  -9   5    0.95    0.12
  -4  -9   5    0.84    0.13
   3   9  -5    1.49    0.17
   3   9  -5    1.47    0.15
  -3  -9   5    1.62    0.17
  -3  -9   5    1.45    0.14
  -3  -9   5    1.35    0.13
  -3  -9   5    1.51    0.15
   2   9  -5    2.93    0.21
   2   9  -5    2.44    0.21
  -2  -9   5    2.63    0.21
  -2  -9   5    2.16    0.21
  -2  -9   5    2.34    0.23
   1   9  -5    0.10    0.09
   1   9  -5    0.33    0.11
  -1  -9   5    0.15    0.15
  -1  -9   5    0.37    0.16
  -1  -9   5    0.45    0.13
   6   8  -5    0.00    0.08
  -6  -8   5    0.13    0.05
  -6  -8   5    0.20    0.08
  -6  -8   5    0.09    0.07
   5   8  -5    5.91    0.24
   5   8  -5    5.74    0.19
   5   8  -5    6.17    0.28
   5   8  -5    5.83    0.18
  -5  -8   5    5.61    0.21
  -5  -8   5    5.86    0.23
  -5  -8   5    5.57    0.21
  -5  -8   5    5.73    0.22
   4   8  -5    0.00    0.07
   4   8  -5    0.10    0.07
   4   8  -5    0.18    0.06
   4   8  -5    0.08    0.09
  -4  -8   5    0.07    0.07
  -4  -8   5    0.01    0.07
  -4  -8   5   -0.04    0.08
   3   8  -5    5.78    0.23
   3   8  -5    6.08    0.25
  -3  -8   5    5.87    0.24
  -3  -8   5    5.35    0.22
  -3  -8   5    5.77    0.24
  -3  -8   5    5.61    0.26
   2   8  -5    0.85    0.11
   2   8  -5    0.83    0.11
  -2  -8   5    0.80    0.10
  -2  -8   5    0.69    0.10
  -2  -8   5    0.79    0.11
  -2  -8   5    0.96    0.13
   1   8  -5    1.57    0.14
   1   8  -5    1.36    0.14
   1   8  -5    1.50    0.15
  -1  -8   5    1.29    0.14
  -1  -8   5    1.53    0.16
  -1  -8   5    1.22    0.14
  -1  -8   5    1.40    0.13
   0   8  -5    1.39    0.12
   0   8  -5    1.43    0.14
   0   8  -5    1.34    0.13
   0   8  -5    1.32    0.15
   0  -8   5    1.57    0.18
   0  -8   5    1.16    0.16
   0  -8   5    0.94    0.14
   0  -8   5    1.07    0.13
  -1   8  -5    0.00    0.12
  -1   8  -5    0.03    0.13
  -1   8  -5   -0.07    0.17
  -1   8  -5    0.13    0.08
  -1   8  -5   -0.24    0.14
   1  -8   5    0.05    0.13
   1  -8   5   -0.18    0.17
   1  -8   5    0.02    0.15
   1  -8   5   -0.06    0.16
   7   7  -5    0.04    0.10
  -7  -7   5    0.09    0.11
  -7  -7   5    0.04    0.07
  -7  -7   5    0.02    0.08
   6   7  -5    0.30    0.09
   6   7  -5    0.21    0.10
  -6  -7   5    0.32    0.07
  -6  -7   5    0.33    0.06
  -6  -7   5    0.36    0.05
  -6  -7   5    0.27    0.07
   5   7  -5    0.07    0.04
   5   7  -5    0.21    0.09
   5   7  -5    0.13    0.05
   5   7  -5    0.02    0.07
  -5  -7   5    0.06    0.05
  -5  -7   5    0.02    0.06
  -5  -7   5    0.07    0.07
  -5  -7   5    0.11    0.05
   4   7  -5    0.02    0.06
   4   7  -5    0.09    0.06
   4   7  -5    0.16    0.05
   4   7  -5    0.15    0.08
  -4  -7   5    0.06    0.05
  -4  -7   5    0.09    0.05
  -4  -7   5    0.12    0.06
  -4  -7   5    0.02    0.07
   3   7  -5    0.44    0.08
   3   7  -5    0.56    0.07
   3   7  -5    0.54    0.07
   3   7  -5    0.52    0.08
  -3  -7   5    0.46    0.09
  -3  -7   5    0.39    0.08
  -3  -7   5    0.40    0.07
  -3  -7   5    0.41    0.07
   2   7  -5    2.36    0.15
   2   7  -5    2.15    0.10
   2   7  -5    2.10    0.09
  -2  -7   5    2.27    0.17
  -2  -7   5    2.13    0.15
  -2  -7   5    1.93    0.14
  -2  -7   5    2.32    0.15
   1   7  -5    0.27    0.07
   1   7  -5    0.33    0.09
   1   7  -5    0.34    0.10
   1   7  -5    0.40    0.07
   1   7  -5    0.37    0.06
  -1  -7   5    0.33    0.08
  -1  -7   5    0.31    0.09
  -1  -7   5    0.37    0.08
  -1  -7   5    0.36    0.08
   0   7  -5    2.17    0.15
   0   7  -5    2.44    0.21
   0   7  -5    2.01    0.17
   0   7  -5    1.98    0.13
   0  -7   5    2.30    0.17
   0  -7   5    2.25    0.21
   0  -7   5    1.99    0.19
   0  -7   5    2.24    0.18
  -1   7  -5    0.11    0.10
  -1   7  -5    0.16    0.10
  -1   7  -5    0.09    0.14
  -1   7  -5    0.01    0.07
  -1   7  -5   -0.01    0.09
   1  -7   5    0.07    0.11
   1  -7   5    0.20    0.12
   1  -7   5   -0.01    0.10
   1  -7   5    0.12    0.09
  -2   7  -5    0.46    0.13
  -2   7  -5    0.52    0.16
  -2   7  -5    0.82    0.15
  -2   7  -5    0.54    0.18
   2  -7   5    0.46    0.14
   2  -7   5    0.47    0.13
   2  -7   5    0.46    0.14
   2  -7   5    0.66    0.19
   8   6  -5    0.06    0.11
  -8  -6   5    0.20    0.10
  -8  -6   5   -0.13    0.09
   7   6  -5    1.62    0.16
  -7  -6   5    1.46    0.15
  -7  -6   5    1.35    0.10
  -7  -6   5    1.57    0.14
  -7  -6   5    1.34    0.12
   6   6  -5    0.04    0.10
   6   6  -5    0.11    0.08
  -6  -6   5    0.20    0.05
  -6  -6   5    0.23    0.08
  -6  -6   5    0.24    0.06
  -6  -6   5    0.18    0.04
  -6  -6   5    0.11    0.06
   5   6  -5    0.46    0.09
   5   6  -5    0.47    0.05
   5   6  -5    0.54    0.09
  -5  -6   5    0.50    0.06
  -5  -6   5    0.37    0.06
  -5  -6   5    0.37    0.07
  -5  -6   5    0.37    0.06
   4   6  -5    0.46    0.06
   4   6  -5    0.32    0.08
   4   6  -5    0.36    0.07
  -4  -6   5    0.44    0.07
  -4  -6   5    0.41    0.06
  -4  -6   5    0.38    0.06
  -4  -6   5    0.38    0.06
   3   6  -5    0.07    0.05
   3   6  -5    0.13    0.06
   3   6  -5    0.13    0.06
  -3  -6   5    0.09    0.05
  -3  -6   5    0.12    0.06
  -3  -6   5    0.11    0.05
  -3  -6   5    0.13    0.05
   2   6  -5    0.09    0.03
   2   6  -5    0.06    0.04
   2   6  -5    0.14    0.05
   2   6  -5    0.13    0.05
  -2  -6   5    0.10    0.05
  -2  -6   5    0.05    0.05
  -2  -6   5    0.04    0.05
  -2  -6   5    0.05    0.06
   1   6  -5    0.09    0.04
   1   6  -5   -0.02    0.06
   1   6  -5    0.08    0.05
   1   6  -5    0.08    0.05
  -1  -6   5    0.02    0.06
  -1  -6   5   -0.03    0.06
   0   6  -5    0.81    0.09
   0   6  -5    0.73    0.11
   0   6  -5    0.74    0.09
   0   6  -5    0.69    0.08
   0   6  -5    0.83    0.08
   0  -6   5    0.69    0.08
   0  -6   5    0.74    0.11
   0  -6   5    0.95    0.11
   0  -6   5    0.78    0.10
  -1   6  -5    0.34    0.09
  -1   6  -5    0.38    0.08
  -1   6  -5    0.35    0.10
  -1   6  -5    0.38    0.11
   1  -6   5    0.28    0.09
   1  -6   5    0.39    0.08
   1  -6   5    0.51    0.12
   1  -6   5    0.37    0.09
  -2   6  -5    1.49    0.15
  -2   6  -5    1.48    0.17
  -2   6  -5    1.42    0.15
  -2   6  -5    1.39    0.16
   2  -6   5    1.61    0.17
   2  -6   5    1.46    0.14
   2  -6   5    1.33    0.17
   2  -6   5    1.60    0.16
  -3   6  -5    0.23    0.17
  -3   6  -5    0.44    0.15
  -3   6  -5    0.39    0.15
  -3   6  -5    0.44    0.12
   3  -6   5    0.42    0.14
   3  -6   5    0.29    0.14
   3  -6   5    0.34    0.12
   3  -6   5    0.42    0.16
   8   5  -5    0.20    0.11
  -8  -5   5    0.05    0.07
  -8  -5   5   -0.10    0.13
  -8  -5   5    0.00    0.06
  -8  -5   5   -0.01    0.09
  -8  -5   5   -0.06    0.09
   7   5  -5    0.03    0.03
   7   5  -5    0.09    0.04
  -7  -5   5    0.07    0.07
  -7  -5   5    0.10    0.06
  -7  -5   5    0.22    0.07
  -7  -5   5    0.12    0.09
   6   5  -5    1.48    0.09
   6   5  -5    1.60    0.18
   6   5  -5    1.28    0.13
  -6  -5   5    1.49    0.09
  -6  -5   5    1.66    0.11
  -6  -5   5    1.62    0.12
  -6  -5   5    1.80    0.15
  -6  -5   5    1.58    0.11
   5   5  -5    2.64    0.11
   5   5  -5    2.73    0.15
   5   5  -5    2.74    0.17
   5   5  -5    2.70    0.11
  -5  -5   5    2.43    0.12
  -5  -5   5    2.67    0.12
  -5  -5   5    2.71    0.12
  -5  -5   5    2.45    0.13
   4   5  -5    8.20    0.27
   4   5  -5    7.92    0.25
   4   5  -5    8.68    0.28
  -4  -5   5    8.13    0.25
  -4  -5   5    8.13    0.26
  -4  -5   5    8.15    0.24
  -4  -5   5    8.29    0.26
   3   5  -5   21.10    0.57
   3   5  -5   20.85    0.55
   3   5  -5   21.16    0.57
   3   5  -5   21.03    0.56
  -3  -5   5   20.63    0.57
  -3  -5   5   21.29    0.53
  -3  -5   5   21.53    0.58
  -3  -5   5   20.58    0.54
   2   5  -5    8.51    0.25
   2   5  -5    8.18    0.27
   2   5  -5    8.32    0.23
   2   5  -5    8.44    0.23
   2   5  -5    8.66    0.26
  -2  -5   5    8.44    0.28
  -2  -5   5    8.72    0.25
  -2  -5   5    8.49    0.27
  -2  -5   5    8.56    0.26
   1   5  -5   44.04    1.16
   1   5  -5   45.36    1.15
   1   5  -5   46.17    1.09
   1   5  -5   44.58    1.07
   1   5  -5   44.99    1.07
   1   5  -5   43.44    1.10
  -1  -5   5   46.74    1.08
  -1  -5   5   45.03    1.16
  -1  -5   5   45.49    1.09
  -1  -5   5   42.40    1.16
   0   5  -5    3.80    0.15
   0   5  -5    3.45    0.18
   0   5  -5    3.99    0.16
   0  -5   5    3.85    0.17
   0  -5   5    3.75    0.16
   0  -5   5    3.64    0.19
  -1   5  -5   34.14    0.93
  -1   5  -5   35.14    0.95
  -1   5  -5   34.62    0.88
  -1   5  -5   34.80    0.87
   1  -5   5   35.83    0.94
   1  -5   5   34.24    0.87
   1  -5   5   35.12    0.89
   1  -5   5   34.04    0.95
  -2   5  -5    2.44    0.20
  -2   5  -5    2.28    0.17
  -2   5  -5    2.13    0.18
   2  -5   5    2.47    0.21
   2  -5   5    2.35    0.16
   2  -5   5    2.50    0.18
  -3   5  -5   11.03    0.41
  -3   5  -5   10.52    0.37
  -3   5  -5   10.88    0.42
  -3   5  -5   11.50    0.39
   3  -5   5   11.60    0.37
   3  -5   5   10.48    0.42
   3  -5   5   10.69    0.38
   3  -5   5   10.74    0.41
  -4   5  -5    1.09    0.19
  -4   5  -5    1.02    0.17
  -4   5  -5    1.76    0.20
  -4   5  -5    0.86    0.13
   4  -5   5    1.60    0.18
   4  -5   5    1.40    0.20
   4  -5   5    1.04    0.14
   4  -5   5    1.52    0.19
   8   4  -5    0.02    0.09
   8   4  -5    0.02    0.06
   8   4  -5    0.07    0.06
  -8  -4   5    0.10    0.11
  -8  -4   5    0.13    0.09
  -8  -4   5    0.09    0.08
  -8  -4   5    0.22    0.09
   7   4  -5    0.42    0.06
   7   4  -5    0.36    0.06
  -7  -4   5    0.51    0.08
  -7  -4   5    0.35    0.08
  -7  -4   5    0.19    0.09
  -7  -4   5    0.43    0.08
   6   4  -5    2.03    0.11
   6   4  -5    2.16    0.18
   6   4  -5    2.04    0.16
  -6  -4   5    2.15    0.13
  -6  -4   5    2.00    0.12
  -6  -4   5    2.04    0.12
  -6  -4   5    2.00    0.11
  -6  -4   5    2.10    0.16
   5   4  -5    0.59    0.06
   5   4  -5    0.68    0.10
   5   4  -5    0.67    0.10
  -5  -4   5    0.64    0.07
  -5  -4   5    0.64    0.06
  -5  -4   5    0.66    0.09
  -5  -4   5    0.65    0.07
  -5  -4   5    0.67    0.07
   4   4  -5    6.64    0.23
   4   4  -5    6.54    0.20
   4   4  -5    6.46    0.23
   4   4  -5    6.38    0.21
  -4  -4   5    6.52    0.21
  -4  -4   5    6.63    0.21
  -4  -4   5    6.45    0.20
  -4  -4   5    6.62    0.20
   3   4  -5    3.24    0.13
   3   4  -5    3.37    0.15
   3   4  -5    3.38    0.14
   3   4  -5    3.32    0.09
   3   4  -5    3.26    0.14
   3   4  -5    3.34    0.09
  -3  -4   5    3.22    0.13
  -3  -4   5    3.31    0.13
  -3  -4   5    3.18    0.12
  -3  -4   5    3.26    0.14
   2   4  -5    6.73    0.21
   2   4  -5    6.51    0.20
   2   4  -5    6.51    0.21
   2   4  -5    6.60    0.18
   2   4  -5    6.54    0.19
  -2  -4   5    6.71    0.20
  -2  -4   5    6.31    0.21
  -2  -4   5    6.54    0.22
  -2  -4   5    6.48    0.22
   1   4  -5    6.36    0.21
   1   4  -5    6.81    0.19
   1   4  -5    6.48    0.22
   1   4  -5    6.57    0.20
   1   4  -5    6.16    0.22
   1   4  -5    6.42    0.19
  -1  -4   5    6.51    0.20
  -1  -4   5    6.32    0.23
  -1  -4   5    6.80    0.21
  -1  -4   5    6.31    0.22
   0   4  -5    0.39    0.06
   0   4  -5    0.40    0.05
   0   4  -5    0.48    0.04
   0   4  -5    0.35    0.06
   0   4  -5    0.37    0.06
   0  -4   5    0.59    0.07
   0  -4   5    0.51    0.06
   0  -4   5    0.51    0.08
   0  -4   5    0.46    0.07
  -1   4  -5    1.79    0.14
  -1   4  -5    1.81    0.13
  -1   4  -5    2.06    0.12
  -1   4  -5    1.74    0.13
   1  -4   5    1.81    0.14
   1  -4   5    1.81    0.12
   1  -4   5    1.88    0.13
   1  -4   5    1.81    0.12
  -2   4  -5    2.38    0.16
  -2   4  -5    2.20    0.14
  -2   4  -5    2.34    0.17
  -2   4  -5    2.49    0.16
   2  -4   5    2.37    0.16
   2  -4   5    2.23    0.14
   2  -4   5    2.38    0.17
  -3   4  -5    0.13    0.09
  -3   4  -5    0.04    0.07
  -3   4  -5    0.08    0.10
  -3   4  -5    0.03    0.07
   3  -4   5   -0.09    0.07
   3  -4   5    0.11    0.09
   3  -4   5    0.09    0.09
  -4   4  -5    3.50    0.24
  -4   4  -5    3.71    0.25
  -4   4  -5    3.18    0.25
  -4   4  -5    3.47    0.21
   4  -4   5    3.46    0.20
   4  -4   5    3.80    0.23
   4  -4   5    3.43    0.26
   4  -4   5    3.40    0.25
  -5   4  -5    0.03    0.16
  -5   4  -5   -0.23    0.15
  -5   4  -5    0.17    0.15
  -5   4  -5    0.04    0.13
   5  -4   5    0.11    0.14
   5  -4   5   -0.02    0.12
   5  -4   5    0.06    0.11
   5  -4   5    0.07    0.17
   8   3  -5    0.02    0.08
   8   3  -5    0.20    0.08
   8   3  -5    0.60    0.13
  -8  -3   5    0.29    0.10
  -8  -3   5    0.34    0.10
  -8  -3   5    0.65    0.13
  -8  -3   5    0.40    0.10
  -8  -3   5    0.52    0.11
   7   3  -5    0.52    0.07
  -7  -3   5    0.41    0.08
  -7  -3   5    0.58    0.11
  -7  -3   5    0.39    0.09
  -7  -3   5    0.68    0.09
  -7  -3   5    0.45    0.08
   6   3  -5    1.94    0.17
   6   3  -5    2.14    0.15
   6   3  -5    2.37    0.12
  -6  -3   5    2.23    0.14
  -6  -3   5    2.16    0.13
  -6  -3   5    2.40    0.13
  -6  -3   5    2.32    0.12
   5   3  -5    0.03    0.05
   5   3  -5    0.05    0.04
   5   3  -5    0.01    0.03
   5   3  -5   -0.01    0.06
  -5  -3   5    0.01    0.04
  -5  -3   5    0.03    0.04
  -5  -3   5    0.03    0.04
   4   3  -5   11.00    0.31
   4   3  -5   10.77    0.34
   4   3  -5   10.84    0.33
   4   3  -5   10.85    0.31
  -4  -3   5   10.71    0.30
  -4  -3   5   10.85    0.31
  -4  -3   5   10.56    0.29
  -4  -3   5   10.93    0.32
  -4  -3   5   11.13    0.32
   3   3  -5    7.71    0.20
   3   3  -5    7.99    0.24
   3   3  -5    7.87    0.25
   3   3  -5    7.92    0.24
   3   3  -5    8.15    0.25
   3   3  -5    7.95    0.21
  -3  -3   5    7.95    0.25
  -3  -3   5    8.24    0.22
  -3  -3   5    7.99    0.24
  -3  -3   5    7.76    0.23
   2   3  -5   22.06    0.64
   2   3  -5   25.14    0.62
   2   3  -5   24.87    0.59
   2   3  -5   24.69    0.64
   2   3  -5   24.18    0.59
   2   3  -5   25.10    0.63
  -2  -3   5   23.99    0.65
  -2  -3   5   24.84    0.61
  -2  -3   5   25.30    0.60
  -2  -3   5   24.23    0.65
   1   3  -5   22.31    0.61
   1   3  -5   23.06    0.56
   1   3  -5   22.27    0.56
   1   3  -5   22.36    0.60
   1   3  -5   22.81    0.57
  -1  -3   5   23.33    0.61
  -1  -3   5   22.48    0.57
  -1  -3   5   23.15    0.56
  -1  -3   5   21.62    0.61
   0   3  -5    7.56    0.25
   0   3  -5    7.03    0.22
   0   3  -5    7.53    0.22
   0   3  -5    7.19    0.24
   0  -3   5    7.35    0.22
   0  -3   5    7.11    0.25
   0  -3   5    7.47    0.24
   0  -3   5    7.38    0.23
  -1   3  -5   18.82    0.49
  -1   3  -5   19.64    0.54
  -1   3  -5   18.92    0.53
  -1   3  -5   18.35    0.50
   1  -3   5   18.72    0.54
   1  -3   5   19.41    0.50
   1  -3   5   18.85    0.53
   1  -3   5   18.89    0.49
  -2   3  -5    0.08    0.05
  -2   3  -5    0.02    0.06
  -2   3  -5    0.06    0.05
  -2   3  -5   -0.01    0.05
   2  -3   5    0.06    0.05
   2  -3   5    0.11    0.05
   2  -3   5    0.05    0.05
   2  -3   5    0.02    0.06
  -3   3  -5    5.04    0.22
  -3   3  -5    4.88    0.19
  -3   3  -5    4.64    0.21
  -3   3  -5    4.84    0.23
   3  -3   5    4.80    0.20
   3  -3   5    5.04    0.20
   3  -3   5    4.70    0.23
   3  -3   5    4.86    0.22
   3  -3   5    4.60    0.15
  -4   3  -5    0.12    0.09
  -4   3  -5    0.03    0.08
   4  -3   5    0.07    0.07
   4  -3   5   -0.01    0.09
   4  -3   5    0.04    0.09
   4  -3   5   -0.12    0.07
  -5   3  -5    0.00    0.12
  -5   3  -5    0.17    0.10
  -5   3  -5    0.15    0.12
  -5   3  -5    0.28    0.12
   5  -3   5    0.07    0.10
   5  -3   5    0.34    0.11
   5  -3   5    0.06    0.09
   5  -3   5    0.07    0.12
  -6   3  -5   -0.28    0.17
  -6   3  -5   -0.07    0.15
  -6   3  -5    0.35    0.16
   6  -3   5   -0.06    0.13
   6  -3   5    0.02    0.12
   6  -3   5   -0.03    0.18
   8   2  -5    0.24    0.09
   8   2  -5    0.33    0.11
   8   2  -5    0.13    0.09
  -8  -2   5    0.24    0.11
  -8  -2   5    0.24    0.12
  -8  -2   5    0.19    0.11
  -8  -2   5    0.22    0.11
  -8  -2   5    0.38    0.11
   7   2  -5    0.11    0.07
   7   2  -5    0.01    0.06
  -7  -2   5    0.01    0.07
  -7  -2   5    0.07    0.08
  -7  -2   5    0.10    0.08
  -7  -2   5    0.11    0.09
   6   2  -5    0.31    0.06
   6   2  -5    0.18    0.07
   6   2  -5    0.27    0.09
  -6  -2   5    0.33    0.07
  -6  -2   5    0.32    0.06
  -6  -2   5    0.38    0.06
  -6  -2   5    0.31    0.07
   5   2  -5    0.90    0.10
   5   2  -5    0.89    0.04
   5   2  -5    0.81    0.08
   5   2  -5    0.86    0.04
   5   2  -5    0.91    0.08
  -5  -2   5    0.71    0.08
  -5  -2   5    0.82    0.08
  -5  -2   5    0.88    0.10
  -5  -2   5    0.93    0.09
  -5  -2   5    0.70    0.08
   4   2  -5   -0.01    0.05
   4   2  -5    0.06    0.05
   4   2  -5    0.05    0.02
   4   2  -5    0.06    0.04
   4   2  -5    0.08    0.04
   4   2  -5    0.04    0.02
  -4  -2   5    0.02    0.04
  -4  -2   5    0.04    0.03
  -4  -2   5    0.02    0.03
  -4  -2   5    0.04    0.04
  -4  -2   5    0.04    0.03
   3   2  -5    4.44    0.16
   3   2  -5    4.10    0.15
   3   2  -5    4.24    0.12
   3   2  -5    4.10    0.13
  -3  -2   5    4.12    0.15
  -3  -2   5    4.30    0.14
  -3  -2   5    4.19    0.14
   2   2  -5    0.01    0.03
   2   2  -5   -0.03    0.02
   2   2  -5   -0.01    0.02
   2   2  -5   -0.02    0.03
   2   2  -5   -0.02    0.02
  -2  -2   5    0.00    0.03
  -2  -2   5    0.03    0.03
  -2  -2   5    0.00    0.03
  -2  -2   5    0.02    0.02
   1   2  -5    0.29    0.05
   1   2  -5    0.27    0.04
   1   2  -5    0.27    0.04
   1   2  -5    0.36    0.04
  -1  -2   5    0.31    0.04
  -1  -2   5    0.25    0.04
  -1  -2   5    0.25    0.04
  -1  -2   5    0.22    0.03
   0   2  -5    0.03    0.03
   0   2  -5    0.04    0.03
   0   2  -5    0.05    0.04
   0   2  -5    0.04    0.03
   0  -2   5    0.05    0.03
   0  -2   5    0.02    0.03
   0  -2   5    0.05    0.03
   0  -2   5    0.03    0.02
  -1   2  -5    1.53    0.10
  -1   2  -5    1.58    0.08
  -1   2  -5    1.69    0.10
  -1   2  -5    1.68    0.09
   1  -2   5    1.49    0.09
   1  -2   5    1.58    0.10
   1  -2   5    1.57    0.09
   1  -2   5    1.58    0.10
  -2   2  -5    0.02    0.03
  -2   2  -5   -0.01    0.04
  -2   2  -5    0.03    0.05
  -2   2  -5    0.00    0.04
   2  -2   5    0.05    0.04
   2  -2   5   -0.04    0.04
   2  -2   5    0.00    0.05
   2  -2   5    0.02    0.04
  -3   2  -5    0.70    0.08
  -3   2  -5    0.92    0.10
  -3   2  -5    0.80    0.09
  -3   2  -5    0.73    0.09
   3  -2   5    0.66    0.07
   3  -2   5    0.71    0.09
   3  -2   5    0.68    0.08
   3  -2   5    0.63    0.08
   3  -2   5    0.71    0.08
  -4   2  -5    0.10    0.09
  -4   2  -5    0.16    0.08
  -4   2  -5    0.05    0.07
   4  -2   5    0.14    0.09
   4  -2   5    0.11    0.06
   4  -2   5    0.13    0.07
   4  -2   5    0.12    0.06
  -5   2  -5    0.01    0.10
  -5   2  -5    0.14    0.10
  -5   2  -5    0.03    0.09
  -5   2  -5    0.07    0.08
   5  -2   5    0.05    0.07
   5  -2   5    0.06    0.09
   5  -2   5    0.16    0.10
  -6   2  -5    0.19    0.13
  -6   2  -5    0.08    0.10
  -6   2  -5   -0.01    0.14
  -6   2  -5    0.08    0.13
   6  -2   5    0.10    0.14
   6  -2   5    0.23    0.12
   6  -2   5   -0.01    0.10
   6  -2   5    0.14    0.11
   8   1  -5   -0.01    0.10
   8   1  -5    0.17    0.11
   8   1  -5   -0.08    0.09
  -8  -1   5   -0.06    0.12
  -8  -1   5    0.02    0.10
  -8  -1   5    0.06    0.11
  -8  -1   5    0.06    0.12
  -8  -1   5   -0.19    0.11
   7   1  -5    1.91    0.15
  -7  -1   5    1.76    0.16
  -7  -1   5    1.81    0.18
  -7  -1   5    1.91    0.17
  -7  -1   5    1.75    0.17
   6   1  -5    0.10    0.04
   6   1  -5    0.06    0.06
  -6  -1   5    0.16    0.07
  -6  -1   5    0.05    0.06
  -6  -1   5    0.07    0.06
  -6  -1   5    0.11    0.05
   5   1  -5   12.71    0.37
   5   1  -5   11.50    0.38
   5   1  -5   12.57    0.32
  -5  -1   5   12.78    0.36
  -5  -1   5   12.43    0.37
  -5  -1   5   11.78    0.34
  -5  -1   5   12.30    0.34
   4   1  -5    4.07    0.16
   4   1  -5    3.89    0.15
   4   1  -5    3.64    0.16
   4   1  -5    3.69    0.12
   4   1  -5    3.93    0.12
  -4  -1   5    3.86    0.15
  -4  -1   5    4.13    0.16
  -4  -1   5    3.80    0.15
  -4  -1   5    3.75    0.14
  -4  -1   5    4.00    0.14
   3   1  -5   23.31    0.56
   3   1  -5   23.97    0.61
   3   1  -5   22.46    0.61
   3   1  -5   22.74    0.56
   3   1  -5   23.55    0.59
  -3  -1   5   22.65    0.61
  -3  -1   5   23.35    0.58
  -3  -1   5   22.83    0.61
  -3  -1   5   22.96    0.57
   2   1  -5   47.96    1.14
   2   1  -5   48.31    1.16
   2   1  -5   49.45    1.14
   2   1  -5   45.89    1.22
   2   1  -5   49.21    1.22
  -2  -1   5   50.17    1.22
  -2  -1   5   48.94    1.14
  -2  -1   5   49.09    1.22
  -2  -1   5   47.82    1.15
   1   1  -5   17.80    0.47
   1   1  -5   19.94    0.51
   1   1  -5   19.76    0.47
   1   1  -5   18.51    0.51
  -1  -1   5   18.80    0.48
  -1  -1   5   19.78    0.47
  -1  -1   5   18.74    0.51
  -1  -1   5   18.82    0.51
   0   1  -5  103.25    2.51
   0   1  -5  102.25    2.51
   0   1  -5   98.06    2.36
   0   1  -5  104.21    2.37
   0  -1   5  102.06    2.37
   0  -1   5   99.52    2.51
   0  -1   5  104.52    2.52
  -1   1  -5    9.81    0.30
  -1   1  -5   10.40    0.31
  -1   1  -5    9.45    0.27
  -1   1  -5    9.94    0.29
   1  -1   5   10.60    0.31
   1  -1   5   10.33    0.28
   1  -1   5   10.59    0.29
   1  -1   5   10.39    0.31
  -2   1  -5   33.91    0.83
  -2   1  -5   33.93    0.90
  -2   1  -5   34.17    0.90
  -2   1  -5   34.05    0.85
   2  -1   5   35.54    0.84
   2  -1   5   34.10    0.90
   2  -1   5   35.21    0.90
   2  -1   5   34.27    0.84
  -3   1  -5    1.42    0.10
  -3   1  -5    1.50    0.12
  -3   1  -5    1.42    0.11
  -3   1  -5    1.28    0.09
   3  -1   5    1.36    0.11
   3  -1   5    1.28    0.11
   3  -1   5    1.33    0.10
   3  -1   5    1.43    0.09
  -4   1  -5    4.58    0.21
  -4   1  -5    4.71    0.20
   4  -1   5    4.61    0.20
   4  -1   5    4.47    0.18
   4  -1   5    4.67    0.19
   4  -1   5    4.69    0.21
  -5   1  -5    0.29    0.09
  -5   1  -5    0.12    0.06
  -5   1  -5    0.09    0.09
  -5   1  -5    0.24    0.09
   5  -1   5    0.25    0.09
   5  -1   5    0.27    0.07
   5  -1   5    0.20    0.07
   5  -1   5    0.19    0.08
  -6   1  -5    0.60    0.14
  -6   1  -5    0.59    0.12
  -6   1  -5    0.70    0.11
  -6   1  -5    0.78    0.13
   6  -1   5    0.70    0.14
   6  -1   5    0.56    0.12
   6  -1   5    0.72    0.10
  -7   1  -5    0.03    0.15
  -7   1  -5    0.22    0.14
  -7   1  -5    0.30    0.15
  -7   1  -5    0.17    0.15
   7  -1   5    0.42    0.16
   7  -1   5   -0.26    0.15
   7  -1   5    0.06    0.12
   7  -1   5    0.05    0.10
   8   0  -5    0.94    0.15
  -8   0   5    0.91    0.14
  -8   0   5    0.96    0.15
  -8   0   5    0.70    0.15
  -8   0   5    1.07    0.15
  -8   0   5    1.02    0.17
   7   0  -5    0.20    0.09
   7   0  -5    0.11    0.09
   7   0  -5    0.20    0.06
   7   0  -5    0.05    0.09
   7   0  -5    0.07    0.05
  -7   0   5    0.26    0.09
  -7   0   5    0.16    0.10
  -7   0   5    0.07    0.10
  -7   0   5    0.26    0.09
  -7   0   5    0.23    0.10
   6   0  -5    3.91    0.19
   6   0  -5    3.42    0.19
   6   0  -5    3.52    0.14
   6   0  -5    3.89    0.14
  -6   0   5    3.43    0.20
  -6   0   5    3.70    0.18
  -6   0   5    3.70    0.20
  -6   0   5    3.57    0.18
   5   0  -5    0.74    0.08
   5   0  -5    0.78    0.08
   5   0  -5    0.74    0.09
   5   0  -5    0.87    0.07
   5   0  -5    1.03    0.10
  -5   0   5    0.95    0.11
  -5   0   5    0.91    0.10
  -5   0   5    0.82    0.08
  -5   0   5    1.04    0.10
   4   0  -5    4.07    0.16
   4   0  -5    4.01    0.14
   4   0  -5    4.20    0.17
   4   0  -5    3.98    0.14
   4   0  -5    4.09    0.16
  -4   0   5    4.07    0.16
  -4   0   5    4.13    0.16
  -4   0   5    4.22    0.15
  -4   0   5    4.25    0.17
  -4   0   5    3.98    0.15
   3   0  -5    2.36    0.11
   3   0  -5    2.37    0.10
   3   0  -5    2.54    0.11
   3   0  -5    2.40    0.09
   3   0  -5    2.19    0.11
  -3   0   5    2.42    0.11
  -3   0   5    2.32    0.10
  -3   0   5    2.18    0.12
  -3   0   5    2.49    0.11
   2   0  -5    1.39    0.08
   2   0  -5    1.56    0.07
   2   0  -5    1.57    0.09
   2   0  -5    1.52    0.08
   2   0  -5    1.46    0.08
  -2   0   5    1.50    0.08
  -2   0   5    1.48    0.09
  -2   0   5    1.44    0.07
  -2   0   5    1.67    0.08
   1   0  -5    0.27    0.04
   1   0  -5    0.24    0.04
   1   0  -5    0.30    0.04
  -1   0   5    0.25    0.03
  -1   0   5    0.22    0.03
  -1   0   5    0.25    0.04
  -1   0   5    0.26    0.04
   0   0  -5    2.28    0.10
   0   0  -5    2.45    0.10
   0   0  -5    2.28    0.11
   0   0  -5    2.15    0.09
   0   0   5    2.25    0.10
   0   0   5    2.34    0.10
   0   0   5    2.32    0.10
  -1   0  -5   15.14    0.39
  -1   0  -5   14.92    0.41
  -1   0  -5   14.74    0.38
  -1   0  -5   14.97    0.42
   1   0   5   15.05    0.42
   1   0   5   15.02    0.38
   1   0   5   14.73    0.39
   1   0   5   14.80    0.42
  -2   0  -5    0.78    0.08
  -2   0  -5    0.84    0.06
  -2   0  -5    0.78    0.07
  -2   0  -5    0.76    0.07
   2   0   5    0.79    0.07
   2   0   5    0.81    0.07
   2   0   5    0.79    0.08
  -3   0  -5   23.77    0.60
  -3   0  -5   24.30    0.61
  -3   0  -5   23.62    0.65
  -3   0  -5   24.45    0.65
   3   0   5   24.20    0.61
   3   0   5   23.11    0.65
   3   0   5   24.31    0.60
   3   0   5   24.56    0.65
  -4   0  -5    0.10    0.04
  -4   0  -5    0.09    0.05
  -4   0  -5    0.13    0.06
  -4   0  -5    0.12    0.05
   4   0   5    0.06    0.04
   4   0   5   -0.03    0.05
   4   0   5    0.08    0.05
   4   0   5    0.07    0.03
   4   0   5    0.08    0.04
  -5   0  -5    7.73    0.28
  -5   0  -5    7.96    0.30
  -5   0  -5    7.62    0.26
  -5   0  -5    7.60    0.29
   5   0   5    7.85    0.30
   5   0   5    7.84    0.25
   5   0   5    7.63    0.29
   5   0   5    7.98    0.25
  -6   0  -5    0.11    0.10
  -6   0  -5    0.12    0.07
  -6   0  -5   -0.01    0.08
  -6   0  -5    0.27    0.09
   6   0   5    0.25    0.10
   6   0   5    0.09    0.09
   6   0   5    0.06    0.07
  -7   0  -5    1.25    0.16
  -7   0  -5    1.33    0.15
  -7   0  -5    1.45    0.18
  -7   0  -5    1.13    0.16
   7   0   5    1.32    0.17
   7   0   5    1.55    0.17
   7  -1  -5    0.18    0.10
   7  -1  -5    0.09    0.07
   7  -1  -5    0.10    0.11
   7  -1  -5    0.17    0.08
   7  -1  -5    0.02    0.11
   7  -1  -5    0.23    0.09
  -7   1   5    0.05    0.11
  -7   1   5    0.26    0.10
  -7   1   5    0.20    0.13
  -7   1   5    0.14    0.12
  -7   1   5    0.26    0.11
   6  -1  -5    0.46    0.09
   6  -1  -5    0.42    0.09
   6  -1  -5    0.58    0.09
   6  -1  -5    0.44    0.07
   6  -1  -5    0.49    0.07
   6  -1  -5    0.49    0.10
  -6   1   5    0.56    0.10
  -6   1   5    0.39    0.08
  -6   1   5    0.50    0.10
  -6   1   5    0.74    0.12
   5  -1  -5    0.05    0.05
   5  -1  -5    0.03    0.06
   5  -1  -5    0.03    0.05
   5  -1  -5   -0.04    0.06
   5  -1  -5    0.05    0.05
   5  -1  -5    0.02    0.06
   5  -1  -5   -0.05    0.04
  -5   1   5    0.07    0.05
  -5   1   5    0.03    0.05
  -5   1   5    0.06    0.06
  -5   1   5    0.01    0.06
   4  -1  -5    0.23    0.05
   4  -1  -5    0.23    0.04
   4  -1  -5    0.21    0.06
   4  -1  -5    0.20    0.05
   4  -1  -5    0.26    0.05
   4  -1  -5    0.38    0.05
  -4   1   5    0.25    0.06
  -4   1   5    0.29    0.06
  -4   1   5    0.27    0.05
  -4   1   5    0.30    0.07
  -4   1   5    0.24    0.05
   3  -1  -5    0.06    0.02
   3  -1  -5    0.04    0.04
   3  -1  -5    0.04    0.04
   3  -1  -5    0.04    0.03
   3  -1  -5    0.06    0.04
  -3   1   5    0.06    0.03
  -3   1   5    0.08    0.04
  -3   1   5    0.06    0.03
  -3   1   5    0.04    0.04
   2  -1  -5    1.17    0.06
   2  -1  -5    1.12    0.07
   2  -1  -5    1.22    0.07
   2  -1  -5    1.19    0.08
   2  -1  -5    1.02    0.08
  -2   1   5    1.17    0.08
  -2   1   5    1.19    0.08
  -2   1   5    1.11    0.08
  -2   1   5    1.10    0.07
   1  -1  -5    3.93    0.13
   1  -1  -5    4.19    0.15
   1  -1  -5    4.26    0.14
   1  -1  -5    4.24    0.15
  -1   1   5    4.22    0.14
  -1   1   5    4.10    0.14
  -1   1   5    4.20    0.15
  -1   1   5    4.19    0.15
   0  -1  -5   38.19    0.90
   0  -1  -5   38.31    0.97
   0  -1  -5   37.10    0.97
   0  -1  -5   38.37    0.91
   0   1   5   37.97    0.91
   0   1   5   38.24    0.97
   0   1   5   39.07    1.14
   0   1   5   36.23    0.96
   0   1   5   38.32    0.90
  -1  -1  -5   12.95    0.34
  -1  -1  -5   12.14    0.32
  -1  -1  -5   13.03    0.36
  -1  -1  -5   12.40    0.35
   1   1   5   12.70    0.33
   1   1   5   12.50    0.33
   1   1   5   12.20    0.35
   1   1   5   12.86    0.36
  -2  -1  -5   49.77    1.26
  -2  -1  -5   50.18    1.26
  -2  -1  -5   52.19    1.19
  -2  -1  -5   48.27    1.17
   2   1   5   49.33    1.26
   2   1   5   49.04    1.26
   2   1   5   51.10    1.18
   2   1   5   48.38    1.17
  -3  -1  -5    4.56    0.15
  -3  -1  -5    4.64    0.17
  -3  -1  -5    4.29    0.17
  -3  -1  -5    4.71    0.17
   3   1   5    4.79    0.18
   3   1   5    4.66    0.15
   3   1   5    4.69    0.16
   3   1   5    4.70    0.18
  -4  -1  -5    9.61    0.31
  -4  -1  -5   10.17    0.29
  -4  -1  -5    9.28    0.30
  -4  -1  -5    9.49    0.27
   4   1   5    9.37    0.27
   4   1   5    9.75    0.27
   4   1   5    8.88    0.30
   4   1   5    9.50    0.30
   4   1   5    9.91    0.27
  -5  -1  -5    1.37    0.12
  -5  -1  -5    1.22    0.10
  -5  -1  -5    1.35    0.13
   5   1   5    1.34    0.09
   5   1   5    1.33    0.12
   5   1   5    1.20    0.07
   5   1   5    1.25    0.10
  -6  -1  -5    0.45    0.10
  -6  -1  -5    0.43    0.07
  -6  -1  -5    0.47    0.09
  -6  -1  -5    0.46    0.10
   6   1   5    0.35    0.09
   6   1   5    0.49    0.07
   6   1   5    0.44    0.09
   6   1   5    0.47    0.07
  -7  -1  -5    0.24    0.09
  -7  -1  -5    0.23    0.11
  -7  -1  -5    0.20    0.12
  -7  -1  -5    0.23    0.11
   7   1   5    0.51    0.11
   7   1   5   -0.01    0.10
   7   1   5    0.18    0.07
   7   1   5    0.14    0.09
   7   1   5    0.28    0.08
  -8  -1  -5   -0.02    0.15
  -8  -1  -5    0.18    0.15
  -8  -1  -5   -0.01    0.13
  -8  -1  -5   -0.12    0.15
   8   1   5    0.06    0.09
   8   1   5   -0.14    0.08
   8   1   5   -0.09    0.09
   7  -2  -5    0.14    0.11
   7  -2  -5   -0.08    0.12
   7  -2  -5   -0.02    0.09
   7  -2  -5    0.02    0.09
   7  -2  -5    0.08    0.13
  -7   2   5    0.03    0.10
  -7   2   5    0.22    0.15
  -7   2   5    0.06    0.12
  -7   2   5    0.21    0.14
  -7   2   5    0.09    0.12
   6  -2  -5    0.50    0.08
   6  -2  -5    0.47    0.11
   6  -2  -5    0.49    0.08
   6  -2  -5    0.40    0.11
   6  -2  -5    0.40    0.10
  -6   2   5    0.47    0.12
  -6   2   5    0.44    0.10
  -6   2   5    0.41    0.10
  -6   2   5    0.43    0.12
  -6   2   5    0.34    0.09
   5  -2  -5    2.35    0.14
   5  -2  -5    2.15    0.13
   5  -2  -5    2.15    0.14
   5  -2  -5    2.55    0.16
   5  -2  -5    2.38    0.17
  -5   2   5    2.40    0.17
  -5   2   5    2.33    0.15
  -5   2   5    2.37    0.16
  -5   2   5    2.53    0.14
  -5   2   5    1.96    0.17
   4  -2  -5    0.39    0.06
   4  -2  -5    0.50    0.06
   4  -2  -5    0.38    0.07
   4  -2  -5    0.38    0.06
   4  -2  -5    0.44    0.07
  -4   2   5    0.38    0.05
  -4   2   5    0.48    0.07
  -4   2   5    0.46    0.08
  -4   2   5    0.31    0.06
  -4   2   5    0.48    0.07
   3  -2  -5   19.44    0.55
   3  -2  -5   19.78    0.51
   3  -2  -5   19.06    0.50
   3  -2  -5   19.78    0.51
   3  -2  -5   19.67    0.55
  -3   2   5   20.32    0.55
  -3   2   5   19.47    0.55
  -3   2   5   20.51    0.51
  -3   2   5   19.12    0.51
   2  -2  -5    5.16    0.17
   2  -2  -5    5.26    0.17
   2  -2  -5    5.26    0.19
   2  -2  -5    5.49    0.19
   2  -2  -5    5.48    0.17
  -2   2   5    4.94    0.19
  -2   2   5    5.20    0.19
  -2   2   5    5.17    0.18
  -2   2   5    5.44    0.17
   1  -2  -5   85.69    2.12
   1  -2  -5   85.42    1.99
   1  -2  -5   83.27    1.99
   1  -2  -5   84.54    2.12
   1  -2  -5   85.23    1.99
  -1   2   5   87.54    1.99
  -1   2   5   85.10    2.00
  -1   2   5   84.12    2.12
  -1   2   5   88.64    2.12
   0  -2  -5   38.87    0.97
   0  -2  -5   37.23    0.91
   0  -2  -5   37.37    0.97
   0  -2  -5   38.81    0.90
   0   2   5   38.31    0.91
   0   2   5   37.46    0.97
   0   2   5   36.22    0.96
   0   2   5   39.16    0.91
  -1  -2  -5  117.42    2.95
  -1  -2  -5  121.52    2.96
  -1  -2  -5  118.35    2.78
  -1  -2  -5  127.15    2.79
   1   2   5  119.89    2.78
   1   2   5  115.27    2.95
   1   2   5  122.23    2.96
   1   2   5  122.30    2.79
  -2  -2  -5   20.18    0.54
  -2  -2  -5   20.51    0.54
  -2  -2  -5   20.16    0.51
   2   2   5   19.84    0.50
   2   2   5   20.84    0.54
   2   2   5   21.05    0.50
   2   2   5   19.50    0.65
   2   2   5   20.51    0.54
  -3  -2  -5   31.41    0.78
  -3  -2  -5   32.70    0.84
  -3  -2  -5   31.56    0.79
  -3  -2  -5   31.55    0.83
   3   2   5   32.64    0.84
   3   2   5   33.10    0.77
   3   2   5   33.16    1.01
   3   2   5   32.09    0.84
   3   2   5   32.16    0.78
  -4  -2  -5    5.09    0.19
  -4  -2  -5    5.17    0.18
  -4  -2  -5    5.01    0.16
  -4  -2  -5    4.90    0.18
   4   2   5    5.16    0.19
   4   2   5    5.09    0.19
   4   2   5    4.64    0.21
   4   2   5    5.14    0.16
   4   2   5    5.13    0.16
   4   2   5    5.01    0.16
  -5  -2  -5    3.38    0.15
  -5  -2  -5    3.10    0.15
  -5  -2  -5    3.14    0.14
  -5  -2  -5    3.12    0.16
   5   2   5    2.95    0.15
   5   2   5    3.14    0.13
   5   2   5    3.12    0.18
   5   2   5    3.25    0.12
   5   2   5    3.40    0.16
   5   2   5    3.26    0.12
  -6  -2  -5    1.28    0.13
  -6  -2  -5    1.15    0.13
   6   2   5    1.15    0.13
   6   2   5    1.12    0.13
   6   2   5    1.22    0.08
   6   2   5    1.15    0.09
   6   2   5    1.14    0.09
  -7  -2  -5    0.37    0.11
  -7  -2  -5    0.38    0.10
  -7  -2  -5    0.46    0.10
  -7  -2  -5    0.45    0.09
   7   2   5    0.36    0.11
   7   2   5    0.42    0.09
   7   2   5    0.03    0.09
   7   2   5    0.29    0.06
   7   2   5    0.29    0.06
  -8  -2  -5    0.12    0.11
  -8  -2  -5    0.24    0.14
  -8  -2  -5    0.21    0.12
  -8  -2  -5    0.40    0.13
   8   2   5    0.04    0.06
   8   2   5   -0.02    0.06
   8   2   5    0.38    0.12
   8   2   5    0.14    0.09
   7  -3  -5    0.02    0.10
   7  -3  -5    0.15    0.12
   7  -3  -5    0.12    0.12
  -7   3   5    0.04    0.18
  -7   3   5    0.11    0.12
  -7   3   5   -0.06    0.14
   6  -3  -5    0.01    0.08
   6  -3  -5    0.01    0.10
   6  -3  -5    0.00    0.09
   6  -3  -5   -0.06    0.09
   6  -3  -5    0.05    0.11
  -6   3   5   -0.02    0.08
  -6   3   5    0.07    0.09
  -6   3   5   -0.03    0.12
  -6   3   5    0.08    0.12
  -6   3   5    0.08    0.10
   5  -3  -5    0.55    0.11
   5  -3  -5    0.41    0.08
   5  -3  -5    0.36    0.08
   5  -3  -5    0.47    0.09
   5  -3  -5    0.34    0.09
  -5   3   5    0.49    0.08
  -5   3   5    0.42    0.09
  -5   3   5    0.47    0.10
  -5   3   5    0.52    0.09
  -5   3   5    0.52    0.11
   4  -3  -5   -0.08    0.06
   4  -3  -5    0.04    0.06
   4  -3  -5    0.07    0.06
   4  -3  -5    0.03    0.05
  -4   3   5    0.00    0.05
  -4   3   5    0.02    0.06
  -4   3   5    0.01    0.05
  -4   3   5    0.05    0.06
   3  -3  -5    0.14    0.05
   3  -3  -5    0.17    0.05
   3  -3  -5    0.10    0.06
   3  -3  -5    0.09    0.04
   3  -3  -5    0.07    0.05
  -3   3   5    0.11    0.05
  -3   3   5    0.13    0.05
  -3   3   5    0.03    0.04
  -3   3   5    0.16    0.05
   2  -3  -5    0.12    0.04
   2  -3  -5    0.18    0.05
   2  -3  -5    0.09    0.04
   2  -3  -5    0.17    0.05
   2  -3  -5    0.16    0.03
  -2   3   5    0.12    0.04
  -2   3   5    0.21    0.06
  -2   3   5    0.20    0.05
  -2   3   5    0.16    0.04
   1  -3  -5    0.21    0.04
   1  -3  -5    0.22    0.04
   1  -3  -5    0.16    0.04
   1  -3  -5    0.25    0.03
   1  -3  -5    0.20    0.04
  -1   3   5    0.27    0.05
  -1   3   5    0.31    0.05
  -1   3   5    0.17    0.04
  -1   3   5    0.19    0.04
   0  -3  -5    0.11    0.03
   0  -3  -5    0.19    0.04
   0  -3  -5    0.05    0.03
   0  -3  -5    0.07    0.03
   0   3   5    0.14    0.04
   0   3   5    0.11    0.04
   0   3   5    0.10    0.03
   0   3   5    0.14    0.03
  -1  -3  -5   10.65    0.29
  -1  -3  -5   10.43    0.28
  -1  -3  -5   10.94    0.35
  -1  -3  -5    9.78    0.30
  -1  -3  -5   10.20    0.30
   1   3   5   10.20    0.30
   1   3   5   10.43    0.28
   1   3   5   10.88    0.31
   1   3   5   10.57    0.28
  -2  -3  -5   12.19    0.35
  -2  -3  -5   12.32    0.35
  -2  -3  -5   12.69    0.33
  -2  -3  -5   12.16    0.32
   2   3   5   11.98    0.35
   2   3   5   12.41    0.35
   2   3   5   12.58    0.32
   2   3   5   12.24    0.32
  -3  -3  -5   12.39    0.35
  -3  -3  -5   12.66    0.32
  -3  -3  -5   12.60    0.34
  -3  -3  -5   12.38    0.36
   3   3   5   12.29    0.35
   3   3   5   12.38    0.35
   3   3   5   12.42    0.32
   3   3   5   12.46    0.32
  -4  -3  -5   14.37    0.40
  -4  -3  -5   13.77    0.40
  -4  -3  -5   14.10    0.36
  -4  -3  -5   14.40    0.38
   4   3   5   13.94    0.35
   4   3   5   12.52    0.48
   4   3   5   14.46    0.40
   4   3   5   13.89    0.39
   4   3   5   14.27    0.35
  -5  -3  -5    3.41    0.15
  -5  -3  -5    3.45    0.15
  -5  -3  -5    3.40    0.13
   5   3   5    3.57    0.16
   5   3   5    3.51    0.14
   5   3   5    3.36    0.12
   5   3   5    3.38    0.19
   5   3   5    3.56    0.12
  -6  -3  -5    3.18    0.16
  -6  -3  -5    3.30    0.14
  -6  -3  -5    3.10    0.17
   6   3   5    3.08    0.11
   6   3   5    3.28    0.16
   6   3   5    3.06    0.11
   6   3   5    2.88    0.13
   6   3   5    3.17    0.20
  -7  -3  -5    0.70    0.10
  -7  -3  -5    0.70    0.09
  -7  -3  -5    0.92    0.12
  -7  -3  -5    0.82    0.11
   7   3   5    0.68    0.09
   7   3   5    0.91    0.15
   7   3   5    0.76    0.09
  -8  -3  -5    0.14    0.09
  -8  -3  -5    0.31    0.11
  -8  -3  -5    0.33    0.11
  -8  -3  -5    0.33    0.12
   8   3   5    0.28    0.11
   8   3   5    0.27    0.11
   8   3   5    0.12    0.09
   6  -4  -5    0.34    0.16
   6  -4  -5    0.45    0.12
   6  -4  -5    0.19    0.15
   6  -4  -5    0.27    0.11
  -6   4   5    0.23    0.12
  -6   4   5    0.27    0.16
  -6   4   5    0.21    0.09
  -6   4   5    0.44    0.17
  -6   4   5    0.16    0.13
   5  -4  -5    0.11    0.09
   5  -4  -5    0.03    0.08
   5  -4  -5    0.10    0.08
   5  -4  -5   -0.07    0.10
   5  -4  -5   -0.05    0.07
  -5   4   5    0.04    0.08
  -5   4   5    0.00    0.08
  -5   4   5    0.01    0.11
  -5   4   5    0.00    0.11
   4  -4  -5    1.80    0.14
   4  -4  -5    1.59    0.16
  -4   4   5    1.69    0.15
  -4   4   5    1.81    0.16
   3  -4  -5    1.75    0.12
   3  -4  -5    1.83    0.10
   3  -4  -5    1.77    0.14
   3  -4  -5    1.64    0.13
  -3   4   5    1.73    0.14
  -3   4   5    1.97    0.13
   2  -4  -5    4.11    0.18
   2  -4  -5    4.41    0.19
   2  -4  -5    4.06    0.16
   2  -4  -5    4.54    0.17
   2  -4  -5    4.22    0.14
  -2   4   5    4.15    0.17
  -2   4   5    4.10    0.18
  -2   4   5    4.00    0.18
  -2   4   5    4.07    0.17
   1  -4  -5   10.23    0.27
   1  -4  -5   10.74    0.33
   1  -4  -5   10.44    0.32
   1  -4  -5   10.37    0.29
   1  -4  -5   10.54    0.30
  -1   4   5   10.28    0.32
  -1   4   5   10.43    0.30
  -1   4   5   10.53    0.30
  -1   4   5   10.48    0.32
   0  -4  -5    0.08    0.04
   0  -4  -5    0.03    0.03
   0  -4  -5    0.05    0.03
   0  -4  -5    0.04    0.04
   0   4   5    0.03    0.03
   0   4   5    0.03    0.03
   0   4   5    0.02    0.03
   0   4   5   -0.01    0.03
  -1  -4  -5   30.39    0.74
  -1  -4  -5   29.30    0.73
  -1  -4  -5   29.21    0.78
  -1  -4  -5   29.99    0.79
   1   4   5   31.01    0.79
   1   4   5   30.65    0.73
   1   4   5   30.75    0.74
   1   4   5   30.57    0.78
  -2  -4  -5    1.50    0.08
  -2  -4  -5    1.43    0.08
  -2  -4  -5    1.45    0.08
  -2  -4  -5    1.62    0.09
   2   4   5    1.57    0.07
   2   4   5    1.60    0.09
   2   4   5    1.54    0.09
   2   4   5    1.61    0.07
  -3  -4  -5   20.34    0.52
  -3  -4  -5   20.56    0.55
  -3  -4  -5   20.40    0.51
   3   4   5   19.66    0.54
   3   4   5   21.03    0.50
   3   4   5   20.94    0.50
  -4  -4  -5    0.07    0.04
  -4  -4  -5    0.05    0.04
  -4  -4  -5    0.05    0.04
   4   4   5    0.06    0.02
   4   4   5    0.05    0.04
   4   4   5    0.07    0.02
   4   4   5    0.08    0.04
   4   4   5   -0.02    0.03
  -5  -4  -5    1.55    0.11
  -5  -4  -5    1.37    0.10
  -5  -4  -5    1.54    0.10
  -5  -4  -5    1.56    0.09
   5   4   5    1.50    0.10
   5   4   5    1.38    0.10
   5   4   5    1.45    0.09
  -6  -4  -5    0.23    0.06
  -6  -4  -5    0.18    0.05
  -6  -4  -5    0.11    0.06
  -6  -4  -5    0.11    0.06
   6   4   5    0.11    0.05
   6   4   5    0.14    0.06
  -7  -4  -5   -0.03    0.08
  -7  -4  -5    0.06    0.07
  -7  -4  -5    0.01    0.07
   7   4   5    0.07    0.06
   7   4   5    0.00    0.06
   7   4   5    0.08    0.07
  -8  -4  -5    0.06    0.10
  -8  -4  -5    0.13    0.09
  -8  -4  -5    0.24    0.11
  -8  -4  -5    0.09    0.09
   8   4   5   -0.01    0.09
   8   4   5    0.40    0.10
   8   4   5    0.26    0.07
   5  -5  -5    1.23    0.14
   5  -5  -5    1.24    0.19
   5  -5  -5    1.39    0.15
   5  -5  -5    1.43    0.15
   5  -5  -5    0.96    0.14
  -5   5   5    1.11    0.15
  -5   5   5    0.84    0.14
  -5   5   5    1.29    0.19
   4  -5  -5    0.18    0.11
   4  -5  -5    0.22    0.09
   4  -5  -5    0.22    0.09
   4  -5  -5    0.25    0.09
  -4   5   5    0.08    0.10
  -4   5   5    0.22    0.09
  -4   5   5    0.08    0.08
  -4   5   5    0.18    0.10
   3  -5  -5    3.01    0.18
   3  -5  -5    3.04    0.17
   3  -5  -5    3.08    0.19
  -3   5   5    3.05    0.19
  -3   5   5    2.86    0.20
  -3   5   5    3.00    0.17
   2  -5  -5    1.28    0.13
   2  -5  -5    0.99    0.11
   2  -5  -5    1.03    0.07
  -2   5   5    1.16    0.12
  -2   5   5    0.94    0.11
  -2   5   5    1.06    0.10
  -2   5   5    1.05    0.12
   1  -5  -5    0.26    0.05
   1  -5  -5    0.31    0.04
   1  -5  -5    0.22    0.06
   1  -5  -5    0.27    0.06
   1  -5  -5    0.27    0.06
  -1   5   5    0.38    0.06
  -1   5   5    0.45    0.07
  -1   5   5    0.27    0.05
  -1   5   5    0.26    0.06
   0  -5  -5    1.79    0.11
   0  -5  -5    2.01    0.10
   0  -5  -5    1.78    0.11
   0  -5  -5    2.02    0.11
   0   5   5    1.74    0.11
   0   5   5    1.74    0.10
   0   5   5    1.67    0.10
   0   5   5    1.75    0.11
  -1  -5  -5    1.59    0.10
  -1  -5  -5    1.78    0.10
  -1  -5  -5    1.81    0.09
  -1  -5  -5    1.83    0.10
   1   5   5    1.80    0.10
   1   5   5    1.75    0.09
   1   5   5    1.58    0.09
   1   5   5    1.72    0.10
  -2  -5  -5    0.52    0.06
  -2  -5  -5    0.49    0.05
  -2  -5  -5    0.53    0.06
  -2  -5  -5    0.42    0.05
   2   5   5    0.40    0.05
   2   5   5    0.62    0.06
   2   5   5    0.48    0.05
   2   5   5    0.51    0.05
  -3  -5  -5    1.14    0.07
  -3  -5  -5    1.29    0.08
  -3  -5  -5    1.22    0.08
  -3  -5  -5    1.08    0.08
   3   5   5    1.26    0.08
   3   5   5    1.14    0.09
   3   5   5    1.16    0.06
   3   5   5    1.18    0.06
   3   5   5    1.19    0.08
  -4  -5  -5    0.96    0.08
  -4  -5  -5    0.99    0.08
  -4  -5  -5    1.08    0.08
  -4  -5  -5    1.03    0.07
   4   5   5    1.02    0.07
   4   5   5    0.99    0.09
   4   5   5    1.08    0.08
  -5  -5  -5    0.48    0.06
  -5  -5  -5    0.46    0.06
   5   5   5    0.39    0.05
   5   5   5    0.40    0.07
   5   5   5    0.48    0.06
  -6  -5  -5    1.85    0.10
  -6  -5  -5    1.85    0.11
  -6  -5  -5    1.73    0.12
  -6  -5  -5    1.80    0.12
   6   5   5    1.74    0.12
   6   5   5    1.71    0.11
  -7  -5  -5    0.23    0.06
  -7  -5  -5    0.18    0.07
  -7  -5  -5    0.22    0.06
  -7  -5  -5    0.24    0.08
   7   5   5    0.25    0.07
   7   5   5    0.26    0.07
   7   5   5    0.13    0.06
  -8  -5  -5    0.62    0.10
  -8  -5  -5    0.88    0.12
  -8  -5  -5    0.62    0.10
  -8  -5  -5    0.68    0.10
   8   5   5    0.76    0.10
   8   5   5    0.64    0.09
   5  -6  -5    0.50    0.17
   5  -6  -5    0.22    0.16
   5  -6  -5    0.40    0.13
   5  -6  -5    0.27    0.13
   5  -6  -5    0.37    0.15
  -5   6   5    0.14    0.17
  -5   6   5    0.36    0.16
  -5   6   5    0.19    0.18
   4  -6  -5    5.65    0.30
   4  -6  -5    5.73    0.31
   4  -6  -5    5.45    0.27
   4  -6  -5    5.75    0.28
  -4   6   5    5.34    0.32
  -4   6   5    5.96    0.28
  -4   6   5    5.81    0.28
  -4   6   5    5.58    0.31
   3  -6  -5    0.01    0.09
   3  -6  -5    0.03    0.09
   3  -6  -5    0.16    0.11
   3  -6  -5    0.17    0.08
  -3   6   5    0.19    0.08
  -3   6   5    0.06    0.08
  -3   6   5    0.15    0.11
  -3   6   5    0.02    0.09
   2  -6  -5   26.84    0.74
   2  -6  -5   25.33    0.68
   2  -6  -5   24.88    0.73
  -2   6   5   25.80    0.73
  -2   6   5   26.66    0.74
  -2   6   5   26.02    0.68
  -2   6   5   25.31    0.68
   1  -6  -5    0.73    0.05
   1  -6  -5    0.84    0.10
   1  -6  -5    0.77    0.10
  -1   6   5    0.89    0.09
  -1   6   5    0.77    0.10
  -1   6   5    0.79    0.09
  -1   6   5    0.63    0.08
   0  -6  -5   49.49    1.22
   0  -6  -5   50.64    1.30
   0  -6  -5   51.65    1.30
   0  -6  -5   50.45    1.17
   0  -6  -5   50.07    1.22
   0   6   5   51.08    1.21
   0   6   5   51.10    1.30
   0   6   5   49.07    1.30
   0   6   5   50.46    1.21
  -1  -6  -5    3.17    0.14
  -1  -6  -5    3.55    0.14
  -1  -6  -5    3.38    0.15
  -1  -6  -5    2.99    0.14
   1   6   5    3.21    0.13
   1   6   5    3.15    0.15
   1   6   5    3.37    0.15
   1   6   5    3.54    0.13
  -2  -6  -5   26.68    0.72
  -2  -6  -5   27.94    0.69
  -2  -6  -5   27.31    0.68
  -2  -6  -5   27.61    0.73
   2   6   5   27.63    0.73
   2   6   5   25.85    0.75
   2   6   5   27.86    0.67
   2   6   5   28.75    0.67
  -3  -6  -5    7.12    0.21
  -3  -6  -5    6.67    0.22
  -3  -6  -5    6.72    0.22
  -3  -6  -5    6.59    0.21
   3   6   5    6.46    0.24
   3   6   5    6.83    0.22
   3   6   5    6.81    0.17
   3   6   5    7.02    0.22
   3   6   5    6.73    0.17
  -4  -6  -5    5.72    0.19
  -4  -6  -5    5.92    0.20
  -4  -6  -5    5.75    0.18
  -4  -6  -5    5.72    0.19
   4   6   5    5.91    0.19
   4   6   5    5.71    0.19
   4   6   5    5.74    0.22
  -5  -6  -5    4.19    0.16
  -5  -6  -5    4.10    0.14
  -5  -6  -5    4.31    0.16
  -5  -6  -5    4.00    0.16
   5   6   5    4.04    0.18
   5   6   5    4.21    0.15
  -6  -6  -5    1.00    0.09
  -6  -6  -5    1.06    0.10
  -6  -6  -5    0.80    0.09
  -6  -6  -5    0.92    0.10
   6   6   5    0.96    0.11
   6   6   5    0.95    0.08
  -7  -6  -5    0.99    0.11
  -7  -6  -5    0.92    0.10
  -7  -6  -5    0.89    0.08
  -7  -6  -5    0.82    0.08
   7   6   5    0.86    0.09
   7   6   5    0.85    0.10
   7   6   5    0.78    0.08
  -8  -6  -5    0.17    0.08
  -8  -6  -5    0.30    0.10
  -8  -6  -5    0.05    0.07
   8   6   5    0.26    0.09
   4  -7  -5    0.34    0.15
   4  -7  -5    0.36    0.16
   4  -7  -5    0.24    0.14
   4  -7  -5    0.30    0.15
  -4   7   5    0.30    0.09
  -4   7   5    0.29    0.17
  -4   7   5    0.37    0.14
  -4   7   5    0.22    0.19
  -4   7   5    0.25    0.13
   3  -7  -5    0.25    0.11
   3  -7  -5    0.26    0.10
   3  -7  -5    0.04    0.10
   3  -7  -5    0.26    0.13
  -3   7   5    0.24    0.12
  -3   7   5    0.30    0.12
  -3   7   5    0.24    0.08
  -3   7   5   -0.01    0.10
   2  -7  -5    0.72    0.12
   2  -7  -5    0.69    0.11
   2  -7  -5    0.45    0.09
   2  -7  -5    0.82    0.13
  -2   7   5    0.78    0.11
  -2   7   5    0.59    0.10
  -2   7   5    0.94    0.14
  -2   7   5    0.71    0.12
   1  -7  -5    0.07    0.08
   1  -7  -5    0.19    0.07
   1  -7  -5    0.10    0.07
   1  -7  -5    0.05    0.06
  -1   7   5    0.15    0.09
  -1   7   5    0.11    0.07
  -1   7   5    0.09    0.07
   0  -7  -5    4.01    0.17
   0  -7  -5    3.95    0.18
   0  -7  -5    3.96    0.19
   0  -7  -5    3.78    0.19
   0   7   5    4.04    0.17
   0   7   5    3.72    0.17
   0   7   5    3.98    0.19
   0   7   5    4.06    0.17
  -1  -7  -5    9.92    0.32
  -1  -7  -5    9.54    0.30
  -1  -7  -5    9.80    0.29
  -1  -7  -5    9.07    0.32
   1   7   5    9.61    0.28
   1   7   5    9.63    0.28
   1   7   5    9.93    0.32
   1   7   5    9.72    0.31
  -2  -7  -5    8.39    0.26
  -2  -7  -5    8.35    0.26
  -2  -7  -5    8.43    0.28
   2   7   5    8.53    0.24
   2   7   5    9.03    0.24
   2   7   5    8.44    0.29
  -3  -7  -5   24.59    0.65
  -3  -7  -5   24.02    0.61
  -3  -7  -5   24.20    0.61
   3   7   5   24.76    0.64
   3   7   5   23.74    0.68
  -4  -7  -5    7.98    0.25
  -4  -7  -5    8.12    0.24
  -4  -7  -5    7.84    0.24
  -4  -7  -5    8.20    0.26
   4   7   5    8.13    0.29
   4   7   5    7.97    0.24
   4   7   5    7.92    0.25
  -5  -7  -5   12.88    0.36
  -5  -7  -5   12.66    0.34
  -5  -7  -5   12.52    0.35
  -5  -7  -5   12.99    0.37
   5   7   5   13.10    0.36
   5   7   5   12.94    0.35
   5   7   5   13.19    0.42
  -6  -7  -5    5.25    0.18
  -6  -7  -5    5.26    0.19
  -6  -7  -5    5.22    0.18
  -6  -7  -5    5.20    0.18
   6   7   5    5.46    0.24
   6   7   5    5.32    0.16
  -7  -7  -5    2.73    0.16
  -7  -7  -5    2.60    0.13
  -7  -7  -5    2.63    0.13
  -7  -7  -5    2.81    0.14
   7   7   5    3.00    0.18
  -8  -7  -5    2.16    0.19
  -8  -7  -5    1.99    0.15
  -8  -7  -5    1.79    0.12
  -8  -7  -5    1.66    0.13
   8   7   5    1.92    0.17
   3  -8  -5    0.06    0.13
   3  -8  -5    0.25    0.16
   3  -8  -5    0.22    0.15
   3  -8  -5    0.22    0.13
  -3   8   5    0.16    0.14
  -3   8   5    0.06    0.18
  -3   8   5    0.30    0.16
  -3   8   5    0.10    0.14
   2  -8  -5    0.16    0.11
   2  -8  -5    0.15    0.12
   2  -8  -5    0.18    0.11
   2  -8  -5    0.33    0.12
  -2   8   5    0.05    0.15
  -2   8   5   -0.11    0.10
  -2   8   5    0.05    0.10
  -2   8   5    0.16    0.12
  -2   8   5    0.07    0.08
   1  -8  -5    0.18    0.09
   1  -8  -5    0.41    0.11
   1  -8  -5    0.16    0.09
   1  -8  -5    0.14    0.10
  -1   8   5    0.32    0.11
  -1   8   5    0.15    0.07
  -1   8   5    0.37    0.10
  -1   8   5    0.24    0.12
   0  -8  -5    3.00    0.19
   0  -8  -5    3.11    0.17
   0  -8  -5    2.89    0.18
   0  -8  -5    2.61    0.18
   0   8   5    2.95    0.16
   0   8   5    2.50    0.20
   0   8   5    3.11    0.17
   0   8   5    3.08    0.19
   0   8   5    2.97    0.17
  -1  -8  -5    0.40    0.08
  -1  -8  -5    0.35    0.07
  -1  -8  -5    0.29    0.08
  -1  -8  -5    0.36    0.08
   1   8   5    0.43    0.09
   1   8   5    0.30    0.09
   1   8   5    0.38    0.06
   1   8   5    0.43    0.08
   1   8   5    0.36    0.07
  -2  -8  -5    5.24    0.20
  -2  -8  -5    5.31    0.15
  -2  -8  -5    5.51    0.21
  -2  -8  -5    5.05    0.20
  -2  -8  -5    5.30    0.22
   2   8   5    5.42    0.17
   2   8   5    5.29    0.17
   2   8   5    5.00    0.22
  -3  -8  -5    1.12    0.11
  -3  -8  -5    1.25    0.11
  -3  -8  -5    1.37    0.11
  -3  -8  -5    1.30    0.12
   3   8   5    1.33    0.12
  -4  -8  -5    0.87    0.08
  -4  -8  -5    0.72    0.08
  -4  -8  -5    0.72    0.08
  -4  -8  -5    0.80    0.08
   4   8   5    0.73    0.07
  -5  -8  -5    1.36    0.10
  -5  -8  -5    1.27    0.10
  -5  -8  -5    1.44    0.11
  -5  -8  -5    1.37    0.10
   5   8   5    1.21    0.13
  -6  -8  -5    0.16    0.05
  -6  -8  -5    0.14    0.05
  -6  -8  -5    0.17    0.05
  -6  -8  -5    0.07    0.06
   6   8   5    0.16    0.08
  -7  -8  -5    1.02    0.09
  -7  -8  -5    0.83    0.13
  -7  -8  -5    0.98    0.08
  -7  -8  -5    1.24    0.11
  -7  -8  -5    1.01    0.08
   7   8   5    1.02    0.13
  -8  -8  -5    0.38    0.11
  -8  -8  -5    0.31    0.09
  -8  -8  -5    0.30    0.15
   8   8   5    0.37    0.10
   2  -9  -5    0.08    0.16
   2  -9  -5    0.14    0.15
   2  -9  -5    0.03    0.15
  -2   9   5    0.09    0.19
  -2   9   5   -0.19    0.14
  -2   9   5    0.06    0.10
  -2   9   5    0.52    0.15
  -2   9   5    0.09    0.14
   1  -9  -5    1.76    0.18
   1  -9  -5    2.19    0.24
   1  -9  -5    1.19    0.14
   1  -9  -5    2.07    0.22
  -1   9   5    1.70    0.16
  -1   9   5    1.54    0.18
  -1   9   5    1.65    0.15
  -1   9   5    1.37    0.16
  -1   9   5    1.67    0.20
   0  -9  -5    0.17    0.09
   0  -9  -5    0.14    0.11
   0  -9  -5    0.17    0.09
   0  -9  -5    0.18    0.11
   0   9   5    0.19    0.10
   0   9   5    0.23    0.10
   0   9   5    0.13    0.08
   0   9   5   -0.16    0.11
   0   9   5    0.16    0.09
  -1  -9  -5    1.38    0.15
  -1  -9  -5    1.29    0.13
  -1  -9  -5    1.28    0.12
  -1  -9  -5    1.52    0.15
   1   9   5    1.18    0.13
   1   9   5    1.25    0.13
   1   9   5    1.31    0.12
   1   9   5    1.06    0.13
  -2  -9  -5    0.62    0.10
  -2  -9  -5    0.75    0.09
  -2  -9  -5    0.66    0.09
  -2  -9  -5    0.81    0.10
   2   9   5    0.73    0.06
   2   9   5    0.95    0.13
   2   9   5    0.78    0.07
  -3  -9  -5    0.27    0.08
  -3  -9  -5    0.23    0.07
  -3  -9  -5    0.21    0.05
  -3  -9  -5    0.15    0.07
   3   9   5    0.30    0.09
   3   9   5    0.02    0.07
   3   9   5    0.30    0.07
  -4  -9  -5    1.57    0.12
  -4  -9  -5    1.39    0.13
  -4  -9  -5    1.43    0.12
  -4  -9  -5    1.34    0.11
  -4  -9  -5    1.47    0.13
   4   9   5    1.65    0.15
   4   9   5    1.41    0.12
  -5  -9  -5    1.77    0.15
  -5  -9  -5    1.89    0.13
  -5  -9  -5    2.01    0.12
  -5  -9  -5    2.18    0.13
  -5  -9  -5    2.06    0.15
   5   9   5    2.29    0.12
   5   9   5    2.13    0.11
   5   9   5    2.45    0.17
  -6  -9  -5    1.24    0.13
  -6  -9  -5    1.22    0.11
  -6  -9  -5    1.31    0.12
  -6  -9  -5    1.35    0.10
  -6  -9  -5    1.31    0.10
   6   9   5    1.69    0.16
  -7  -9  -5    1.29    0.15
  -7  -9  -5    1.48    0.12
  -7  -9  -5    1.35    0.13
   7   9   5    1.65    0.17
   0 -10  -5    0.46    0.14
   0 -10  -5    0.28    0.15
   0 -10  -5    0.45    0.14
   0 -10  -5    0.27    0.13
   0  10   5    0.06    0.17
   0  10   5    0.46    0.12
   0  10   5    0.43    0.12
   0  10   5    0.42    0.15
  -1 -10  -5    1.73    0.20
  -1 -10  -5    1.47    0.15
  -1 -10  -5    1.70    0.20
  -1 -10  -5    1.42    0.15
   1  10   5    1.62    0.17
   1  10   5    1.47    0.16
   1  10   5    1.30    0.12
  -2 -10  -5    2.66    0.20
  -2 -10  -5    2.74    0.20
  -2 -10  -5    2.47    0.19
  -2 -10  -5    2.65    0.20
   2  10   5    3.05    0.20
   2  10   5    2.65    0.20
  -3 -10  -5    0.67    0.11
  -3 -10  -5    0.71    0.11
  -3 -10  -5    0.67    0.11
  -3 -10  -5    0.69    0.11
   3  10   5    0.74    0.13
   3  10   5    0.68    0.11
  -4 -10  -5    3.66    0.20
  -4 -10  -5    3.42    0.19
  -4 -10  -5    3.54    0.18
  -4 -10  -5    3.69    0.20
  -4 -10  -5    3.62    0.15
   4  10   5    3.43    0.18
   4  10   5    3.66    0.22
  -5 -10  -5    0.36    0.08
  -5 -10  -5    0.33    0.09
  -5 -10  -5    0.25    0.09
  -5 -10  -5    0.22    0.07
   5  10   5    0.27    0.06
   5  10   5   -0.01    0.07
   5  10   5    0.20    0.10
  -6 -10  -5    0.97    0.12
  -6 -10  -5    1.01    0.10
  -6 -10  -5    0.88    0.10
  -6 -10  -5    1.05    0.11
  -6 -10  -5    0.84    0.13
   6  10   5    0.80    0.13
  -3 -11  -5    0.37    0.13
  -3 -11  -5    0.27    0.11
  -3 -11  -5    0.33    0.12
  -3 -11  -5    0.33    0.13
   3  11   5    0.26    0.13
   3  11   5    0.25    0.12
   3  11   5   -0.05    0.14
  -4 -11  -5    1.73    0.16
  -4 -11  -5    1.69    0.10
  -4 -11  -5    1.90    0.21
  -4 -11  -5    1.86    0.18
  -4 -11  -5    1.80    0.16
   4  11   5    1.60    0.18
   4  11   5    1.81    0.19
   6   8  -6    0.51    0.16
   6   8  -6    0.75    0.12
  -6  -8   6    0.82    0.12
  -6  -8   6    0.70    0.08
  -6  -8   6    0.55    0.10
   5   8  -6    0.06    0.06
   5   8  -6    0.12    0.12
   5   8  -6    0.02    0.07
   5   8  -6   -0.07    0.08
  -5  -8   6   -0.06    0.10
  -5  -8   6   -0.03    0.07
  -5  -8   6   -0.08    0.08
  -5  -8   6   -0.10    0.10
   4   8  -6    2.57    0.16
   4   8  -6    2.78    0.22
   4   8  -6    2.50    0.15
  -4  -8   6    2.22    0.17
  -4  -8   6    2.38    0.19
  -4  -8   6    2.69    0.17
  -4  -8   6    2.60    0.21
   3   8  -6    0.07    0.08
   3   8  -6    0.13    0.10
   3   8  -6    0.05    0.06
   3   8  -6    0.06    0.10
  -3  -8   6    0.34    0.10
  -3  -8   6    0.06    0.09
  -3  -8   6   -0.04    0.11
  -3  -8   6    0.09    0.08
   2   8  -6    1.87    0.16
   2   8  -6    1.93    0.19
  -2  -8   6    1.96    0.18
  -2  -8   6    1.98    0.19
  -2  -8   6    1.55    0.15
  -2  -8   6    2.15    0.23
   1   8  -6    0.74    0.11
   1   8  -6    0.71    0.12
   1   8  -6    0.51    0.12
   1   8  -6    0.26    0.14
  -1  -8   6    0.87    0.16
  -1  -8   6    0.67    0.13
  -1  -8   6    0.62    0.13
  -1  -8   6    0.69    0.13
   0   8  -6    0.27    0.16
   0   8  -6    0.25    0.10
   0   8  -6    0.20    0.12
   0  -8   6    0.36    0.17
   0  -8   6    0.28    0.13
   0  -8   6    0.26    0.14
   0  -8   6    0.44    0.16
   7   7  -6    0.74    0.14
  -7  -7   6    0.68    0.11
  -7  -7   6    0.83    0.08
  -7  -7   6    0.69    0.08
   6   7  -6    0.18    0.13
   6   7  -6    0.10    0.04
   6   7  -6    0.06    0.10
  -6  -7   6    0.09    0.06
  -6  -7   6    0.12    0.08
  -6  -7   6    0.20    0.09
  -6  -7   6    0.28    0.08
   5   7  -6    0.90    0.12
   5   7  -6    0.84    0.08
   5   7  -6    0.72    0.13
  -5  -7   6    0.93    0.11
  -5  -7   6    0.89    0.10
  -5  -7   6    0.93    0.11
   4   7  -6   -0.05    0.09
   4   7  -6    0.03    0.05
   4   7  -6   -0.01    0.07
   4   7  -6    0.02    0.07
  -4  -7   6    0.13    0.06
  -4  -7   6    0.15    0.08
  -4  -7   6    0.02    0.07
   3   7  -6    0.08    0.06
   3   7  -6    0.06    0.06
   3   7  -6   -0.05    0.08
   3   7  -6   -0.02    0.08
  -3  -7   6   -0.10    0.07
  -3  -7   6    0.14    0.07
  -3  -7   6    0.06    0.07
  -3  -7   6    0.06    0.09
   2   7  -6    0.25    0.08
   2   7  -6    0.23    0.08
   2   7  -6    0.22    0.06
  -2  -7   6    0.34    0.09
  -2  -7   6    0.24    0.08
  -2  -7   6    0.16    0.08
  -2  -7   6    0.22    0.09
   1   7  -6    1.74    0.13
   1   7  -6    1.65    0.16
   1   7  -6    1.94    0.14
  -1  -7   6    1.77    0.21
  -1  -7   6    1.90    0.16
  -1  -7   6    1.79    0.18
  -1  -7   6    1.58    0.17
   0   7  -6    0.14    0.12
   0   7  -6    0.04    0.09
   0   7  -6    0.09    0.08
   0   7  -6    0.04    0.09
   0  -7   6    0.07    0.11
   0  -7   6    0.12    0.10
   0  -7   6    0.11    0.10
   0  -7   6    0.32    0.14
  -1   7  -6    1.88    0.19
  -1   7  -6    1.91    0.21
  -1   7  -6    1.64    0.13
  -1   7  -6    1.49    0.17
   1  -7   6    1.78    0.17
   1  -7   6    1.45    0.18
   1  -7   6    1.33    0.16
   1  -7   6    1.82    0.18
   7   6  -6    0.16    0.10
  -7  -6   6   -0.04    0.08
  -7  -6   6    0.07    0.09
  -7  -6   6    0.06    0.07
  -7  -6   6    0.16    0.05
   6   6  -6    0.04    0.05
   6   6  -6    0.04    0.05
   6   6  -6    0.02    0.07
   6   6  -6    0.04    0.11
  -6  -6   6    0.04    0.05
  -6  -6   6    0.04    0.07
  -6  -6   6   -0.10    0.07
  -6  -6   6   -0.01    0.06
   5   6  -6    0.85    0.08
   5   6  -6    1.07    0.12
   5   6  -6    0.77    0.09
   5   6  -6    0.79    0.12
  -5  -6   6    0.91    0.10
  -5  -6   6    0.77    0.09
  -5  -6   6    0.65    0.09
  -5  -6   6    0.83    0.08
   4   6  -6    1.69    0.16
   4   6  -6    1.54    0.12
   4   6  -6    1.54    0.11
   4   6  -6    1.62    0.12
  -4  -6   6    1.35    0.13
  -4  -6   6    1.63    0.12
  -4  -6   6    1.49    0.11
  -4  -6   6    1.75    0.14
   3   6  -6    1.18    0.11
   3   6  -6    1.43    0.11
   3   6  -6    1.44    0.14
   3   6  -6    1.60    0.13
  -3  -6   6    1.42    0.13
  -3  -6   6    1.44    0.12
  -3  -6   6    1.56    0.12
  -3  -6   6    1.56    0.15
   2   6  -6    5.40    0.21
   2   6  -6    5.23    0.17
   2   6  -6    5.08    0.17
   2   6  -6    5.26    0.16
  -2  -6   6    4.98    0.23
  -2  -6   6    5.17    0.21
  -2  -6   6    4.98    0.22
   1   6  -6    0.81    0.09
   1   6  -6    0.71    0.11
   1   6  -6    0.65    0.09
   1   6  -6    0.77    0.08
   1   6  -6    0.91    0.09
  -1  -6   6    0.78    0.10
  -1  -6   6    0.73    0.09
  -1  -6   6    0.92    0.10
  -1  -6   6    0.64    0.10
   0   6  -6    2.33    0.20
   0   6  -6    2.37    0.14
   0   6  -6    2.07    0.15
   0   6  -6    2.35    0.17
   0  -6   6    2.35    0.16
   0  -6   6    2.38    0.21
   0  -6   6    2.24    0.17
   0  -6   6    2.67    0.18
  -1   6  -6   -0.12    0.11
  -1   6  -6   -0.01    0.08
  -1   6  -6    0.13    0.09
   1  -6   6   -0.02    0.09
   1  -6   6    0.00    0.08
   1  -6   6   -0.05    0.09
   1  -6   6    0.08    0.12
  -2   6  -6    0.05    0.09
  -2   6  -6    0.14    0.12
  -2   6  -6    0.02    0.11
  -2   6  -6    0.28    0.14
   2  -6   6   -0.03    0.12
   2  -6   6    0.11    0.13
   2  -6   6    0.17    0.11
   2  -6   6    0.18    0.15
  -3   6  -6    0.08    0.18
  -3   6  -6    0.00    0.15
  -3   6  -6    0.05    0.15
  -3   6  -6    0.06    0.12
   3  -6   6   -0.07    0.19
   3  -6   6    0.03    0.15
   3  -6   6    0.12    0.13
   8   5  -6    0.10    0.05
  -8  -5   6    0.08    0.11
  -8  -5   6    0.15    0.12
   7   5  -6    0.98    0.16
   7   5  -6    0.69    0.12
   7   5  -6    0.82    0.09
  -7  -5   6    0.86    0.10
  -7  -5   6    0.85    0.09
  -7  -5   6    0.54    0.11
  -7  -5   6    0.82    0.10
  -7  -5   6    0.83    0.10
   6   5  -6   -0.03    0.05
   6   5  -6    0.01    0.05
   6   5  -6    0.08    0.10
   6   5  -6    0.01    0.08
  -6  -5   6   -0.04    0.05
  -6  -5   6    0.08    0.06
  -6  -5   6   -0.03    0.07
  -6  -5   6    0.02    0.07
   5   5  -6    5.29    0.22
   5   5  -6    5.28    0.19
   5   5  -6    5.26    0.24
  -5  -5   6    5.25    0.19
  -5  -5   6    4.92    0.19
  -5  -5   6    5.21    0.19
  -5  -5   6    4.99    0.20
   4   5  -6    0.28    0.07
   4   5  -6    0.29    0.06
   4   5  -6    0.21    0.07
  -4  -5   6    0.12    0.06
  -4  -5   6    0.14    0.05
  -4  -5   6    0.15    0.05
  -4  -5   6    0.18    0.06
   3   5  -6    8.31    0.21
   3   5  -6    8.39    0.28
   3   5  -6    8.42    0.27
   3   5  -6    8.33    0.21
  -3  -5   6    8.35    0.28
  -3  -5   6    8.08    0.27
  -3  -5   6    8.44    0.25
  -3  -5   6    8.26    0.26
   2   5  -6    0.11    0.04
   2   5  -6    0.13    0.05
   2   5  -6    0.17    0.04
   2   5  -6    0.18    0.05
   2   5  -6    0.22    0.07
  -2  -5   6    0.14    0.05
  -2  -5   6    0.18    0.06
  -2  -5   6    0.15    0.06
  -2  -5   6    0.14    0.06
   1   5  -6    2.86    0.14
   1   5  -6    2.81    0.13
   1   5  -6    2.83    0.15
   1   5  -6    2.65    0.16
   1   5  -6    2.71    0.14
   1   5  -6    2.58    0.11
  -1  -5   6    2.59    0.17
  -1  -5   6    2.51    0.15
  -1  -5   6    2.66    0.16
  -1  -5   6    2.83    0.14
   0   5  -6    0.04    0.06
   0   5  -6    0.02    0.05
   0   5  -6   -0.07    0.07
   0   5  -6    0.02    0.06
   0  -5   6    0.09    0.06
   0  -5   6    0.06    0.06
   0  -5   6   -0.10    0.06
   0  -5   6   -0.15    0.06
  -1   5  -6    0.23    0.08
  -1   5  -6    0.29    0.10
  -1   5  -6    0.24    0.08
  -1   5  -6    0.31    0.07
   1  -5   6    0.28    0.09
   1  -5   6    0.28    0.10
   1  -5   6    0.32    0.08
   1  -5   6    0.35    0.08
  -2   5  -6   -0.10    0.09
  -2   5  -6    0.09    0.08
  -2   5  -6    0.16    0.11
  -2   5  -6    0.04    0.10
   2  -5   6   -0.01    0.07
   2  -5   6   -0.09    0.09
   2  -5   6    0.03    0.12
   2  -5   6   -0.01    0.09
  -3   5  -6    0.13    0.13
  -3   5  -6    0.19    0.11
  -3   5  -6    0.12    0.12
   3  -5   6    0.19    0.10
   3  -5   6    0.16    0.16
   3  -5   6    0.31    0.13
   3  -5   6    0.23    0.12
  -4   5  -6    0.06    0.13
  -4   5  -6    0.11    0.16
  -4   5  -6    0.02    0.19
  -4   5  -6   -0.19    0.15
   4  -5   6    0.33    0.14
   4  -5   6   -0.01    0.17
   4  -5   6   -0.06    0.18
   8   4  -6    4.87    0.27
   8   4  -6    5.13    0.20
  -8  -4   6    4.62    0.23
  -8  -4   6    5.61    0.26
  -8  -4   6    5.17    0.25
  -8  -4   6    5.39    0.27
   7   4  -6    1.88    0.12
   7   4  -6    1.86    0.18
  -7  -4   6    2.09    0.20
  -7  -4   6    1.85    0.13
  -7  -4   6    1.37    0.16
  -7  -4   6    2.11    0.16
   6   4  -6   13.70    0.43
   6   4  -6   12.91    0.37
   6   4  -6   12.94    0.37
   6   4  -6   12.80    0.43
  -6  -4   6   12.73    0.40
  -6  -4   6   13.35    0.39
  -6  -4   6   12.94    0.37
  -6  -4   6   13.41    0.38
  -6  -4   6   12.41    0.38
   5   4  -6    7.53    0.24
   5   4  -6    7.32    0.28
   5   4  -6    7.32    0.27
  -5  -4   6    7.57    0.24
  -5  -4   6    7.48    0.23
  -5  -4   6    7.44    0.24
  -5  -4   6    7.35    0.25
   4   4  -6   13.35    0.40
   4   4  -6   12.76    0.40
   4   4  -6   13.48    0.38
   4   4  -6   13.88    0.38
  -4  -4   6   13.67    0.36
  -4  -4   6   13.39    0.39
  -4  -4   6   12.47    0.37
  -4  -4   6   13.14    0.39
   3   4  -6   10.65    0.27
   3   4  -6   11.01    0.33
   3   4  -6   10.83    0.32
   3   4  -6   10.40    0.32
   3   4  -6   10.59    0.27
   3   4  -6   10.74    0.32
  -3  -4   6   10.65    0.33
  -3  -4   6   10.17    0.31
   2   4  -6    1.06    0.11
   2   4  -6    0.98    0.07
   2   4  -6    1.17    0.10
   2   4  -6    1.02    0.08
   2   4  -6    1.12    0.10
   2   4  -6    1.17    0.09
  -2  -4   6    1.01    0.10
  -2  -4   6    1.09    0.09
  -2  -4   6    1.09    0.10
  -2  -4   6    1.06    0.10
   1   4  -6    4.95    0.20
   1   4  -6    5.17    0.16
   1   4  -6    5.27    0.21
   1   4  -6    5.03    0.18
   1   4  -6    4.83    0.17
   1   4  -6    5.27    0.19
  -1  -4   6    5.18    0.19
  -1  -4   6    5.10    0.21
  -1  -4   6    4.69    0.20
  -1  -4   6    5.02    0.18
   0   4  -6    1.72    0.10
   0   4  -6    1.66    0.12
   0   4  -6    1.65    0.12
   0   4  -6    1.83    0.14
   0  -4   6    1.94    0.15
   0  -4   6    1.64    0.12
   0  -4   6    1.61    0.11
   0  -4   6    1.90    0.13
  -1   4  -6    0.06    0.07
  -1   4  -6    0.06    0.06
  -1   4  -6   -0.02    0.05
  -1   4  -6    0.05    0.07
   1  -4   6   -0.01    0.06
   1  -4   6    0.07    0.06
   1  -4   6   -0.01    0.07
   1  -4   6   -0.04    0.06
  -2   4  -6    2.47    0.19
  -2   4  -6    2.76    0.18
   2  -4   6    2.93    0.20
   2  -4   6    2.98    0.17
  -3   4  -6    1.84    0.19
  -3   4  -6    1.22    0.14
  -3   4  -6    1.77    0.19
  -3   4  -6    1.69    0.14
   3  -4   6    1.76    0.18
   3  -4   6    1.44    0.14
   3  -4   6    1.67    0.16
   3  -4   6    1.58    0.16
  -4   4  -6    1.66    0.18
  -4   4  -6    1.53    0.18
  -4   4  -6    1.58    0.19
  -4   4  -6    1.67    0.16
   4  -4   6    1.89    0.20
   4  -4   6    1.55    0.18
   4  -4   6    1.63    0.20
   4  -4   6    1.75    0.17
  -5   4  -6    1.72    0.24
  -5   4  -6    1.68    0.24
   5  -4   6    1.46    0.17
   5  -4   6    1.83    0.20
   5  -4   6    1.91    0.24
   5  -4   6    1.78    0.24
   8   3  -6    0.08    0.09
   8   3  -6    0.28    0.11
   8   3  -6   -0.08    0.09
  -8  -3   6    0.48    0.13
  -8  -3   6    0.26    0.11
  -8  -3   6    0.01    0.12
  -8  -3   6    0.27    0.12
  -8  -3   6    0.52    0.14
   7   3  -6    2.77    0.19
   7   3  -6    2.71    0.15
  -7  -3   6    2.71    0.16
  -7  -3   6    2.81    0.19
  -7  -3   6    3.32    0.19
  -7  -3   6    2.76    0.20
  -7  -3   6    3.03    0.19
   6   3  -6    1.38    0.11
   6   3  -6    1.43    0.14
   6   3  -6    1.23    0.13
   6   3  -6    1.23    0.12
  -6  -3   6    1.49    0.13
  -6  -3   6    1.13    0.10
  -6  -3   6    1.34    0.13
  -6  -3   6    1.51    0.13
   5   3  -6    6.22    0.24
   5   3  -6    5.99    0.22
   5   3  -6    6.49    0.22
   5   3  -6    5.67    0.24
  -5  -3   6    6.68    0.23
  -5  -3   6    6.07    0.22
  -5  -3   6    6.15    0.21
  -5  -3   6    6.20    0.21
   4   3  -6    0.40    0.06
   4   3  -6    0.36    0.05
   4   3  -6    0.39    0.04
   4   3  -6    0.38    0.08
   4   3  -6    0.35    0.03
  -4  -3   6    0.36    0.06
  -4  -3   6    0.38    0.05
  -4  -3   6    0.58    0.10
  -4  -3   6    0.35    0.06
   3   3  -6    5.80    0.16
   3   3  -6    5.57    0.21
   3   3  -6    5.78    0.20
   3   3  -6    5.83    0.17
   3   3  -6    5.59    0.20
  -3  -3   6    5.79    0.19
  -3  -3   6    5.76    0.21
  -3  -3   6    5.62    0.19
  -3  -3   6    6.00    0.20
   2   3  -6    1.59    0.10
   2   3  -6    1.42    0.08
   2   3  -6    1.60    0.10
   2   3  -6    1.61    0.08
   2   3  -6    1.67    0.11
  -2  -3   6    1.56    0.10
  -2  -3   6    1.45    0.10
  -2  -3   6    1.45    0.10
   1   3  -6    3.22    0.15
   1   3  -6    3.41    0.12
   1   3  -6    3.41    0.13
   1   3  -6    3.14    0.14
  -1  -3   6    3.19    0.14
  -1  -3   6    3.30    0.15
  -1  -3   6    3.37    0.13
  -1  -3   6    3.39    0.15
   0   3  -6    5.32    0.19
   0   3  -6    5.33    0.20
   0   3  -6    5.21    0.18
   0   3  -6    5.56    0.21
   0  -3   6    4.55    0.19
   0  -3   6    5.54    0.18
   0  -3   6    5.43    0.21
   0  -3   6    5.30    0.21
  -1   3  -6    3.90    0.17
  -1   3  -6    4.25    0.19
  -1   3  -6    3.95    0.18
  -1   3  -6    4.03    0.16
   1  -3   6    4.30    0.20
   1  -3   6    3.88    0.17
   1  -3   6    3.93    0.18
   1  -3   6    4.01    0.16
  -2   3  -6    4.18    0.20
  -2   3  -6    3.78    0.19
  -2   3  -6    3.86    0.19
   2  -3   6    3.64    0.20
   2  -3   6    3.87    0.17
   2  -3   6    3.92    0.19
  -3   3  -6    2.69    0.19
  -3   3  -6    2.76    0.19
  -3   3  -6    2.22    0.18
   3  -3   6    2.41    0.18
   3  -3   6    2.28    0.20
   3  -3   6    2.41    0.15
  -4   3  -6    0.75    0.11
  -4   3  -6    0.49    0.13
  -4   3  -6    0.72    0.14
  -4   3  -6    0.78    0.13
   4  -3   6    0.69    0.14
   4  -3   6    0.59    0.14
   4  -3   6    0.83    0.11
   4  -3   6    0.66    0.11
  -5   3  -6    0.88    0.16
  -5   3  -6    0.71    0.17
  -5   3  -6    0.35    0.14
  -5   3  -6    0.61    0.13
   5  -3   6    0.37    0.12
   5  -3   6    0.35    0.16
   5  -3   6    0.80    0.14
   8   2  -6   -0.12    0.11
   8   2  -6   -0.01    0.09
   8   2  -6   -0.02    0.10
  -8  -2   6   -0.10    0.11
  -8  -2   6   -0.26    0.11
  -8  -2   6    0.04    0.11
  -8  -2   6    0.13    0.14
  -8  -2   6   -0.09    0.12
   7   2  -6    0.19    0.09
   7   2  -6    0.04    0.07
   7   2  -6   -0.11    0.07
  -7  -2   6    0.02    0.08
  -7  -2   6    0.13    0.09
  -7  -2   6    0.09    0.09
  -7  -2   6   -0.06    0.09
   6   2  -6    0.03    0.05
   6   2  -6    0.08    0.08
   6   2  -6    0.06    0.06
   6   2  -6    0.04    0.07
  -6  -2   6    0.06    0.07
  -6  -2   6   -0.02    0.05
  -6  -2   6   -0.02    0.06
  -6  -2   6   -0.05    0.07
  -6  -2   6    0.12    0.08
   5   2  -6    2.04    0.08
   5   2  -6    2.09    0.08
   5   2  -6    2.29    0.13
   5   2  -6    1.95    0.14
   5   2  -6    2.05    0.15
  -5  -2   6    2.12    0.14
  -5  -2   6    2.12    0.12
  -5  -2   6    2.07    0.13
  -5  -2   6    2.13    0.12
   4   2  -6    0.21    0.06
   4   2  -6    0.32    0.03
   4   2  -6    0.31    0.04
   4   2  -6    0.19    0.06
   4   2  -6    0.30    0.05
  -4  -2   6    0.23    0.06
  -4  -2   6    0.28    0.05
  -4  -2   6    0.26    0.05
  -4  -2   6    0.22    0.05
   3   2  -6    9.91    0.31
   3   2  -6   10.04    0.27
   3   2  -6   10.60    0.31
   3   2  -6   10.48    0.28
   3   2  -6   10.64    0.31
  -3  -2   6    9.90    0.31
  -3  -2   6    9.76    0.28
  -3  -2   6   10.43    0.30
  -3  -2   6   10.71    0.32
   2   2  -6    0.78    0.08
   2   2  -6    0.80    0.08
   2   2  -6    0.68    0.06
   2   2  -6    0.76    0.06
   2   2  -6    0.79    0.07
  -2  -2   6    0.63    0.07
  -2  -2   6    0.74    0.07
  -2  -2   6    0.75    0.08
  -2  -2   6    0.69    0.08
   1   2  -6    8.05    0.26
   1   2  -6    7.73    0.22
   1   2  -6    8.21    0.24
   1   2  -6    7.98    0.25
  -1  -2   6    7.92    0.23
  -1  -2   6    8.04    0.24
  -1  -2   6    8.07    0.26
  -1  -2   6    7.62    0.26
   0   2  -6    1.49    0.11
   0   2  -6    1.41    0.09
   0   2  -6    1.34    0.10
   0   2  -6    1.28    0.08
   0  -2   6    1.32    0.10
   0  -2   6    1.60    0.09
   0  -2   6    1.41    0.10
   0  -2   6    1.46    0.10
  -1   2  -6    2.16    0.12
  -1   2  -6    1.99    0.10
  -1   2  -6    2.26    0.13
  -1   2  -6    2.19    0.12
   1  -2   6    2.22    0.11
   1  -2   6    2.05    0.12
   1  -2   6    2.17    0.13
   1  -2   6    2.35    0.14
  -2   2  -6    4.49    0.17
  -2   2  -6    4.47    0.19
  -2   2  -6    4.26    0.18
  -2   2  -6    4.24    0.20
   2  -2   6    4.42    0.19
   2  -2   6    4.44    0.18
   2  -2   6    4.52    0.17
   2  -2   6    4.54    0.21
  -3   2  -6   -0.01    0.07
  -3   2  -6    0.07    0.07
  -3   2  -6    0.08    0.07
   3  -2   6    0.06    0.06
   3  -2   6    0.06    0.06
   3  -2   6    0.12    0.06
   3  -2   6    0.01    0.07
  -4   2  -6    1.82    0.17
  -4   2  -6    1.95    0.18
  -4   2  -6    2.03    0.18
   4  -2   6    1.71    0.17
   4  -2   6    1.75    0.19
   4  -2   6    1.76    0.14
  -5   2  -6    0.07    0.10
  -5   2  -6    0.04    0.11
  -5   2  -6    0.05    0.12
  -5   2  -6    0.04    0.08
   5  -2   6    0.13    0.10
   5  -2   6    0.15    0.09
   5  -2   6    0.04    0.11
   5  -2   6    0.03    0.12
  -6   2  -6    0.42    0.13
  -6   2  -6    0.30    0.15
  -6   2  -6    0.51    0.18
  -6   2  -6    0.44    0.15
   6  -2   6    0.23    0.16
   6  -2   6    0.16    0.11
   6  -2   6    0.46    0.14
   6  -2   6    0.40    0.16
   8   1  -6    0.09    0.12
  -8  -1   6    0.05    0.13
  -8  -1   6   -0.05    0.13
  -8  -1   6    0.12    0.14
  -8  -1   6    0.19    0.17
  -8  -1   6   -0.05    0.12
   7   1  -6    0.37    0.11
   7   1  -6    0.47    0.10
  -7  -1   6    0.47    0.12
  -7  -1   6    0.48    0.10
  -7  -1   6    0.58    0.11
  -7  -1   6    0.30    0.10
  -7  -1   6    0.46    0.10
   6   1  -6    0.48    0.10
   6   1  -6    0.59    0.06
   6   1  -6    0.53    0.10
   6   1  -6    0.58    0.05
  -6  -1   6    0.53    0.09
  -6  -1   6    0.63    0.08
  -6  -1   6    0.37    0.08
  -6  -1   6    0.66    0.10
  -6  -1   6    0.53    0.09
   5   1  -6    2.47    0.15
   5   1  -6    2.67    0.11
   5   1  -6    2.66    0.15
   5   1  -6    2.77    0.17
   5   1  -6    2.68    0.10
  -5  -1   6    2.90    0.15
  -5  -1   6    2.85    0.15
  -5  -1   6    2.76    0.14
  -5  -1   6    2.78    0.15
  -5  -1   6    2.74    0.14
   4   1  -6    4.81    0.18
   4   1  -6    4.60    0.18
   4   1  -6    4.64    0.15
   4   1  -6    4.49    0.15
   4   1  -6    4.60    0.18
  -4  -1   6    4.77    0.17
  -4  -1   6    4.46    0.18
  -4  -1   6    4.53    0.18
  -4  -1   6    4.51    0.17
   3   1  -6    4.56    0.15
   3   1  -6    4.55    0.17
   3   1  -6    4.42    0.17
   3   1  -6    4.18    0.16
   3   1  -6    4.26    0.14
  -3  -1   6    4.34    0.16
  -3  -1   6    4.36    0.15
  -3  -1   6    4.40    0.17
  -3  -1   6    4.06    0.17
   2   1  -6    1.49    0.08
   2   1  -6    1.49    0.07
   2   1  -6    1.52    0.09
   2   1  -6    1.51    0.10
   2   1  -6    1.47    0.09
  -2  -1   6    1.41    0.09
  -2  -1   6    1.48    0.10
  -2  -1   6    1.62    0.08
  -2  -1   6    1.47    0.09
   1   1  -6    0.00    0.02
   1   1  -6   -0.01    0.03
   1   1  -6   -0.02    0.03
   1   1  -6   -0.02    0.04
  -1  -1   6    0.01    0.03
  -1  -1   6    0.02    0.03
  -1  -1   6    0.03    0.04
  -1  -1   6    0.02    0.04
   0   1  -6    0.08    0.03
   0   1  -6    0.06    0.04
   0   1  -6    0.07    0.04
   0   1  -6    0.05    0.04
   0  -1   6    0.05    0.04
   0  -1   6    0.06    0.04
   0  -1   6    0.15    0.03
   0  -1   6   -0.03    0.04
  -1   1  -6    2.77    0.13
  -1   1  -6    3.14    0.13
  -1   1  -6    2.88    0.14
  -1   1  -6    2.92    0.12
   1  -1   6    3.05    0.12
   1  -1   6    2.84    0.13
   1  -1   6    2.91    0.14
   1  -1   6    2.88    0.14
  -2   1  -6    0.05    0.04
  -2   1  -6    0.02    0.06
  -2   1  -6    0.07    0.05
  -2   1  -6    0.07    0.05
   2  -1   6    0.03    0.05
   2  -1   6    0.10    0.05
   2  -1   6    0.12    0.04
   2  -1   6    0.01    0.05
  -3   1  -6    0.68    0.09
  -3   1  -6    0.63    0.08
  -3   1  -6    0.71    0.09
  -3   1  -6    0.71    0.08
   3  -1   6    0.78    0.09
   3  -1   6    0.52    0.06
   3  -1   6    0.75    0.07
   3  -1   6    0.56    0.09
  -4   1  -6    0.07    0.07
  -4   1  -6    0.15    0.07
  -4   1  -6    0.10    0.08
   4  -1   6    0.10    0.05
   4  -1   6    0.08    0.06
   4  -1   6    0.12    0.08
   4  -1   6   -0.01    0.07
  -5   1  -6    0.09    0.10
  -5   1  -6   -0.05    0.08
  -5   1  -6   -0.07    0.06
  -5   1  -6    0.11    0.10
   5  -1   6   -0.08    0.10
   5  -1   6    0.05    0.09
   5  -1   6    0.07    0.07
  -6   1  -6    0.03    0.13
  -6   1  -6   -0.14    0.09
  -6   1  -6    0.05    0.12
  -6   1  -6    0.06    0.12
   6  -1   6    0.03    0.12
   6  -1   6   -0.02    0.08
   6  -1   6   -0.09    0.09
   6  -1   6   -0.04    0.13
   7   0  -6    1.54    0.13
   7   0  -6    1.47    0.18
   7   0  -6    2.07    0.18
  -7   0   6    2.01    0.20
  -7   0   6    1.99    0.17
  -7   0   6    2.03    0.20
  -7   0   6    2.10    0.21
  -7   0   6    1.88    0.21
   6   0  -6    0.07    0.06
   6   0  -6    0.04    0.05
   6   0  -6    0.15    0.08
   6   0  -6    0.03    0.07
   6   0  -6    0.00    0.08
  -6   0   6    0.06    0.07
  -6   0   6   -0.01    0.06
  -6   0   6    0.11    0.08
  -6   0   6   -0.01    0.07
  -6   0   6   -0.02    0.08
   5   0  -6    2.01    0.13
   5   0  -6    2.40    0.15
   5   0  -6    2.23    0.11
   5   0  -6    2.16    0.12
   5   0  -6    2.32    0.15
  -5   0   6    2.22    0.14
  -5   0   6    2.19    0.14
  -5   0   6    2.06    0.14
  -5   0   6    2.29    0.14
  -5   0   6    2.04    0.15
   4   0  -6    0.19    0.04
   4   0  -6    0.24    0.05
   4   0  -6    0.18    0.06
   4   0  -6    0.14    0.05
   4   0  -6    0.21    0.06
  -4   0   6    0.18    0.06
  -4   0   6    0.26    0.06
  -4   0   6    0.29    0.06
  -4   0   6    0.39    0.06
   3   0  -6    0.43    0.06
   3   0  -6    0.43    0.06
   3   0  -6    0.52    0.06
   3   0  -6    0.47    0.06
   3   0  -6    0.48    0.05
  -3   0   6    0.43    0.05
  -3   0   6    0.42    0.06
  -3   0   6    0.50    0.06
  -3   0   6    0.52    0.06
   2   0  -6    4.81    0.18
   2   0  -6    4.60    0.17
   2   0  -6    4.46    0.15
   2   0  -6    4.41    0.14
   2   0  -6    4.63    0.16
  -2   0   6    4.61    0.17
  -2   0   6    4.38    0.17
  -2   0   6    4.44    0.16
  -2   0   6    4.58    0.15
   1   0  -6   11.41    0.34
   1   0  -6   11.16    0.31
   1   0  -6   11.60    0.34
   1   0  -6   11.30    0.30
  -1   0   6   11.18    0.34
  -1   0   6   11.66    0.34
  -1   0   6   11.61    0.32
  -1   0   6   11.63    0.31
   0   0  -6    5.55    0.19
   0   0  -6    5.34    0.17
   0   0  -6    5.37    0.19
   0   0  -6    5.36    0.18
   0   0   6    5.46    0.19
   0   0   6    5.24    0.19
   0   0   6    5.44    0.18
   0   0   6    5.40    0.17
  -1   0  -6   12.85    0.34
  -1   0  -6   12.01    0.32
  -1   0  -6   12.45    0.36
  -1   0  -6   12.23    0.36
   1   0   6   11.81    0.36
   1   0   6   12.13    0.36
   1   0   6   11.68    0.33
   1   0   6   11.85    0.33
  -2   0  -6    0.09    0.03
  -2   0  -6    0.12    0.05
  -2   0  -6    0.10    0.04
  -2   0  -6    0.07    0.04
   2   0   6    0.10    0.05
   2   0   6    0.06    0.04
   2   0   6    0.15    0.04
   2   0   6    0.06    0.04
  -3   0  -6    7.30    0.26
  -3   0  -6    7.81    0.24
  -3   0  -6    7.68    0.27
  -3   0  -6    7.81    0.25
   3   0   6    7.65    0.24
   3   0   6    7.49    0.26
   3   0   6    7.42    0.27
  -4   0  -6    1.72    0.14
  -4   0  -6    2.05    0.14
   4   0   6    1.77    0.14
   4   0   6    1.47    0.14
   4   0   6    1.74    0.12
  -5   0  -6    2.79    0.15
  -5   0  -6    2.67    0.19
  -5   0  -6    2.63    0.18
  -5   0  -6    2.73    0.19
   5   0   6    2.98    0.20
   5   0   6    2.62    0.15
   5   0   6    2.76    0.19
  -6   0  -6    0.83    0.11
  -6   0  -6    0.97    0.14
  -6   0  -6    0.74    0.13
  -6   0  -6    0.79    0.13
   6   0   6    1.10    0.14
   6   0   6    0.75    0.13
   6   0   6    0.89    0.10
   6   0   6    0.88    0.11
  -7   0  -6    0.45    0.13
  -7   0  -6    0.59    0.15
  -7   0  -6    0.47    0.15
  -7   0  -6    0.51    0.16
   7   0   6    0.55    0.11
   7   0   6   -0.05    0.14
   7   0   6    0.63    0.16
   7  -1  -6    0.08    0.10
   7  -1  -6    0.10    0.11
   7  -1  -6    0.17    0.08
   7  -1  -6   -0.11    0.12
  -7   1   6   -0.16    0.13
  -7   1   6   -0.07    0.10
  -7   1   6    0.05    0.12
  -7   1   6    0.11    0.13
  -7   1   6   -0.09    0.10
   6  -1  -6    1.26    0.13
   6  -1  -6    1.30    0.14
   6  -1  -6    1.13    0.12
   6  -1  -6    1.42    0.14
   6  -1  -6    1.35    0.15
  -6   1   6    1.01    0.11
  -6   1   6    0.93    0.11
  -6   1   6    1.04    0.13
   5  -1  -6    0.43    0.09
   5  -1  -6    0.30    0.06
   5  -1  -6    0.30    0.06
   5  -1  -6    0.34    0.07
   5  -1  -6    0.39    0.08
  -5   1   6    0.39    0.08
  -5   1   6    0.23    0.07
  -5   1   6    0.37    0.07
  -5   1   6    0.33    0.09
   4  -1  -6   14.52    0.42
   4  -1  -6   15.03    0.44
   4  -1  -6   15.29    0.40
   4  -1  -6   15.37    0.40
   4  -1  -6   14.78    0.45
  -4   1   6   14.72    0.45
  -4   1   6   15.05    0.42
  -4   1   6   15.47    0.42
  -4   1   6   14.58    0.44
   3  -1  -6    0.95    0.08
   3  -1  -6    0.86    0.08
   3  -1  -6    0.67    0.08
   3  -1  -6    0.72    0.07
   3  -1  -6    0.91    0.09
  -3   1   6    0.77    0.08
  -3   1   6    0.91    0.10
  -3   1   6    0.79    0.08
  -3   1   6    0.76    0.08
   2  -1  -6   52.67    1.32
   2  -1  -6   53.83    1.24
   2  -1  -6   52.52    1.23
   2  -1  -6   51.90    1.32
   2  -1  -6   49.96    1.24
  -2   1   6   50.18    1.32
  -2   1   6   51.21    1.25
  -2   1   6   53.60    1.24
  -2   1   6   52.49    1.33
   1  -1  -6    0.09    0.03
   1  -1  -6    0.11    0.03
   1  -1  -6    0.09    0.04
   1  -1  -6    0.05    0.03
  -1   1   6    0.08    0.03
  -1   1   6    0.09    0.03
  -1   1   6    0.07    0.03
  -1   1   6    0.05    0.04
   0  -1  -6   45.15    1.17
   0  -1  -6   45.73    1.10
   0  -1  -6   46.56    1.17
   0  -1  -6   45.67    1.09
   0   1   6   44.68    1.17
   0   1   6   47.97    1.38
   0   1   6   46.09    1.17
   0   1   6   45.80    1.09
  -1  -1  -6    4.82    0.18
  -1  -1  -6    4.70    0.17
  -1  -1  -6    4.64    0.15
  -1  -1  -6    4.99    0.18
   1   1   6    4.87    0.18
   1   1   6    4.81    0.18
   1   1   6    4.91    0.17
   1   1   6    5.13    0.18
   1   1   6    4.85    0.16
  -2  -1  -6   17.47    0.48
  -2  -1  -6   16.54    0.45
  -2  -1  -6   16.85    0.47
  -2  -1  -6   17.15    0.44
   2   1   6   17.12    0.43
   2   1   6   17.17    0.48
   2   1   6   16.81    0.48
   2   1   6   16.21    0.44
  -3  -1  -6    4.03    0.17
  -3  -1  -6    3.88    0.17
  -3  -1  -6    3.57    0.15
  -3  -1  -6    3.85    0.14
   3   1   6    3.87    0.14
   3   1   6    3.90    0.17
   3   1   6    3.97    0.15
   3   1   6    3.96    0.17
  -4  -1  -6    3.53    0.17
  -4  -1  -6    3.47    0.17
  -4  -1  -6    3.10    0.14
  -4  -1  -6    3.22    0.16
   4   1   6    3.44    0.17
   4   1   6    3.43    0.15
   4   1   6    3.24    0.17
   4   1   6    3.33    0.14
  -5  -1  -6    0.02    0.07
  -5  -1  -6    0.12    0.07
  -5  -1  -6    0.02    0.07
  -5  -1  -6    0.04    0.05
   5   1   6    0.03    0.07
   5   1   6    0.04    0.07
   5   1   6    0.03    0.05
   5   1   6    0.09    0.04
   5   1   6    0.06    0.05
  -6  -1  -6    0.27    0.10
  -6  -1  -6    0.20    0.07
  -6  -1  -6    0.46    0.11
  -6  -1  -6    0.42    0.10
   6   1   6    0.26    0.10
   6   1   6    0.34    0.08
   6   1   6    0.28    0.07
   6   1   6    0.27    0.10
  -7  -1  -6    0.19    0.12
  -7  -1  -6    0.07    0.12
  -7  -1  -6    0.05    0.10
  -7  -1  -6    0.07    0.12
   7   1   6    0.16    0.12
   7   1   6    0.20    0.09
   7   1   6    0.03    0.08
   7   1   6   -0.02    0.12
   7  -2  -6   -0.09    0.10
   7  -2  -6   -0.01    0.13
   7  -2  -6    0.01    0.10
   7  -2  -6    0.04    0.14
   7  -2  -6    0.14    0.11
  -7   2   6   -0.01    0.13
  -7   2   6    0.14    0.13
  -7   2   6   -0.12    0.15
  -7   2   6   -0.13    0.14
  -7   2   6    0.02    0.11
   6  -2  -6    0.22    0.08
   6  -2  -6    0.16    0.10
   6  -2  -6    0.07    0.08
   6  -2  -6    0.12    0.08
   6  -2  -6    0.28    0.12
  -6   2   6    0.00    0.12
  -6   2   6    0.30    0.12
  -6   2   6    0.12    0.09
  -6   2   6    0.10    0.09
   5  -2  -6    1.05    0.12
   5  -2  -6    0.84    0.09
   5  -2  -6    1.02    0.11
   5  -2  -6    1.09    0.13
  -5   2   6    0.75    0.10
  -5   2   6    1.01    0.12
  -5   2   6    1.08    0.12
  -5   2   6    1.11    0.12
   4  -2  -6    0.62    0.08
   4  -2  -6    0.56    0.08
   4  -2  -6    0.57    0.08
   4  -2  -6    0.56    0.07
   4  -2  -6    0.63    0.08
  -4   2   6    0.45    0.07
  -4   2   6    0.40    0.08
  -4   2   6    0.37    0.08
   3  -2  -6    4.76    0.17
   3  -2  -6    4.58    0.17
   3  -2  -6    4.57    0.17
   3  -2  -6    4.69    0.19
   3  -2  -6    4.65    0.19
  -3   2   6    4.69    0.19
  -3   2   6    4.52    0.18
  -3   2   6    4.62    0.20
  -3   2   6    4.86    0.18
   2  -2  -6    0.84    0.08
   2  -2  -6    0.85    0.09
   2  -2  -6    0.90    0.08
   2  -2  -6    0.89    0.07
   2  -2  -6    0.80    0.07
  -2   2   6    0.85    0.08
  -2   2   6    0.92    0.08
  -2   2   6    0.79    0.09
  -2   2   6    0.77    0.08
   1  -2  -6    2.34    0.10
   1  -2  -6    2.21    0.12
   1  -2  -6    2.28    0.12
   1  -2  -6    2.30    0.11
  -1   2   6    2.26    0.10
  -1   2   6    2.20    0.11
  -1   2   6    2.18    0.12
  -1   2   6    2.30    0.11
   0  -2  -6    2.14    0.11
   0  -2  -6    2.32    0.10
   0  -2  -6    2.30    0.12
   0  -2  -6    2.21    0.10
   0   2   6    2.16    0.11
   0   2   6    2.24    0.11
   0   2   6    2.15    0.10
   0   2   6    2.15    0.10
  -1  -2  -6    1.20    0.08
  -1  -2  -6    1.29    0.07
  -1  -2  -6    1.23    0.09
  -1  -2  -6    1.24    0.08
   1   2   6    1.32    0.09
   1   2   6    1.10    0.07
   1   2   6    1.21    0.08
   1   2   6    1.14    0.07
  -2  -2  -6    0.23    0.05
  -2  -2  -6    0.33    0.05
  -2  -2  -6    0.31    0.05
  -2  -2  -6    0.18    0.04
   2   2   6    0.24    0.04
   2   2   6    0.27    0.05
   2   2   6    0.27    0.05
   2   2   6    0.25    0.04
   2   2   6    0.24    0.04
  -3  -2  -6    2.31    0.12
  -3  -2  -6    2.35    0.10
  -3  -2  -6    2.39    0.12
  -3  -2  -6    2.38    0.13
   3   2   6    2.35    0.12
   3   2   6    2.38    0.13
   3   2   6    2.24    0.10
   3   2   6    2.40    0.13
   3   2   6    2.22    0.10
  -4  -2  -6    1.42    0.11
  -4  -2  -6    1.36    0.11
  -4  -2  -6    1.51    0.11
  -4  -2  -6    1.37    0.09
   4   2   6    1.35    0.09
   4   2   6    1.42    0.11
   4   2   6    1.37    0.11
   4   2   6    1.43    0.11
   4   2   6    1.44    0.09
  -5  -2  -6    1.19    0.10
  -5  -2  -6    1.30    0.11
  -5  -2  -6    1.12    0.11
  -5  -2  -6    1.24    0.12
   5   2   6    1.19    0.09
   5   2   6    1.20    0.10
   5   2   6    1.19    0.13
   5   2   6    0.89    0.10
   5   2   6    1.01    0.13
   5   2   6    1.20    0.08
  -6  -2  -6    1.38    0.13
  -6  -2  -6    1.60    0.15
  -6  -2  -6    1.56    0.16
  -6  -2  -6    1.37    0.15
   6   2   6    1.30    0.14
   6   2   6    1.40    0.16
   6   2   6    1.36    0.09
   6   2   6    1.51    0.11
   6   2   6    1.59    0.11
   6   2   6    1.28    0.13
  -7  -2  -6    0.45    0.11
  -7  -2  -6    0.32    0.11
  -7  -2  -6    0.36    0.10
  -7  -2  -6    0.32    0.12
   7   2   6    0.08    0.07
   7   2   6    0.14    0.10
   7   2   6    0.36    0.08
   7   2   6    0.25    0.09
   7   2   6    0.34    0.10
  -8  -2  -6    0.25    0.16
  -8  -2  -6    0.32    0.16
  -8  -2  -6    0.25    0.13
   8   2   6    0.12    0.08
   8   2   6    0.24    0.11
   8   2   6    0.05    0.08
   6  -3  -6    0.05    0.10
   6  -3  -6   -0.01    0.09
   6  -3  -6   -0.11    0.13
   6  -3  -6   -0.17    0.12
   6  -3  -6   -0.02    0.09
  -6   3   6    0.01    0.13
  -6   3   6    0.01    0.10
  -6   3   6    0.03    0.11
  -6   3   6    0.15    0.13
   5  -3  -6    3.25    0.21
   5  -3  -6    3.57    0.19
   5  -3  -6    3.60    0.23
  -5   3   6    3.25    0.23
  -5   3   6    3.50    0.23
  -5   3   6    3.61    0.21
  -5   3   6    3.38    0.20
   4  -3  -6   -0.06    0.05
   4  -3  -6   -0.03    0.08
   4  -3  -6   -0.04    0.06
   4  -3  -6   -0.04    0.06
  -4   3   6    0.00    0.08
  -4   3   6   -0.04    0.06
   3  -3  -6    7.72    0.28
   3  -3  -6    7.59    0.24
   3  -3  -6    7.37    0.27
   3  -3  -6    7.36    0.24
   3  -3  -6    7.72    0.25
  -3   3   6    7.31    0.28
  -3   3   6    7.41    0.25
  -3   3   6    7.54    0.25
  -3   3   6    7.91    0.27
   2  -3  -6    4.77    0.17
   2  -3  -6    4.70    0.19
   2  -3  -6    4.48    0.16
   2  -3  -6    4.66    0.19
   2  -3  -6    4.76    0.17
  -2   3   6    4.85    0.18
  -2   3   6    4.55    0.19
  -2   3   6    4.50    0.19
  -2   3   6    4.58    0.17
   1  -3  -6    7.28    0.22
   1  -3  -6    7.62    0.23
   1  -3  -6    7.68    0.22
   1  -3  -6    7.01    0.25
   1  -3  -6    7.59    0.25
  -1   3   6    7.67    0.25
  -1   3   6    7.44    0.25
  -1   3   6    7.52    0.23
  -1   3   6    7.18    0.23
   0  -3  -6   12.07    0.34
   0  -3  -6   12.90    0.37
   0  -3  -6   12.59    0.35
   0  -3  -6   13.35    0.41
   0  -3  -6   12.64    0.37
   0   3   6   13.35    0.37
   0   3   6   13.29    0.34
   0   3   6   12.06    0.34
   0   3   6   11.98    0.37
  -1  -3  -6    0.26    0.05
  -1  -3  -6    0.21    0.04
  -1  -3  -6    0.19    0.03
  -1  -3  -6    0.23    0.04
   1   3   6    0.29    0.04
   1   3   6    0.35    0.05
   1   3   6    0.25    0.05
   1   3   6    0.17    0.04
  -2  -3  -6    2.56    0.12
  -2  -3  -6    2.47    0.12
  -2  -3  -6    2.50    0.10
  -2  -3  -6    2.60    0.12
   2   3   6    2.62    0.11
   2   3   6    2.75    0.12
   2   3   6    2.54    0.10
   2   3   6    2.71    0.12
  -3  -3  -6    8.55    0.26
  -3  -3  -6    8.56    0.27
  -3  -3  -6    8.54    0.27
  -3  -3  -6    8.56    0.25
   3   3   6    8.45    0.27
   3   3   6    8.61    0.24
   3   3   6    8.86    0.27
   3   3   6    8.67    0.25
  -4  -3  -6    0.11    0.05
  -4  -3  -6    0.11    0.04
  -4  -3  -6    0.06    0.04
  -4  -3  -6    0.07    0.05
   4   3   6    0.11    0.05
   4   3   6    0.08    0.04
   4   3   6    0.09    0.05
   4   3   6    0.11    0.05
   4   3   6    0.06    0.03
  -5  -3  -6    9.62    0.32
  -5  -3  -6    9.67    0.29
  -5  -3  -6    9.51    0.30
  -5  -3  -6    9.48    0.31
   5   3   6    9.84    0.31
   5   3   6    9.83    0.27
   5   3   6    9.89    0.27
   5   3   6    9.54    0.29
  -6  -3  -6    0.00    0.06
  -6  -3  -6    0.07    0.06
  -6  -3  -6    0.22    0.07
   6   3   6    0.06    0.07
   6   3   6   -0.04    0.06
   6   3   6    0.07    0.05
   6   3   6    0.09    0.04
   6   3   6    0.07    0.04
  -7  -3  -6    3.53    0.21
  -7  -3  -6    3.24    0.21
  -7  -3  -6    3.38    0.22
  -7  -3  -6    3.43    0.19
   7   3   6    2.94    0.12
   7   3   6    2.81    0.20
   7   3   6    3.09    0.14
   7   3   6    3.04    0.22
  -8  -3  -6    0.33    0.14
  -8  -3  -6    0.16    0.12
  -8  -3  -6   -0.05    0.10
   8   3   6    0.24    0.12
   8   3   6    0.06    0.10
   8   3   6    0.13    0.11
   6  -4  -6    1.87    0.20
   6  -4  -6    1.60    0.16
   6  -4  -6    1.74    0.20
   6  -4  -6    1.80    0.17
   6  -4  -6    1.73    0.18
  -6   4   6    1.16    0.16
  -6   4   6    2.13    0.23
  -6   4   6    1.70    0.21
  -6   4   6    1.54    0.17
   5  -4  -6    0.05    0.09
   5  -4  -6    0.02    0.11
   5  -4  -6    0.07    0.09
   5  -4  -6    0.16    0.11
  -5   4   6    0.09    0.11
  -5   4   6    0.03    0.09
  -5   4   6    0.22    0.13
  -5   4   6    0.08    0.10
   4  -4  -6    3.69    0.22
   4  -4  -6    3.71    0.19
   4  -4  -6    3.67    0.21
  -4   4   6    3.52    0.20
  -4   4   6    3.59    0.23
   3  -4  -6    0.59    0.07
   3  -4  -6    0.68    0.08
   3  -4  -6    0.59    0.10
   3  -4  -6    0.46    0.08
   3  -4  -6    0.67    0.09
  -3   4   6    0.50    0.09
  -3   4   6    0.61    0.09
  -3   4   6    0.39    0.07
   2  -4  -6    3.96    0.16
   2  -4  -6    3.61    0.16
   2  -4  -6    3.76    0.14
   2  -4  -6    3.95    0.18
   2  -4  -6    3.56    0.18
  -2   4   6    3.69    0.18
  -2   4   6    3.79    0.17
  -2   4   6    3.81    0.16
  -2   4   6    3.98    0.18
   1  -4  -6    1.93    0.09
   1  -4  -6    1.95    0.13
   1  -4  -6    1.87    0.11
   1  -4  -6    1.81    0.12
   1  -4  -6    1.87    0.11
  -1   4   6    1.89    0.12
  -1   4   6    1.91    0.12
  -1   4   6    1.96    0.13
  -1   4   6    1.77    0.11
   0  -4  -6    2.52    0.13
   0  -4  -6    2.62    0.13
   0  -4  -6    2.52    0.11
   0  -4  -6    2.57    0.12
   0   4   6    2.75    0.13
   0   4   6    2.52    0.11
   0   4   6    2.38    0.12
   0   4   6    2.48    0.13
  -1  -4  -6    0.00    0.03
  -1  -4  -6   -0.03    0.03
  -1  -4  -6   -0.01    0.03
  -1  -4  -6    0.02    0.03
   1   4   6    0.02    0.03
   1   4   6    0.04    0.03
   1   4   6    0.04    0.04
   1   4   6    0.05    0.04
  -2  -4  -6    0.07    0.04
  -2  -4  -6    0.10    0.03
  -2  -4  -6    0.10    0.04
  -2  -4  -6    0.16    0.05
   2   4   6    0.13    0.03
   2   4   6    0.11    0.03
   2   4   6    0.16    0.04
   2   4   6    0.14    0.04
  -3  -4  -6    0.02    0.04
  -3  -4  -6    0.00    0.04
  -3  -4  -6    0.00    0.03
  -3  -4  -6    0.04    0.03
   3   4   6    0.06    0.03
   3   4   6    0.05    0.03
   3   4   6    0.07    0.04
   3   4   6    0.03    0.04
  -4  -4  -6    0.16    0.04
  -4  -4  -6    0.19    0.05
  -4  -4  -6    0.11    0.04
  -4  -4  -6    0.12    0.05
   4   4   6    0.18    0.05
   4   4   6    0.03    0.04
   4   4   6    0.19    0.05
   4   4   6    0.17    0.03
   4   4   6    0.22    0.04
  -5  -4  -6    0.22    0.06
  -5  -4  -6    0.25    0.05
  -5  -4  -6    0.19    0.06
   5   4   6    0.22    0.04
   5   4   6    0.25    0.06
   5   4   6    0.20    0.04
  -6  -4  -6    0.90    0.10
  -6  -4  -6    0.79    0.10
  -6  -4  -6    0.79    0.09
  -6  -4  -6    0.69    0.07
   6   4   6    0.75    0.05
   6   4   6    0.74    0.09
   6   4   6    0.68    0.08
  -7  -4  -6    0.19    0.08
  -7  -4  -6    0.17    0.10
  -7  -4  -6    0.32    0.09
  -7  -4  -6    0.22    0.09
   7   4   6    0.15    0.08
   7   4   6    0.18    0.07
   7   4   6    0.09    0.07
  -8  -4  -6    0.45    0.11
  -8  -4  -6    0.41    0.12
  -8  -4  -6    0.49    0.14
  -8  -4  -6    0.44    0.12
   8   4   6    0.37    0.11
   8   4   6    0.51    0.09
   5  -5  -6    0.40    0.15
   5  -5  -6    0.52    0.13
   5  -5  -6    0.64    0.14
   5  -5  -6    0.65    0.12
  -5   5   6    0.38    0.16
  -5   5   6    0.56    0.16
  -5   5   6    0.39    0.13
  -5   5   6    0.49    0.14
   4  -5  -6    0.15    0.12
   4  -5  -6    0.24    0.10
   4  -5  -6    0.23    0.09
   4  -5  -6    0.22    0.10
  -4   5   6   -0.01    0.09
  -4   5   6    0.31    0.12
  -4   5   6    0.20    0.10
  -4   5   6    0.22    0.12
   3  -5  -6    2.83    0.18
   3  -5  -6    2.58    0.17
   3  -5  -6    2.56    0.19
  -3   5   6    2.67    0.18
  -3   5   6    2.79    0.20
  -3   5   6    2.70    0.17
   2  -5  -6    0.24    0.08
   2  -5  -6    0.20    0.07
   2  -5  -6    0.22    0.05
   2  -5  -6    0.28    0.07
  -2   5   6    0.19    0.07
  -2   5   6    0.30    0.08
  -2   5   6    0.26    0.07
  -2   5   6    0.34    0.08
   1  -5  -6    4.29    0.19
   1  -5  -6    3.93    0.19
   1  -5  -6    3.97    0.17
   1  -5  -6    4.32    0.17
   1  -5  -6    4.18    0.14
  -1   5   6    4.45    0.18
  -1   5   6    4.40    0.19
  -1   5   6    3.94    0.17
  -1   5   6    4.13    0.20
   0  -5  -6    1.10    0.10
   0  -5  -6    1.17    0.10
   0  -5  -6    1.25    0.11
   0  -5  -6    1.18    0.09
   0   5   6    1.31    0.10
   0   5   6    1.15    0.11
   0   5   6    1.37    0.09
   0   5   6    1.24    0.09
  -1  -5  -6    4.10    0.17
  -1  -5  -6    3.91    0.15
  -1  -5  -6    4.05    0.16
  -1  -5  -6    3.93    0.17
   1   5   6    3.73    0.15
   1   5   6    4.53    0.17
   1   5   6    3.62    0.16
   1   5   6    4.12    0.15
  -2  -5  -6    3.74    0.16
  -2  -5  -6    3.71    0.14
  -2  -5  -6    3.78    0.16
  -2  -5  -6    3.98    0.15
   2   5   6    3.91    0.16
   2   5   6    3.78    0.15
   2   5   6    3.87    0.13
   2   5   6    3.65    0.14
  -3  -5  -6    0.29    0.05
  -3  -5  -6    0.29    0.06
  -3  -5  -6    0.20    0.04
  -3  -5  -6    0.30    0.05
   3   5   6    0.23    0.04
   3   5   6    0.29    0.04
   3   5   6    0.23    0.05
  -4  -5  -6    1.58    0.11
  -4  -5  -6    1.57    0.11
  -4  -5  -6    1.46    0.09
  -4  -5  -6    1.56    0.11
   4   5   6    1.56    0.07
   4   5   6    1.59    0.11
   4   5   6    1.53    0.10
   4   5   6    1.46    0.07
   4   5   6    1.41    0.10
  -5  -5  -6    0.79    0.08
  -5  -5  -6    0.89    0.09
  -5  -5  -6    0.87    0.10
  -5  -5  -6    0.94    0.11
   5   5   6    0.99    0.09
   5   5   6    0.87    0.10
   5   5   6    0.78    0.09
  -6  -5  -6    0.61    0.07
  -6  -5  -6    0.62    0.08
  -6  -5  -6    0.63    0.09
  -6  -5  -6    0.46    0.08
   6   5   6    0.64    0.08
   6   5   6    0.63    0.09
  -7  -5  -6    0.68    0.09
  -7  -5  -6    0.87    0.10
  -7  -5  -6    0.59    0.10
   7   5   6    0.74    0.10
   7   5   6    0.54    0.09
  -8  -5  -6    0.24    0.10
  -8  -5  -6    0.24    0.12
  -8  -5  -6    0.17    0.09
  -8  -5  -6    0.19    0.11
   8   5   6    0.41    0.09
   8   5   6    0.26    0.09
   8   5   6   -0.09    0.09
   4  -6  -6    2.07    0.24
   4  -6  -6    1.98    0.21
   4  -6  -6    1.70    0.19
   4  -6  -6    1.49    0.16
  -4   6   6    1.51    0.19
  -4   6   6    1.28    0.16
  -4   6   6    1.41    0.20
  -4   6   6    1.74    0.18
   3  -6  -6    0.09    0.09
   3  -6  -6    0.19    0.09
   3  -6  -6    0.10    0.11
  -3   6   6    0.17    0.09
  -3   6   6    0.10    0.10
  -3   6   6    0.28    0.13
  -3   6   6    0.20    0.10
   2  -6  -6    1.43    0.13
   2  -6  -6    1.38    0.14
  -2   6   6    1.30    0.14
  -2   6   6    1.22    0.14
   1  -6  -6    5.04    0.22
   1  -6  -6    4.70    0.21
   1  -6  -6    5.06    0.21
   1  -6  -6    4.75    0.22
   1  -6  -6    4.91    0.15
  -1   6   6    5.09    0.20
  -1   6   6    4.78    0.22
  -1   6   6    5.54    0.22
   0  -6  -6    0.09    0.06
   0  -6  -6    0.08    0.03
   0  -6  -6    0.17    0.06
   0  -6  -6    0.06    0.06
   0  -6  -6    0.06    0.05
   0   6   6    0.07    0.05
   0   6   6    0.09    0.06
   0   6   6    0.12    0.07
   0   6   6    0.06    0.05
  -1  -6  -6   10.91    0.31
  -1  -6  -6   10.94    0.34
  -1  -6  -6   10.65    0.32
  -1  -6  -6   10.66    0.34
   1   6   6   10.78    0.31
   1   6   6   10.51    0.34
   1   6   6   10.59    0.33
   1   6   6   10.90    0.31
  -2  -6  -6    0.21    0.06
  -2  -6  -6    0.20    0.05
  -2  -6  -6    0.19    0.05
  -2  -6  -6    0.30    0.05
   2   6   6    0.31    0.06
   2   6   6    0.28    0.05
   2   6   6    0.32    0.05
   2   6   6    0.25    0.05
  -3  -6  -6    3.93    0.16
  -3  -6  -6    3.75    0.14
  -3  -6  -6    3.55    0.15
   3   6   6    3.68    0.12
   3   6   6    3.65    0.12
   3   6   6    3.56    0.17
   3   6   6    3.65    0.16
  -4  -6  -6    1.04    0.08
  -4  -6  -6    1.24    0.10
  -4  -6  -6    1.11    0.10
  -4  -6  -6    1.09    0.10
   4   6   6    1.07    0.11
   4   6   6    1.08    0.09
   4   6   6    1.14    0.09
  -5  -6  -6    0.76    0.08
  -5  -6  -6    0.68    0.08
  -5  -6  -6    0.54    0.06
  -5  -6  -6    0.60    0.08
   5   6   6    0.61    0.06
   5   6   6    0.54    0.08
  -6  -6  -6    0.33    0.06
  -6  -6  -6    0.32    0.08
  -6  -6  -6    0.25    0.07
  -6  -6  -6    0.30    0.07
   6   6   6    0.29    0.06
   6   6   6    0.19    0.06
   6   6   6    0.40    0.09
  -7  -6  -6    0.12    0.07
  -7  -6  -6    0.08    0.08
  -7  -6  -6   -0.01    0.07
   7   6   6    0.03    0.06
   7   6   6    0.26    0.07
   7   6   6    0.17    0.08
  -8  -6  -6   -0.06    0.08
  -8  -6  -6   -0.06    0.11
  -8  -6  -6    0.02    0.09
  -8  -6  -6   -0.04    0.09
   8   6   6   -0.07    0.07
   8   6   6    0.07    0.08
   4  -7  -6   -0.18    0.14
   4  -7  -6    0.00    0.16
   4  -7  -6    0.10    0.18
  -4   7   6   -0.11    0.21
  -4   7   6    0.15    0.16
  -4   7   6    0.15    0.15
   3  -7  -6    0.56    0.13
   3  -7  -6    0.42    0.14
   3  -7  -6    0.38    0.15
   3  -7  -6    0.45    0.11
  -3   7   6    0.37    0.13
  -3   7   6    0.77    0.15
  -3   7   6    0.34    0.12
  -3   7   6    0.41    0.14
   2  -7  -6   -0.05    0.09
   2  -7  -6    0.00    0.08
   2  -7  -6   -0.05    0.08
   2  -7  -6    0.05    0.10
  -2   7   6    0.18    0.09
  -2   7   6   -0.02    0.08
  -2   7   6    0.05    0.10
  -2   7   6    0.07    0.11
   1  -7  -6    2.34    0.18
   1  -7  -6    2.38    0.16
   1  -7  -6    2.18    0.19
   1  -7  -6    2.70    0.17
  -1   7   6    2.44    0.16
  -1   7   6    2.66    0.17
  -1   7   6    2.36    0.18
   0  -7  -6    0.51    0.08
   0  -7  -6    0.66    0.05
   0  -7  -6    0.51    0.08
   0  -7  -6    0.53    0.08
   0  -7  -6    0.46    0.08
   0   7   6    0.52    0.08
   0   7   6    0.60    0.09
   0   7   6    0.76    0.11
   0   7   6    0.59    0.08
  -1  -7  -6    2.28    0.15
  -1  -7  -6    2.31    0.15
  -1  -7  -6    2.39    0.15
   1   7   6    2.35    0.14
   1   7   6    2.30    0.13
   1   7   6    2.33    0.15
   1   7   6    2.25    0.13
  -2  -7  -6    8.34    0.29
  -2  -7  -6    8.86    0.27
  -2  -7  -6    8.30    0.29
  -2  -7  -6    8.78    0.28
   2   7   6    8.66    0.28
   2   7   6    8.41    0.25
   2   7   6    8.47    0.25
   2   7   6    8.59    0.30
  -3  -7  -6    1.47    0.11
  -3  -7  -6    1.37    0.11
  -3  -7  -6    1.31    0.12
  -3  -7  -6    1.37    0.10
   3   7   6    1.46    0.07
   3   7   6    1.37    0.07
   3   7   6    1.50    0.12
   3   7   6    1.32    0.10
  -4  -7  -6   13.83    0.38
  -4  -7  -6   14.17    0.41
  -4  -7  -6   13.61    0.40
  -4  -7  -6   13.79    0.39
   4   7   6   13.79    0.44
   4   7   6   14.01    0.40
  -5  -7  -6    0.25    0.07
  -5  -7  -6    0.23    0.06
  -5  -7  -6    0.15    0.06
  -5  -7  -6    0.18    0.05
   5   7   6    0.25    0.07
   5   7   6    0.17    0.05
  -6  -7  -6    7.41    0.25
  -6  -7  -6    7.43    0.26
  -6  -7  -6    7.41    0.25
   6   7   6    7.78    0.24
   6   7   6    7.52    0.24
  -7  -7  -6    0.09    0.07
  -7  -7  -6    0.00    0.09
  -7  -7  -6    0.10    0.07
  -7  -7  -6    0.13    0.07
   7   7   6   -0.03    0.06
   7   7   6   -0.04    0.05
   7   7   6    0.03    0.08
  -8  -7  -6    2.42    0.18
  -8  -7  -6    2.02    0.17
  -8  -7  -6    2.16    0.17
  -8  -7  -6    2.04    0.22
   8   7   6    2.37    0.14
   8   7   6    2.47    0.20
   3  -8  -6    0.23    0.17
   3  -8  -6    0.12    0.15
   3  -8  -6    0.24    0.17
  -3   8   6    0.05    0.10
  -3   8   6    0.02    0.14
  -3   8   6   -0.23    0.20
  -3   8   6    0.19    0.16
  -3   8   6    0.25    0.15
   2  -8  -6    1.27    0.17
   2  -8  -6    1.16    0.14
   2  -8  -6    1.41    0.19
   2  -8  -6    1.03    0.15
  -2   8   6    1.36    0.18
  -2   8   6    1.30    0.15
  -2   8   6    1.03    0.14
  -2   8   6    1.06    0.18
  -2   8   6    1.43    0.15
   1  -8  -6    0.55    0.11
   1  -8  -6    0.66    0.13
   1  -8  -6    0.65    0.13
   1  -8  -6    0.74    0.11
  -1   8   6    0.70    0.13
  -1   8   6    0.63    0.11
  -1   8   6    0.45    0.14
  -1   8   6    0.69    0.11
  -1   8   6    0.58    0.10
   0  -8  -6    1.44    0.17
   0  -8  -6    1.28    0.13
   0  -8  -6    1.50    0.15
   0  -8  -6    1.10    0.13
   0   8   6    1.47    0.14
   0   8   6    1.47    0.15
   0   8   6    1.34    0.15
  -1  -8  -6    4.03    0.21
  -1  -8  -6    3.95    0.11
  -1  -8  -6    4.18    0.19
  -1  -8  -6    3.92    0.20
  -1  -8  -6    4.18    0.21
   1   8   6    3.92    0.18
   1   8   6    4.08    0.20
   1   8   6    3.99    0.20
   1   8   6    3.93    0.17
  -2  -8  -6    1.45    0.13
  -2  -8  -6    1.47    0.13
  -2  -8  -6    1.55    0.13
   2   8   6    1.58    0.10
   2   8   6    1.50    0.13
   2   8   6    1.55    0.10
  -3  -8  -6    3.26    0.16
  -3  -8  -6    3.01    0.16
  -3  -8  -6    3.21    0.17
  -3  -8  -6    3.26    0.17
   3   8   6    3.05    0.18
   3   8   6    3.16    0.15
  -4  -8  -6    1.80    0.14
  -4  -8  -6    1.89    0.14
  -4  -8  -6    1.74    0.12
  -4  -8  -6    1.85    0.12
   4   8   6    1.64    0.11
   4   8   6    1.67    0.14
   4   8   6    1.55    0.12
  -5  -8  -6   -0.02    0.06
  -5  -8  -6    0.10    0.06
  -5  -8  -6    0.09    0.06
  -5  -8  -6    0.06    0.06
   5   8   6   -0.03    0.05
   5   8   6    0.03    0.07
   5   8   6    0.02    0.06
  -6  -8  -6    1.21    0.11
  -6  -8  -6    1.12    0.11
  -6  -8  -6    1.21    0.12
  -6  -8  -6    1.36    0.12
   6   8   6    1.16    0.14
   6   8   6    1.39    0.11
   6   8   6    1.15    0.09
  -7  -8  -6    0.49    0.09
  -7  -8  -6    0.47    0.10
  -7  -8  -6    0.48    0.08
  -7  -8  -6    0.39    0.07
   7   8   6    0.52    0.06
   7   8   6    0.45    0.11
   1  -9  -6   -0.05    0.12
   1  -9  -6    0.13    0.14
   1  -9  -6    0.28    0.12
   1  -9  -6   -0.02    0.13
  -1   9   6    0.17    0.13
  -1   9   6    0.32    0.10
  -1   9   6    0.06    0.11
  -1   9   6    0.12    0.14
  -1   9   6    0.01    0.16
   0  -9  -6    1.62    0.15
   0  -9  -6    1.73    0.20
   0  -9  -6    1.85    0.21
   0  -9  -6    1.45    0.15
   0   9   6    1.75    0.17
   0   9   6    1.31    0.13
   0   9   6    1.65    0.18
  -1  -9  -6    0.02    0.09
  -1  -9  -6    0.11    0.10
  -1  -9  -6   -0.06    0.09
  -1  -9  -6    0.09    0.08
   1   9   6   -0.02    0.09
   1   9   6    0.01    0.10
   1   9   6    0.08    0.07
   1   9   6    0.00    0.07
   1   9   6    0.01    0.07
  -2  -9  -6    1.11    0.11
  -2  -9  -6    1.21    0.12
  -2  -9  -6    0.78    0.11
  -2  -9  -6    1.05    0.12
  -2  -9  -6    1.09    0.06
   2   9   6    0.93    0.10
   2   9   6    1.03    0.12
   2   9   6    1.06    0.11
   2   9   6    1.31    0.14
  -3  -9  -6    0.20    0.08
  -3  -9  -6    0.22    0.08
  -3  -9  -6    0.20    0.08
  -3  -9  -6    0.20    0.07
   3   9   6    0.25    0.08
   3   9   6    0.18    0.08
  -4  -9  -6    0.06    0.08
  -4  -9  -6    0.05    0.07
  -4  -9  -6    0.01    0.06
   4   9   6    0.05    0.08
   4   9   6   -0.07    0.06
  -5  -9  -6    0.15    0.08
  -5  -9  -6    0.07    0.07
  -5  -9  -6    0.05    0.07
  -5  -9  -6    0.00    0.07
   5   9   6   -0.02    0.06
   5   9   6   -0.05    0.09
  -6  -9  -6    0.24    0.07
  -6  -9  -6    0.09    0.09
  -6  -9  -6    0.19    0.07
  -6  -9  -6    0.14    0.07
   6   9   6    0.18    0.06
   6   9   6    0.02    0.06
   6   9   6    0.10    0.09
  -7  -9  -6    0.05    0.06
  -7  -9  -6   -0.08    0.10
  -7  -9  -6    0.26    0.13
  -7  -9  -6    0.02    0.07
   7   9   6   -0.02    0.09
   0 -10  -6    2.52    0.21
   0 -10  -6    2.10    0.19
   0 -10  -6    2.02    0.20
   0 -10  -6    2.63    0.28
   0  10   6    2.39    0.24
   0  10   6    2.65    0.21
  -1 -10  -6    0.03    0.11
  -1 -10  -6   -0.03    0.11
  -1 -10  -6   -0.18    0.11
  -1 -10  -6   -0.02    0.12
   1  10   6   -0.11    0.09
   1  10   6   -0.12    0.14
   1  10   6    0.01    0.09
   1  10   6   -0.01    0.10
   1  10   6   -0.01    0.13
  -2 -10  -6    2.43    0.21
  -2 -10  -6    2.27    0.21
  -2 -10  -6    2.76    0.21
  -2 -10  -6    2.29    0.21
   2  10   6    2.08    0.21
   2  10   6    2.54    0.19
  -3 -10  -6    1.27    0.08
  -3 -10  -6    1.24    0.14
  -3 -10  -6    1.26    0.13
  -3 -10  -6    1.45    0.14
  -3 -10  -6    1.60    0.15
   3  10   6    1.05    0.14
   3  10   6    1.38    0.14
  -4 -10  -6    1.12    0.12
  -4 -10  -6    0.97    0.12
  -4 -10  -6    1.06    0.12
  -4 -10  -6    1.11    0.13
  -4 -10  -6    1.02    0.09
   4  10   6    1.00    0.15
   4  10   6    1.01    0.11
  -5 -10  -6    1.42    0.14
  -5 -10  -6    1.74    0.14
  -5 -10  -6    1.48    0.13
  -5 -10  -6    1.46    0.13
  -5 -10  -6    1.14    0.12
   5  10   6    1.21    0.15
   5  10   6    1.52    0.13
  -6 -10  -6    0.16    0.09
  -6 -10  -6    0.09    0.08
  -6 -10  -6    0.09    0.07
  -6 -10  -6    0.01    0.11
   6  10   6    0.05    0.11
   4   8  -7   -0.04    0.11
   4   8  -7    0.34    0.09
   4   8  -7    0.38    0.15
   4   8  -7    0.33    0.10
  -4  -8   7    0.36    0.11
  -4  -8   7    0.30    0.13
  -4  -8   7    0.35    0.11
  -4  -8   7    0.21    0.14
   3   8  -7    0.83    0.15
   3   8  -7    0.53    0.12
  -3  -8   7    0.60    0.16
  -3  -8   7    0.57    0.12
  -3  -8   7    0.75    0.14
  -3  -8   7    0.52    0.12
   2   8  -7    0.08    0.13
   2   8  -7   -0.13    0.06
   2   8  -7    0.04    0.06
  -2  -8   7   -0.02    0.12
  -2  -8   7    0.20    0.15
  -2  -8   7    0.08    0.11
  -2  -8   7   -0.07    0.13
   6   7  -7    1.90    0.13
   6   7  -7    2.08    0.21
  -6  -7   7    1.77    0.18
  -6  -7   7    1.66    0.15
  -6  -7   7    1.62    0.18
  -6  -7   7    1.75    0.15
   5   7  -7    1.80    0.16
   5   7  -7    1.49    0.17
   5   7  -7    1.93    0.14
  -5  -7   7    1.62    0.15
  -5  -7   7    1.43    0.13
  -5  -7   7    1.37    0.15
  -5  -7   7    1.60    0.18
   4   7  -7    2.29    0.22
   4   7  -7    2.40    0.16
   4   7  -7    2.65    0.16
  -4  -7   7    2.42    0.17
  -4  -7   7    2.30    0.20
  -4  -7   7    2.42    0.20
  -4  -7   7    2.36    0.17
   3   7  -7    0.49    0.12
   3   7  -7    0.59    0.09
   3   7  -7    0.42    0.09
   3   7  -7    0.17    0.11
  -3  -7   7    0.40    0.10
  -3  -7   7    0.47    0.10
  -3  -7   7    0.53    0.12
  -3  -7   7    0.48    0.11
   2   7  -7    0.16    0.11
   2   7  -7    0.31    0.11
   2   7  -7    0.04    0.05
   2   7  -7    0.43    0.07
   2   7  -7    0.38    0.10
  -2  -7   7    0.29    0.09
  -2  -7   7    0.17    0.10
  -2  -7   7    0.23    0.11
  -2  -7   7    0.30    0.12
   1   7  -7    0.07    0.10
   1   7  -7    0.03    0.07
   1   7  -7   -0.03    0.12
   1   7  -7    0.05    0.09
   1   7  -7   -0.13    0.08
  -1  -7   7   -0.02    0.13
  -1  -7   7    0.19    0.11
  -1  -7   7   -0.14    0.11
  -1  -7   7    0.11    0.10
   0   7  -7    0.27    0.11
   0   7  -7    0.10    0.12
   0   7  -7    0.23    0.14
   0   7  -7    0.06    0.09
   0  -7   7    0.02    0.11
   0  -7   7    0.19    0.16
   0  -7   7    0.07    0.14
   0  -7   7    0.02    0.11
  -1   7  -7    0.04    0.12
  -1   7  -7    0.03    0.13
   7   6  -7    0.00    0.10
   7   6  -7   -0.28    0.16
   7   6  -7    0.10    0.06
  -7  -6   7   -0.05    0.07
  -7  -6   7    0.05    0.10
  -7  -6   7    0.07    0.10
  -7  -6   7    0.30    0.11
   6   6  -7    0.36    0.07
   6   6  -7    0.55    0.14
  -6  -6   7    0.39    0.10
  -6  -6   7    0.48    0.10
  -6  -6   7    0.44    0.08
   5   6  -7    0.04    0.07
   5   6  -7    0.10    0.06
   5   6  -7    0.20    0.09
   5   6  -7    0.19    0.11
  -5  -6   7    0.10    0.09
  -5  -6   7    0.22    0.09
  -5  -6   7    0.28    0.07
   4   6  -7    1.21    0.12
   4   6  -7    0.96    0.11
   4   6  -7    0.96    0.12
  -4  -6   7    1.26    0.13
  -4  -6   7    1.01    0.11
  -4  -6   7    1.24    0.12
  -4  -6   7    1.31    0.12
   3   6  -7    2.25    0.14
   3   6  -7    2.63    0.16
   3   6  -7    2.65    0.18
  -3  -6   7    2.60    0.16
  -3  -6   7    2.35    0.15
  -3  -6   7    2.65    0.17
  -3  -6   7    2.27    0.19
   2   6  -7    1.44    0.10
   2   6  -7    1.60    0.15
   2   6  -7    1.36    0.11
   2   6  -7    1.14    0.14
   2   6  -7    1.41    0.10
  -2  -6   7    1.44    0.14
  -2  -6   7    1.62    0.15
  -2  -6   7    1.51    0.15
  -2  -6   7    1.16    0.13
   1   6  -7    2.58    0.21
   1   6  -7    3.13    0.17
   1   6  -7    2.84    0.19
   1   6  -7    3.30    0.15
   1   6  -7    3.09    0.17
  -1  -6   7    3.25    0.20
  -1  -6   7    3.37    0.19
  -1  -6   7    3.18    0.20
  -1  -6   7    2.93    0.22
   0   6  -7    0.51    0.13
   0   6  -7    0.58    0.10
   0   6  -7    0.44    0.09
   0   6  -7    0.36    0.09
   0   6  -7    0.44    0.11
   0  -6   7    0.58    0.12
   0  -6   7    0.49    0.11
   0  -6   7    0.53    0.13
   0  -6   7    0.47    0.10
  -1   6  -7    0.88    0.17
  -1   6  -7    0.51    0.12
  -1   6  -7    0.58    0.11
  -1   6  -7    0.80    0.13
   1  -6   7    0.60    0.13
   1  -6   7    0.76    0.13
   1  -6   7    0.61    0.16
   1  -6   7    0.78    0.14
  -2   6  -7    0.09    0.12
  -2   6  -7    0.08    0.16
  -2   6  -7   -0.02    0.13
  -2   6  -7    0.08    0.13
   2  -6   7   -0.01    0.14
   2  -6   7    0.07    0.13
   2  -6   7   -0.13    0.14
   7   5  -7    0.64    0.13
   7   5  -7    0.56    0.08
   7   5  -7    0.45    0.17
  -7  -5   7    0.53    0.12
  -7  -5   7    0.79    0.12
  -7  -5   7    0.71    0.09
  -7  -5   7    0.70    0.11
   6   5  -7    1.29    0.15
   6   5  -7    1.17    0.15
   6   5  -7    1.16    0.12
  -6  -5   7    1.32    0.12
  -6  -5   7    1.32    0.13
  -6  -5   7    1.21    0.12
   5   5  -7    1.81    0.12
   5   5  -7    1.81    0.15
   5   5  -7    1.92    0.19
  -5  -5   7    1.67    0.13
  -5  -5   7    1.58    0.15
  -5  -5   7    1.62    0.15
  -5  -5   7    1.66    0.13
   4   5  -7    5.87    0.23
   4   5  -7    6.41    0.26
   4   5  -7    6.21    0.23
   4   5  -7    5.83    0.23
  -4  -5   7    5.92    0.23
  -4  -5   7    6.26    0.24
  -4  -5   7    6.11    0.22
  -4  -5   7    5.82    0.23
   3   5  -7    1.88    0.09
   3   5  -7    1.83    0.15
   3   5  -7    1.95    0.12
   3   5  -7    1.77    0.08
  -3  -5   7    1.87    0.14
   2   5  -7    6.22    0.20
   2   5  -7    6.05    0.21
   2   5  -7    6.23    0.20
   2   5  -7    6.02    0.25
   2   5  -7    6.11    0.23
  -2  -5   7    6.44    0.24
  -2  -5   7    6.29    0.25
  -2  -5   7    5.73    0.25
  -2  -5   7    6.33    0.23
   1   5  -7    0.54    0.09
   1   5  -7    0.68    0.07
   1   5  -7    0.49    0.08
   1   5  -7    0.64    0.10
   1   5  -7    0.54    0.08
   1   5  -7    0.71    0.07
  -1  -5   7    0.49    0.09
  -1  -5   7    0.57    0.10
  -1  -5   7    0.52    0.08
  -1  -5   7    0.47    0.10
   0   5  -7    1.04    0.11
   0   5  -7    1.09    0.13
   0   5  -7    1.13    0.12
   0  -5   7    0.89    0.12
   0  -5   7    1.11    0.11
   0  -5   7    0.96    0.12
   0  -5   7    0.96    0.12
  -1   5  -7   -0.09    0.08
  -1   5  -7    0.10    0.11
  -1   5  -7    0.03    0.08
   1  -5   7    0.17    0.09
   1  -5   7   -0.01    0.08
   1  -5   7   -0.01    0.08
   1  -5   7    0.02    0.11
  -2   5  -7    0.04    0.11
  -2   5  -7    0.05    0.11
  -2   5  -7   -0.07    0.12
  -2   5  -7    0.11    0.10
   2  -5   7   -0.06    0.13
   2  -5   7    0.15    0.10
   2  -5   7    0.06    0.11
   2  -5   7    0.02    0.11
  -3   5  -7    0.07    0.12
  -3   5  -7    0.09    0.14
  -3   5  -7    0.06    0.17
  -3   5  -7    0.01    0.14
   3  -5   7    0.01    0.15
   3  -5   7    0.12    0.13
   3  -5   7    0.04    0.13
   3  -5   7    0.19    0.19
   7   4  -7    0.02    0.08
   7   4  -7    0.12    0.10
   7   4  -7    0.06    0.14
   7   4  -7    0.32    0.08
  -7  -4   7    0.38    0.10
  -7  -4   7    0.43    0.11
  -7  -4   7    0.26    0.10
  -7  -4   7    0.30    0.08
   6   4  -7    4.16    0.19
   6   4  -7    4.21    0.22
   6   4  -7    4.75    0.26
  -6  -4   7    4.58    0.22
  -6  -4   7    4.17    0.19
  -6  -4   7    4.41    0.22
   5   4  -7    0.22    0.08
   5   4  -7    0.30    0.06
   5   4  -7    0.24    0.07
   5   4  -7    0.32    0.09
  -5  -4   7    0.26    0.07
  -5  -4   7    0.24    0.08
  -5  -4   7    0.30    0.06
  -5  -4   7    0.27    0.07
   4   4  -7    2.75    0.17
   4   4  -7    2.69    0.15
   4   4  -7    2.94    0.16
  -4  -4   7    2.44    0.15
  -4  -4   7    2.96    0.17
  -4  -4   7    2.80    0.15
  -4  -4   7    2.80    0.14
   3   4  -7    0.37    0.08
   3   4  -7    0.41    0.07
   3   4  -7    0.37    0.05
   3   4  -7    0.38    0.04
  -3  -4   7    0.30    0.07
  -3  -4   7    0.30    0.06
  -3  -4   7    0.42    0.07
  -3  -4   7    0.35    0.07
   2   4  -7    0.69    0.06
   2   4  -7    0.70    0.07
   2   4  -7    0.77    0.08
   2   4  -7    0.72    0.09
  -2  -4   7    0.67    0.09
  -2  -4   7    0.56    0.08
  -2  -4   7    0.59    0.07
  -2  -4   7    0.60    0.08
   1   4  -7    5.65    0.19
   1   4  -7    5.33    0.22
   1   4  -7    5.68    0.21
   1   4  -7    5.52    0.20
   1   4  -7    5.77    0.23
   1   4  -7    5.66    0.18
  -1  -4   7    5.38    0.23
  -1  -4   7    5.59    0.24
   0   4  -7    0.14    0.07
   0   4  -7    0.03    0.06
   0   4  -7   -0.01    0.05
   0   4  -7    0.08    0.06
   0  -4   7    0.08    0.08
   0  -4   7   -0.12    0.06
   0  -4   7    0.08    0.07
   0  -4   7   -0.03    0.06
  -1   4  -7    6.39    0.26
  -1   4  -7    6.15    0.23
  -1   4  -7    6.29    0.28
  -1   4  -7    5.98    0.25
   1  -4   7    6.08    0.25
   1  -4   7    5.99    0.26
   1  -4   7    6.37    0.24
   1  -4   7    6.51    0.28
  -2   4  -7    0.10    0.08
  -2   4  -7    0.13    0.10
  -2   4  -7    0.10    0.10
  -2   4  -7    0.19    0.09
   2  -4   7    0.29    0.11
   2  -4   7    0.02    0.10
   2  -4   7    0.17    0.09
  -3   4  -7    2.22    0.22
  -3   4  -7    1.99    0.22
  -3   4  -7    2.55    0.25
  -3   4  -7    2.06    0.19
   3  -4   7    2.54    0.24
   3  -4   7    2.26    0.25
   3  -4   7    2.16    0.20
   3  -4   7    1.90    0.20
  -4   4  -7   -0.03    0.13
  -4   4  -7    0.01    0.15
  -4   4  -7    0.04    0.16
  -4   4  -7    0.22    0.15
   4  -4   7    0.17    0.18
   4  -4   7   -0.06    0.14
   4  -4   7    0.06    0.15
   4  -4   7   -0.07    0.12
   7   3  -7    0.01    0.08
   7   3  -7   -0.15    0.11
   7   3  -7    0.05    0.09
   7   3  -7    0.11    0.09
  -7  -3   7    0.05    0.10
  -7  -3   7   -0.09    0.09
  -7  -3   7    0.00    0.07
  -7  -3   7   -0.04    0.10
   6   3  -7    6.42    0.27
   6   3  -7    6.94    0.30
   6   3  -7    6.45    0.24
  -6  -3   7    6.92    0.27
  -6  -3   7    6.65    0.25
  -6  -3   7    7.05    0.27
   5   3  -7    0.13    0.06
   5   3  -7    0.03    0.05
   5   3  -7    0.14    0.08
   5   3  -7    0.08    0.08
  -5  -3   7    0.01    0.06
  -5  -3   7    0.03    0.07
  -5  -3   7    0.16    0.07
  -5  -3   7    0.14    0.05
   4   3  -7   23.28    0.55
   4   3  -7   23.11    0.55
   4   3  -7   21.17    0.64
   4   3  -7   23.80    0.62
  -4  -3   7   22.56    0.72
  -4  -3   7   23.42    0.60
  -4  -3   7   23.16    0.59
  -4  -3   7   23.00    0.63
   3   3  -7    0.15    0.06
   3   3  -7    0.02    0.04
   3   3  -7    0.15    0.04
   3   3  -7    0.06    0.05
  -3  -3   7    0.10    0.04
  -3  -3   7    0.10    0.05
  -3  -3   7    0.07    0.05
  -3  -3   7    0.12    0.05
   2   3  -7   49.88    1.26
   2   3  -7   49.61    1.25
   2   3  -7   50.38    1.16
   2   3  -7   48.27    1.19
   2   3  -7   47.64    1.16
  -2  -3   7   47.98    1.17
  -2  -3   7   48.75    1.26
  -2  -3   7   48.23    1.19
  -2  -3   7   48.83    1.26
   1   3  -7    0.76    0.08
   1   3  -7    0.59    0.07
   1   3  -7    0.50    0.07
   1   3  -7    0.48    0.08
  -1  -3   7    0.49    0.07
  -1  -3   7    0.64    0.09
  -1  -3   7    0.63    0.08
  -1  -3   7    0.52    0.08
   0   3  -7   41.64    1.00
   0   3  -7   40.35    1.06
   0   3  -7   40.93    0.99
   0   3  -7   39.53    1.07
   0  -3   7   41.15    0.99
   0  -3   7   41.16    1.07
   0  -3   7   39.33    1.01
   0  -3   7   39.45    1.07
  -1   3  -7    1.06    0.10
  -1   3  -7    1.09    0.12
  -1   3  -7    1.09    0.11
   1  -3   7    0.85    0.10
   1  -3   7    1.12    0.12
   1  -3   7    1.26    0.12
  -2   3  -7   12.70    0.42
  -2   3  -7   12.63    0.39
  -2   3  -7   12.21    0.42
   2  -3   7   13.06    0.38
   2  -3   7   12.24    0.43
   2  -3   7   12.06    0.41
  -3   3  -7    0.91    0.10
  -3   3  -7    0.73    0.12
  -3   3  -7    0.75    0.13
   3  -3   7    0.53    0.13
   3  -3   7    0.74    0.11
   3  -3   7    0.72    0.10
  -4   3  -7    1.55    0.18
  -4   3  -7    1.98    0.19
  -4   3  -7    1.97    0.23
  -4   3  -7    1.58    0.17
   4  -3   7    2.00    0.20
   4  -3   7    1.63    0.19
   4  -3   7    1.91    0.20
   4  -3   7    1.59    0.16
  -5   3  -7    0.16    0.16
  -5   3  -7   -0.04    0.16
  -5   3  -7    0.08    0.15
  -5   3  -7   -0.01    0.18
   5  -3   7    0.05    0.17
   5  -3   7   -0.01    0.13
   5  -3   7   -0.02    0.14
   5  -3   7    0.14    0.18
   7   2  -7    1.27    0.17
   7   2  -7    1.81    0.17
   7   2  -7    1.51    0.16
  -7  -2   7    1.50    0.15
  -7  -2   7    1.47    0.15
  -7  -2   7    1.59    0.16
  -7  -2   7    1.49    0.15
  -7  -2   7    1.23    0.12
   6   2  -7    0.26    0.10
   6   2  -7   -0.02    0.07
   6   2  -7    0.07    0.08
   6   2  -7   -0.06    0.06
  -6  -2   7    0.01    0.07
  -6  -2   7    0.05    0.08
  -6  -2   7   -0.05    0.06
  -6  -2   7    0.00    0.09
   5   2  -7    8.01    0.22
   5   2  -7    8.19    0.30
   5   2  -7    7.98    0.22
   5   2  -7    7.49    0.29
  -5  -2   7    8.03    0.27
  -5  -2   7    8.70    0.28
  -5  -2   7    8.13    0.29
  -5  -2   7    7.91    0.27
   4   2  -7    2.12    0.09
   4   2  -7    2.07    0.14
   4   2  -7    2.04    0.13
   4   2  -7    2.14    0.10
   4   2  -7    2.10    0.13
  -4  -2   7    2.10    0.12
  -4  -2   7    2.14    0.13
  -4  -2   7    1.92    0.13
  -4  -2   7    2.21    0.13
   3   2  -7   29.57    0.73
   3   2  -7   30.12    0.79
   3   2  -7   29.62    0.72
   3   2  -7   30.10    0.79
   3   2  -7   29.08    0.76
  -3  -2   7   30.80    0.74
  -3  -2   7   29.57    0.80
  -3  -2   7   29.48    0.75
  -3  -2   7   29.42    0.79
   2   2  -7   10.46    0.31
   2   2  -7   10.33    0.29
   2   2  -7   10.41    0.33
   2   2  -7   10.13    0.28
   2   2  -7    9.87    0.32
  -2  -2   7    9.86    0.32
  -2  -2   7   10.10    0.32
  -2  -2   7   10.40    0.29
  -2  -2   7   10.06    0.30
   1   2  -7   41.62    1.05
   1   2  -7   40.37    1.06
   1   2  -7   40.80    0.98
   1   2  -7   39.06    0.97
  -1  -2   7   40.64    0.98
  -1  -2   7   40.57    0.99
  -1  -2   7   40.85    1.06
  -1  -2   7   39.53    1.06
   0   2  -7    7.38    0.27
   0   2  -7    7.41    0.25
   0   2  -7    7.92    0.23
   0   2  -7    7.74    0.26
   0  -2   7    7.90    0.25
   0  -2   7    7.18    0.26
   0  -2   7    7.91    0.27
  -1   2  -7   16.22    0.43
  -1   2  -7   16.22    0.45
  -1   2  -7   15.53    0.48
  -1   2  -7   16.56    0.49
   1  -2   7   16.57    0.49
   1  -2   7   16.24    0.45
   1  -2   7   16.49    0.48
   1  -2   7   15.92    0.44
  -2   2  -7    2.02    0.15
  -2   2  -7    1.96    0.12
  -2   2  -7    2.25    0.16
  -2   2  -7    2.22    0.15
   2  -2   7    2.01    0.16
   2  -2   7    2.04    0.15
   2  -2   7    2.16    0.13
  -3   2  -7    4.14    0.21
  -3   2  -7    4.44    0.22
  -3   2  -7    3.99    0.22
   3  -2   7    3.70    0.23
   3  -2   7    4.35    0.19
   3  -2   7    4.00    0.22
  -4   2  -7    0.02    0.10
  -4   2  -7   -0.02    0.07
  -4   2  -7    0.02    0.10
  -4   2  -7    0.10    0.10
   4  -2   7    0.08    0.11
   4  -2   7    0.07    0.08
   4  -2   7    0.05    0.11
   4  -2   7    0.08    0.09
  -5   2  -7    1.02    0.17
  -5   2  -7    0.76    0.12
  -5   2  -7    0.85    0.16
  -5   2  -7    1.24    0.17
   5  -2   7    1.17    0.19
   5  -2   7    0.91    0.13
   5  -2   7    1.04    0.13
   5  -2   7    0.98    0.16
   7   1  -7   -0.02    0.04
   7   1  -7   -0.07    0.09
   7   1  -7    0.00    0.04
   7   1  -7    0.03    0.09
  -7  -1   7   -0.14    0.10
  -7  -1   7    0.16    0.12
  -7  -1   7    0.08    0.10
  -7  -1   7    0.08    0.11
  -7  -1   7    0.01    0.08
   6   1  -7   -0.05    0.07
   6   1  -7    0.08    0.04
   6   1  -7   -0.08    0.08
   6   1  -7   -0.09    0.05
   6   1  -7    0.06    0.09
   6   1  -7   -0.03    0.07
  -6  -1   7   -0.05    0.06
  -6  -1   7    0.01    0.09
  -6  -1   7    0.12    0.08
  -6  -1   7    0.10    0.08
   5   1  -7    0.61    0.06
   5   1  -7    0.53    0.09
   5   1  -7    0.58    0.06
   5   1  -7    0.45    0.09
   5   1  -7    0.63    0.10
  -5  -1   7    0.43    0.07
  -5  -1   7    0.44    0.09
   4   1  -7    1.58    0.12
   4   1  -7    1.49    0.13
   4   1  -7    1.69    0.13
   4   1  -7    1.46    0.10
   4   1  -7    1.51    0.09
  -4  -1   7    1.31    0.12
  -4  -1   7    1.53    0.11
  -4  -1   7    1.59    0.13
  -4  -1   7    1.36    0.11
   3   1  -7    0.58    0.06
   3   1  -7    0.47    0.07
   3   1  -7    0.42    0.06
   3   1  -7    0.48    0.07
   3   1  -7    0.55    0.06
  -3  -1   7    0.59    0.07
  -3  -1   7    0.39    0.07
  -3  -1   7    0.50    0.06
  -3  -1   7    0.39    0.07
   2   1  -7    5.22    0.17
   2   1  -7    5.22    0.19
   2   1  -7    5.26    0.18
   2   1  -7    5.27    0.20
   2   1  -7    5.14    0.19
  -2  -1   7    5.10    0.19
  -2  -1   7    5.50    0.20
  -2  -1   7    5.06    0.18
  -2  -1   7    5.61    0.20
   1   1  -7    1.43    0.09
   1   1  -7    1.45    0.10
   1   1  -7    1.33    0.08
   1   1  -7    1.37    0.11
  -1  -1   7    1.52    0.09
  -1  -1   7    1.23    0.10
  -1  -1   7    1.35    0.10
  -1  -1   7    1.34    0.10
   0   1  -7    2.05    0.12
   0   1  -7    1.90    0.11
   0   1  -7    2.01    0.10
   0   1  -7    1.92    0.12
   0  -1   7    1.93    0.10
   0  -1   7    1.92    0.12
   0  -1   7    1.78    0.11
   0  -1   7    1.76    0.12
  -1   1  -7    4.09    0.18
  -1   1  -7    4.06    0.15
  -1   1  -7    4.03    0.17
  -1   1  -7    4.05    0.17
   1  -1   7    3.93    0.15
   1  -1   7    4.16    0.18
   1  -1   7    4.24    0.17
   1  -1   7    4.01    0.18
  -2   1  -7    0.92    0.09
  -2   1  -7    0.92    0.10
  -2   1  -7    1.18    0.12
  -2   1  -7    0.70    0.08
   2  -1   7    0.92    0.10
   2  -1   7    0.81    0.09
   2  -1   7    0.80    0.10
  -3   1  -7    2.37    0.17
  -3   1  -7    2.08    0.15
  -3   1  -7    2.10    0.15
   3  -1   7    2.18    0.14
   3  -1   7    2.25    0.16
   3  -1   7    2.04    0.13
   3  -1   7    2.31    0.17
  -4   1  -7    1.46    0.16
  -4   1  -7    1.38    0.15
  -4   1  -7    1.11    0.12
   4  -1   7    1.23    0.11
   4  -1   7    1.48    0.15
   4  -1   7    1.00    0.13
  -5   1  -7    0.49    0.10
  -5   1  -7    0.70    0.13
  -5   1  -7    0.63    0.13
  -5   1  -7    0.56    0.13
   5  -1   7    0.70    0.14
   5  -1   7    0.71    0.10
   5  -1   7    0.58    0.11
   5  -1   7    0.74    0.14
  -6   1  -7    0.67    0.17
  -6   1  -7    0.78    0.18
  -6   1  -7    0.72    0.12
  -6   1  -7    0.52    0.16
   6  -1   7    0.96    0.14
   6  -1   7    0.59    0.17
   6  -1   7    0.46    0.16
   7   0  -7    1.60    0.14
   7   0  -7    1.24    0.14
   7   0  -7    1.77    0.18
  -7   0   7    1.84    0.18
  -7   0   7    1.83    0.17
  -7   0   7    1.62    0.16
  -7   0   7    1.41    0.16
   6   0  -7    5.04    0.24
   6   0  -7    5.36    0.27
   6   0  -7    5.53    0.19
   6   0  -7    5.54    0.20
  -6   0   7    5.15    0.24
  -6   0   7    5.48    0.25
  -6   0   7    5.27    0.27
  -6   0   7    5.90    0.24
   5   0  -7    1.45    0.13
   5   0  -7    1.51    0.15
   5   0  -7    1.61    0.10
   5   0  -7    1.32    0.12
   5   0  -7    1.76    0.15
   5   0  -7    1.43    0.11
  -5   0   7    1.35    0.15
  -5   0   7    1.63    0.15
  -5   0   7    1.41    0.13
  -5   0   7    1.12    0.12
   4   0  -7    5.56    0.22
   4   0  -7    5.41    0.19
   4   0  -7    5.46    0.18
   4   0  -7    5.34    0.22
  -4   0   7    5.80    0.23
  -4   0   7    5.64    0.22
  -4   0   7    5.46    0.21
  -4   0   7    5.62    0.22
   3   0  -7    0.13    0.04
   3   0  -7    0.11    0.05
   3   0  -7    0.15    0.05
   3   0  -7    0.24    0.06
  -3   0   7    0.12    0.05
  -3   0   7    0.11    0.05
  -3   0   7    0.22    0.07
  -3   0   7    0.19    0.05
   2   0  -7    0.00    0.04
   2   0  -7    0.01    0.03
   2   0  -7    0.04    0.04
   2   0  -7    0.06    0.05
   2   0  -7    0.00    0.04
  -2   0   7    0.02    0.05
  -2   0   7    0.06    0.04
  -2   0   7    0.10    0.04
  -2   0   7   -0.02    0.03
   1   0  -7   15.21    0.42
   1   0  -7   15.54    0.41
   1   0  -7   16.09    0.45
   1   0  -7   15.39    0.45
  -1   0   7   16.04    0.42
  -1   0   7   15.36    0.45
  -1   0   7   15.54    0.45
  -1   0   7   15.52    0.43
  -1   0   7   16.56    0.48
   0   0  -7    3.70    0.14
   0   0  -7    3.57    0.15
   0   0  -7    3.66    0.17
   0   0  -7    3.66    0.16
   0   0   7    3.79    0.15
   0   0   7    3.89    0.17
   0   0   7    3.63    0.14
   0   0   7    3.88    0.16
  -1   0  -7   22.39    0.60
  -1   0  -7   20.67    0.59
  -1   0  -7   21.30    0.56
  -1   0  -7   21.35    0.55
   1   0   7   22.06    0.60
   1   0   7   22.41    0.61
   1   0   7   21.03    0.56
   1   0   7   21.95    0.55
  -2   0  -7    2.63    0.13
  -2   0  -7    2.81    0.15
  -2   0  -7    2.99    0.15
  -2   0  -7    2.78    0.15
   2   0   7    2.87    0.14
   2   0   7    2.97    0.13
   2   0   7    2.83    0.15
   2   0   7    2.84    0.15
  -3   0  -7    4.57    0.21
  -3   0  -7    4.78    0.19
  -3   0  -7    4.64    0.22
  -3   0  -7    5.15    0.22
   3   0   7    4.80    0.18
   3   0   7    4.80    0.21
   3   0   7    5.40    0.20
   3   0   7    5.24    0.22
  -4   0  -7    1.48    0.14
  -4   0  -7    1.37    0.11
  -4   0  -7    1.34    0.15
  -4   0  -7    1.23    0.14
   4   0   7    1.48    0.15
   4   0   7    1.39    0.11
   4   0   7    1.10    0.12
  -5   0  -7    0.51    0.09
  -5   0  -7    0.58    0.12
  -5   0  -7    0.37    0.11
  -5   0  -7    0.61    0.12
   5   0   7    0.40    0.11
   5   0   7    0.25    0.08
   5   0   7    0.18    0.08
   5   0   7    0.36    0.12
   5   0   7    0.53    0.06
  -6   0  -7    0.31    0.13
  -6   0  -7    0.23    0.13
  -6   0  -7    0.34    0.14
  -6   0  -7    0.41    0.11
   6   0   7    0.55    0.11
   6   0   7    0.41    0.14
   6   0   7    0.53    0.14
   6   0   7    0.29    0.09
   7  -1  -7    1.46    0.17
   7  -1  -7    1.09    0.14
   7  -1  -7    1.10    0.12
  -7   1   7    1.18    0.19
  -7   1   7    0.57    0.14
  -7   1   7    1.10    0.17
  -7   1   7    1.17    0.17
   6  -1  -7    0.63    0.12
   6  -1  -7    0.65    0.09
   6  -1  -7    0.74    0.11
   6  -1  -7    0.62    0.11
  -6   1   7    0.52    0.13
  -6   1   7    0.48    0.10
  -6   1   7    0.72    0.12
  -6   1   7    0.63    0.11
   5  -1  -7    6.34    0.22
   5  -1  -7    6.29    0.27
   5  -1  -7    6.45    0.26
   5  -1  -7    6.40    0.22
   5  -1  -7    6.08    0.25
  -5   1   7    6.01    0.25
  -5   1   7    5.88    0.27
  -5   1   7    6.19    0.25
  -5   1   7    6.24    0.25
   4  -1  -7    3.10    0.13
   4  -1  -7    2.95    0.16
   4  -1  -7    2.92    0.15
   4  -1  -7    2.88    0.17
   4  -1  -7    2.85    0.16
  -4   1   7    2.88    0.18
  -4   1   7    2.99    0.16
  -4   1   7    2.67    0.16
  -4   1   7    3.14    0.17
   3  -1  -7   23.70    0.62
   3  -1  -7   23.47    0.66
   3  -1  -7   24.44    0.60
   3  -1  -7   24.46    0.66
   3  -1  -7   23.81    0.61
  -3   1   7   23.84    0.62
  -3   1   7   22.92    0.65
  -3   1   7   22.74    0.66
  -3   1   7   24.36    0.62
   2  -1  -7    7.81    0.24
   2  -1  -7    7.73    0.27
   2  -1  -7    7.81    0.23
   2  -1  -7    8.07    0.26
   2  -1  -7    7.82    0.24
  -2   1   7    7.63    0.24
  -2   1   7    7.90    0.27
  -2   1   7    7.63    0.26
  -2   1   7    7.46    0.25
   1  -1  -7   25.04    0.67
   1  -1  -7   25.67    0.67
   1  -1  -7   24.50    0.62
   1  -1  -7   24.51    0.61
  -1   1   7   23.74    0.62
  -1   1   7   25.31    0.63
  -1   1   7   23.51    0.67
  -1   1   7   24.31    0.66
   0  -1  -7    5.26    0.17
   0  -1  -7    5.08    0.18
   0  -1  -7    5.46    0.21
   0  -1  -7    5.56    0.20
   0   1   7    5.40    0.19
   0   1   7    5.50    0.19
   0   1   7    5.23    0.20
   0   1   7    5.17    0.18
   0   1   7    5.25    0.20
  -1  -1  -7    3.46    0.15
  -1  -1  -7    3.66    0.16
  -1  -1  -7    3.48    0.14
  -1  -1  -7    3.69    0.17
   1   1   7    3.82    0.15
   1   1   7    3.66    0.16
   1   1   7    3.75    0.15
   1   1   7    3.71    0.16
   1   1   7    3.53    0.14
  -2  -1  -7   -0.04    0.04
  -2  -1  -7    0.03    0.04
  -2  -1  -7    0.08    0.05
  -2  -1  -7   -0.03    0.05
   2   1   7    0.02    0.03
   2   1   7    0.00    0.05
   2   1   7    0.06    0.04
   2   1   7   -0.01    0.04
  -3  -1  -7    0.00    0.05
  -3  -1  -7    0.02    0.04
  -3  -1  -7    0.03    0.05
  -3  -1  -7   -0.06    0.05
   3   1   7   -0.02    0.04
   3   1   7    0.02    0.05
   3   1   7   -0.05    0.06
   3   1   7    0.04    0.04
  -4  -1  -7    0.11    0.07
  -4  -1  -7    0.07    0.07
  -4  -1  -7    0.15    0.06
   4   1   7    0.09    0.05
   4   1   7    0.04    0.08
   4   1   7    0.06    0.05
  -5  -1  -7    0.22    0.09
  -5  -1  -7    0.32    0.09
  -5  -1  -7    0.32    0.07
  -5  -1  -7    0.29    0.09
   5   1   7    0.22    0.09
   5   1   7    0.27    0.09
   5   1   7    0.29    0.08
   5   1   7    0.33    0.06
  -6  -1  -7   -0.03    0.11
  -6  -1  -7   -0.06    0.10
  -6  -1  -7    0.05    0.09
  -6  -1  -7    0.09    0.10
   6   1   7    0.04    0.08
   6   1   7    0.00    0.07
   6   1   7    0.04    0.10
   6   1   7    0.08    0.11
   6   1   7    0.03    0.05
   6   1   7   -0.01    0.08
  -7  -1  -7    0.27    0.16
  -7  -1  -7    0.37    0.14
  -7  -1  -7    0.39    0.13
  -7  -1  -7    0.15    0.15
   7   1   7    0.22    0.14
   7   1   7    0.10    0.15
   7   1   7    0.20    0.10
   7   1   7    0.26    0.10
   6  -2  -7    0.72    0.14
   6  -2  -7    0.89    0.14
   6  -2  -7    0.27    0.13
   6  -2  -7    0.57    0.11
  -6   2   7    0.78    0.16
  -6   2   7    0.52    0.13
  -6   2   7    0.56    0.12
   5  -2  -7    0.88    0.09
   5  -2  -7    0.89    0.12
   5  -2  -7    0.84    0.10
   5  -2  -7    0.82    0.11
   5  -2  -7    1.01    0.13
  -5   2   7    0.80    0.11
  -5   2   7    0.74    0.12
  -5   2   7    0.61    0.10
  -5   2   7    0.90    0.11
   4  -2  -7    2.63    0.16
   4  -2  -7    2.74    0.14
   4  -2  -7    3.06    0.18
   4  -2  -7    2.58    0.17
  -4   2   7    2.67    0.16
  -4   2   7    2.53    0.16
  -4   2   7    2.58    0.18
  -4   2   7    2.87    0.17
   3  -2  -7    1.26    0.13
   3  -2  -7    1.06    0.11
   3  -2  -7    1.25    0.11
   3  -2  -7    1.12    0.10
   3  -2  -7    1.16    0.09
  -3   2   7    1.13    0.11
  -3   2   7    1.11    0.11
  -3   2   7    1.17    0.11
  -3   2   7    1.14    0.12
   2  -2  -7    1.11    0.09
   2  -2  -7    1.13    0.09
   2  -2  -7    1.20    0.10
   2  -2  -7    1.10    0.11
   2  -2  -7    1.10    0.11
  -2   2   7    1.19    0.10
  -2   2   7    1.18    0.10
  -2   2   7    1.24    0.11
  -2   2   7    1.16    0.11
   1  -2  -7    0.15    0.05
   1  -2  -7    0.06    0.04
   1  -2  -7    0.13    0.05
   1  -2  -7    0.09    0.05
  -1   2   7    0.10    0.04
  -1   2   7    0.16    0.05
  -1   2   7    0.08    0.04
  -1   2   7    0.10    0.05
   0  -2  -7    3.33    0.13
   0  -2  -7    3.50    0.14
   0  -2  -7    3.36    0.15
   0  -2  -7    3.47    0.16
   0   2   7    3.54    0.14
   0   2   7    3.39    0.15
   0   2   7    3.15    0.14
   0   2   7    3.21    0.15
  -1  -2  -7    2.51    0.11
  -1  -2  -7    2.58    0.12
  -1  -2  -7    2.39    0.13
  -1  -2  -7    2.37    0.13
   1   2   7    2.57    0.11
   1   2   7    2.52    0.12
   1   2   7    2.67    0.13
   1   2   7    2.35    0.13
  -2  -2  -7    9.75    0.33
  -2  -2  -7   10.53    0.33
  -2  -2  -7   10.25    0.30
  -2  -2  -7   10.79    0.31
   2   2   7   10.51    0.33
   2   2   7   10.67    0.30
   2   2   7   10.40    0.37
   2   2   7   10.84    0.30
   2   2   7   10.86    0.33
  -3  -2  -7    2.09    0.13
  -3  -2  -7    2.11    0.13
  -3  -2  -7    2.06    0.13
  -3  -2  -7    1.82    0.11
   3   2   7    1.89    0.12
   3   2   7    1.94    0.11
   3   2   7    2.00    0.11
   3   2   7    2.18    0.13
   3   2   7    2.16    0.13
  -4  -2  -7    7.40    0.26
  -4  -2  -7    7.02    0.23
  -4  -2  -7    7.55    0.26
   4   2   7    6.71    0.29
   4   2   7    7.28    0.27
   4   2   7    7.21    0.23
   4   2   7    7.19    0.23
  -5  -2  -7    0.11    0.07
  -5  -2  -7    0.09    0.06
  -5  -2  -7    0.07    0.07
  -5  -2  -7    0.04    0.07
   5   2   7    0.08    0.05
   5   2   7    0.11    0.08
   5   2   7    0.11    0.07
   5   2   7    0.15    0.06
   5   2   7    0.14    0.05
   5   2   7    0.11    0.08
  -6  -2  -7    3.04    0.20
  -6  -2  -7    2.73    0.17
  -6  -2  -7    2.73    0.20
  -6  -2  -7    2.93    0.21
   6   2   7    2.13    0.19
   6   2   7    2.72    0.20
   6   2   7    2.85    0.16
   6   2   7    2.67    0.20
   6   2   7    2.69    0.13
   6   2   7    2.80    0.15
  -7  -2  -7   -0.07    0.10
  -7  -2  -7    0.18    0.11
  -7  -2  -7   -0.02    0.12
  -7  -2  -7   -0.05    0.13
   7   2   7    0.00    0.08
   7   2   7    0.02    0.08
   7   2   7    0.13    0.13
   7   2   7   -0.09    0.12
   7   2   7    0.02    0.08
   6  -3  -7    0.49    0.16
   6  -3  -7    0.88    0.14
   6  -3  -7    0.68    0.13
   6  -3  -7    0.65    0.12
   6  -3  -7    0.33    0.15
  -6   3   7    0.65    0.14
  -6   3   7    0.65    0.15
  -6   3   7    0.72    0.17
  -6   3   7    0.70    0.16
   5  -3  -7    0.89    0.14
   5  -3  -7    0.76    0.11
   5  -3  -7    0.90    0.13
   5  -3  -7    0.89    0.12
  -5   3   7    0.94    0.14
  -5   3   7    1.00    0.15
  -5   3   7    0.83    0.12
  -5   3   7    0.98    0.13
   4  -3  -7    1.11    0.11
   4  -3  -7    1.35    0.15
   4  -3  -7    1.22    0.13
   4  -3  -7    1.14    0.11
   4  -3  -7    1.11    0.11
  -4   3   7    1.09    0.13
  -4   3   7    1.04    0.11
  -4   3   7    1.00    0.11
  -4   3   7    1.19    0.13
   3  -3  -7    0.24    0.07
   3  -3  -7    0.38    0.07
   3  -3  -7    0.44    0.08
  -3   3   7    0.40    0.08
  -3   3   7    0.48    0.09
  -3   3   7    0.26    0.07
   2  -3  -7    1.84    0.12
   2  -3  -7    1.53    0.11
   2  -3  -7    1.71    0.14
   2  -3  -7    1.74    0.12
   2  -3  -7    1.75    0.10
  -2   3   7    1.93    0.12
  -2   3   7    1.72    0.13
  -2   3   7    1.88    0.13
  -2   3   7    1.59    0.12
   1  -3  -7    2.93    0.13
   1  -3  -7    3.17    0.16
   1  -3  -7    3.27    0.12
   1  -3  -7    3.21    0.13
   1  -3  -7    3.26    0.15
   1  -3  -7    3.00    0.15
  -1   3   7    3.06    0.15
  -1   3   7    3.08    0.14
  -1   3   7    3.01    0.16
  -1   3   7    3.18    0.14
   0  -3  -7    0.88    0.09
   0  -3  -7    0.83    0.09
   0  -3  -7    0.82    0.07
   0  -3  -7    0.94    0.09
   0   3   7    0.86    0.08
   0   3   7    1.01    0.10
   0   3   7    0.80    0.08
   0   3   7    0.74    0.09
  -1  -3  -7    8.39    0.25
  -1  -3  -7    8.37    0.28
  -1  -3  -7    8.14    0.27
  -1  -3  -7    8.58    0.26
   1   3   7    8.14    0.27
   1   3   7    7.81    0.25
   1   3   7    8.63    0.27
   1   3   7    8.29    0.25
  -2  -3  -7    0.66    0.08
  -2  -3  -7    0.62    0.07
  -2  -3  -7    0.66    0.07
   2   3   7    0.78    0.07
   2   3   7    0.78    0.08
   2   3   7    0.65    0.07
   2   3   7    0.71    0.08
  -3  -3  -7    3.00    0.13
  -3  -3  -7    3.01    0.14
  -3  -3  -7    3.19    0.15
  -3  -3  -7    2.98    0.15
   3   3   7    3.23    0.13
   3   3   7    2.84    0.15
   3   3   7    3.20    0.13
   3   3   7    3.04    0.15
  -4  -3  -7    0.83    0.08
  -4  -3  -7    0.95    0.10
  -4  -3  -7    0.92    0.10
   4   3   7    0.77    0.09
   4   3   7    0.82    0.08
   4   3   7    0.83    0.10
   4   3   7    0.85    0.09
  -5  -3  -7    0.96    0.10
  -5  -3  -7    0.79    0.08
  -5  -3  -7    1.16    0.13
   5   3   7    1.13    0.12
   5   3   7    1.01    0.09
   5   3   7    0.90    0.09
   5   3   7    0.97    0.09
   5   3   7    0.90    0.12
  -6  -3  -7    0.10    0.07
  -6  -3  -7   -0.02    0.08
  -6  -3  -7    0.23    0.08
  -6  -3  -7    0.16    0.08
   6   3   7    0.17    0.06
   6   3   7    0.06    0.08
   6   3   7    0.17    0.06
   6   3   7    0.17    0.06
   6   3   7    0.20    0.09
   6   3   7   -0.06    0.08
  -7  -3  -7    0.26    0.11
  -7  -3  -7    0.18    0.11
  -7  -3  -7    0.34    0.13
  -7  -3  -7    0.41    0.10
   7   3   7    0.28    0.07
   7   3   7    0.31    0.11
   7   3   7    0.16    0.10
   7   3   7    0.10    0.10
   7   3   7    0.37    0.08
   5  -4  -7    0.10    0.10
   5  -4  -7    0.08    0.14
   5  -4  -7    0.14    0.10
   5  -4  -7   -0.05    0.12
  -5   4   7   -0.04    0.14
  -5   4   7    0.27    0.13
  -5   4   7    0.17    0.11
  -5   4   7    0.07    0.11
   4  -4  -7    0.06    0.10
   4  -4  -7    0.03    0.07
   4  -4  -7    0.03    0.07
   4  -4  -7   -0.14    0.09
   4  -4  -7   -0.05    0.08
  -4   4   7    0.06    0.09
  -4   4   7    0.10    0.09
  -4   4   7   -0.05    0.09
  -4   4   7    0.05    0.11
   3  -4  -7    1.67    0.14
   3  -4  -7    1.57    0.12
   3  -4  -7    1.61    0.16
   3  -4  -7    1.46    0.16
  -3   4   7    1.52    0.14
  -3   4   7    1.75    0.15
  -3   4   7    1.45    0.17
   2  -4  -7    3.23    0.14
   2  -4  -7    3.02    0.16
   2  -4  -7    3.11    0.17
   2  -4  -7    3.31    0.18
  -2   4   7    3.26    0.19
  -2   4   7    3.21    0.18
  -2   4   7    3.20    0.16
  -2   4   7    3.11    0.17
   1  -4  -7    5.07    0.20
   1  -4  -7    4.97    0.17
   1  -4  -7    5.10    0.21
   1  -4  -7    5.04    0.21
   1  -4  -7    4.93    0.19
  -1   4   7    5.43    0.21
  -1   4   7    5.37    0.22
  -1   4   7    4.97    0.19
  -1   4   7    4.96    0.20
   0  -4  -7    5.51    0.19
   0  -4  -7    5.27    0.21
   0  -4  -7    5.32    0.21
   0  -4  -7    5.20    0.19
   0   4   7    5.51    0.19
   0   4   7    5.20    0.21
   0   4   7    5.61    0.21
   0   4   7    5.39    0.19
  -1  -4  -7    7.78    0.27
  -1  -4  -7    7.41    0.23
  -1  -4  -7    7.85    0.25
  -1  -4  -7    7.36    0.26
   1   4   7    7.98    0.24
   1   4   7    7.69    0.26
   1   4   7    8.13    0.26
   1   4   7    7.50    0.24
  -2  -4  -7    0.58    0.07
  -2  -4  -7    0.71    0.08
  -2  -4  -7    0.73    0.07
  -2  -4  -7    0.68    0.08
   2   4   7    0.79    0.09
   2   4   7    0.58    0.06
   2   4   7    0.61    0.08
   2   4   7    0.69    0.07
  -3  -4  -7    8.30    0.28
  -3  -4  -7    8.34    0.26
  -3  -4  -7    8.35    0.28
  -3  -4  -7    8.26    0.25
   3   4   7    8.52    0.24
   3   4   7    8.35    0.25
   3   4   7    8.32    0.28
   3   4   7    8.00    0.27
  -4  -4  -7    0.00    0.04
  -4  -4  -7    0.08    0.06
  -4  -4  -7    0.01    0.05
  -4  -4  -7   -0.08    0.04
   4   4   7   -0.04    0.03
   4   4   7    0.03    0.04
   4   4   7    0.00    0.05
  -5  -4  -7    2.40    0.15
  -5  -4  -7    1.94    0.15
  -5  -4  -7    1.95    0.14
  -5  -4  -7    2.18    0.13
   5   4   7    2.23    0.11
   5   4   7    2.17    0.13
   5   4   7    2.37    0.15
   5   4   7    2.15    0.11
  -6  -4  -7   -0.06    0.06
  -6  -4  -7    0.02    0.07
  -6  -4  -7    0.10    0.08
  -6  -4  -7   -0.08    0.07
   6   4   7    0.00    0.04
   6   4   7   -0.02    0.04
   6   4   7   -0.02    0.06
   6   4   7   -0.02    0.08
  -7  -4  -7   -0.01    0.09
  -7  -4  -7   -0.04    0.08
  -7  -4  -7    0.06    0.10
   7   4   7   -0.02    0.10
   7   4   7   -0.08    0.08
   7   4   7    0.05    0.08
  -8  -4  -7    0.20    0.14
   5  -5  -7    1.21    0.20
   5  -5  -7    1.33    0.16
   5  -5  -7    1.50    0.17
   5  -5  -7    1.31    0.18
  -5   5   7    1.19    0.20
  -5   5   7    1.56    0.18
  -5   5   7    1.31    0.19
  -5   5   7    0.91    0.15
   4  -5  -7    3.50    0.22
   4  -5  -7    4.49    0.28
   4  -5  -7    3.86    0.25
   4  -5  -7    4.08    0.23
  -4   5   7    3.30    0.24
  -4   5   7    3.68    0.28
  -4   5   7    3.56    0.24
   3  -5  -7    5.92    0.24
   3  -5  -7    5.31    0.23
   3  -5  -7    5.33    0.20
   3  -5  -7    5.25    0.27
  -3   5   7    5.37    0.25
  -3   5   7    5.65    0.25
  -3   5   7    5.00    0.27
   2  -5  -7   12.25    0.41
   2  -5  -7   13.25    0.42
   2  -5  -7   12.66    0.39
   2  -5  -7   12.54    0.35
  -2   5   7   12.59    0.42
  -2   5   7   13.25    0.42
  -2   5   7   12.52    0.38
   1  -5  -7    5.60    0.23
   1  -5  -7    5.18    0.21
   1  -5  -7    5.37    0.18
   1  -5  -7    5.81    0.24
  -1   5   7    5.58    0.23
  -1   5   7    5.17    0.23
  -1   5   7    5.87    0.22
   0  -5  -7   19.80    0.57
   0  -5  -7   20.31    0.57
   0  -5  -7   20.27    0.53
   0  -5  -7   19.74    0.54
   0   5   7   19.22    0.52
   0   5   7   20.09    0.58
   0   5   7   20.62    0.57
   0   5   7   20.12    0.53
  -1  -5  -7    0.23    0.05
  -1  -5  -7    0.27    0.06
  -1  -5  -7    0.22    0.06
  -1  -5  -7    0.30    0.07
   1   5   7    0.24    0.05
   1   5   7    0.23    0.05
   1   5   7    0.21    0.06
   1   5   7    0.40    0.07
  -2  -5  -7   20.04    0.57
  -2  -5  -7   20.08    0.54
  -2  -5  -7   20.81    0.53
  -2  -5  -7   20.27    0.57
   2   5   7   20.95    0.52
   2   5   7   20.30    0.57
   2   5   7   19.77    0.57
   2   5   7   20.86    0.52
  -3  -5  -7    0.02    0.06
  -3  -5  -7    0.05    0.05
  -3  -5  -7    0.15    0.05
  -3  -5  -7    0.04    0.05
   3   5   7    0.15    0.04
   3   5   7    0.09    0.04
   3   5   7    0.04    0.05
   3   5   7    0.07    0.05
  -4  -5  -7    8.64    0.28
  -4  -5  -7    8.90    0.29
  -4  -5  -7    8.86    0.26
  -4  -5  -7    8.77    0.30
   4   5   7    8.81    0.24
   4   5   7    8.59    0.29
   4   5   7    8.94    0.24
  -5  -5  -7    0.04    0.05
  -5  -5  -7    0.05    0.06
  -5  -5  -7   -0.02    0.06
   5   5   7    0.03    0.03
   5   5   7    0.03    0.05
   5   5   7    0.04    0.03
   5   5   7    0.04    0.06
  -6  -5  -7    2.27    0.18
  -6  -5  -7    1.94    0.15
  -6  -5  -7    2.10    0.16
  -6  -5  -7    2.10    0.14
   6   5   7    2.06    0.16
   6   5   7    1.97    0.14
  -7  -5  -7    0.01    0.08
  -7  -5  -7   -0.18    0.09
  -7  -5  -7   -0.09    0.08
  -7  -5  -7    0.02    0.10
   7   5   7   -0.10    0.08
   7   5   7    0.09    0.09
   7   5   7    0.05    0.07
  -8  -5  -7    0.49    0.13
  -8  -5  -7    0.45    0.14
  -8  -5  -7    0.28    0.14
  -8  -5  -7    0.42    0.12
   8   5   7    0.53    0.10
   4  -6  -7    0.34    0.15
   4  -6  -7    0.60    0.13
   4  -6  -7    0.42    0.12
   4  -6  -7    0.89    0.17
  -4   6   7    0.20    0.12
  -4   6   7    0.63    0.17
  -4   6   7    0.84    0.16
  -4   6   7    0.52    0.17
   3  -6  -7    0.06    0.10
   3  -6  -7   -0.11    0.11
   3  -6  -7    0.00    0.08
   3  -6  -7   -0.05    0.09
  -3   6   7    0.05    0.09
  -3   6   7    0.02    0.10
  -3   6   7    0.06    0.12
   2  -6  -7    0.53    0.12
   2  -6  -7    0.50    0.06
   2  -6  -7    0.46    0.09
   2  -6  -7    0.44    0.10
  -2   6   7    0.41    0.09
  -2   6   7    0.55    0.11
  -2   6   7    0.52    0.10
  -2   6   7    0.60    0.12
   1  -6  -7    0.34    0.08
   1  -6  -7    0.40    0.09
   1  -6  -7    0.32    0.09
   1  -6  -7    0.44    0.05
  -1   6   7    0.45    0.08
  -1   6   7    0.43    0.08
  -1   6   7    0.36    0.10
  -1   6   7    0.34    0.08
   0  -6  -7    0.04    0.06
   0  -6  -7    0.06    0.06
   0  -6  -7    0.07    0.06
   0  -6  -7    0.08    0.04
   0   6   7    0.02    0.06
   0   6   7    0.04    0.05
   0   6   7    0.01    0.05
  -1  -6  -7    1.20    0.11
  -1  -6  -7    1.15    0.12
  -1  -6  -7    1.03    0.12
   1   6   7    1.02    0.09
   1   6   7    0.96    0.10
   1   6   7    1.30    0.11
  -2  -6  -7    0.10    0.05
  -2  -6  -7    0.11    0.06
  -2  -6  -7    0.11    0.06
  -2  -6  -7    0.08    0.05
   2   6   7    0.02    0.05
   2   6   7    0.12    0.05
   2   6   7    0.06    0.04
   2   6   7    0.04    0.04
  -3  -6  -7    1.24    0.12
  -3  -6  -7    1.35    0.10
  -3  -6  -7    1.15    0.11
  -3  -6  -7    1.08    0.11
   3   6   7    1.41    0.11
   3   6   7    1.22    0.08
   3   6   7    1.20    0.08
  -4  -6  -7    0.16    0.06
  -4  -6  -7    0.20    0.06
  -4  -6  -7    0.14    0.05
   4   6   7    0.19    0.04
   4   6   7    0.15    0.04
   4   6   7    0.20    0.07
   4   6   7    0.16    0.06
  -5  -6  -7    0.80    0.09
  -5  -6  -7    0.77    0.08
  -5  -6  -7    0.83    0.09
  -5  -6  -7    0.72    0.09
   5   6   7    0.56    0.08
   5   6   7    0.72    0.10
   5   6   7    0.79    0.09
  -6  -6  -7    0.49    0.09
  -6  -6  -7    0.37    0.09
  -6  -6  -7    0.38    0.09
   6   6   7    0.28    0.08
   6   6   7    0.31    0.08
  -7  -6  -7    0.08    0.09
  -7  -6  -7    0.01    0.08
  -7  -6  -7    0.03    0.10
  -7  -6  -7    0.03    0.08
   7   6   7   -0.12    0.07
   7   6   7   -0.11    0.08
   3  -7  -7    1.21    0.18
   3  -7  -7    1.20    0.18
   3  -7  -7    1.37    0.16
   3  -7  -7    1.38    0.15
  -3   7   7    1.10    0.16
  -3   7   7    1.34    0.20
  -3   7   7    1.38    0.19
  -3   7   7    1.48    0.16
   2  -7  -7    1.61    0.18
   2  -7  -7    1.16    0.15
   2  -7  -7    1.23    0.15
   2  -7  -7    1.35    0.14
  -2   7   7    1.05    0.13
  -2   7   7    1.22    0.14
  -2   7   7    1.22    0.16
   1  -7  -7    5.71    0.25
   1  -7  -7    5.58    0.24
   1  -7  -7    5.36    0.27
   1  -7  -7    5.42    0.26
   1  -7  -7    5.42    0.17
  -1   7   7    5.52    0.26
  -1   7   7    5.76    0.24
  -1   7   7    5.92    0.28
   0  -7  -7    5.73    0.23
   0  -7  -7    5.56    0.17
   0  -7  -7    5.93    0.26
   0  -7  -7    5.43    0.25
   0  -7  -7    5.67    0.23
   0   7   7    5.62    0.26
   0   7   7    5.74    0.24
   0   7   7    5.86    0.23
  -1  -7  -7    5.00    0.21
  -1  -7  -7    5.15    0.23
  -1  -7  -7    5.01    0.22
  -1  -7  -7    5.19    0.23
   1   7   7    5.03    0.22
   1   7   7    5.00    0.20
   1   7   7    5.43    0.22
   1   7   7    5.07    0.20
  -2  -7  -7    6.94    0.26
  -2  -7  -7    6.50    0.25
  -2  -7  -7    6.75    0.26
   2   7   7    7.03    0.25
   2   7   7    6.56    0.22
   2   7   7    6.58    0.22
  -3  -7  -7    0.43    0.07
  -3  -7  -7    0.40    0.08
  -3  -7  -7    0.34    0.07
  -3  -7  -7    0.45    0.07
   3   7   7    0.40    0.05
   3   7   7    0.45    0.06
   3   7   7    0.42    0.09
  -4  -7  -7    4.64    0.20
  -4  -7  -7    4.36    0.19
  -4  -7  -7    4.39    0.18
  -4  -7  -7    4.53    0.20
   4   7   7    4.21    0.18
  -5  -7  -7    0.11    0.07
  -5  -7  -7    0.07    0.07
  -5  -7  -7    0.07    0.06
  -5  -7  -7    0.12    0.06
   5   7   7   -0.08    0.05
   5   7   7    0.01    0.06
   5   7   7    0.09    0.07
  -6  -7  -7    1.21    0.14
  -6  -7  -7    1.44    0.13
  -6  -7  -7    1.31    0.12
  -6  -7  -7    1.44    0.14
   6   7   7    1.08    0.13
   6   7   7    1.35    0.13
  -7  -7  -7    0.16    0.09
  -7  -7  -7    0.16    0.09
  -7  -7  -7    0.13    0.11
  -7  -7  -7    0.16    0.09
   7   7   7    0.05    0.07
   7   7   7    0.04    0.08
   7   7   7    0.17    0.09
   2  -8  -7    0.35    0.13
   2  -8  -7    0.34    0.15
   2  -8  -7    0.10    0.12
  -2   8   7    0.37    0.13
  -2   8   7    0.24    0.16
  -2   8   7    0.08    0.17
  -2   8   7    0.18    0.13
   1  -8  -7    0.77    0.14
   1  -8  -7    0.83    0.12
   1  -8  -7    0.67    0.13
   1  -8  -7    0.62    0.13
  -1   8   7    0.73    0.12
  -1   8   7    0.57    0.12
  -1   8   7    0.67    0.15
  -1   8   7    0.85    0.16
   0  -8  -7    0.21    0.09
   0  -8  -7    0.32    0.10
   0  -8  -7    0.12    0.10
   0  -8  -7    0.24    0.09
   0   8   7    0.28    0.10
   0   8   7    0.27    0.09
   0   8   7    0.26    0.09
   0   8   7    0.28    0.10
  -1  -8  -7    0.04    0.07
  -1  -8  -7    0.09    0.08
  -1  -8  -7    0.00    0.04
  -1  -8  -7    0.03    0.08
  -1  -8  -7    0.01    0.08
   1   8   7    0.04    0.09
   1   8   7   -0.09    0.07
   1   8   7   -0.05    0.07
   1   8   7   -0.07    0.06
   1   8   7    0.06    0.07
  -2  -8  -7   -0.08    0.07
  -2  -8  -7   -0.03    0.07
  -2  -8  -7    0.02    0.07
  -2  -8  -7   -0.04    0.07
   2   8   7   -0.02    0.05
   2   8   7   -0.01    0.08
   2   8   7    0.14    0.07
   2   8   7   -0.02    0.05
   2   8   7    0.04    0.08
  -3  -8  -7    0.67    0.09
  -3  -8  -7    0.56    0.09
  -3  -8  -7    0.68    0.09
  -3  -8  -7    0.70    0.09
   3   8   7    0.56    0.10
   3   8   7    0.61    0.06
   3   8   7    0.61    0.06
  -4  -8  -7    0.06    0.07
  -4  -8  -7    0.10    0.08
  -4  -8  -7   -0.06    0.06
   4   8   7    0.12    0.06
   4   8   7    0.06    0.07
   4   8   7    0.02    0.08
  -5  -8  -7    0.84    0.10
  -5  -8  -7    0.84    0.09
  -5  -8  -7    0.83    0.10
   5   8   7    0.88    0.13
   5   8   7    0.83    0.09
  -6  -8  -7    0.87    0.10
  -6  -8  -7    0.67    0.10
  -6  -8  -7    0.71    0.10
   6   8   7    0.76    0.13
   6   8   7    0.76    0.09
  -7  -8  -7    0.39    0.11
  -7  -8  -7    0.45    0.10
  -7  -8  -7    0.53    0.09
  -7  -8  -7    0.54    0.10
   7   8   7    0.48    0.08
   7   8   7    0.70    0.13
   1  -9  -7    0.17    0.14
   1  -9  -7   -0.02    0.13
   1  -9  -7    0.41    0.15
   1  -9  -7    0.00    0.14
  -1   9   7    0.01    0.17
  -1   9   7    0.23    0.14
  -1   9   7    0.10    0.16
  -1   9   7    0.06    0.10
  -1   9   7    0.16    0.13
   0  -9  -7    0.17    0.13
   0  -9  -7   -0.22    0.11
   0  -9  -7    0.00    0.12
   0  -9  -7    0.16    0.12
   0   9   7    0.12    0.09
   0   9   7    0.11    0.13
   0   9   7    0.17    0.10
   0   9   7    0.31    0.15
  -1  -9  -7    0.72    0.13
  -1  -9  -7    0.68    0.11
  -1  -9  -7    0.45    0.11
  -1  -9  -7    0.46    0.11
   1   9   7    0.45    0.10
   1   9   7    0.53    0.13
   1   9   7    0.09    0.12
   1   9   7    0.37    0.09
  -2  -9  -7    0.59    0.12
  -2  -9  -7    0.71    0.11
  -2  -9  -7    0.65    0.12
  -2  -9  -7    0.62    0.11
   2   9   7    0.73    0.13
   2   9   7    0.35    0.07
   2   9   7    0.81    0.09
   2   9   7    0.65    0.11
  -3  -9  -7    0.26    0.09
  -3  -9  -7    0.25    0.09
  -3  -9  -7    0.09    0.09
   3   9   7    0.18    0.08
   3   9   7    0.03    0.04
   3   9   7    0.12    0.08
   3   9   7    0.13    0.09
  -4  -9  -7    0.86    0.11
  -4  -9  -7    0.79    0.11
  -4  -9  -7    0.75    0.11
  -4  -9  -7    0.76    0.11
   4   9   7    1.03    0.11
   4   9   7    0.95    0.13
  -5  -9  -7    0.16    0.09
  -5  -9  -7    0.11    0.08
  -5  -9  -7    0.08    0.09
  -5  -9  -7    0.03    0.07
   5   9   7    0.07    0.07
   5   9   7   -0.10    0.06
   5   9   7    0.02    0.08
  -6  -9  -7    0.93    0.11
  -6  -9  -7    0.94    0.12
  -6  -9  -7    0.92    0.10
  -6  -9  -7    0.80    0.11
   6   9   7    0.61    0.13
   6   9   7    0.93    0.10
  -1 -10  -7    0.06    0.14
  -1 -10  -7    0.06    0.13
  -1 -10  -7    0.32    0.13
  -1 -10  -7    0.29    0.14
   1  10   7    0.19    0.14
   1  10   7   -0.04    0.14
   1  10   7    0.27    0.11
   1  10   7    0.20    0.11
  -2 -10  -7   -0.02    0.11
  -2 -10  -7   -0.06    0.10
  -2 -10  -7    0.24    0.11
  -2 -10  -7    0.17    0.11
   2  10   7   -0.07    0.08
   2  10   7    0.06    0.09
   2  10   7    0.04    0.07
   2  10   7   -0.10    0.13
   2  10   7    0.10    0.11
  -3 -10  -7    0.24    0.11
  -3 -10  -7    0.21    0.11
  -3 -10  -7    0.26    0.11
  -3 -10  -7    0.12    0.06
   3  10   7    0.24    0.11
   3  10   7   -0.18    0.11
   3  10   7    0.37    0.12
  -4 -10  -7    0.17    0.09
  -4 -10  -7    0.23    0.11
  -4 -10  -7    0.28    0.09
  -4 -10  -7    0.29    0.10
  -4 -10  -7    0.08    0.11
   4  10   7    0.12    0.09
   4  10   7   -0.17    0.09
   4  10   7   -0.09    0.10
  -5 -10  -7    0.22    0.11
  -5 -10  -7    0.30    0.10
  -5 -10  -7    0.20    0.11
  -5 -10  -7    0.25    0.11
  -5 -10  -7    0.33    0.12
   5  10   7    0.13    0.10
   5  10   7    0.20    0.09
   5  10   7   -0.02    0.10
   4   7  -8   -0.12    0.09
   4   7  -8    0.00    0.09
   4   7  -8    0.02    0.11
   4   7  -8    0.15    0.14
  -4  -7   8    0.00    0.12
  -4  -7   8    0.12    0.12
  -4  -7   8    0.08    0.10
  -4  -7   8    0.05    0.10
   3   7  -8    0.04    0.11
   3   7  -8    0.01    0.08
   3   7  -8    0.33    0.11
   3   7  -8    0.47    0.14
  -3  -7   8    0.53    0.12
  -3  -7   8    0.32    0.13
  -3  -7   8    0.20    0.10
   2   7  -8    0.17    0.12
   2   7  -8   -0.09    0.08
   2   7  -8    0.16    0.11
   2   7  -8   -0.07    0.07
   2   7  -8    0.05    0.14
  -2  -7   8   -0.03    0.12
  -2  -7   8    0.22    0.11
  -2  -7   8    0.23    0.13
  -2  -7   8    0.37    0.12
   1   7  -8    0.36    0.12
   1   7  -8    0.49    0.12
   1   7  -8   -0.02    0.15
  -1  -7   8    0.75    0.14
  -1  -7   8    0.33    0.15
  -1  -7   8    0.37    0.14
  -1  -7   8    0.62    0.17
   6   6  -8    0.08    0.16
   6   6  -8   -0.01    0.09
   6   6  -8    0.09    0.10
   6   6  -8    0.06    0.08
  -6  -6   8    0.12    0.11
  -6  -6   8    0.06    0.09
  -6  -6   8    0.10    0.11
  -6  -6   8    0.21    0.12
   5   6  -8    2.17    0.17
   5   6  -8    2.35    0.18
   5   6  -8    2.70    0.26
  -5  -6   8    2.19    0.22
  -5  -6   8    2.40    0.17
  -5  -6   8    2.28    0.20
  -5  -6   8    2.09    0.18
   4   6  -8    0.04    0.07
   4   6  -8    0.01    0.09
   4   6  -8    0.04    0.08
   4   6  -8    0.08    0.11
  -4  -6   8    0.04    0.10
  -4  -6   8    0.24    0.09
  -4  -6   8    0.18    0.08
  -4  -6   8    0.09    0.11
   3   6  -8    4.30    0.22
   3   6  -8    5.03    0.26
   3   6  -8    4.87    0.20
  -3  -6   8    4.24    0.23
  -3  -6   8    4.76    0.26
  -3  -6   8    4.61    0.23
   2   6  -8    1.50    0.12
   2   6  -8    1.46    0.13
   2   6  -8    1.66    0.19
   2   6  -8    1.65    0.17
  -2  -6   8    1.74    0.19
  -2  -6   8    1.68    0.17
  -2  -6   8    1.63    0.18
  -2  -6   8    1.53    0.17
   1   6  -8    4.70    0.23
   1   6  -8    4.70    0.25
   1   6  -8    4.65    0.21
   1   6  -8    4.85    0.23
  -1  -6   8    5.02    0.25
  -1  -6   8    4.64    0.26
  -1  -6   8    4.61    0.29
  -1  -6   8    4.56    0.27
   0   6  -8    1.95    0.21
   0   6  -8    1.99    0.22
   0   6  -8    1.57    0.15
   0  -6   8    1.51    0.15
   0  -6   8    1.58    0.19
   0  -6   8    2.04    0.23
   0  -6   8    1.81    0.19
  -1   6  -8    2.03    0.21
  -1   6  -8    1.92    0.19
  -1   6  -8    2.21    0.19
   1  -6   8    1.84    0.20
   1  -6   8    1.99    0.19
   1  -6   8    2.12    0.24
   1  -6   8    2.00    0.21
   6   5  -8   -0.12    0.08
   6   5  -8    0.06    0.08
   6   5  -8   -0.08    0.13
   6   5  -8    0.04    0.10
  -6  -5   8    0.00    0.08
  -6  -5   8    0.10    0.11
  -6  -5   8    0.16    0.10
  -6  -5   8    0.04    0.10
   5   5  -8    0.73    0.14
   5   5  -8    0.61    0.09
   5   5  -8    0.76    0.11
  -5  -5   8    0.60    0.11
  -5  -5   8    0.43    0.11
  -5  -5   8    0.67    0.10
  -5  -5   8    0.62    0.10
   4   5  -8    0.04    0.07
   4   5  -8    0.09    0.08
   4   5  -8   -0.09    0.09
   4   5  -8   -0.03    0.07
  -4  -5   8   -0.06    0.07
  -4  -5   8    0.05    0.07
  -4  -5   8    0.03    0.08
  -4  -5   8    0.09    0.09
   3   5  -8    1.89    0.16
   3   5  -8    2.59    0.15
   3   5  -8    2.43    0.19
   3   5  -8    2.61    0.12
   3   5  -8    1.94    0.11
  -3  -5   8    2.38    0.16
  -3  -5   8    2.47    0.17
  -3  -5   8    2.63    0.19
  -3  -5   8    2.45    0.18
   2   5  -8    0.01    0.05
   2   5  -8   -0.04    0.07
   2   5  -8   -0.01    0.07
   2   5  -8    0.03    0.06
   2   5  -8    0.00    0.06
   2   5  -8    0.05    0.09
  -2  -5   8   -0.02    0.07
  -2  -5   8   -0.04    0.07
  -2  -5   8    0.00    0.07
  -2  -5   8   -0.03    0.09
   1   5  -8    1.64    0.13
   1   5  -8    1.40    0.10
   1   5  -8    1.44    0.15
   1   5  -8    1.37    0.14
   1   5  -8    1.19    0.12
   1   5  -8    1.59    0.15
  -1  -5   8    1.29    0.13
  -1  -5   8    1.52    0.17
  -1  -5   8    1.35    0.15
  -1  -5   8    1.45    0.15
   0   5  -8    0.16    0.11
   0   5  -8    0.16    0.09
   0   5  -8    0.32    0.10
   0  -5   8    0.33    0.10
   0  -5   8    0.35    0.11
   0  -5   8    0.18    0.12
   0  -5   8    0.31    0.10
  -1   5  -8   -0.12    0.10
  -1   5  -8    0.07    0.11
  -1   5  -8    0.11    0.13
  -1   5  -8    0.03    0.09
   1  -5   8   -0.21    0.10
   1  -5   8   -0.06    0.10
   1  -5   8   -0.04    0.10
   1  -5   8   -0.07    0.12
  -2   5  -8    0.34    0.14
  -2   5  -8    0.47    0.13
  -2   5  -8    0.46    0.15
  -2   5  -8    0.64    0.17
   2  -5   8    0.56    0.14
   2  -5   8    0.47    0.15
   2  -5   8    0.56    0.17
   7   4  -8    0.70    0.11
   7   4  -8    0.76    0.14
   7   4  -8    0.83    0.19
  -7  -4   8    0.63    0.13
  -7  -4   8    0.62    0.10
  -7  -4   8    0.68    0.13
  -7  -4   8    0.81    0.14
   6   4  -8    0.34    0.14
   6   4  -8    0.63    0.12
   6   4  -8    0.54    0.09
  -6  -4   8    0.37    0.11
  -6  -4   8    0.61    0.09
  -6  -4   8    0.42    0.10
  -6  -4   8    0.34    0.11
   5   4  -8    0.34    0.12
   5   4  -8    0.29    0.08
   5   4  -8    0.31    0.09
  -5  -4   8    0.41    0.09
  -5  -4   8    0.49    0.09
  -5  -4   8    0.43    0.08
  -5  -4   8    0.47    0.10
   4   4  -8    0.64    0.10
   4   4  -8    0.69    0.12
   4   4  -8    0.58    0.05
  -4  -4   8    0.61    0.09
  -4  -4   8    0.77    0.10
  -4  -4   8    0.48    0.09
   3   4  -8    0.06    0.07
   3   4  -8    0.04    0.05
   3   4  -8   -0.05    0.07
   3   4  -8   -0.04    0.04
   3   4  -8    0.13    0.08
  -3  -4   8   -0.01    0.06
  -3  -4   8    0.04    0.07
  -3  -4   8    0.14    0.07
  -3  -4   8    0.06    0.06
   2   4  -8    0.04    0.08
   2   4  -8    0.08    0.05
   2   4  -8    0.07    0.05
   2   4  -8    0.08    0.07
   2   4  -8    0.15    0.07
   2   4  -8    0.08    0.06
  -2  -4   8    0.10    0.07
  -2  -4   8   -0.02    0.07
  -2  -4   8    0.13    0.08
  -2  -4   8    0.07    0.06
   1   4  -8    0.21    0.07
   1   4  -8    0.20    0.06
   1   4  -8    0.32    0.08
   1   4  -8    0.15    0.08
   1   4  -8    0.10    0.09
  -1  -4   8    0.20    0.09
  -1  -4   8    0.24    0.08
  -1  -4   8    0.17    0.08
  -1  -4   8    0.17    0.07
   0   4  -8    1.79    0.16
   0   4  -8    1.85    0.13
   0   4  -8    2.12    0.19
   0   4  -8    2.10    0.16
   0  -4   8    1.92    0.18
   0  -4   8    2.08    0.16
   0  -4   8    2.50    0.20
   0  -4   8    1.92    0.16
  -1   4  -8    0.38    0.10
  -1   4  -8    0.55    0.11
  -1   4  -8    0.62    0.12
   1  -4   8    0.46    0.12
   1  -4   8    0.57    0.11
   1  -4   8    0.53    0.09
   1  -4   8    0.71    0.11
  -2   4  -8    1.36    0.16
  -2   4  -8    1.18    0.15
  -2   4  -8    1.51    0.17
  -2   4  -8    1.29    0.14
   2  -4   8    1.66    0.19
   2  -4   8    1.38    0.16
   2  -4   8    1.19    0.13
   2  -4   8    1.69    0.18
  -3   4  -8    0.18    0.14
  -3   4  -8    0.11    0.13
  -3   4  -8    0.14    0.15
  -3   4  -8    0.16    0.11
   3  -4   8    0.28    0.12
   3  -4   8    0.28    0.15
   3  -4   8    0.22    0.17
   3  -4   8    0.39    0.13
   7   3  -8    0.15    0.16
   7   3  -8    0.13    0.10
   7   3  -8   -0.10    0.09
   7   3  -8   -0.06    0.11
  -7  -3   8    0.09    0.12
  -7  -3   8    0.20    0.12
  -7  -3   8    0.01    0.09
  -7  -3   8    0.39    0.13
   6   3  -8    5.53    0.26
   6   3  -8    5.50    0.29
   6   3  -8    5.16    0.23
  -6  -3   8    5.72    0.25
  -6  -3   8    5.44    0.24
  -6  -3   8    5.31    0.27
  -6  -3   8    5.33    0.26
   5   3  -8    0.16    0.07
   5   3  -8    0.16    0.10
   5   3  -8    0.04    0.03
   5   3  -8    0.07    0.07
   5   3  -8    0.09    0.08
   5   3  -8    0.19    0.03
  -5  -3   8    0.10    0.07
  -5  -3   8    0.12    0.08
  -5  -3   8    0.08    0.06
  -5  -3   8    0.24    0.09
   4   3  -8   17.26    0.50
   4   3  -8   16.82    0.51
   4   3  -8   17.06    0.43
   4   3  -8   16.93    0.43
  -4  -3   8   16.84    0.54
  -4  -3   8   17.30    0.50
  -4  -3   8   16.86    0.48
  -4  -3   8   17.28    0.51
   3   3  -8    0.15    0.05
   3   3  -8    0.16    0.07
   3   3  -8    0.12    0.07
   3   3  -8    0.23    0.05
  -3  -3   8    0.06    0.06
  -3  -3   8    0.15    0.07
   2   3  -8   23.13    0.62
   2   3  -8   23.14    0.66
   2   3  -8   22.59    0.59
   2   3  -8   23.53    0.59
   2   3  -8   24.38    0.65
  -2  -3   8   20.87    0.63
  -2  -3   8   24.20    0.66
  -2  -3   8   23.88    0.66
   1   3  -8    2.07    0.16
   1   3  -8    1.74    0.11
   1   3  -8    1.83    0.14
   1   3  -8    1.80    0.13
   1   3  -8    1.65    0.13
  -1  -3   8    1.66    0.15
  -1  -3   8    1.84    0.15
  -1  -3   8    1.75    0.14
  -1  -3   8    1.68    0.12
   0   3  -8   18.45    0.53
   0   3  -8   17.38    0.48
   0   3  -8   18.46    0.55
   0  -3   8   17.88    0.55
   0  -3   8   16.75    0.50
   0  -3   8   18.66    0.54
   0  -3   8   17.98    0.49
  -1   3  -8    0.87    0.11
  -1   3  -8    0.63    0.09
  -1   3  -8    0.76    0.11
   1  -3   8    1.01    0.14
   1  -3   8    0.88    0.10
   1  -3   8    0.85    0.12
  -2   3  -8    6.07    0.24
  -2   3  -8    5.73    0.27
  -2   3  -8    6.47    0.27
  -2   3  -8    6.20    0.29
   2  -3   8    6.10    0.30
   2  -3   8    6.11    0.25
   2  -3   8    5.95    0.28
  -3   3  -8    0.04    0.12
  -3   3  -8    0.02    0.10
  -3   3  -8    0.11    0.09
  -3   3  -8    0.07    0.12
   3  -3   8   -0.02    0.09
   3  -3   8    0.09    0.10
   3  -3   8   -0.03    0.13
   3  -3   8    0.13    0.12
  -4   3  -8    1.04    0.17
  -4   3  -8    0.79    0.17
  -4   3  -8    0.90    0.18
  -4   3  -8    0.58    0.13
   4  -3   8    1.22    0.15
   4  -3   8    1.36    0.22
   4  -3   8    1.05    0.18
   4  -3   8    1.22    0.17
   7   2  -8    0.69    0.16
   7   2  -8    0.67    0.12
   7   2  -8    0.68    0.13
  -7  -2   8    0.83    0.11
  -7  -2   8    0.79    0.15
  -7  -2   8    1.04    0.15
  -7  -2   8    0.75    0.15
   6   2  -8    0.51    0.14
   6   2  -8    0.44    0.12
   6   2  -8    0.46    0.10
  -6  -2   8    0.50    0.11
  -6  -2   8    0.68    0.11
  -6  -2   8    0.51    0.13
  -6  -2   8    0.66    0.10
   5   2  -8    1.39    0.13
   5   2  -8    1.53    0.10
   5   2  -8    1.37    0.09
   5   2  -8    1.53    0.17
  -5  -2   8    1.72    0.14
  -5  -2   8    1.34    0.16
  -5  -2   8    1.47    0.16
  -5  -2   8    1.61    0.15
   4   2  -8    2.66    0.17
   4   2  -8    2.50    0.11
   4   2  -8    2.59    0.12
   4   2  -8    2.41    0.16
  -4  -2   8    2.54    0.15
  -4  -2   8    2.62    0.17
  -4  -2   8    2.62    0.16
   3   2  -8    0.38    0.08
   3   2  -8    0.38    0.07
   3   2  -8    0.33    0.06
   3   2  -8    0.36    0.08
   3   2  -8    0.36    0.05
  -3  -2   8    0.41    0.07
  -3  -2   8    0.50    0.08
  -3  -2   8    0.31    0.07
  -3  -2   8    0.40    0.08
   2   2  -8    7.71    0.23
   2   2  -8    7.85    0.25
   2   2  -8    7.65    0.26
   2   2  -8    7.88    0.28
  -2  -2   8    7.22    0.26
  -2  -2   8    7.49    0.25
  -2  -2   8    7.81    0.28
   1   2  -8   -0.03    0.05
   1   2  -8    0.01    0.06
   1   2  -8    0.01    0.04
   1   2  -8    0.03    0.06
  -1  -2   8    0.05    0.04
  -1  -2   8   -0.02    0.05
  -1  -2   8    0.02    0.07
  -1  -2   8   -0.05    0.06
   0   2  -8   19.31    0.50
   0   2  -8   19.81    0.56
   0   2  -8   19.12    0.56
   0   2  -8   18.86    0.52
   0  -2   8   19.58    0.57
   0  -2   8   19.02    0.52
   0  -2   8   18.93    0.56
   0  -2   8   19.18    0.53
  -1   2  -8    0.04    0.06
  -1   2  -8    0.06    0.05
  -1   2  -8    0.12    0.08
  -1   2  -8    0.07    0.07
   1  -2   8    0.05    0.07
   1  -2   8   -0.04    0.08
  -2   2  -8   24.36    0.68
  -2   2  -8   23.38    0.69
  -2   2  -8   23.79    0.64
   2  -2   8   22.61    0.68
   2  -2   8   22.64    0.62
   2  -2   8   23.42    0.69
  -3   2  -8    0.08    0.09
  -3   2  -8    0.07    0.07
  -3   2  -8    0.09    0.09
   3  -2   8   -0.05    0.10
   3  -2   8    0.01    0.10
   3  -2   8    0.05    0.08
   3  -2   8    0.05    0.07
  -4   2  -8   11.00    0.40
  -4   2  -8    9.54    0.43
  -4   2  -8   11.10    0.37
  -4   2  -8   11.30    0.44
   4  -2   8   11.38    0.38
   4  -2   8   11.46    0.44
   4  -2   8   11.19    0.39
  -5   2  -8   -0.07    0.15
  -5   2  -8    0.10    0.17
  -5   2  -8    0.04    0.16
  -5   2  -8    0.00    0.11
   5  -2   8    0.11    0.14
   5  -2   8   -0.09    0.17
   5  -2   8    0.20    0.17
   5  -2   8    0.05    0.12
   7   1  -8    0.06    0.10
   7   1  -8   -0.06    0.11
   7   1  -8   -0.03    0.05
   7   1  -8    0.03    0.05
   7   1  -8   -0.01    0.14
  -7  -1   8   -0.08    0.10
  -7  -1   8    0.17    0.14
  -7  -1   8   -0.09    0.12
  -7  -1   8   -0.05    0.13
   6   1  -8    0.03    0.05
   6   1  -8    0.23    0.10
   6   1  -8    0.04    0.10
   6   1  -8    0.39    0.12
   6   1  -8    0.19    0.07
   6   1  -8    0.21    0.09
  -6  -1   8    0.23    0.12
  -6  -1   8    0.37    0.10
  -6  -1   8    0.40    0.11
  -6  -1   8    0.33    0.09
   5   1  -8   -0.03    0.07
   5   1  -8    0.02    0.05
   5   1  -8    0.03    0.08
   5   1  -8   -0.03    0.05
   5   1  -8   -0.11    0.06
   5   1  -8    0.00    0.08
  -5  -1   8   -0.01    0.07
  -5  -1   8   -0.08    0.08
  -5  -1   8   -0.03    0.08
  -5  -1   8   -0.02    0.06
   4   1  -8    2.69    0.12
   4   1  -8    2.78    0.17
   4   1  -8    2.78    0.17
   4   1  -8    2.76    0.16
   4   1  -8    2.82    0.14
  -4  -1   8    2.78    0.17
  -4  -1   8    2.59    0.16
  -4  -1   8    2.69    0.15
  -4  -1   8    2.95    0.17
   3   1  -8    0.03    0.06
   3   1  -8    0.06    0.06
   3   1  -8    0.08    0.06
   3   1  -8    0.04    0.05
   3   1  -8   -0.01    0.04
  -3  -1   8   -0.06    0.05
  -3  -1   8    0.03    0.06
  -3  -1   8    0.00    0.05
  -3  -1   8    0.03    0.06
   2   1  -8    3.75    0.18
   2   1  -8    4.07    0.19
   2   1  -8    4.02    0.15
   2   1  -8    3.96    0.18
   2   1  -8    4.23    0.16
  -2  -1   8    4.11    0.17
  -2  -1   8    3.84    0.18
  -2  -1   8    4.11    0.18
  -2  -1   8    3.90    0.18
   1   1  -8    0.79    0.08
   1   1  -8    1.06    0.10
   1   1  -8    0.96    0.11
   1   1  -8    0.83    0.08
  -1  -1   8    0.95    0.10
  -1  -1   8    0.91    0.11
  -1  -1   8    0.89    0.09
  -1  -1   8    0.99    0.10
   0   1  -8    0.91    0.11
   0   1  -8    1.04    0.11
   0   1  -8    1.15    0.09
   0   1  -8    0.96    0.10
   0  -1   8    1.15    0.12
   0  -1   8    0.99    0.11
   0  -1   8    1.14    0.11
   0  -1   8    0.89    0.10
  -1   1  -8    8.12    0.29
  -1   1  -8    8.02    0.26
  -1   1  -8    7.92    0.28
  -1   1  -8    8.37    0.30
   1  -1   8    8.23    0.30
   1  -1   8    8.59    0.30
  -2   1  -8    0.11    0.07
  -2   1  -8    0.20    0.06
  -2   1  -8    0.12    0.08
  -2   1  -8    0.02    0.07
   2  -1   8    0.12    0.09
   2  -1   8    0.18    0.07
   2  -1   8    0.10    0.05
   2  -1   8    0.07    0.07
  -3   1  -8    8.34    0.30
  -3   1  -8    7.92    0.31
  -3   1  -8    8.43    0.32
   3  -1   8    8.15    0.34
   3  -1   8    7.96    0.32
   3  -1   8    8.15    0.27
  -4   1  -8    0.13    0.07
  -4   1  -8    0.05    0.09
  -4   1  -8    0.00    0.10
  -4   1  -8   -0.01    0.10
   4  -1   8    0.00    0.07
   4  -1   8   -0.14    0.11
   4  -1   8    0.03    0.09
   4  -1   8    0.11    0.11
  -5   1  -8    3.00    0.22
  -5   1  -8    3.32    0.25
  -5   1  -8    3.11    0.27
  -5   1  -8    3.22    0.27
   5  -1   8    2.81    0.26
   5  -1   8    3.17    0.23
   5  -1   8    2.72    0.28
   5  -1   8    3.13    0.21
   7   0  -8   -0.01    0.08
   7   0  -8    0.03    0.10
   7   0  -8   -0.03    0.07
  -7   0   8    0.28    0.15
  -7   0   8   -0.16    0.15
  -7   0   8    0.13    0.12
  -7   0   8    0.09    0.11
   6   0  -8    7.06    0.32
   6   0  -8    6.76    0.23
   6   0  -8    6.85    0.29
   6   0  -8    6.68    0.29
   6   0  -8    6.82    0.24
  -6   0   8    6.74    0.29
  -6   0   8    6.92    0.29
  -6   0   8    7.28    0.32
  -6   0   8    6.93    0.31
   5   0  -8    0.07    0.08
   5   0  -8    0.13    0.09
   5   0  -8    0.14    0.07
   5   0  -8    0.18    0.10
  -5   0   8    0.32    0.10
  -5   0   8    0.19    0.09
  -5   0   8    0.30    0.09
  -5   0   8    0.24    0.07
   4   0  -8   10.91    0.33
   4   0  -8   11.58    0.32
   4   0  -8   11.36    0.37
   4   0  -8   10.95    0.36
   4   0  -8   11.50    0.37
  -4   0   8   11.45    0.38
  -4   0   8   11.57    0.35
  -4   0   8   11.32    0.37
  -4   0   8   11.20    0.36
   3   0  -8    0.14    0.05
   3   0  -8    0.06    0.05
   3   0  -8    0.12    0.06
  -3   0   8    0.01    0.06
  -3   0   8    0.06    0.06
   2   0  -8    6.12    0.24
   2   0  -8    6.03    0.20
   2   0  -8    6.33    0.22
   2   0  -8    6.24    0.21
   2   0  -8    6.24    0.23
  -2   0   8    5.64    0.22
  -2   0   8    6.17    0.23
  -2   0   8    5.94    0.24
  -2   0   8    6.14    0.21
   1   0  -8    4.93    0.20
   1   0  -8    4.77    0.17
   1   0  -8    4.87    0.18
   1   0  -8    5.17    0.21
  -1   0   8    4.70    0.20
  -1   0   8    4.70    0.19
  -1   0   8    4.98    0.17
  -1   0   8    4.56    0.20
  -1   0   8    5.08    0.18
   0   0  -8    0.03    0.05
   0   0  -8    0.04    0.04
   0   0  -8    0.01    0.06
   0   0  -8    0.03    0.05
   0   0   8    0.06    0.04
   0   0   8   -0.02    0.05
   0   0   8   -0.09    0.05
   0   0   8   -0.03    0.05
  -1   0  -8    4.76    0.19
  -1   0  -8    4.35    0.17
  -1   0  -8    4.88    0.21
  -1   0  -8    4.48    0.20
   1   0   8    4.63    0.18
   1   0   8    4.39    0.18
   1   0   8    5.15    0.21
   1   0   8    4.38    0.20
  -2   0  -8    0.25    0.07
  -2   0  -8    0.33    0.08
  -2   0  -8    0.27    0.08
   2   0   8    0.27    0.08
   2   0   8    0.30    0.06
   2   0   8    0.34    0.08
  -3   0  -8    0.82    0.11
  -3   0  -8    0.62    0.09
  -3   0  -8    0.73    0.12
   3   0   8    0.72    0.09
   3   0   8    0.73    0.09
   3   0   8    0.79    0.11
   3   0   8    0.61    0.10
  -4   0  -8    0.12    0.06
  -4   0  -8    0.15    0.09
  -4   0  -8    0.04    0.09
  -4   0  -8    0.16    0.09
   4   0   8    0.14    0.09
   4   0   8    0.15    0.07
   4   0   8    0.03    0.09
  -5   0  -8    0.06    0.11
  -5   0  -8   -0.06    0.08
  -5   0  -8    0.13    0.11
  -5   0  -8   -0.08    0.10
   5   0   8   -0.08    0.11
   5   0   8    0.01    0.05
   5   0   8    0.08    0.09
   5   0   8    0.05    0.08
   5   0   8   -0.10    0.11
  -6   0  -8    0.34    0.16
  -6   0  -8    0.03    0.12
  -6   0  -8    0.29    0.14
  -6   0  -8   -0.08    0.15
   6   0   8    0.20    0.11
   6   0   8    0.09    0.12
   6   0   8    0.06    0.15
   6   0   8   -0.04    0.16
   6  -1  -8    0.93    0.10
   6  -1  -8    0.91    0.11
   6  -1  -8    0.82    0.14
   6  -1  -8    1.01    0.13
   6  -1  -8    0.86    0.13
  -6   1   8    1.11    0.15
  -6   1   8    1.01    0.13
  -6   1   8    1.03    0.14
  -6   1   8    0.82    0.15
   5  -1  -8    8.66    0.34
   5  -1  -8    8.50    0.32
   5  -1  -8    8.56    0.29
   5  -1  -8    8.52    0.29
   5  -1  -8    8.18    0.32
  -5   1   8    8.09    0.34
  -5   1   8    8.47    0.31
  -5   1   8    8.23    0.32
  -5   1   8    8.27    0.31
   4  -1  -8    6.68    0.26
   4  -1  -8    6.28    0.27
   4  -1  -8    6.63    0.23
   4  -1  -8    6.18    0.25
   4  -1  -8    6.41    0.22
  -4   1   8    6.43    0.25
  -4   1   8    6.02    0.27
  -4   1   8    6.50    0.26
  -4   1   8    6.66    0.26
   3  -1  -8   25.19    0.67
   3  -1  -8   25.66    0.66
   3  -1  -8   25.27    0.72
   3  -1  -8   26.47    0.65
   3  -1  -8   26.59    0.72
  -3   1   8   25.51    0.67
  -3   1   8   25.51    0.72
  -3   1   8   25.37    0.72
  -3   1   8   24.11    0.66
   2  -1  -8   20.92    0.54
   2  -1  -8   20.88    0.55
   2  -1  -8   21.38    0.59
   2  -1  -8   20.68    0.55
   2  -1  -8   20.55    0.59
  -2   1   8   20.58    0.56
  -2   1   8   20.50    0.59
  -2   1   8   20.84    0.55
  -2   1   8   20.45    0.59
   1  -1  -8   45.39    1.20
   1  -1  -8   46.20    1.12
   1  -1  -8   46.07    1.20
  -1   1   8   45.54    1.12
  -1   1   8   44.23    1.20
  -1   1   8   48.99    1.13
  -1   1   8   46.31    1.20
   0  -1  -8   17.43    0.50
   0  -1  -8   16.24    0.44
   0  -1  -8   16.78    0.49
   0  -1  -8   16.98    0.46
   0   1   8   16.57    0.49
   0   1   8   17.44    0.50
   0   1   8   16.38    0.46
   0   1   8   17.11    0.45
  -1  -1  -8   24.70    0.70
  -1  -1  -8   24.51    0.66
  -1  -1  -8   25.15    0.70
  -1  -1  -8   26.13    0.64
   1   1   8   25.87    0.80
   1   1   8   25.52    0.70
   1   1   8   25.30    0.65
   1   1   8   25.19    0.64
   1   1   8   25.60    0.70
  -2  -1  -8    5.46    0.23
  -2  -1  -8    5.58    0.22
  -2  -1  -8    5.42    0.20
  -2  -1  -8    5.54    0.21
   2   1   8    5.58    0.23
   2   1   8    5.88    0.23
   2   1   8    5.35    0.23
   2   1   8    5.50    0.20
   2   1   8    5.34    0.20
  -3  -1  -8    2.80    0.17
  -3  -1  -8    2.68    0.16
  -3  -1  -8    2.72    0.18
  -3  -1  -8    2.64    0.14
   3   1   8    2.64    0.17
   3   1   8    2.78    0.15
   3   1   8    2.86    0.17
   3   1   8    2.62    0.14
  -4  -1  -8    1.47    0.13
  -4  -1  -8    1.54    0.16
  -4  -1  -8    1.69    0.17
  -4  -1  -8    1.56    0.14
   4   1   8    1.41    0.13
   4   1   8    1.30    0.14
   4   1   8    1.78    0.16
  -5  -1  -8   -0.02    0.09
  -5  -1  -8   -0.07    0.06
  -5  -1  -8   -0.02    0.09
  -5  -1  -8    0.15    0.10
   5   1   8    0.03    0.05
   5   1   8    0.15    0.08
   5   1   8   -0.12    0.10
   5   1   8    0.01    0.07
   5   1   8    0.00    0.10
  -6  -1  -8    0.26    0.13
  -6  -1  -8    0.39    0.13
  -6  -1  -8    0.22    0.13
  -6  -1  -8    0.19    0.10
   6   1   8    0.18    0.10
   6   1   8    0.32    0.10
   6   1   8    0.00    0.06
   6   1   8    0.33    0.16
   6   1   8   -0.06    0.13
   6  -2  -8    0.39    0.11
   6  -2  -8    0.34    0.11
   6  -2  -8    0.07    0.15
   6  -2  -8    0.35    0.11
   6  -2  -8    0.57    0.13
  -6   2   8    0.63    0.13
  -6   2   8    0.40    0.13
  -6   2   8    0.24    0.16
  -6   2   8    0.59    0.14
   5  -2  -8    0.40    0.11
   5  -2  -8    0.54    0.11
   5  -2  -8    0.34    0.09
   5  -2  -8    0.16    0.11
  -5   2   8    0.45    0.12
  -5   2   8    0.26    0.10
  -5   2   8    0.46    0.11
  -5   2   8    0.47    0.11
   4  -2  -8    0.40    0.10
   4  -2  -8    0.47    0.07
   4  -2  -8    0.39    0.08
   4  -2  -8    0.38    0.08
   4  -2  -8    0.38    0.08
  -4   2   8    0.52    0.11
  -4   2   8    0.46    0.10
  -4   2   8    0.39    0.08
  -4   2   8    0.28    0.08
   3  -2  -8    0.89    0.09
   3  -2  -8    0.98    0.11
   3  -2  -8    1.00    0.09
  -3   2   8    1.03    0.11
  -3   2   8    1.12    0.11
  -3   2   8    0.64    0.09
  -3   2   8    0.86    0.11
   2  -2  -8    0.06    0.05
   2  -2  -8    0.10    0.06
   2  -2  -8    0.07    0.06
   2  -2  -8   -0.02    0.05
   2  -2  -8    0.06    0.05
  -2   2   8    0.03    0.05
  -2   2   8    0.07    0.07
   1  -2  -8    8.75    0.28
   1  -2  -8    9.11    0.30
   1  -2  -8    9.13    0.31
   1  -2  -8    8.79    0.27
  -1   2   8    9.23    0.31
  -1   2   8    8.92    0.29
  -1   2   8    9.07    0.31
  -1   2   8    9.08    0.28
   0  -2  -8    1.96    0.13
   0  -2  -8    1.99    0.14
   0  -2  -8    2.03    0.12
   0   2   8    1.76    0.13
   0   2   8    1.84    0.12
   0   2   8    2.00    0.13
   0   2   8    1.85    0.11
  -1  -2  -8   26.79    0.72
  -1  -2  -8   26.34    0.66
  -1  -2  -8   27.37    0.68
  -1  -2  -8   25.72    0.72
   1   2   8   24.39    0.72
   1   2   8   26.25    0.67
   1   2   8   26.31    0.66
   1   2   8   26.76    0.72
  -2  -2  -8    7.37    0.27
  -2  -2  -8    7.41    0.25
  -2  -2  -8    7.29    0.24
  -2  -2  -8    7.28    0.27
   2   2   8    7.53    0.26
   2   2   8    7.54    0.27
   2   2   8    7.26    0.24
   2   2   8    6.88    0.28
   2   2   8    7.57    0.24
  -3  -2  -8   16.56    0.51
  -3  -2  -8   16.91    0.50
   3   2   8   17.07    0.58
   3   2   8   16.56    0.47
   3   2   8   17.31    0.51
   3   2   8   17.58    0.51
   3   2   8   17.55    0.46
  -4  -2  -8    3.22    0.18
  -4  -2  -8    3.64    0.16
  -4  -2  -8    3.53    0.19
  -4  -2  -8    3.25    0.18
   4   2   8    3.42    0.16
   4   2   8    3.34    0.19
   4   2   8    2.99    0.20
   4   2   8    3.15    0.16
  -5  -2  -8    5.38    0.25
  -5  -2  -8    5.22    0.22
  -5  -2  -8    5.56    0.26
  -5  -2  -8    5.24    0.25
   5   2   8    5.13    0.19
   5   2   8    5.86    0.26
   5   2   8    5.50    0.21
   5   2   8    5.18    0.26
   5   2   8    4.83    0.26
  -6  -2  -8    0.63    0.13
  -6  -2  -8    0.44    0.12
  -6  -2  -8    0.37    0.12
  -6  -2  -8    0.26    0.10
   6   2   8    0.45    0.12
   6   2   8    0.04    0.11
   6   2   8    0.49    0.09
   6   2   8    0.47    0.08
   6   2   8    0.42    0.11
  -7  -2  -8    1.30    0.19
  -7  -2  -8    0.67    0.16
  -7  -2  -8    0.79    0.14
  -7  -2  -8    0.76    0.16
   7   2   8    0.50    0.12
   7   2   8    0.95    0.12
   6  -3  -8    0.34    0.12
   6  -3  -8   -0.10    0.16
   6  -3  -8    0.21    0.13
   6  -3  -8    0.17    0.15
   6  -3  -8    0.31    0.11
  -6   3   8    0.83    0.16
  -6   3   8    0.59    0.19
  -6   3   8    0.11    0.16
   5  -3  -8    0.54    0.12
   5  -3  -8    0.34    0.10
   5  -3  -8    0.45    0.14
   5  -3  -8    0.54    0.13
   5  -3  -8    0.47    0.11
  -5   3   8    0.50    0.12
  -5   3   8    0.22    0.11
  -5   3   8    0.31    0.13
  -5   3   8    0.43    0.12
   4  -3  -8    0.40    0.09
   4  -3  -8    0.42    0.10
   4  -3  -8    0.42    0.09
   4  -3  -8    0.43    0.12
  -4   3   8    0.33    0.10
  -4   3   8    0.27    0.11
  -4   3   8    0.41    0.08
  -4   3   8    0.43    0.10
   3  -3  -8    1.77    0.13
   3  -3  -8    1.88    0.17
   3  -3  -8    1.81    0.13
   3  -3  -8    1.84    0.15
  -3   3   8    1.72    0.17
  -3   3   8    1.70    0.15
   2  -3  -8    1.94    0.15
   2  -3  -8    2.20    0.15
   2  -3  -8    2.27    0.14
   2  -3  -8    1.96    0.12
  -2   3   8    2.05    0.14
  -2   3   8    2.09    0.15
  -2   3   8    2.05    0.14
   1  -3  -8    4.63    0.20
   1  -3  -8    4.32    0.20
   1  -3  -8    4.36    0.17
   1  -3  -8    4.34    0.18
   1  -3  -8    4.47    0.17
  -1   3   8    4.17    0.18
  -1   3   8    4.35    0.21
  -1   3   8    4.68    0.20
  -1   3   8    4.30    0.18
   0  -3  -8    6.19    0.21
   0  -3  -8    6.88    0.25
   0  -3  -8    6.08    0.24
   0  -3  -8    6.08    0.23
   0   3   8    6.37    0.22
   0   3   8    6.84    0.25
   0   3   8    6.28    0.22
   0   3   8    6.58    0.25
  -1  -3  -8    7.46    0.25
  -1  -3  -8    7.57    0.27
  -1  -3  -8    7.44    0.24
  -1  -3  -8    7.52    0.27
   1   3   8    7.57    0.27
   1   3   8    7.83    0.25
   1   3   8    7.86    0.24
   1   3   8    7.52    0.27
  -2  -3  -8    2.02    0.13
  -2  -3  -8    2.24    0.14
  -2  -3  -8    2.24    0.14
   2   3   8    2.29    0.12
   2   3   8    2.13    0.14
   2   3   8    2.16    0.12
   2   3   8    2.35    0.14
  -3  -3  -8    3.24    0.18
  -3  -3  -8    3.40    0.17
  -3  -3  -8    3.25    0.17
  -3  -3  -8    3.33    0.15
   3   3   8    3.17    0.17
   3   3   8    3.44    0.15
   3   3   8    3.18    0.14
   3   3   8    3.32    0.18
  -4  -3  -8   -0.02    0.06
  -4  -3  -8   -0.04    0.07
  -4  -3  -8   -0.01    0.05
  -4  -3  -8   -0.04    0.06
   4   3   8   -0.01    0.05
   4   3   8    0.08    0.05
   4   3   8    0.00    0.06
   4   3   8    0.03    0.07
   4   3   8    0.09    0.07
  -5  -3  -8    0.46    0.10
  -5  -3  -8    0.42    0.08
  -5  -3  -8    0.45    0.10
  -5  -3  -8    0.44    0.10
   5   3   8    0.39    0.10
   5   3   8    0.53    0.08
   5   3   8    0.42    0.09
   5   3   8    0.54    0.08
   5   3   8    0.43    0.10
   5   3   8    0.50    0.07
  -6  -3  -8    0.25    0.11
  -6  -3  -8    0.22    0.09
  -6  -3  -8    0.26    0.10
  -6  -3  -8    0.32    0.11
   6   3   8   -0.02    0.10
   6   3   8    0.26    0.07
   6   3   8    0.26    0.07
   6   3   8    0.12    0.10
   6   3   8    0.19    0.07
   6   3   8    0.17    0.09
  -7  -3  -8    0.01    0.11
  -7  -3  -8    0.10    0.14
  -7  -3  -8    0.24    0.12
  -7  -3  -8    0.02    0.13
   7   3   8    0.06    0.08
   7   3   8   -0.14    0.13
   7   3   8    0.07    0.10
   7   3   8    0.09    0.14
   7   3   8    0.08    0.08
   7   3   8    0.19    0.08
   5  -4  -8   -0.05    0.15
   5  -4  -8    0.16    0.11
   5  -4  -8   -0.04    0.14
   5  -4  -8    0.01    0.11
  -5   4   8    0.37    0.14
  -5   4   8    0.16    0.15
  -5   4   8   -0.02    0.13
   4  -4  -8    4.37    0.23
   4  -4  -8    5.13    0.29
   4  -4  -8    4.95    0.24
   4  -4  -8    4.42    0.26
  -4   4   8    4.98    0.25
  -4   4   8    4.74    0.24
  -4   4   8    4.63    0.29
  -4   4   8    4.58    0.25
   3  -4  -8    1.03    0.13
   3  -4  -8    0.81    0.12
   3  -4  -8    0.70    0.10
   3  -4  -8    0.57    0.10
   3  -4  -8    0.94    0.09
  -3   4   8    0.82    0.11
  -3   4   8    1.03    0.11
  -3   4   8    0.89    0.13
   2  -4  -8   10.07    0.30
   2  -4  -8   10.79    0.36
   2  -4  -8    9.60    0.32
   2  -4  -8   10.41    0.36
  -2   4   8   10.25    0.35
  -2   4   8   10.06    0.36
  -2   4   8    9.88    0.33
   1  -4  -8    8.66    0.30
   1  -4  -8    8.56    0.26
   1  -4  -8    8.62    0.29
   1  -4  -8    9.01    0.32
   1  -4  -8    8.89    0.32
  -1   4   8    8.74    0.29
  -1   4   8    8.94    0.31
  -1   4   8    8.73    0.31
   0  -4  -8   14.54    0.42
   0  -4  -8   14.79    0.43
   0  -4  -8   15.67    0.46
   0  -4  -8   14.85    0.46
   0   4   8   15.44    0.43
   0   4   8   15.28    0.46
   0   4   8   14.99    0.42
   0   4   8   15.29    0.46
  -1  -4  -8    8.07    0.27
  -1  -4  -8    8.60    0.26
  -1  -4  -8    8.81    0.30
  -1  -4  -8    8.50    0.30
   1   4   8    8.09    0.29
   1   4   8    8.48    0.29
   1   4   8    8.31    0.27
   1   4   8    8.09    0.26
  -2  -4  -8    8.63    0.30
  -2  -4  -8    8.87    0.27
  -2  -4  -8    8.13    0.28
  -2  -4  -8    8.78    0.30
   2   4   8    8.31    0.30
   2   4   8    8.92    0.30
   2   4   8    9.00    0.26
   2   4   8    8.50    0.27
  -3  -4  -8    1.41    0.12
  -3  -4  -8    1.71    0.13
  -3  -4  -8    1.40    0.14
   3   4   8    1.28    0.12
   3   4   8    1.56    0.11
   3   4   8    1.39    0.10
  -4  -4  -8    1.77    0.14
  -4  -4  -8    1.75    0.15
  -4  -4  -8    2.03    0.13
   4   4   8    2.02    0.15
   4   4   8    1.99    0.15
   4   4   8    1.96    0.11
   4   4   8    2.02    0.12
  -5  -4  -8    0.12    0.08
  -5  -4  -8    0.07    0.06
  -5  -4  -8    0.03    0.07
  -5  -4  -8    0.12    0.08
   5   4   8    0.05    0.05
   5   4   8    0.04    0.05
   5   4   8    0.10    0.08
   5   4   8    0.08    0.06
  -6  -4  -8    0.48    0.11
  -6  -4  -8    0.40    0.10
  -6  -4  -8    0.40    0.11
  -6  -4  -8    0.51    0.10
   6   4   8    0.34    0.11
   6   4   8    0.12    0.10
   6   4   8    0.42    0.08
   6   4   8    0.39    0.07
   6   4   8    0.15    0.06
  -7  -4  -8    0.03    0.13
  -7  -4  -8    0.06    0.12
  -7  -4  -8   -0.04    0.09
  -7  -4  -8    0.10    0.11
   7   4   8   -0.05    0.08
   7   4   8   -0.07    0.11
   7   4   8   -0.05    0.05
   7   4   8    0.07    0.06
   4  -5  -8    1.52    0.20
   4  -5  -8    1.59    0.15
   4  -5  -8    1.63    0.17
   4  -5  -8    2.31    0.24
  -4   5   8    1.78    0.17
  -4   5   8    1.85    0.21
  -4   5   8    1.80    0.18
  -4   5   8    2.23    0.23
   3  -5  -8   -0.04    0.10
   3  -5  -8    0.16    0.08
   3  -5  -8    0.17    0.08
   3  -5  -8    0.05    0.09
  -3   5   8    0.04    0.09
  -3   5   8    0.10    0.09
  -3   5   8    0.05    0.09
   2  -5  -8    4.35    0.21
   2  -5  -8    3.77    0.19
   2  -5  -8    4.17    0.23
   2  -5  -8    4.13    0.17
   2  -5  -8    3.82    0.23
  -2   5   8    4.52    0.22
  -2   5   8    4.00    0.24
  -2   5   8    4.29    0.21
   1  -5  -8    0.99    0.09
   1  -5  -8    1.16    0.13
   1  -5  -8    1.05    0.12
   1  -5  -8    0.98    0.11
  -1   5   8    0.87    0.11
  -1   5   8    0.96    0.11
  -1   5   8    0.96    0.11
  -1   5   8    1.05    0.10
   0  -5  -8    1.41    0.13
   0  -5  -8    1.28    0.14
   0  -5  -8    1.21    0.13
   0  -5  -8    1.23    0.11
   0   5   8    1.46    0.14
   0   5   8    1.23    0.13
   0   5   8    1.41    0.13
   0   5   8    1.29    0.12
  -1  -5  -8    3.23    0.18
  -1  -5  -8    3.47    0.18
   1   5   8    3.30    0.18
   1   5   8    3.61    0.16
   1   5   8    3.57    0.17
   1   5   8    3.36    0.16
  -2  -5  -8    0.50    0.07
  -2  -5  -8    0.32    0.08
  -2  -5  -8    0.26    0.07
   2   5   8    0.34    0.06
   2   5   8    0.44    0.06
   2   5   8    0.33    0.07
  -3  -5  -8    3.66    0.17
  -3  -5  -8    3.54    0.17
  -3  -5  -8    3.44    0.17
  -3  -5  -8    3.57    0.18
   3   5   8    3.74    0.18
   3   5   8    3.56    0.15
   3   5   8    3.80    0.15
   3   5   8    3.59    0.18
  -4  -5  -8    0.75    0.10
  -4  -5  -8    0.63    0.09
   4   5   8    0.68    0.07
   4   5   8    0.87    0.11
   4   5   8    0.66    0.07
  -5  -5  -8    2.88    0.18
  -5  -5  -8    3.08    0.19
  -5  -5  -8    3.07    0.18
  -5  -5  -8    3.05    0.17
   5   5   8    3.08    0.13
   5   5   8    3.07    0.13
   5   5   8    2.79    0.16
  -6  -5  -8    0.11    0.09
  -6  -5  -8    0.04    0.09
  -6  -5  -8    0.15    0.08
  -6  -5  -8    0.21    0.09
   6   5   8    0.01    0.04
   6   5   8    0.22    0.09
   6   5   8    0.05    0.04
   6   5   8    0.30    0.09
   6   5   8    0.01    0.08
  -7  -5  -8    1.28    0.15
  -7  -5  -8    1.30    0.14
  -7  -5  -8    1.27    0.15
  -7  -5  -8    1.39    0.16
   7   5   8    1.30    0.15
   7   5   8    1.39    0.15
   4  -6  -8   -0.31    0.16
   4  -6  -8    0.03    0.18
   4  -6  -8    0.22    0.14
   4  -6  -8    0.17    0.13
  -4   6   8    0.12    0.15
  -4   6   8    0.15    0.15
  -4   6   8   -0.04    0.17
  -4   6   8    0.08    0.18
   3  -6  -8    0.13    0.14
   3  -6  -8   -0.13    0.10
   3  -6  -8   -0.06    0.09
   3  -6  -8   -0.05    0.08
   3  -6  -8    0.20    0.11
  -3   6   8    0.03    0.12
  -3   6   8    0.13    0.12
  -3   6   8    0.08    0.12
  -3   6   8    0.07    0.11
   2  -6  -8    0.01    0.06
   2  -6  -8    0.12    0.10
   2  -6  -8    0.05    0.08
   2  -6  -8    0.07    0.09
   2  -6  -8   -0.03    0.11
  -2   6   8    0.09    0.09
  -2   6   8    0.08    0.09
  -2   6   8    0.14    0.09
  -2   6   8   -0.01    0.11
   1  -6  -8    1.43    0.15
   1  -6  -8    1.52    0.11
   1  -6  -8    1.77    0.17
   1  -6  -8    1.33    0.14
  -1   6   8    1.24    0.12
  -1   6   8    1.55    0.16
  -1   6   8    1.68    0.18
   0  -6  -8    1.54    0.14
   0  -6  -8    1.53    0.15
   0  -6  -8    1.63    0.16
   0  -6  -8    1.43    0.15
   0  -6  -8    1.45    0.10
   0   6   8    1.53    0.13
   0   6   8    1.61    0.16
   0   6   8    1.42    0.14
   0   6   8    1.73    0.15
  -1  -6  -8    8.85    0.30
  -1  -6  -8    9.05    0.32
  -1  -6  -8    9.21    0.31
  -1  -6  -8    9.35    0.33
   1   6   8    9.50    0.29
   1   6   8    9.02    0.33
   1   6   8    9.17    0.29
   1   6   8    9.64    0.33
  -2  -6  -8    3.89    0.19
  -2  -6  -8    4.01    0.19
  -2  -6  -8    4.08    0.20
  -2  -6  -8    4.21    0.18
   2   6   8    3.94    0.19
   2   6   8    4.12    0.17
   2   6   8    4.02    0.16
   2   6   8    3.89    0.19
  -3  -6  -8    8.97    0.31
  -3  -6  -8    9.14    0.28
  -3  -6  -8    8.91    0.31
   3   6   8    8.39    0.26
   3   6   8    9.04    0.31
   3   6   8    9.16    0.27
  -4  -6  -8    5.90    0.21
  -4  -6  -8    5.70    0.23
  -4  -6  -8    5.29    0.24
  -4  -6  -8    5.99    0.24
   4   6   8    5.92    0.24
   4   6   8    5.65    0.18
   4   6   8    6.07    0.18
   4   6   8    5.65    0.23
  -5  -6  -8    3.87    0.20
  -5  -6  -8    3.75    0.20
  -5  -6  -8    3.84    0.18
   5   6   8    3.52    0.12
   5   6   8    3.33    0.19
  -6  -6  -8    4.37    0.22
  -6  -6  -8    4.93    0.24
  -6  -6  -8    4.57    0.23
  -6  -6  -8    4.59    0.21
   6   6   8    4.41    0.23
   6   6   8    4.24    0.22
  -7  -6  -8    1.18    0.14
  -7  -6  -8    0.82    0.15
  -7  -6  -8    0.96    0.12
  -7  -6  -8    1.08    0.14
   7   6   8    0.93    0.13
   7   6   8    1.10    0.13
   3  -7  -8    0.34    0.17
   3  -7  -8   -0.15    0.15
   3  -7  -8    0.21    0.15
   3  -7  -8    0.13    0.14
  -3   7   8    0.15    0.15
  -3   7   8   -0.02    0.14
  -3   7   8    0.37    0.17
  -3   7   8    0.06    0.20
   2  -7  -8    0.29    0.12
   2  -7  -8    0.40    0.15
   2  -7  -8    0.31    0.12
   2  -7  -8    0.32    0.07
  -2   7   8    0.36    0.12
  -2   7   8    0.33    0.12
  -2   7   8    0.41    0.12
  -2   7   8    0.33    0.14
   1  -7  -8    0.00    0.11
   1  -7  -8    0.05    0.06
   1  -7  -8   -0.09    0.09
   1  -7  -8    0.09    0.10
   1  -7  -8   -0.01    0.11
  -1   7   8    0.16    0.10
  -1   7   8    0.15    0.10
  -1   7   8   -0.02    0.09
  -1   7   8   -0.02    0.11
   0  -7  -8    2.93    0.20
   0  -7  -8    3.06    0.21
   0  -7  -8    2.97    0.19
   0  -7  -8    2.95    0.13
   0  -7  -8    2.95    0.18
   0   7   8    2.81    0.21
   0   7   8    2.59    0.18
   0   7   8    2.89    0.19
  -1  -7  -8    0.08    0.07
  -1  -7  -8   -0.02    0.07
  -1  -7  -8    0.03    0.08
  -1  -7  -8   -0.01    0.07
   1   7   8   -0.02    0.07
   1   7   8    0.10    0.07
   1   7   8    0.09    0.09
   1   7   8    0.08    0.06
  -2  -7  -8    2.64    0.18
  -2  -7  -8    2.73    0.17
  -2  -7  -8    2.92    0.18
  -2  -7  -8    2.70    0.16
   2   7   8    2.50    0.14
   2   7   8    2.55    0.16
   2   7   8    2.45    0.14
   2   7   8    2.60    0.17
  -3  -7  -8   -0.04    0.07
  -3  -7  -8    0.02    0.07
  -3  -7  -8    0.10    0.06
  -3  -7  -8    0.02    0.07
   3   7   8    0.04    0.05
   3   7   8    0.12    0.05
   3   7   8    0.11    0.07
  -4  -7  -8    0.83    0.09
  -4  -7  -8    0.70    0.10
  -4  -7  -8    0.70    0.10
  -4  -7  -8    0.78    0.10
   4   7   8    0.77    0.07
   4   7   8    0.70    0.08
   4   7   8    1.01    0.13
  -5  -7  -8    0.09    0.07
  -5  -7  -8    0.09    0.07
  -5  -7  -8    0.11    0.08
  -5  -7  -8    0.14    0.09
   5   7   8    0.18    0.08
   5   7   8    0.13    0.07
   5   7   8    0.12    0.07
  -6  -7  -8    0.39    0.10
  -6  -7  -8    0.41    0.11
  -6  -7  -8    0.38    0.09
  -6  -7  -8    0.42    0.10
   6   7   8    0.34    0.10
   6   7   8    0.29    0.10
   6   7   8    0.08    0.08
  -7  -7  -8    0.05    0.11
  -7  -7  -8    0.33    0.11
  -7  -7  -8    0.15    0.12
  -7  -7  -8   -0.09    0.10
   7   7   8    0.01    0.10
   7   7   8    0.04    0.09
   7   7   8    0.13    0.11
   2  -8  -8    2.07    0.23
   2  -8  -8    2.34    0.23
   2  -8  -8    1.65    0.18
  -2   8   8    1.96    0.24
  -2   8   8    1.95    0.20
  -2   8   8    2.04    0.24
  -2   8   8    1.79    0.20
   1  -8  -8    0.79    0.17
   1  -8  -8    0.88    0.14
   1  -8  -8    0.75    0.14
   1  -8  -8    0.71    0.16
  -1   8   8    0.79    0.13
  -1   8   8    0.64    0.16
  -1   8   8    0.45    0.12
  -1   8   8    0.87    0.15
   0  -8  -8    1.77    0.16
   0  -8  -8    1.74    0.18
   0  -8  -8    1.47    0.14
   0  -8  -8    1.78    0.21
   0  -8  -8    1.45    0.10
   0   8   8    1.43    0.14
   0   8   8    1.83    0.17
   0   8   8    1.40    0.16
  -1  -8  -8    0.15    0.09
  -1  -8  -8    0.15    0.09
  -1  -8  -8   -0.02    0.05
  -1  -8  -8    0.01    0.08
  -1  -8  -8    0.10    0.10
   1   8   8   -0.03    0.09
   1   8   8    0.05    0.09
   1   8   8   -0.02    0.07
  -2  -8  -8    0.06    0.08
  -2  -8  -8    0.18    0.08
  -2  -8  -8    0.02    0.09
  -2  -8  -8    0.09    0.08
   2   8   8   -0.01    0.07
   2   8   8    0.07    0.07
   2   8   8    0.14    0.09
   2   8   8    0.10    0.07
   2   8   8    0.04    0.08
  -3  -8  -8    1.19    0.12
  -3  -8  -8    1.16    0.13
  -3  -8  -8    1.07    0.12
  -3  -8  -8    1.26    0.12
   3   8   8    1.16    0.12
   3   8   8    0.99    0.11
   3   8   8    1.26    0.15
   3   8   8    1.06    0.10
  -4  -8  -8    0.05    0.08
  -4  -8  -8    0.20    0.08
  -4  -8  -8    0.10    0.09
  -4  -8  -8    0.13    0.09
   4   8   8    0.09    0.07
   4   8   8    0.23    0.09
   4   8   8    0.14    0.08
  -5  -8  -8    1.23    0.13
  -5  -8  -8    1.47    0.15
  -5  -8  -8    1.11    0.12
  -5  -8  -8    1.17    0.12
   5   8   8    1.43    0.15
   5   8   8    1.32    0.15
  -6  -8  -8    0.44    0.11
  -6  -8  -8    0.37    0.12
  -6  -8  -8    0.43    0.10
  -6  -8  -8    0.55    0.10
   6   8   8    0.42    0.10
   6   8   8    0.49    0.11
   0  -9  -8   -0.07    0.13
   0  -9  -8   -0.10    0.13
   0  -9  -8    0.16    0.13
   0  -9  -8    0.30    0.13
   0   9   8   -0.09    0.14
   0   9   8   -0.03    0.11
   0   9   8   -0.10    0.08
   0   9   8   -0.20    0.12
  -1  -9  -8    1.57    0.16
  -1  -9  -8    1.86    0.22
  -1  -9  -8    2.05    0.23
  -1  -9  -8    1.75    0.16
  -1  -9  -8    1.70    0.10
   1   9   8    1.88    0.19
   1   9   8    1.89    0.18
   1   9   8    2.13    0.18
   1   9   8    1.67    0.18
  -2  -9  -8    0.63    0.12
  -2  -9  -8    0.62    0.12
  -2  -9  -8    0.77    0.12
  -2  -9  -8    0.60    0.13
   2   9   8    0.60    0.09
   2   9   8    0.65    0.12
   2   9   8    0.74    0.13
  -3  -9  -8    1.90    0.19
  -3  -9  -8    1.69    0.15
  -3  -9  -8    1.77    0.16
  -3  -9  -8    1.83    0.19
   3   9   8    1.58    0.19
   3   9   8    1.72    0.17
  -4  -9  -8    0.56    0.12
  -4  -9  -8    0.69    0.12
  -4  -9  -8    0.44    0.11
  -4  -9  -8    0.38    0.10
   4   9   8    0.59    0.11
   4   9   8    0.47    0.11
  -5  -9  -8    0.58    0.11
  -5  -9  -8    0.56    0.11
  -5  -9  -8    0.64    0.12
  -5  -9  -8    0.63    0.11
   5   9   8    0.50    0.12
   5   9   8    0.56    0.11
  -6  -9  -8    0.20    0.10
  -6  -9  -8    0.24    0.11
  -6  -9  -8    0.20    0.12
  -6  -9  -8    0.15    0.10
   6   9   8    0.24    0.11
   6   9   8    0.23    0.10
   6   9   8   -0.07    0.08
  -2 -10  -8    0.53    0.15
  -2 -10  -8    0.80    0.16
  -2 -10  -8    0.69    0.15
  -2 -10  -8    0.60    0.15
   2  10   8    0.90    0.15
   2  10   8    0.35    0.10
  -3 -10  -8    0.52    0.14
  -3 -10  -8    0.46    0.13
  -3 -10  -8    0.61    0.14
  -3 -10  -8    0.62    0.13
   3  10   8    0.45    0.13
  -4 -10  -8    0.17    0.11
  -4 -10  -8    0.18    0.13
  -4 -10  -8    0.14    0.11
  -4 -10  -8    0.22    0.13
   4  10   8    0.20    0.11
   4   6  -9   -0.07    0.11
   4   6  -9    0.28    0.10
   4   6  -9    0.38    0.11
   4   6  -9    0.20    0.15
  -4  -6   9    0.15    0.13
  -4  -6   9    0.18    0.11
  -4  -6   9    0.41    0.14
  -4  -6   9    0.35    0.12
   3   6  -9    4.38    0.21
   3   6  -9    4.82    0.29
   3   6  -9    4.08    0.24
  -3  -6   9    4.31    0.26
  -3  -6   9    4.24    0.27
  -3  -6   9    5.13    0.30
  -3  -6   9    4.77    0.25
   2   6  -9   -0.07    0.08
   2   6  -9   -0.19    0.13
   2   6  -9    0.62    0.13
   2   6  -9    0.27    0.10
   2   6  -9    0.09    0.08
   2   6  -9    0.47    0.12
  -2  -6   9    0.67    0.16
  -2  -6   9    0.60    0.13
  -2  -6   9    0.60    0.14
   1   6  -9    2.14    0.23
   1   6  -9    1.97    0.21
   1   6  -9    2.41    0.22
  -1  -6   9    2.37    0.23
  -1  -6   9    2.08    0.20
  -1  -6   9    2.36    0.23
  -1  -6   9    2.52    0.25
   0   6  -9    0.40    0.12
   0   6  -9    0.27    0.14
   0   6  -9    0.00    0.18
   0  -6   9    0.38    0.15
   5   5  -9    0.01    0.14
   5   5  -9    0.09    0.09
   5   5  -9    0.07    0.11
  -5  -5   9    0.09    0.09
  -5  -5   9    0.07    0.13
  -5  -5   9   -0.14    0.11
  -5  -5   9    0.09    0.11
   4   5  -9    0.15    0.12
   4   5  -9    0.02    0.10
   4   5  -9    0.04    0.09
   4   5  -9   -0.03    0.08
  -4  -5   9   -0.01    0.09
  -4  -5   9    0.06    0.11
  -4  -5   9    0.12    0.09
   3   5  -9    0.03    0.06
   3   5  -9    0.03    0.06
   3   5  -9   -0.03    0.09
   3   5  -9    0.05    0.08
   3   5  -9    0.07    0.11
   3   5  -9    0.00    0.08
  -3  -5   9   -0.01    0.08
  -3  -5   9    0.00    0.11
  -3  -5   9   -0.04    0.10
  -3  -5   9    0.05    0.09
   2   5  -9   -0.08    0.10
   2   5  -9    0.19    0.08
   2   5  -9    0.29    0.10
   2   5  -9    0.37    0.07
   2   5  -9    0.42    0.08
   2   5  -9    0.16    0.09
  -2  -5   9    0.46    0.13
  -2  -5   9    0.29    0.10
  -2  -5   9    0.29    0.10
  -2  -5   9    0.36    0.10
   1   5  -9    0.68    0.09
   1   5  -9    0.67    0.12
   1   5  -9    0.70    0.10
   1   5  -9    0.53    0.12
   1   5  -9    0.58    0.11
  -1  -5   9    0.81    0.13
  -1  -5   9    0.53    0.12
  -1  -5   9    0.76    0.16
  -1  -5   9    0.65    0.13
   0   5  -9    0.14    0.12
   0   5  -9    0.03    0.10
   0   5  -9    0.01    0.09
   0   5  -9    0.31    0.14
   0   5  -9    0.15    0.11
   0  -5   9   -0.13    0.13
   0  -5   9    0.15    0.12
   0  -5   9    0.04    0.11
   0  -5   9    0.04    0.13
  -1   5  -9    1.12    0.19
  -1   5  -9    1.22    0.14
  -1   5  -9    1.19    0.17
  -1   5  -9    1.44    0.17
   1  -5   9    1.62    0.19
   1  -5   9    1.19    0.18
   1  -5   9    1.28    0.21
   1  -5   9    1.08    0.16
   6   4  -9    1.03    0.15
   6   4  -9    0.73    0.12
   6   4  -9    0.97    0.19
  -6  -4   9    0.78    0.14
  -6  -4   9    0.79    0.12
  -6  -4   9    0.75    0.13
  -6  -4   9    0.97    0.15
   5   4  -9   -0.06    0.09
   5   4  -9    0.45    0.14
   5   4  -9    0.23    0.09
  -5  -4   9    0.38    0.09
  -5  -4   9    0.32    0.12
  -5  -4   9    0.36    0.10
  -5  -4   9    0.29    0.11
   4   4  -9    0.69    0.07
   4   4  -9    0.83    0.13
   4   4  -9    0.69    0.11
   4   4  -9    0.75    0.11
  -4  -4   9    0.69    0.10
  -4  -4   9    0.79    0.12
  -4  -4   9    0.68    0.12
  -4  -4   9    0.68    0.11
   3   4  -9    0.98    0.10
   3   4  -9    1.22    0.12
   3   4  -9    1.13    0.12
   3   4  -9    1.10    0.12
   3   4  -9    1.16    0.13
  -3  -4   9    0.80    0.12
  -3  -4   9    0.93    0.10
  -3  -4   9    1.02    0.11
  -3  -4   9    0.72    0.11
   2   4  -9    0.37    0.11
   2   4  -9    0.27    0.08
   2   4  -9    0.42    0.09
   2   4  -9    0.49    0.08
   2   4  -9    0.34    0.09
   2   4  -9    0.43    0.07
  -2  -4   9    0.37    0.10
  -2  -4   9    0.29    0.10
  -2  -4   9    0.37    0.09
  -2  -4   9    0.34    0.10
   1   4  -9    0.23    0.07
   1   4  -9    0.42    0.12
   1   4  -9    0.26    0.09
   1   4  -9    0.19    0.08
   1   4  -9    0.28    0.09
  -1  -4   9    0.18    0.08
  -1  -4   9    0.31    0.12
  -1  -4   9    0.24    0.10
  -1  -4   9    0.23    0.09
   0   4  -9    0.07    0.09
   0   4  -9    0.02    0.09
   0   4  -9    0.14    0.12
   0  -4   9    0.30    0.12
   0  -4   9   -0.18    0.09
   0  -4   9    0.18    0.10
  -1   4  -9    0.07    0.11
  -1   4  -9    0.01    0.12
  -1   4  -9   -0.03    0.08
  -1   4  -9    0.04    0.11
   1  -4   9   -0.20    0.11
   1  -4   9   -0.09    0.14
   1  -4   9    0.03    0.11
   1  -4   9    0.25    0.11
  -2   4  -9    0.06    0.10
  -2   4  -9   -0.03    0.12
  -2   4  -9    0.03    0.13
   2  -4   9   -0.12    0.12
   2  -4   9   -0.32    0.14
   2  -4   9    0.07    0.13
   2  -4   9    0.24    0.15
   6   3  -9    0.02    0.11
   6   3  -9    0.14    0.14
   6   3  -9    0.03    0.09
   6   3  -9    0.20    0.10
  -6  -3   9    0.01    0.11
  -6  -3   9    0.11    0.12
  -6  -3   9   -0.05    0.11
  -6  -3   9    0.08    0.09
   5   3  -9    2.72    0.23
   5   3  -9    2.85    0.19
  -5  -3   9    2.62    0.19
  -5  -3   9    2.65    0.21
  -5  -3   9    2.39    0.20
  -5  -3   9    2.46    0.18
   4   3  -9    0.31    0.09
   4   3  -9   -0.04    0.08
   4   3  -9    0.32    0.05
   4   3  -9    0.26    0.08
   4   3  -9    0.24    0.06
   4   3  -9    0.28    0.10
  -4  -3   9    0.16    0.07
  -4  -3   9    0.12    0.09
  -4  -3   9    0.10    0.09
  -4  -3   9    0.34    0.09
   3   3  -9    4.84    0.17
   3   3  -9    4.83    0.23
   3   3  -9    4.54    0.22
   3   3  -9    4.88    0.19
   3   3  -9    4.63    0.23
  -3  -3   9    4.59    0.23
  -3  -3   9    4.57    0.22
  -3  -3   9    4.47    0.22
  -3  -3   9    4.87    0.21
   2   3  -9    2.02    0.12
   2   3  -9    2.14    0.16
   2   3  -9    1.90    0.14
   2   3  -9    2.18    0.18
   2   3  -9    1.67    0.16
  -2  -3   9    1.83    0.15
  -2  -3   9    2.17    0.17
  -2  -3   9    1.95    0.17
  -2  -3   9    1.92    0.16
   1   3  -9    3.05    0.21
   1   3  -9    3.47    0.19
   1   3  -9    3.25    0.17
   1   3  -9    3.36    0.18
  -1  -3   9    3.16    0.17
  -1  -3   9    3.18    0.21
  -1  -3   9    3.16    0.20
  -1  -3   9    3.05    0.19
   0   3  -9    2.77    0.18
   0   3  -9    2.90    0.22
   0   3  -9    3.06    0.19
   0  -3   9    3.01    0.22
   0  -3   9    2.88    0.19
   0  -3   9    2.97    0.17
   0  -3   9    3.27    0.21
  -1   3  -9    1.31    0.14
  -1   3  -9    1.09    0.15
  -1   3  -9    0.99    0.12
  -1   3  -9    1.00    0.13
   1  -3   9    1.39    0.14
   1  -3   9    1.10    0.16
   1  -3   9    1.15    0.15
  -2   3  -9    0.71    0.15
  -2   3  -9    0.75    0.11
  -2   3  -9    0.74    0.14
  -2   3  -9    0.64    0.12
   2  -3   9    0.91    0.13
   2  -3   9    0.62    0.14
   2  -3   9    0.70    0.13
  -3   3  -9    0.15    0.15
  -3   3  -9   -0.09    0.12
  -3   3  -9    0.21    0.11
  -3   3  -9    0.04    0.14
   3  -3   9    0.26    0.15
   3  -3   9    0.14    0.12
   3  -3   9   -0.17    0.16
   3  -3   9   -0.02    0.13
   6   2  -9    0.75    0.12
   6   2  -9    0.79    0.16
   6   2  -9    0.69    0.14
  -6  -2   9    0.80    0.13
  -6  -2   9    0.85    0.15
  -6  -2   9    0.35    0.13
  -6  -2   9    0.66    0.11
   5   2  -9   -0.11    0.09
   5   2  -9    0.02    0.09
   5   2  -9    0.00    0.05
   5   2  -9    0.02    0.06
   5   2  -9    0.05    0.10
  -5  -2   9    0.09    0.08
  -5  -2   9    0.02    0.10
  -5  -2   9    0.01    0.08
  -5  -2   9    0.00    0.10
   4   2  -9    0.77    0.08
   4   2  -9    0.56    0.10
   4   2  -9    0.57    0.07
   4   2  -9    0.84    0.11
   4   2  -9    0.65    0.09
  -4  -2   9    0.55    0.09
  -4  -2   9    0.68    0.10
  -4  -2   9    0.50    0.10
  -4  -2   9    0.63    0.11
   3   2  -9    0.84    0.10
   3   2  -9    0.90    0.11
   3   2  -9    0.76    0.09
   3   2  -9    0.76    0.11
   3   2  -9    0.68    0.07
  -3  -2   9    0.71    0.09
  -3  -2   9    0.66    0.10
  -3  -2   9    0.63    0.09
  -3  -2   9    0.65    0.11
   2   2  -9    0.07    0.07
   2   2  -9    0.02    0.07
   2   2  -9   -0.04    0.05
   2   2  -9    0.06    0.06
   2   2  -9    0.09    0.08
  -2  -2   9    0.11    0.06
  -2  -2   9    0.16    0.07
  -2  -2   9    0.10    0.07
  -2  -2   9   -0.05    0.07
   1   2  -9    1.50    0.16
   1   2  -9    1.70    0.15
   1   2  -9    1.73    0.12
  -1  -2   9    1.51    0.15
  -1  -2   9    1.61    0.13
  -1  -2   9    1.65    0.15
  -1  -2   9    1.61    0.16
   0   2  -9    1.43    0.12
   0   2  -9    1.37    0.16
   0   2  -9    1.59    0.15
   0   2  -9    1.25    0.14
   0  -2   9    1.35    0.16
   0  -2   9    1.45    0.13
   0  -2   9    1.44    0.13
   0  -2   9    1.54    0.15
  -1   2  -9    0.45    0.10
  -1   2  -9    0.37    0.11
  -1   2  -9    0.44    0.09
   1  -2   9    0.27    0.11
   1  -2   9    0.55    0.11
   1  -2   9    0.35    0.07
  -2   2  -9    3.54    0.25
  -2   2  -9    3.49    0.19
  -2   2  -9    3.39    0.21
  -2   2  -9    3.22    0.22
   2  -2   9    3.26    0.24
   2  -2   9    3.49    0.21
   2  -2   9    3.27    0.19
   2  -2   9    3.13    0.24
  -3   2  -9    0.01    0.11
  -3   2  -9   -0.07    0.10
  -3   2  -9    0.03    0.12
  -3   2  -9    0.06    0.08
   3  -2   9    0.04    0.10
   3  -2   9   -0.15    0.14
   3  -2   9    0.06    0.12
   3  -2   9    0.03    0.09
  -4   2  -9    2.44    0.23
  -4   2  -9    2.63    0.28
  -4   2  -9    2.48    0.29
  -4   2  -9    2.68    0.29
   4  -2   9    2.72    0.22
   4  -2   9    2.54    0.25
   4  -2   9    3.45    0.30
   4  -2   9    2.27    0.25
   6   1  -9    0.09    0.10
   6   1  -9    0.11    0.10
   6   1  -9    0.07    0.14
   6   1  -9    0.11    0.11
   6   1  -9   -0.01    0.06
   6   1  -9    0.08    0.07
  -6  -1   9    0.04    0.12
  -6  -1   9    0.03    0.12
  -6  -1   9    0.00    0.13
  -6  -1   9    0.00    0.09
   5   1  -9    0.61    0.07
   5   1  -9    0.44    0.11
   5   1  -9    0.60    0.08
   5   1  -9    0.70    0.12
   5   1  -9    0.50    0.10
  -5  -1   9    0.59    0.10
  -5  -1   9    0.63    0.12
  -5  -1   9    0.76    0.12
  -5  -1   9    0.64    0.10
   4   1  -9    0.03    0.06
   4   1  -9    0.06    0.09
   4   1  -9   -0.01    0.07
   4   1  -9   -0.01    0.05
   4   1  -9    0.13    0.08
  -4  -1   9   -0.11    0.08
  -4  -1   9   -0.07    0.08
  -4  -1   9   -0.10    0.06
  -4  -1   9   -0.07    0.07
   3   1  -9    5.43    0.23
   3   1  -9    5.63    0.21
   3   1  -9    5.59    0.25
   3   1  -9    5.57    0.20
   3   1  -9    5.28    0.23
  -3  -1   9    5.58    0.22
  -3  -1   9    5.63    0.23
  -3  -1   9    5.66    0.25
  -3  -1   9    5.49    0.24
   2   1  -9    0.16    0.07
   2   1  -9    0.42    0.07
   2   1  -9    0.35    0.09
   2   1  -9    0.34    0.07
   2   1  -9    0.29    0.06
  -2  -1   9    0.23    0.07
  -2  -1   9    0.32    0.09
  -2  -1   9    0.21    0.07
  -2  -1   9    0.22    0.06
   1   1  -9    8.30    0.28
   1   1  -9    8.62    0.27
   1   1  -9    8.61    0.32
  -1  -1   9    8.56    0.31
  -1  -1   9    8.74    0.29
  -1  -1   9    8.57    0.28
   0   1  -9    0.44    0.08
   0   1  -9    0.51    0.10
   0   1  -9    0.59    0.08
   0   1  -9    0.40    0.08
   0  -1   9    0.52    0.09
   0  -1   9    0.59    0.09
   0  -1   9    0.55    0.10
  -1   1  -9    4.99    0.24
  -1   1  -9    5.04    0.23
  -1   1  -9    4.81    0.22
   1  -1   9    4.89    0.20
   1  -1   9    4.60    0.24
   1  -1   9    5.18    0.24
  -2   1  -9    0.76    0.10
  -2   1  -9    1.06    0.13
  -2   1  -9    0.75    0.11
  -2   1  -9    1.08    0.14
   2  -1   9    0.98    0.13
   2  -1   9    1.14    0.15
   2  -1   9    0.71    0.10
   2  -1   9    0.59    0.08
  -3   1  -9    1.77    0.20
  -3   1  -9    1.23    0.15
  -3   1  -9    1.75    0.16
  -3   1  -9    1.62    0.15
   3  -1   9    1.51    0.15
   3  -1   9    1.18    0.16
   3  -1   9    0.99    0.12
   3  -1   9    1.54    0.16
  -4   1  -9    2.13    0.23
  -4   1  -9    1.71    0.18
  -4   1  -9    2.01    0.19
   4  -1   9    1.95    0.20
   4  -1   9    1.85    0.21
   4  -1   9    1.46    0.14
   4  -1   9    1.92    0.21
  -5   1  -9    0.00    0.17
  -5   1  -9    0.57    0.17
  -5   1  -9    0.49    0.16
  -5   1  -9    0.13    0.13
   5  -1   9    0.04    0.14
   5  -1   9    0.30    0.12
   5  -1   9    0.32    0.19
   6   0  -9    0.22    0.14
   6   0  -9   -0.09    0.12
   6   0  -9    0.07    0.11
   6   0  -9    0.06    0.07
   6   0  -9    0.02    0.09
  -6   0   9   -0.01    0.13
  -6   0   9    0.09    0.14
  -6   0   9   -0.06    0.10
  -6   0   9    0.18    0.13
   5   0  -9   -0.01    0.10
   5   0  -9    0.29    0.10
   5   0  -9    0.37    0.11
   5   0  -9    0.32    0.07
  -5   0   9    0.60    0.14
  -5   0   9    0.28    0.09
  -5   0   9    0.57    0.12
  -5   0   9    0.40    0.12
   4   0  -9    0.60    0.09
   4   0  -9    0.58    0.10
   4   0  -9    0.52    0.11
   4   0  -9    0.62    0.08
   4   0  -9    0.61    0.10
  -4   0   9    0.67    0.12
  -4   0   9    0.58    0.10
  -4   0   9    0.47    0.09
  -4   0   9    0.49    0.09
   3   0  -9    1.32    0.11
   3   0  -9    1.44    0.14
   3   0  -9    1.23    0.14
   3   0  -9    1.52    0.16
   3   0  -9    1.22    0.13
  -3   0   9    1.37    0.14
  -3   0   9    1.18    0.13
  -3   0   9    1.50    0.14
  -3   0   9    1.33    0.16
   2   0  -9    0.11    0.06
   2   0  -9    0.15    0.08
   2   0  -9    0.16    0.06
   2   0  -9    0.08    0.06
  -2   0   9    0.16    0.08
  -2   0   9    0.06    0.06
  -2   0   9   -0.01    0.05
   1   0  -9    1.16    0.12
   1   0  -9    1.04    0.10
   1   0  -9    1.21    0.12
   1   0  -9    1.36    0.13
  -1   0   9    1.19    0.14
  -1   0   9    1.27    0.12
  -1   0   9    1.09    0.12
   0   0  -9    0.55    0.10
   0   0  -9    0.46    0.08
   0   0  -9    0.57    0.09
   0   0   9    0.48    0.09
   0   0   9    0.52    0.08
   0   0   9    0.49    0.09
  -1   0  -9    0.37    0.10
  -1   0  -9    0.47    0.07
  -1   0  -9    0.46    0.09
  -1   0  -9    0.47    0.10
   1   0   9    0.31    0.09
   1   0   9    0.27    0.07
   1   0   9    0.36    0.09
  -2   0  -9    0.72    0.10
  -2   0  -9    0.72    0.11
  -2   0  -9    0.49    0.09
   2   0   9    0.45    0.10
   2   0   9    0.84    0.12
   2   0   9    0.53    0.08
  -3   0  -9    0.87    0.12
  -3   0  -9    0.94    0.13
  -3   0  -9    0.73    0.11
   3   0   9    0.99    0.14
   3   0   9    0.83    0.12
   3   0   9    0.76    0.10
  -4   0  -9    0.42    0.13
  -4   0  -9    0.14    0.07
  -4   0  -9    0.24    0.11
  -4   0  -9    0.35    0.12
   4   0   9    0.33    0.13
   4   0   9    0.03    0.11
   4   0   9    0.16    0.09
   4   0   9    0.25    0.09
  -5   0  -9    1.40    0.18
  -5   0  -9    0.86    0.16
  -5   0  -9    1.11    0.16
  -5   0  -9    0.69    0.11
   5   0   9    1.12    0.14
   5   0   9    0.97    0.13
   5   0   9    0.89    0.18
   5   0   9    0.85    0.17
   6  -1  -9    2.51    0.28
   6  -1  -9    2.37    0.24
   6  -1  -9    2.58    0.21
   6  -1  -9    2.33    0.19
  -6   1   9    2.98    0.30
  -6   1   9    1.84    0.19
  -6   1   9    2.84    0.23
  -6   1   9    2.61    0.29
   5  -1  -9    1.05    0.15
   5  -1  -9    1.11    0.14
   5  -1  -9    1.16    0.13
   5  -1  -9    1.50    0.16
   5  -1  -9    1.20    0.12
  -5   1   9    1.57    0.15
  -5   1   9    1.52    0.17
  -5   1   9    1.36    0.15
  -5   1   9    1.24    0.17
   4  -1  -9   11.40    0.38
   4  -1  -9   11.49    0.40
   4  -1  -9   12.04    0.41
   4  -1  -9   11.55    0.36
   4  -1  -9   11.50    0.35
  -4   1   9   12.05    0.40
  -4   1   9   11.85    0.42
  -4   1   9   12.11    0.39
  -4   1   9   11.65    0.38
   3  -1  -9    0.06    0.06
   3  -1  -9    0.13    0.07
   3  -1  -9    0.08    0.08
   3  -1  -9    0.26    0.09
  -3   1   9    0.16    0.08
  -3   1   9    0.16    0.08
  -3   1   9    0.25    0.08
  -3   1   9    0.07    0.07
   2  -1  -9   30.84    0.89
   2  -1  -9   32.62    0.83
   2  -1  -9   33.22    0.89
  -2   1   9   33.90    0.86
  -2   1   9   31.76    0.83
  -2   1   9   33.05    0.89
   1  -1  -9    1.25    0.11
   1  -1  -9    1.47    0.14
   1  -1  -9    1.12    0.12
  -1   1   9    1.15    0.12
  -1   1   9    1.07    0.12
  -1   1   9    1.27    0.15
   0  -1  -9   47.14    1.24
   0  -1  -9   48.39    1.25
   0   1   9   45.62    1.24
   0   1   9   46.60    1.16
   0   1   9   48.53    1.24
  -1  -1  -9    0.64    0.11
  -1  -1  -9    0.52    0.08
  -1  -1  -9    0.68    0.10
   1   1   9    0.51    0.07
   1   1   9    0.55    0.08
   1   1   9    0.66    0.10
   1   1   9    0.72    0.08
   1   1   9    0.60    0.09
  -2  -1  -9   25.60    0.68
  -2  -1  -9   24.73    0.72
  -2  -1  -9   25.16    0.73
   2   1   9   26.17    0.73
   2   1   9   25.48    0.66
   2   1   9   25.24    0.82
   2   1   9   25.75    0.72
   2   1   9   25.44    0.67
  -3  -1  -9    0.00    0.07
  -3  -1  -9    0.00    0.09
  -3  -1  -9    0.12    0.09
   3   1   9    0.15    0.07
   3   1   9   -0.05    0.08
   3   1   9    0.03    0.06
   3   1   9   -0.07    0.08
  -4  -1  -9    5.96    0.24
  -4  -1  -9    5.84    0.28
  -4  -1  -9    6.06    0.27
  -4  -1  -9    6.06    0.29
   4   1   9    6.36    0.29
   4   1   9    5.83    0.24
   4   1   9    6.17    0.28
   4   1   9    6.11    0.30
  -5  -1  -9    0.02    0.11
  -5  -1  -9    0.01    0.09
  -5  -1  -9    0.09    0.13
  -5  -1  -9    0.00    0.11
   5   1   9    0.01    0.09
   5   1   9   -0.05    0.13
   5   1   9    0.15    0.12
   5   1   9   -0.02    0.08
   5   1   9    0.00    0.09
  -6  -1  -9    0.99    0.17
  -6  -1  -9    1.01    0.18
  -6  -1  -9    1.05    0.15
  -6  -1  -9    0.82    0.19
   6   1   9    0.72    0.14
   6   1   9    0.74    0.13
   6   1   9    0.91    0.18
   6   1   9    0.23    0.16
   6   1   9    0.99    0.15
   6  -2  -9    0.04    0.09
   6  -2  -9    0.28    0.11
   6  -2  -9    0.05    0.18
   6  -2  -9    0.09    0.12
   6  -2  -9   -0.11    0.14
  -6   2   9    0.07    0.18
  -6   2   9    0.02    0.15
  -6   2   9   -0.06    0.13
   5  -2  -9    0.05    0.11
   5  -2  -9    0.02    0.08
   5  -2  -9    0.02    0.12
   5  -2  -9   -0.05    0.09
   5  -2  -9   -0.02    0.11
  -5   2   9    0.05    0.11
  -5   2   9    0.03    0.12
  -5   2   9   -0.18    0.10
  -5   2   9   -0.02    0.13
   4  -2  -9    0.09    0.08
   4  -2  -9   -0.01    0.09
   4  -2  -9    0.07    0.10
   4  -2  -9    0.02    0.08
  -4   2   9    0.17    0.12
  -4   2   9    0.20    0.09
  -4   2   9    0.19    0.10
  -4   2   9    0.07    0.09
   3  -2  -9    0.49    0.08
   3  -2  -9    0.54    0.10
   3  -2  -9    0.41    0.09
   3  -2  -9    0.43    0.09
  -3   2   9    0.26    0.08
  -3   2   9    0.49    0.09
  -3   2   9    0.67    0.12
  -3   2   9    0.53    0.09
   2  -2  -9    0.38    0.09
   2  -2  -9    0.29    0.08
   2  -2  -9    0.31    0.09
   2  -2  -9    0.39    0.07
  -2   2   9    0.36    0.09
  -2   2   9    0.25    0.08
  -2   2   9    0.26    0.07
   1  -2  -9    3.32    0.17
   1  -2  -9    3.25    0.18
   1  -2  -9    3.18    0.15
   1  -2  -9    3.10    0.19
  -1   2   9    3.00    0.18
  -1   2   9    3.56    0.19
  -1   2   9    3.07    0.16
   0  -2  -9    5.80    0.23
   0  -2  -9    6.26    0.24
   0  -2  -9    5.83    0.25
   0   2   9    5.80    0.22
   0   2   9    5.91    0.24
   0   2   9    5.88    0.25
  -1  -2  -9   10.84    0.37
  -1  -2  -9   10.71    0.34
  -1  -2  -9   10.98    0.36
   1   2   9   10.61    0.36
   1   2   9   11.26    0.36
  -2  -2  -9   12.53    0.40
  -2  -2  -9   12.26    0.41
  -2  -2  -9   13.01    0.38
   2   2   9   12.70    0.41
   2   2   9   12.64    0.41
   2   2   9   11.53    0.37
   2   2   9   12.17    0.44
  -3  -2  -9   11.92    0.40
  -3  -2  -9   11.91    0.41
  -3  -2  -9   12.38    0.36
  -3  -2  -9   12.56    0.39
   3   2   9   12.69    0.37
   3   2   9   12.63    0.41
   3   2   9   12.98    0.41
   3   2   9   12.02    0.38
   3   2   9   11.76    0.45
  -4  -2  -9    7.84    0.32
  -4  -2  -9    7.87    0.30
  -4  -2  -9    7.69    0.27
  -4  -2  -9    7.84    0.31
   4   2   9    8.00    0.28
   4   2   9    7.96    0.32
   4   2   9    7.84    0.27
   4   2   9    8.31    0.32
   4   2   9    7.89    0.34
  -5  -2  -9    4.32    0.26
  -5  -2  -9    4.38    0.22
  -5  -2  -9    4.32    0.25
  -5  -2  -9    4.62    0.26
   5   2   9    4.38    0.25
   5   2   9    4.52    0.27
   5   2   9    4.80    0.22
   5   2   9    4.68    0.27
  -6  -2  -9    2.61    0.27
  -6  -2  -9    2.55    0.22
  -6  -2  -9    3.12    0.27
  -6  -2  -9    2.88    0.26
   6   2   9    2.49    0.21
   6   2   9    3.03    0.21
   6   2   9    2.58    0.27
   6   2   9    2.79    0.16
   5  -3  -9    0.20    0.11
   5  -3  -9    0.29    0.13
   5  -3  -9    0.14    0.14
   5  -3  -9    0.34    0.11
   5  -3  -9    0.03    0.15
  -5   3   9    0.14    0.12
  -5   3   9    0.21    0.15
  -5   3   9    0.09    0.16
  -5   3   9    0.09    0.12
   4  -3  -9    0.53    0.11
   4  -3  -9    0.46    0.11
   4  -3  -9    0.69    0.11
   4  -3  -9    0.72    0.14
   4  -3  -9    0.53    0.10
  -4   3   9    0.52    0.11
  -4   3   9    0.44    0.12
  -4   3   9    0.37    0.13
  -4   3   9    0.74    0.13
   3  -3  -9    1.23    0.12
   3  -3  -9    1.16    0.13
   3  -3  -9    1.25    0.14
   3  -3  -9    1.27    0.15
  -3   3   9    1.39    0.15
  -3   3   9    1.23    0.13
  -3   3   9    1.26    0.15
   2  -3  -9    1.95    0.15
   2  -3  -9    2.06    0.17
   2  -3  -9    2.02    0.17
   2  -3  -9    2.12    0.14
  -2   3   9    1.96    0.15
  -2   3   9    1.99    0.18
  -2   3   9    2.03    0.16
   1  -3  -9    1.09    0.11
   1  -3  -9    0.77    0.10
   1  -3  -9    1.11    0.11
   1  -3  -9    1.25    0.13
   1  -3  -9    1.03    0.11
  -1   3   9    1.25    0.13
  -1   3   9    1.23    0.12
  -1   3   9    1.19    0.12
  -1   3   9    1.39    0.12
   0  -3  -9    5.39    0.24
   0  -3  -9    5.10    0.23
   0  -3  -9    4.94    0.21
   0   3   9    5.16    0.20
   0   3   9    5.54    0.23
   0   3   9    5.23    0.21
   0   3   9    5.38    0.23
  -1  -3  -9    1.14    0.12
  -1  -3  -9    1.08    0.12
  -1  -3  -9    0.88    0.09
   1   3   9    0.77    0.08
   1   3   9    1.10    0.12
   1   3   9    1.21    0.12
  -2  -3  -9    5.17    0.23
  -2  -3  -9    5.30    0.20
  -2  -3  -9    5.38    0.22
  -2  -3  -9    5.22    0.24
   2   3   9    5.32    0.23
   2   3   9    5.15    0.21
   2   3   9    5.39    0.21
   2   3   9    5.45    0.24
  -3  -3  -9    2.75    0.15
  -3  -3  -9    2.73    0.17
  -3  -3  -9    2.95    0.18
  -3  -3  -9    2.91    0.18
   3   3   9    3.03    0.18
   3   3   9    2.66    0.15
   3   3   9    2.52    0.17
   3   3   9    2.73    0.15
  -4  -3  -9    1.17    0.11
  -4  -3  -9    1.31    0.13
  -4  -3  -9    0.93    0.12
  -4  -3  -9    1.06    0.12
   4   3   9    1.18    0.13
   4   3   9    1.24    0.13
   4   3   9    1.03    0.13
   4   3   9    1.18    0.15
  -5  -3  -9    2.47    0.20
  -5  -3  -9    2.89    0.22
  -5  -3  -9    2.86    0.21
  -5  -3  -9    2.64    0.17
   5   3   9    2.37    0.16
   5   3   9    2.36    0.16
   5   3   9    2.84    0.21
   5   3   9    2.31    0.19
   5   3   9    2.35    0.21
  -6  -3  -9    0.01    0.11
  -6  -3  -9    0.03    0.12
  -6  -3  -9    0.09    0.12
  -6  -3  -9   -0.02    0.10
   6   3   9    0.09    0.13
   6   3   9    0.14    0.10
   6   3   9    0.06    0.09
   6   3   9    0.25    0.13
   6   3   9    0.01    0.08
   6   3   9    0.07    0.08
   5  -4  -9    0.12    0.12
   5  -4  -9    0.01    0.13
   5  -4  -9    0.27    0.15
   5  -4  -9   -0.09    0.13
  -5   4   9   -0.07    0.18
  -5   4   9   -0.05    0.14
  -5   4   9   -0.04    0.14
   4  -4  -9    0.83    0.15
   4  -4  -9    1.13    0.17
   4  -4  -9    0.96    0.13
   4  -4  -9    1.07    0.14
   4  -4  -9    0.97    0.13
  -4   4   9    0.77    0.13
  -4   4   9    1.11    0.16
  -4   4   9    0.97    0.17
  -4   4   9    0.83    0.14
   3  -4  -9    0.13    0.10
   3  -4  -9    0.10    0.08
   3  -4  -9    0.06    0.11
   3  -4  -9   -0.02    0.11
  -3   4   9   -0.07    0.11
  -3   4   9    0.00    0.09
  -3   4   9   -0.11    0.09
  -3   4   9   -0.03    0.09
   2  -4  -9    0.67    0.12
   2  -4  -9    0.60    0.10
   2  -4  -9    0.56    0.09
   2  -4  -9    0.75    0.12
   2  -4  -9    0.72    0.09
  -2   4   9    0.53    0.10
  -2   4   9    0.62    0.11
  -2   4   9    0.66    0.12
  -2   4   9    0.53    0.10
   1  -4  -9    0.01    0.08
   1  -4  -9    0.08    0.06
   1  -4  -9    0.17    0.08
   1  -4  -9   -0.09    0.07
  -1   4   9    0.17    0.07
  -1   4   9    0.17    0.09
  -1   4   9    0.09    0.07
   0  -4  -9    0.21    0.08
   0  -4  -9    0.19    0.07
   0  -4  -9    0.06    0.07
   0   4   9    0.14    0.07
   0   4   9    0.12    0.07
   0   4   9    0.17    0.06
   0   4   9    0.12    0.08
  -1  -4  -9    0.56    0.09
  -1  -4  -9    0.57    0.09
  -1  -4  -9    0.46    0.09
  -1  -4  -9    0.56    0.08
   1   4   9    0.41    0.09
   1   4   9    0.48    0.07
   1   4   9    0.65    0.09
  -2  -4  -9    1.31    0.14
  -2  -4  -9    1.36    0.13
  -2  -4  -9    1.20    0.11
  -2  -4  -9    1.42    0.15
   2   4   9    1.27    0.12
   2   4   9    1.39    0.14
   2   4   9    1.38    0.12
   2   4   9    1.18    0.14
  -3  -4  -9    2.01    0.15
  -3  -4  -9    1.78    0.15
  -3  -4  -9    1.95    0.14
  -3  -4  -9    1.91    0.17
   3   4   9    2.05    0.13
   3   4   9    2.04    0.16
   3   4   9    1.84    0.15
   3   4   9    2.17    0.14
  -4  -4  -9    2.07    0.17
  -4  -4  -9    2.08    0.17
  -4  -4  -9    1.82    0.16
  -4  -4  -9    2.03    0.15
   4   4   9    2.31    0.17
   4   4   9    1.98    0.17
   4   4   9    1.90    0.14
   4   4   9    1.83    0.14
  -5  -4  -9    1.97    0.19
  -5  -4  -9    1.89    0.19
  -5  -4  -9    1.97    0.18
  -5  -4  -9    1.88    0.16
   5   4   9    1.98    0.19
   5   4   9    1.87    0.14
   5   4   9    1.84    0.14
   5   4   9    1.99    0.14
  -6  -4  -9    0.92    0.15
  -6  -4  -9    0.78    0.14
  -6  -4  -9    0.77    0.13
  -6  -4  -9    0.80    0.12
   6   4   9    0.71    0.14
   6   4   9    0.91    0.11
   6   4   9    0.55    0.08
   4  -5  -9    0.02    0.15
   4  -5  -9    0.05    0.12
   4  -5  -9    0.01    0.16
   4  -5  -9    0.19    0.12
   4  -5  -9    0.03    0.11
  -4   5   9    0.12    0.13
  -4   5   9    0.11    0.14
  -4   5   9   -0.07    0.17
  -4   5   9   -0.02    0.15
   3  -5  -9    1.34    0.16
   3  -5  -9    1.58    0.20
   3  -5  -9    1.72    0.16
   3  -5  -9    1.47    0.15
   3  -5  -9    1.43    0.16
  -3   5   9    1.62    0.19
  -3   5   9    1.49    0.15
  -3   5   9    1.50    0.16
  -3   5   9    1.70    0.18
   2  -5  -9    0.58    0.11
   2  -5  -9    0.47    0.12
   2  -5  -9    0.33    0.08
   2  -5  -9    0.34    0.10
  -2   5   9    0.40    0.12
  -2   5   9    0.42    0.11
  -2   5   9    0.45    0.09
  -2   5   9    0.48    0.10
   1  -5  -9    3.76    0.22
   1  -5  -9    3.95    0.22
   1  -5  -9    3.85    0.20
   1  -5  -9    3.66    0.17
  -1   5   9    3.84    0.22
  -1   5   9    4.27    0.24
  -1   5   9    3.35    0.19
   0  -5  -9    2.51    0.17
   0  -5  -9    2.49    0.18
   0  -5  -9    2.53    0.18
   0   5   9    2.32    0.16
   0   5   9    2.54    0.19
   0   5   9    2.39    0.17
   0   5   9    2.41    0.16
  -1  -5  -9    1.25    0.12
  -1  -5  -9    1.35    0.12
  -1  -5  -9    1.26    0.15
  -1  -5  -9    1.30    0.14
   1   5   9    1.24    0.14
   1   5   9    1.27    0.13
   1   5   9    1.29    0.15
  -2  -5  -9    5.94    0.26
  -2  -5  -9    6.51    0.23
  -2  -5  -9    5.92    0.25
  -2  -5  -9    6.01    0.24
   2   5   9    6.39    0.23
   2   5   9    6.29    0.26
   2   5   9    6.18    0.23
   2   5   9    6.09    0.25
  -3  -5  -9    0.08    0.07
  -3  -5  -9    0.05    0.06
  -3  -5  -9    0.03    0.07
  -3  -5  -9   -0.01    0.07
   3   5   9    0.01    0.06
   3   5   9    0.05    0.07
   3   5   9    0.05    0.07
   3   5   9   -0.03    0.05
  -4  -5  -9    7.10    0.25
  -4  -5  -9    6.98    0.27
  -4  -5  -9    7.11    0.29
  -4  -5  -9    6.79    0.28
   4   5   9    6.99    0.24
   4   5   9    7.15    0.24
   4   5   9    6.64    0.28
   4   5   9    7.53    0.29
  -5  -5  -9    0.03    0.09
  -5  -5  -9    0.09    0.08
  -5  -5  -9    0.07    0.09
  -5  -5  -9    0.04    0.09
   5   5   9   -0.12    0.08
   5   5   9    0.05    0.09
   5   5   9    0.04    0.06
   5   5   9    0.02    0.06
   5   5   9    0.02    0.07
   6   5   9    1.34    0.12
  -7  -5  -9   -0.01    0.14
   3  -6  -9    0.41    0.11
   3  -6  -9    0.28    0.13
   3  -6  -9    0.44    0.14
   3  -6  -9    0.37    0.15
   3  -6  -9    0.32    0.16
  -3   6   9    0.29    0.14
  -3   6   9    0.05    0.16
  -3   6   9    0.39    0.14
  -3   6   9    0.56    0.16
   2  -6  -9    0.20    0.10
   2  -6  -9    0.21    0.13
   2  -6  -9    0.27    0.12
   2  -6  -9    0.24    0.08
   2  -6  -9    0.17    0.10
  -2   6   9    0.14    0.11
  -2   6   9    0.21    0.12
  -2   6   9    0.08    0.12
  -2   6   9    0.22    0.11
   1  -6  -9    0.45    0.12
   1  -6  -9    0.45    0.12
   1  -6  -9    0.38    0.09
   1  -6  -9    0.47    0.09
   1  -6  -9    0.45    0.08
  -1   6   9    0.45    0.12
  -1   6   9    0.53    0.12
  -1   6   9    0.65    0.11
  -1   6   9    0.48    0.10
   0  -6  -9    2.88    0.20
   0  -6  -9    2.58    0.18
   0  -6  -9    2.51    0.20
   0  -6  -9    2.49    0.14
   0  -6  -9    2.36    0.17
   0   6   9    2.92    0.19
   0   6   9    2.68    0.17
   0   6   9    2.69    0.21
  -1  -6  -9    0.68    0.11
  -1  -6  -9    0.74    0.11
  -1  -6  -9    0.46    0.08
  -1  -6  -9    0.70    0.11
   1   6   9    0.48    0.08
   1   6   9    0.70    0.10
   1   6   9    0.50    0.09
   1   6   9    0.61    0.11
  -2  -6  -9    5.71    0.25
  -2  -6  -9    5.78    0.26
  -2  -6  -9    5.96    0.23
  -2  -6  -9    5.83    0.25
   2   6   9    5.61    0.22
   2   6   9    5.87    0.22
   2   6   9    5.56    0.26
   2   6   9    6.11    0.25
  -3  -6  -9    1.23    0.13
  -3  -6  -9    0.90    0.11
  -3  -6  -9    0.97    0.12
  -3  -6  -9    1.29    0.15
   3   6   9    0.96    0.12
   3   6   9    0.89    0.11
   3   6   9    0.87    0.09
   3   6   9    1.02    0.09
  -4  -6  -9    3.13    0.19
  -4  -6  -9    2.48    0.19
  -4  -6  -9    2.57    0.19
  -4  -6  -9    2.75    0.16
   4   6   9    2.68    0.14
   4   6   9    2.48    0.18
   4   6   9    2.68    0.14
  -5  -6  -9    0.63    0.10
  -5  -6  -9    0.72    0.12
  -5  -6  -9    0.63    0.11
  -5  -6  -9    0.56    0.11
   5   6   9    0.61    0.07
   5   6   9    0.71    0.11
   5   6   9    0.72    0.11
  -6  -6  -9    0.51    0.13
  -6  -6  -9    0.56    0.12
  -6  -6  -9    0.58    0.13
   6   6   9    0.54    0.12
   6   6   9    0.33    0.11
   6   6   9    0.16    0.10
   2  -7  -9   -0.13    0.15
   2  -7  -9    0.00    0.14
   2  -7  -9    0.03    0.09
   2  -7  -9   -0.10    0.11
   2  -7  -9   -0.09    0.14
  -2   7   9   -0.13    0.14
  -2   7   9   -0.04    0.16
  -2   7   9   -0.10    0.13
  -2   7   9    0.10    0.14
   1  -7  -9    0.64    0.15
   1  -7  -9    0.51    0.12
   1  -7  -9    0.56    0.08
   1  -7  -9    0.55    0.13
   1  -7  -9    0.69    0.14
  -1   7   9    0.57    0.12
  -1   7   9    0.46    0.12
  -1   7   9    0.60    0.15
  -1   7   9    0.54    0.12
   0  -7  -9    0.15    0.10
   0  -7  -9    0.02    0.10
   0  -7  -9    0.13    0.10
   0  -7  -9   -0.02    0.09
   0  -7  -9    0.08    0.06
   0   7   9    0.18    0.11
   0   7   9    0.10    0.09
   0   7   9   -0.18    0.09
   0   7   9   -0.02    0.09
  -1  -7  -9    1.19    0.14
  -1  -7  -9    1.04    0.12
  -1  -7  -9    0.96    0.12
  -1  -7  -9    1.15    0.13
   1   7   9    1.12    0.12
   1   7   9    0.98    0.11
   1   7   9    1.09    0.12
   1   7   9    1.17    0.14
  -2  -7  -9    0.01    0.08
  -2  -7  -9    0.14    0.09
  -2  -7  -9    0.08    0.08
  -2  -7  -9    0.05    0.08
   2   7   9    0.05    0.08
   2   7   9    0.14    0.09
   2   7   9    0.07    0.07
   2   7   9    0.02    0.07
  -3  -7  -9    0.10    0.07
  -3  -7  -9    0.10    0.08
  -3  -7  -9    0.06    0.08
  -3  -7  -9    0.00    0.09
   3   7   9    0.05    0.06
   3   7   9    0.06    0.08
   3   7   9    0.07    0.08
   3   7   9   -0.05    0.06
  -4  -7  -9    0.44    0.10
  -4  -7  -9    0.46    0.10
  -4  -7  -9    0.38    0.08
  -4  -7  -9    0.42    0.11
   4   7   9    0.43    0.09
   4   7   9    0.31    0.09
   4   7   9    0.38    0.07
  -5  -7  -9    0.37    0.11
  -5  -7  -9    0.22    0.11
  -5  -7  -9    0.35    0.09
   5   7   9    0.35    0.10
   5   7   9    0.25    0.10
   5   7   9    0.01    0.08
  -6  -7  -9    0.74    0.13
  -6  -7  -9    0.56    0.12
  -6  -7  -9    0.78    0.13
  -6  -7  -9    0.73    0.14
   6   7   9    0.76    0.13
   6   7   9    0.71    0.12
   1  -8  -9    0.81    0.16
   1  -8  -9    0.87    0.17
   1  -8  -9    0.87    0.17
   1  -8  -9    0.79    0.09
   1  -8  -9    0.85    0.15
  -1   8   9    0.91    0.19
  -1   8   9    0.89    0.14
  -1   8   9    0.99    0.16
  -1   8   9    0.86    0.18
   0  -8  -9    2.75    0.26
   0  -8  -9    2.70    0.15
   0  -8  -9    2.99    0.23
   0  -8  -9    2.61    0.25
   0  -8  -9    2.93    0.26
   0   8   9    2.80    0.23
   0   8   9    2.38    0.25
   0   8   9    3.19    0.23
   0   8   9    3.13    0.24
  -1  -8  -9    0.86    0.12
  -1  -8  -9    0.78    0.14
  -1  -8  -9    0.72    0.12
  -1  -8  -9    0.89    0.09
  -1  -8  -9    0.92    0.15
   1   8   9    1.02    0.15
   1   8   9    0.59    0.12
   1   8   9    0.83    0.12
  -2  -8  -9    0.64    0.12
  -2  -8  -9    1.07    0.14
  -2  -8  -9    0.95    0.12
  -2  -8  -9    0.91    0.14
   2   8   9    0.67    0.13
   2   8   9    0.86    0.10
  -3  -8  -9    0.49    0.11
  -3  -8  -9    0.48    0.10
  -3  -8  -9    0.38    0.11
  -3  -8  -9    0.50    0.11
   3   8   9    0.65    0.09
   3   8   9    0.49    0.10
   3   8   9    0.44    0.12
   3   8   9    0.24    0.07
  -4  -8  -9   -0.13    0.09
  -4  -8  -9   -0.01    0.10
  -4  -8  -9   -0.06    0.10
  -4  -8  -9   -0.07    0.09
   4   8   9    0.10    0.08
   4   8   9    0.03    0.05
   4   8   9   -0.17    0.09
   4   8   9   -0.04    0.05
  -5  -8  -9    0.20    0.11
  -5  -8  -9    0.42    0.11
  -5  -8  -9    0.25    0.11
  -5  -8  -9    0.23    0.10
   5   8   9    0.20    0.11
   5   8   9    0.36    0.11
   5   8   9   -0.08    0.08
  -6  -8  -9    0.08    0.11
  -6  -8  -9    0.19    0.11
  -6  -8  -9    0.05    0.12
  -6  -8  -9    0.19    0.13
   6   8   9    0.10    0.10
   0   9   9    1.05    0.19
   0   9   9    1.32    0.18
   0   9   9    1.52    0.18
  -1  -9  -9    0.74    0.17
  -1  -9  -9    0.46    0.14
  -1  -9  -9    0.58    0.08
  -1  -9  -9    0.62    0.14
  -1  -9  -9    0.17    0.14
   1   9   9    0.17    0.12
   1   9   9    0.33    0.10
   1   9   9    0.50    0.13
   1   9   9    0.40    0.16
  -2  -9  -9    3.03    0.23
  -2  -9  -9    3.17    0.25
  -2  -9  -9    3.38    0.25
  -2  -9  -9    2.78    0.26
   2   9   9    2.62    0.21
   2   9   9    2.97    0.26
  -3  -9  -9    1.09    0.14
  -3  -9  -9    1.06    0.14
  -3  -9  -9    1.21    0.15
  -3  -9  -9    1.16    0.15
   3   9   9    1.36    0.16
   3   9   9    0.99    0.15
  -4  -9  -9    1.89    0.16
  -4  -9  -9    1.59    0.16
  -4  -9  -9    1.71    0.17
   4   9   9    2.04    0.19
   4   9   9    1.70    0.20
  -5  -9  -9    0.31    0.12
  -5  -9  -9    0.22    0.12
  -5  -9  -9    0.38    0.14
  -5  -9  -9    0.19    0.13
   5   9   9    0.16    0.11
   4   5 -10   -0.01    0.10
   4   5 -10    0.36    0.17
  -4  -5  10    0.05    0.15
  -4  -5  10    0.21    0.12
  -4  -5  10    0.23    0.11
  -4  -5  10    0.18    0.14
   3   5 -10    0.06    0.13
   3   5 -10    0.39    0.12
   3   5 -10    0.08    0.07
   3   5 -10    0.41    0.11
   3   5 -10    0.27    0.09
   3   5 -10    0.32    0.13
  -3  -5  10    0.27    0.15
  -3  -5  10    0.61    0.14
  -3  -5  10    0.29    0.12
  -3  -5  10    0.49    0.13
   2   5 -10    0.11    0.12
   2   5 -10    0.06    0.12
   2   5 -10    0.11    0.15
   2   5 -10    0.04    0.09
   2   5 -10   -0.02    0.10
  -2  -5  10   -0.02    0.13
  -2  -5  10    0.05    0.11
  -2  -5  10    0.01    0.15
  -2  -5  10    0.23    0.13
   1   5 -10    1.67    0.16
   1   5 -10    1.70    0.17
   1   5 -10    2.15    0.19
   1   5 -10    1.98    0.23
  -1  -5  10    1.61    0.18
  -1  -5  10    1.39    0.17
  -1  -5  10    2.13    0.23
  -1  -5  10    2.01    0.18
   0   5 -10   -0.02    0.13
   0   5 -10    0.21    0.13
   0   5 -10   -0.06    0.19
   0   5 -10    0.07    0.13
   0   5 -10    0.26    0.15
   0  -5  10    0.06    0.15
   0  -5  10   -0.23    0.18
   5   4 -10   -0.10    0.14
   5   4 -10    0.26    0.11
  -5  -4  10   -0.03    0.13
  -5  -4  10    0.08    0.11
  -5  -4  10    0.00    0.14
  -5  -4  10    0.14    0.12
   4   4 -10    1.73    0.18
   4   4 -10    1.49    0.17
   4   4 -10    1.72    0.16
  -4  -4  10    1.63    0.15
  -4  -4  10    1.44    0.16
  -4  -4  10    1.64    0.19
  -4  -4  10    1.63    0.18
   3   4 -10    0.10    0.10
   3   4 -10    0.06    0.11
   3   4 -10    0.09    0.08
   3   4 -10    0.07    0.12
   3   4 -10    0.06    0.07
   3   4 -10    0.07    0.09
  -3  -4  10   -0.02    0.10
  -3  -4  10   -0.03    0.10
  -3  -4  10    0.08    0.09
  -3  -4  10    0.06    0.12
   2   4 -10    2.48    0.19
   2   4 -10    2.40    0.21
   2   4 -10    2.45    0.16
   2   4 -10    2.39    0.21
  -2  -4  10    2.39    0.24
  -2  -4  10    2.57    0.22
  -2  -4  10    2.31    0.20
  -2  -4  10    2.33    0.22
   1   4 -10    0.07    0.13
   1   4 -10    0.38    0.12
   1   4 -10    0.25    0.11
   1   4 -10    0.15    0.10
  -1  -4  10    0.30    0.15
  -1  -4  10    0.25    0.12
  -1  -4  10    0.24    0.10
  -1  -4  10    0.11    0.12
   0   4 -10    0.63    0.14
   0   4 -10    1.06    0.18
   0   4 -10    0.91    0.14
   0   4 -10    0.91    0.12
   0  -4  10    1.02    0.17
   0  -4  10    0.95    0.13
   0  -4  10    1.02    0.15
   0  -4  10    1.49    0.20
  -1   4 -10    0.00    0.11
  -1   4 -10    0.12    0.14
  -1   4 -10    0.23    0.14
  -1   4 -10    0.37    0.18
   1  -4  10    0.34    0.14
   1  -4  10    0.23    0.16
   1  -4  10    0.06    0.10
   1  -4  10    0.08    0.18
   5   3 -10    0.45    0.15
   5   3 -10    0.01    0.12
   5   3 -10    0.48    0.12
   5   3 -10    0.46    0.12
  -5  -3  10    0.23    0.11
  -5  -3  10    0.40    0.13
  -5  -3  10    0.35    0.13
  -5  -3  10    0.39    0.12
   4   3 -10    0.21    0.10
   4   3 -10    0.26    0.12
   4   3 -10   -0.02    0.10
   4   3 -10    0.17    0.08
   4   3 -10    0.02    0.06
   4   3 -10    0.16    0.09
  -4  -3  10    0.17    0.10
  -4  -3  10    0.19    0.10
  -4  -3  10    0.21    0.11
  -4  -3  10    0.21    0.11
   3   3 -10    0.32    0.07
   3   3 -10    0.04    0.10
   3   3 -10    0.28    0.08
   3   3 -10    0.26    0.12
   3   3 -10    0.34    0.10
  -3  -3  10    0.36    0.13
  -3  -3  10    0.38    0.10
  -3  -3  10    0.37    0.11
  -3  -3  10    0.37    0.11
   2   3 -10    0.30    0.09
   2   3 -10    0.29    0.08
   2   3 -10    0.28    0.11
   2   3 -10    0.43    0.10
   2   3 -10    0.31    0.12
  -2  -3  10    0.30    0.11
  -2  -3  10    0.34    0.10
  -2  -3  10    0.31    0.10
  -2  -3  10    0.23    0.11
   1   3 -10   -0.07    0.08
   1   3 -10   -0.01    0.10
   1   3 -10   -0.16    0.11
   1   3 -10   -0.12    0.08
  -1  -3  10   -0.07    0.08
  -1  -3  10    0.14    0.10
  -1  -3  10   -0.08    0.09
  -1  -3  10   -0.04    0.11
   0   3 -10    0.37    0.13
   0   3 -10    0.36    0.09
   0   3 -10    0.18    0.09
   0   3 -10    0.33    0.11
   0  -3  10    0.43    0.12
   0  -3  10    0.17    0.09
   0  -3  10    0.30    0.14
   0  -3  10    0.08    0.09
  -1   3 -10    0.27    0.14
  -1   3 -10    0.12    0.09
  -1   3 -10    0.13    0.12
  -1   3 -10    0.33    0.12
   1  -3  10    0.07    0.10
   1  -3  10    0.01    0.15
   1  -3  10    0.33    0.14
   1  -3  10    0.08    0.10
  -2   3 -10    0.20    0.13
  -2   3 -10    0.28    0.17
  -2   3 -10    0.25    0.13
  -2   3 -10    0.24    0.11
   2  -3  10    0.27    0.15
   2  -3  10   -0.10    0.12
   2  -3  10    0.04    0.18
   2  -3  10    0.06    0.11
   5   2 -10    0.11    0.13
   5   2 -10    0.10    0.08
   5   2 -10   -0.11    0.12
   5   2 -10    0.04    0.10
   5   2 -10   -0.04    0.09
   5   2 -10    0.02    0.06
  -5  -2  10    0.00    0.10
  -5  -2  10    0.06    0.10
  -5  -2  10   -0.17    0.11
  -5  -2  10    0.10    0.09
   4   2 -10    0.33    0.10
   4   2 -10    0.09    0.10
   4   2 -10    0.12    0.08
   4   2 -10    0.26    0.11
   4   2 -10    0.17    0.07
  -4  -2  10    0.20    0.10
  -4  -2  10    0.25    0.10
  -4  -2  10    0.03    0.11
  -4  -2  10    0.14    0.10
   3   2 -10    0.17    0.09
   3   2 -10    0.05    0.06
   3   2 -10    0.17    0.10
   3   2 -10    0.05    0.09
  -3  -2  10    0.05    0.08
  -3  -2  10   -0.08    0.09
  -3  -2  10   -0.07    0.08
  -3  -2  10    0.11    0.09
   2   2 -10    0.61    0.10
   2   2 -10    0.50    0.08
   2   2 -10    0.62    0.12
   2   2 -10    0.52    0.10
   2   2 -10    0.62    0.11
  -2  -2  10    0.49    0.09
  -2  -2  10    0.54    0.10
  -2  -2  10    0.72    0.11
  -2  -2  10    0.67    0.13
   1   2 -10    0.86    0.13
   1   2 -10    0.84    0.11
   1   2 -10    0.91    0.12
   1   2 -10    0.95    0.12
  -1  -2  10    0.84    0.11
  -1  -2  10    0.97    0.14
  -1  -2  10    0.79    0.12
  -1  -2  10    0.65    0.09
   0   2 -10    0.73    0.12
   0   2 -10    0.64    0.14
   0   2 -10    0.49    0.08
   0   2 -10    0.47    0.10
   0  -2  10    0.65    0.12
   0  -2  10    0.84    0.11
   0  -2  10    0.52    0.12
   0  -2  10    0.71    0.11
  -1   2 -10    1.33    0.16
  -1   2 -10    1.37    0.14
  -1   2 -10    1.50    0.16
  -1   2 -10    1.11    0.11
   1  -2  10    1.18    0.16
   1  -2  10    0.96    0.11
   1  -2  10    1.28    0.14
   1  -2  10    1.13    0.14
  -2   2 -10    0.02    0.14
  -2   2 -10   -0.04    0.09
  -2   2 -10    0.15    0.13
  -2   2 -10    0.13    0.11
   2  -2  10   -0.05    0.11
   2  -2  10    0.15    0.09
   2  -2  10    0.05    0.13
   2  -2  10   -0.02    0.14
  -3   2 -10    1.06    0.17
  -3   2 -10    0.99    0.14
  -3   2 -10    0.76    0.16
  -3   2 -10    0.80    0.19
   3  -2  10    0.87    0.15
   3  -2  10    1.01    0.20
   3  -2  10    0.86    0.19
   3  -2  10    0.73    0.13
   6   1 -10    0.16    0.18
  -6  -1  10    0.13    0.14
  -6  -1  10    0.37    0.16
   5   1 -10   -0.04    0.07
   5   1 -10   -0.07    0.12
   5   1 -10    0.07    0.12
   5   1 -10    0.25    0.11
   5   1 -10   -0.07    0.09
   5   1 -10    0.07    0.08
  -5  -1  10   -0.03    0.09
  -5  -1  10    0.11    0.11
  -5  -1  10   -0.05    0.12
  -5  -1  10   -0.14    0.13
   4   1 -10    0.09    0.06
   4   1 -10    0.09    0.10
   4   1 -10   -0.09    0.09
   4   1 -10    0.18    0.11
  -4  -1  10    0.06    0.10
  -4  -1  10    0.12    0.09
  -4  -1  10    0.21    0.12
  -4  -1  10    0.04    0.08
   3   1 -10    0.11    0.08
   3   1 -10   -0.06    0.10
   3   1 -10   -0.04    0.07
   3   1 -10   -0.08    0.08
  -3  -1  10    0.11    0.08
  -3  -1  10    0.03    0.08
  -3  -1  10   -0.05    0.08
  -3  -1  10    0.02    0.09
   2   1 -10    1.78    0.16
   2   1 -10    1.98    0.13
   2   1 -10    2.06    0.16
   2   1 -10    2.17    0.20
   2   1 -10    2.38    0.17
  -2  -1  10    2.00    0.16
  -2  -1  10    1.83    0.16
  -2  -1  10    1.92    0.18
  -2  -1  10    2.02    0.17
   1   1 -10   -0.02    0.09
   1   1 -10    0.16    0.07
   1   1 -10    0.07    0.08
   1   1 -10    0.06    0.07
  -1  -1  10    0.02    0.09
  -1  -1  10    0.04    0.07
  -1  -1  10   -0.02    0.07
  -1  -1  10    0.14    0.08
   0   1 -10    1.94    0.17
   0   1 -10    1.98    0.20
   0   1 -10    2.12    0.18
   0  -1  10    1.97    0.18
   0  -1  10    1.89    0.19
   0  -1  10    1.99    0.16
  -1   1 -10    0.50    0.13
  -1   1 -10    0.49    0.09
  -1   1 -10    0.44    0.11
  -1   1 -10    0.47    0.10
   1  -1  10    0.40    0.09
   1  -1  10    0.47    0.11
   1  -1  10    0.30    0.10
  -2   1 -10    0.45    0.11
  -2   1 -10    0.52    0.09
  -2   1 -10    0.36    0.13
  -2   1 -10    0.43    0.13
   2  -1  10    0.38    0.12
   2  -1  10    0.50    0.10
   2  -1  10    0.52    0.11
   2  -1  10    0.30    0.12
  -3   1 -10    0.10    0.10
  -3   1 -10    0.49    0.15
  -3   1 -10    0.56    0.16
  -3   1 -10    0.43    0.09
   3  -1  10    0.43    0.12
   3  -1  10    0.31    0.11
   3  -1  10    0.38    0.14
   3  -1  10    0.68    0.16
  -4   1 -10   -0.04    0.11
  -4   1 -10    0.10    0.15
  -4   1 -10    0.14    0.18
  -4   1 -10    0.03    0.14
   4  -1  10   -0.06    0.11
   4  -1  10   -0.07    0.18
   4  -1  10    0.09    0.15
   4  -1  10   -0.02    0.13
   5   0 -10    0.63    0.11
   5   0 -10    0.47    0.13
   5   0 -10    0.55    0.13
   5   0 -10    0.60    0.10
  -5   0  10    0.50    0.12
  -5   0  10    0.45    0.13
  -5   0  10    0.60    0.15
  -5   0  10    0.94    0.18
   4   0 -10    1.45    0.17
   4   0 -10    1.50    0.14
   4   0 -10    1.60    0.16
   4   0 -10    1.28    0.14
   4   0 -10    1.36    0.14
  -4   0  10    1.56    0.17
  -4   0  10    1.44    0.13
  -4   0  10    1.32    0.15
  -4   0  10    1.23    0.13
   3   0 -10    2.30    0.18
   3   0 -10    2.52    0.15
   3   0 -10    2.60    0.18
   3   0 -10    2.17    0.20
   3   0 -10    2.14    0.17
  -3   0  10    2.22    0.21
  -3   0  10    2.10    0.17
  -3   0  10    1.88    0.18
  -3   0  10    2.42    0.18
   2   0 -10    3.04    0.18
   2   0 -10    3.45    0.22
   2   0 -10    3.11    0.20
   2   0 -10    3.10    0.18
   2   0 -10    3.31    0.16
  -2   0  10    3.26    0.21
  -2   0  10    3.47    0.20
  -2   0  10    3.30    0.18
  -2   0  10    3.40    0.19
   1   0 -10    0.98    0.13
   1   0 -10    1.09    0.11
   1   0 -10    1.18    0.12
  -1   0  10    1.21    0.14
  -1   0  10    1.48    0.14
  -1   0  10    1.11    0.12
   0   0 -10    1.88    0.18
   0   0 -10    1.86    0.16
   0   0  10    2.10    0.12
   0   0  10    2.19    0.18
   0   0  10    1.98    0.15
  -1   0 -10    0.06    0.10
  -1   0 -10    0.10    0.06
  -1   0 -10    0.01    0.09
  -1   0 -10    0.08    0.08
   1   0  10    0.04    0.06
   1   0  10   -0.11    0.08
   1   0  10   -0.07    0.08
   1   0  10   -0.03    0.07
  -2   0 -10    0.38    0.11
  -2   0 -10    0.22    0.08
  -2   0 -10    0.31    0.12
  -2   0 -10    0.31    0.10
   2   0  10    0.20    0.07
   2   0  10    0.28    0.08
   2   0  10    0.25    0.10
   2   0  10    0.44    0.12
  -3   0 -10    0.07    0.11
  -3   0 -10    0.17    0.10
  -3   0 -10   -0.05    0.08
  -3   0 -10   -0.03    0.12
   3   0  10    0.08    0.08
   3   0  10    0.18    0.10
   3   0  10    0.13    0.12
   3   0  10    0.13    0.12
  -4   0 -10   -0.01    0.09
  -4   0 -10   -0.02    0.13
  -4   0 -10   -0.01    0.11
  -4   0 -10    0.11    0.15
   4   0  10    0.01    0.10
   4   0  10    0.01    0.11
   4   0  10    0.18    0.15
   4   0  10    0.02    0.15
  -5   0 -10    0.08    0.18
  -5   0 -10    0.16    0.20
  -5   0 -10    0.20    0.16
   5   0  10    0.09    0.13
   5   0  10    0.23    0.14
   5   0  10    0.25    0.19
   5   0  10   -0.11    0.18
   5  -1 -10    0.23    0.10
   5  -1 -10   -0.07    0.12
   5  -1 -10    0.17    0.09
   5  -1 -10    0.25    0.14
   5  -1 -10   -0.11    0.14
  -5   1  10    0.04    0.10
  -5   1  10   -0.02    0.12
  -5   1  10    0.36    0.17
  -5   1  10    0.25    0.14
   4  -1 -10    0.55    0.13
   4  -1 -10    0.47    0.12
   4  -1 -10    0.53    0.11
   4  -1 -10    0.49    0.12
  -4   1  10    0.47    0.13
  -4   1  10    0.58    0.12
  -4   1  10    0.49    0.13
  -4   1  10    0.32    0.10
   3  -1 -10    0.21    0.11
   3  -1 -10    0.04    0.09
   3  -1 -10    0.21    0.09
   3  -1 -10    0.10    0.08
  -3   1  10    0.00    0.08
  -3   1  10    0.20    0.11
  -3   1  10    0.06    0.08
  -3   1  10    0.25    0.09
   2  -1 -10    0.30    0.10
   2  -1 -10    0.20    0.08
   2  -1 -10    0.27    0.08
   2  -1 -10    0.28    0.10
  -2   1  10    0.28    0.10
  -2   1  10    0.33    0.09
  -2   1  10    0.07    0.07
  -2   1  10    0.23    0.08
   1  -1 -10   -0.04    0.09
   1  -1 -10    0.07    0.07
  -1   1  10   -0.19    0.07
  -1   1  10    0.05    0.07
   0  -1 -10    2.76    0.18
   0  -1 -10    2.49    0.19
   0  -1 -10    2.51    0.16
   0   1  10    2.72    0.21
   0   1  10    2.79    0.16
   0   1  10    2.57    0.18
  -1  -1 -10    0.18    0.08
  -1  -1 -10    0.18    0.09
  -1  -1 -10    0.15    0.08
   1   1  10    0.24    0.07
   1   1  10    0.18    0.09
   1   1  10    0.22    0.07
   1   1  10    0.09    0.09
  -2  -1 -10    1.52    0.18
  -2  -1 -10    1.90    0.17
  -2  -1 -10    1.90    0.18
   2   1  10    1.88    0.18
   2   1  10    1.61    0.14
   2   1  10    1.47    0.18
   2   1  10    1.65    0.13
  -3  -1 -10    0.03    0.07
  -3  -1 -10    0.13    0.09
  -3  -1 -10    0.07    0.11
  -3  -1 -10   -0.05    0.09
   3   1  10    0.23    0.09
   3   1  10    0.01    0.07
   3   1  10    0.15    0.11
   3   1  10   -0.10    0.07
   3   1  10    0.10    0.10
  -4  -1 -10    0.31    0.09
  -4  -1 -10    0.11    0.13
  -4  -1 -10    0.32    0.12
  -4  -1 -10    0.22    0.13
   4   1  10    0.17    0.10
   4   1  10    0.46    0.15
   4   1  10    0.21    0.09
   4   1  10    0.25    0.09
   4   1  10    0.30    0.14
  -5  -1 -10    0.06    0.15
  -5  -1 -10   -0.17    0.13
  -5  -1 -10   -0.07    0.10
  -5  -1 -10    0.24    0.15
   5   1  10   -0.08    0.09
   5   1  10    0.12    0.11
   5   1  10   -0.08    0.17
   5   1  10   -0.18    0.16
   5   1  10    0.01    0.12
   5  -2 -10   -0.14    0.09
   5  -2 -10    0.13    0.14
   5  -2 -10    0.10    0.11
   5  -2 -10    0.14    0.14
   5  -2 -10    0.21    0.15
  -5   2  10    0.15    0.18
  -5   2  10    0.12    0.14
  -5   2  10    0.18    0.13
  -5   2  10    0.13    0.13
   4  -2 -10    0.19    0.11
   4  -2 -10   -0.06    0.10
   4  -2 -10   -0.03    0.08
   4  -2 -10    0.07    0.13
   4  -2 -10    0.02    0.09
  -4   2  10   -0.16    0.09
  -4   2  10    0.01    0.13
  -4   2  10   -0.01    0.10
  -4   2  10    0.03    0.09
   3  -2 -10    2.00    0.17
   3  -2 -10    1.60    0.18
   3  -2 -10    1.98    0.17
   3  -2 -10    2.05    0.21
   3  -2 -10    2.04    0.15
  -3   2  10    1.89    0.18
  -3   2  10    1.95    0.21
  -3   2  10    1.96    0.18
  -3   2  10    2.08    0.19
   2  -2 -10    0.01    0.09
   2  -2 -10   -0.02    0.08
   2  -2 -10    0.06    0.08
   2  -2 -10    0.02    0.08
  -2   2  10    0.03    0.07
  -2   2  10    0.10    0.08
  -2   2  10    0.07    0.10
   1  -2 -10    5.06    0.25
   1  -2 -10    4.60    0.23
   1  -2 -10    4.57    0.21
   1  -2 -10    5.03    0.22
  -1   2  10    4.85    0.24
  -1   2  10    4.86    0.21
  -1   2  10    4.60    0.24
   0  -2 -10    0.69    0.09
   0  -2 -10    0.90    0.12
   0  -2 -10    1.28    0.13
   0   2  10    1.01    0.12
   0   2  10    0.71    0.09
   0   2  10    0.85    0.12
  -1  -2 -10    2.44    0.18
  -1  -2 -10    2.32    0.17
  -1  -2 -10    2.30    0.19
   1   2  10    2.49    0.16
   1   2  10    2.41    0.18
   1   2  10    2.52    0.18
  -2  -2 -10    4.44    0.24
  -2  -2 -10    4.46    0.22
  -2  -2 -10    4.68    0.23
   2   2  10    4.62    0.22
   2   2  10    4.22    0.23
   2   2  10    4.71    0.24
   2   2  10    4.82    0.21
  -3  -2 -10    0.66    0.09
  -3  -2 -10    0.74    0.12
  -3  -2 -10    0.89    0.14
  -3  -2 -10    0.93    0.12
   3   2  10    1.03    0.14
   3   2  10    0.97    0.11
   3   2  10    0.83    0.12
   3   2  10    1.04    0.14
  -4  -2 -10    5.63    0.28
  -4  -2 -10    5.96    0.30
  -4  -2 -10    5.59    0.24
  -4  -2 -10    5.29    0.28
   4   2  10    5.71    0.30
   4   2  10    5.83    0.25
   4   2  10    5.32    0.27
   4   2  10    5.69    0.24
   4   2  10    5.30    0.29
  -5  -2 -10    0.63    0.15
  -5  -2 -10    0.25    0.14
  -5  -2 -10    0.49    0.16
  -5  -2 -10    0.63    0.12
   5   2  10    0.37    0.12
   5   2  10    0.65    0.12
   5   2  10    0.59    0.15
   5   2  10    0.69    0.16
   5   2  10    0.35    0.11
   5  -3 -10   -0.18    0.12
   5  -3 -10    0.03    0.13
  -5   3  10    0.27    0.14
   4  -3 -10    0.64    0.14
   4  -3 -10    0.61    0.12
   4  -3 -10    0.63    0.12
   4  -3 -10    0.84    0.14
   4  -3 -10    0.58    0.17
  -4   3  10    0.74    0.14
  -4   3  10    0.74    0.18
  -4   3  10    0.51    0.13
  -4   3  10    0.64    0.14
   3  -3 -10    0.55    0.14
   3  -3 -10    0.26    0.11
   3  -3 -10    0.43    0.10
   3  -3 -10    0.36    0.09
   3  -3 -10    0.35    0.10
  -3   3  10    0.44    0.10
  -3   3  10    0.53    0.10
  -3   3  10    0.38    0.12
  -3   3  10    0.19    0.12
   2  -3 -10    0.75    0.13
   2  -3 -10    0.77    0.10
   2  -3 -10    0.74    0.09
   2  -3 -10    0.77    0.11
   2  -3 -10    0.93    0.11
  -2   3  10    0.92    0.13
  -2   3  10    0.88    0.13
  -2   3  10    0.85    0.12
   1  -3 -10    0.55    0.11
   1  -3 -10    0.62    0.11
   1  -3 -10    0.38    0.07
   1  -3 -10    0.54    0.08
   1  -3 -10    0.52    0.10
  -1   3  10    0.50    0.09
  -1   3  10    0.71    0.11
  -1   3  10    0.53    0.09
  -1   3  10    0.59    0.12
   0  -3 -10    0.04    0.07
   0  -3 -10    0.30    0.08
   0  -3 -10    0.12    0.08
   0   3  10    0.00    0.08
   0   3  10   -0.03    0.07
   0   3  10   -0.04    0.06
  -1  -3 -10    0.72    0.10
  -1  -3 -10    0.70    0.10
   1   3  10    0.63    0.09
   1   3  10    0.67    0.11
  -2  -3 -10    0.03    0.09
  -2  -3 -10   -0.08    0.07
  -2  -3 -10    0.13    0.09
   2   3  10   -0.03    0.08
   2   3  10    0.02    0.07
   2   3  10    0.00    0.08
  -3  -3 -10    0.10    0.10
  -3  -3 -10    0.05    0.08
  -3  -3 -10    0.10    0.09
  -3  -3 -10   -0.05    0.06
   3   3  10    0.08    0.09
   3   3  10    0.02    0.07
   3   3  10   -0.02    0.09
  -4  -3 -10    0.30    0.11
  -4  -3 -10    0.10    0.11
  -4  -3 -10    0.28    0.11
  -4  -3 -10    0.40    0.09
   4   3  10    0.20    0.08
   4   3  10    0.41    0.12
   4   3  10    0.39    0.12
  -5  -3 -10    0.37    0.13
  -5  -3 -10    0.35    0.14
  -5  -3 -10    0.26    0.13
  -5  -3 -10    0.25    0.10
   5   3  10    0.28    0.10
   5   3  10    0.43    0.15
   5   3  10    0.31    0.11
   5   3  10    0.01    0.12
  -6  -3 -10    0.51    0.16
  -6  -3 -10    0.50    0.17
  -6  -3 -10    0.62    0.14
  -6  -3 -10    0.59    0.17
   6   3  10    0.54    0.12
   6   3  10    0.54    0.11
   6   3  10    0.39    0.13
   6   3  10   -0.03    0.15
   4  -4 -10   -0.21    0.13
   4  -4 -10   -0.07    0.12
   4  -4 -10   -0.07    0.11
   4  -4 -10   -0.01    0.17
   4  -4 -10    0.02    0.13
  -4   4  10    0.20    0.16
  -4   4  10    0.08    0.13
  -4   4  10    0.08    0.14
  -4   4  10    0.03    0.12
   3  -4 -10    0.69    0.13
   3  -4 -10    0.80    0.11
   3  -4 -10    0.56    0.11
   3  -4 -10    0.64    0.14
  -3   4  10    0.60    0.13
  -3   4  10    0.77    0.14
  -3   4  10    0.67    0.13
  -3   4  10    0.94    0.18
   2  -4 -10   -0.02    0.07
   2  -4 -10    0.01    0.08
   2  -4 -10    0.02    0.08
   2  -4 -10    0.04    0.10
  -2   4  10   -0.07    0.09
  -2   4  10    0.14    0.09
  -2   4  10   -0.15    0.09
   1  -4 -10    0.16    0.07
   1  -4 -10    0.07    0.08
   1  -4 -10    0.21    0.08
   1  -4 -10    0.09    0.08
  -1   4  10    0.32    0.11
  -1   4  10    0.11    0.09
  -1   4  10    0.17    0.09
   0  -4 -10    0.05    0.09
   0  -4 -10    0.23    0.09
   0  -4 -10    0.08    0.08
   0   4  10    0.04    0.07
   0   4  10   -0.05    0.07
   0   4  10    0.13    0.10
  -1  -4 -10   -0.03    0.08
  -1  -4 -10    0.05    0.08
  -1  -4 -10   -0.19    0.07
   1   4  10    0.02    0.06
   1   4  10    0.14    0.08
   1   4  10    0.15    0.08
  -2  -4 -10    0.09    0.08
  -2  -4 -10    0.17    0.08
  -2  -4 -10    0.11    0.10
   2   4  10    0.22    0.09
   2   4  10    0.08    0.06
   2   4  10    0.10    0.08
   2   4  10    0.03    0.07
  -3  -4 -10    0.02    0.09
  -3  -4 -10    0.04    0.07
  -3  -4 -10   -0.07    0.08
  -3  -4 -10   -0.04    0.09
   3   4  10   -0.03    0.07
   3   4  10    0.00    0.08
   3   4  10    0.04    0.09
   3   4  10    0.02    0.07
  -4  -4 -10    0.49    0.11
  -4  -4 -10    0.31    0.11
  -4  -4 -10    0.47    0.12
  -4  -4 -10    0.45    0.10
   4   4  10    0.40    0.09
   4   4  10    0.51    0.09
   4   4  10    0.36    0.11
   4   4  10    0.58    0.13
  -5  -4 -10    0.08    0.12
  -5  -4 -10    0.02    0.11
  -5  -4 -10    0.00    0.09
  -5  -4 -10    0.15    0.12
   5   4  10    0.08    0.12
   5   4  10    0.02    0.12
   5   4  10    0.07    0.08
  -6  -4 -10    0.17    0.15
  -6  -4 -10    0.28    0.15
  -6  -4 -10    0.41    0.13
  -6  -4 -10    0.40    0.15
   6   4  10    0.10    0.09
   6   4  10    0.05    0.14
   6   4  10    0.34    0.10
   3  -5 -10    0.07    0.12
   3  -5 -10    0.05    0.14
   3  -5 -10    0.09    0.10
   3  -5 -10    0.22    0.17
   3  -5 -10   -0.11    0.11
  -3   5  10   -0.06    0.15
  -3   5  10   -0.05    0.11
  -3   5  10    0.07    0.13
  -3   5  10    0.18    0.14
   2  -5 -10    0.61    0.11
   2  -5 -10    0.62    0.13
   2  -5 -10    0.54    0.13
   2  -5 -10    0.56    0.11
   2  -5 -10    0.61    0.14
  -2   5  10    0.64    0.12
  -2   5  10    0.82    0.14
  -2   5  10    0.55    0.12
  -2   5  10    0.54    0.15
   1  -5 -10   -0.03    0.09
   1  -5 -10    0.14    0.11
   1  -5 -10   -0.16    0.08
   1  -5 -10    0.06    0.11
  -1   5  10    0.01    0.09
  -1   5  10   -0.16    0.09
  -1   5  10    0.03    0.12
  -1   5  10    0.02    0.10
   0  -5 -10    2.19    0.20
   0  -5 -10    2.00    0.19
   0  -5 -10    2.08    0.20
   0   5  10    2.33    0.17
   0   5  10    2.49    0.17
   0   5  10    2.36    0.20
   0   5  10    2.16    0.21
  -1  -5 -10    0.01    0.09
  -1  -5 -10    0.05    0.07
  -1  -5 -10    0.12    0.08
  -1  -5 -10    0.15    0.09
   1   5  10    0.14    0.08
   1   5  10    0.05    0.08
   1   5  10   -0.04    0.09
  -2  -5 -10    1.82    0.18
  -2  -5 -10    1.51    0.16
  -2  -5 -10    1.69    0.17
  -2  -5 -10    1.51    0.14
   2   5  10    1.59    0.15
   2   5  10    1.74    0.17
   2   5  10    1.44    0.17
   2   5  10    1.54    0.15
  -3  -5 -10    0.15    0.09
  -3  -5 -10    0.10    0.09
  -3  -5 -10    0.06    0.10
   3   5  10    0.07    0.07
   3   5  10    0.22    0.09
   3   5  10    0.16    0.09
  -4  -5 -10    1.07    0.12
  -4  -5 -10    0.73    0.12
  -4  -5 -10    1.17    0.14
  -4  -5 -10    1.41    0.16
   4   5  10    1.09    0.13
   4   5  10    1.14    0.11
  -5  -5 -10    0.11    0.11
  -5  -5 -10    0.10    0.12
  -5  -5 -10   -0.04    0.09
  -5  -5 -10    0.11    0.11
   5   5  10   -0.01    0.08
   5   5  10    0.04    0.12
   5   5  10   -0.01    0.11
   5   5  10   -0.03    0.08
   5   5  10    0.03    0.07
  -6  -5 -10    0.79    0.16
  -6  -5 -10    0.72    0.16
  -6  -5 -10    0.71    0.15
  -6  -5 -10    0.58    0.13
   6   5  10    0.94    0.13
   3  -6 -10    0.13    0.15
   3  -6 -10    0.14    0.12
   3  -6 -10    0.26    0.19
   3  -6 -10   -0.02    0.17
  -3   6  10    0.19    0.19
  -3   6  10    0.17    0.15
  -3   6  10    0.34    0.17
   2  -6 -10    1.31    0.18
   2  -6 -10    2.12    0.22
   2  -6 -10    1.02    0.15
   2  -6 -10    1.23    0.16
  -2   6  10    1.35    0.17
  -2   6  10    1.27    0.16
  -2   6  10    1.00    0.17
  -2   6  10    1.44    0.18
   1  -6 -10    0.03    0.08
   1  -6 -10    0.03    0.10
   1  -6 -10    0.18    0.14
   1  -6 -10   -0.02    0.10
   1  -6 -10    0.22    0.12
  -1   6  10    0.06    0.09
  -1   6  10    0.13    0.12
  -1   6  10    0.13    0.11
  -1   6  10   -0.04    0.13
   0  -6 -10    1.03    0.11
   0  -6 -10    1.13    0.15
   0  -6 -10    0.83    0.13
   0  -6 -10    1.11    0.14
   0  -6 -10    1.15    0.12
   0   6  10    1.09    0.12
   0   6  10    1.47    0.16
   0   6  10    0.82    0.12
   0   6  10    1.24    0.13
  -1  -6 -10    0.34    0.11
  -1  -6 -10    0.31    0.11
  -1  -6 -10    0.18    0.10
  -1  -6 -10    0.28    0.09
   1   6  10    0.33    0.10
   1   6  10    0.14    0.08
   1   6  10    0.39    0.12
  -2  -6 -10    0.31    0.10
  -2  -6 -10    0.27    0.08
  -2  -6 -10    0.24    0.10
  -2  -6 -10    0.29    0.10
   2   6  10    0.20    0.08
   2   6  10    0.36    0.11
   2   6  10    0.08    0.08
   2   6  10    0.22    0.10
  -3  -6 -10    0.75    0.10
  -3  -6 -10    1.12    0.14
  -3  -6 -10    1.06    0.14
  -3  -6 -10    0.92    0.13
   3   6  10    0.94    0.13
   3   6  10    0.85    0.12
   3   6  10    0.79    0.10
  -4  -6 -10    0.00    0.10
  -4  -6 -10   -0.06    0.10
  -4  -6 -10    0.06    0.11
   4   6  10    0.05    0.10
   4   6  10    0.06    0.07
   4   6  10    0.06    0.07
   4   6  10    0.20    0.11
  -5  -6 -10    0.33    0.12
  -5  -6 -10    0.52    0.12
  -5  -6 -10    0.45    0.13
  -5  -6 -10    0.33    0.11
   5   6  10    0.32    0.10
   5   6  10    0.00    0.10
   5   6  10    0.58    0.12
   5   6  10    0.05    0.07
   5   6  10    0.29    0.08
  -6  -6 -10    0.57    0.15
  -6  -6 -10    0.30    0.14
  -6  -6 -10    0.40    0.14
  -6  -6 -10    0.22    0.12
   6   6  10    0.30    0.11
   6   6  10    0.04    0.06
   2  -7 -10   -0.16    0.16
  -2   7  10    0.09    0.16
  -2   7  10    0.00    0.17
  -2   7  10    0.03    0.16
   1  -7 -10    0.58    0.10
   1  -7 -10    0.35    0.16
   1  -7 -10    0.37    0.13
   1  -7 -10    0.63    0.15
   1  -7 -10    0.57    0.16
  -1   7  10    0.52    0.14
  -1   7  10    0.53    0.17
  -1   7  10    0.18    0.14
   0  -7 -10    0.01    0.13
   0  -7 -10    0.00    0.11
   0  -7 -10    0.04    0.10
   0  -7 -10    0.01    0.08
   0  -7 -10   -0.01    0.13
   0   7  10    0.06    0.14
   0   7  10    0.05    0.11
   0   7  10    0.11    0.11
   0   7  10    0.20    0.11
  -1  -7 -10   -0.09    0.09
  -1  -7 -10    0.00    0.12
  -1  -7 -10    0.15    0.12
  -1  -7 -10    0.14    0.10
   1   7  10    0.11    0.09
   1   7  10    0.15    0.09
   1   7  10    0.12    0.11
   1   7  10    0.07    0.12
  -2  -7 -10    0.11    0.11
  -2  -7 -10    0.03    0.11
  -2  -7 -10    0.15    0.09
  -2  -7 -10    0.18    0.11
   2   7  10    0.09    0.09
   2   7  10    0.03    0.11
   2   7  10    0.10    0.10
   2   7  10    0.11    0.09
  -3  -7 -10   -0.10    0.10
  -3  -7 -10    0.01    0.09
  -3  -7 -10    0.03    0.10
  -3  -7 -10    0.10    0.11
   3   7  10   -0.01    0.07
   3   7  10    0.05    0.10
   3   7  10   -0.10    0.10
  -4  -7 -10    0.03    0.11
  -4  -7 -10    0.05    0.09
  -4  -7 -10   -0.03    0.10
  -4  -7 -10   -0.07    0.11
   4   7  10    0.04    0.07
   4   7  10   -0.11    0.09
   4   7  10    0.09    0.08
   4   7  10   -0.13    0.10
  -5  -7 -10   -0.01    0.12
  -5  -7 -10   -0.03    0.12
  -5  -7 -10    0.13    0.12
  -5  -7 -10    0.09    0.11
   5   7  10    0.07    0.09
   5   7  10    0.00    0.12
   5   7  10   -0.06    0.06
   5   7  10   -0.06    0.11
   5   7  10    0.04    0.07
   0  -8 -10   -0.17    0.14
   0  -8 -10    0.08    0.12
   0  -8 -10    0.29    0.15
   0  -8 -10    0.15    0.08
   0  -8 -10    0.15    0.14
   0   8  10    0.01    0.17
   0   8  10    0.00    0.14
   0   8  10   -0.12    0.13
   0   8  10    0.02    0.13
  -1  -8 -10   -0.11    0.14
  -1  -8 -10   -0.08    0.09
  -1  -8 -10   -0.19    0.11
  -1  -8 -10    0.07    0.13
  -1  -8 -10    0.07    0.13
   1   8  10   -0.19    0.12
   1   8  10   -0.04    0.11
   1   8  10   -0.05    0.14
   1   8  10    0.04    0.11
  -2  -8 -10   -0.06    0.10
  -2  -8 -10    0.10    0.12
  -2  -8 -10    0.01    0.13
  -2  -8 -10    0.02    0.13
   2   8  10    0.02    0.10
   2   8  10   -0.06    0.12
   2   8  10    0.16    0.11
   2   8  10   -0.12    0.09
  -3  -8 -10    0.38    0.13
  -3  -8 -10    0.06    0.12
  -3  -8 -10    0.07    0.13
  -3  -8 -10    0.19    0.11
   3   8  10    0.09    0.08
   3   8  10    0.04    0.10
   3   8  10    0.19    0.09
   3   8  10    0.39    0.13
  -4  -8 -10   -0.10    0.12
  -4  -8 -10    0.16    0.11
  -4  -8 -10    0.00    0.12
  -4  -8 -10   -0.04    0.12
   4   8  10    0.10    0.07
   4   8  10   -0.06    0.12
   4   8  10    0.14    0.12
   4   8  10   -0.06    0.09
   4   8  10    0.02    0.07
  -5  -8 -10    0.30    0.12
  -5  -8 -10    0.17    0.13
  -5  -8 -10    0.28    0.14
   5   8  10    0.23    0.11
  -2  -9 -10    1.41    0.18
  -2  -9 -10    1.22    0.18
   2   9  10    1.21    0.15
  -3  -9 -10   -0.21    0.12
  -3  -9 -10    0.08    0.15
   3   9  10   -0.03    0.10
   3   9  10   -0.09    0.08
   3   4 -11    1.84    0.19
   3   4 -11    2.26    0.18
   3   4 -11    1.74    0.19
  -3  -4  11    2.31    0.24
  -3  -4  11    2.18    0.25
  -3  -4  11    1.89    0.21
  -3  -4  11    1.99    0.21
   2   4 -11    0.10    0.09
   2   4 -11    0.16    0.13
   2   4 -11    0.05    0.11
   2   4 -11    0.01    0.15
   2   4 -11   -0.06    0.14
  -2  -4  11    0.02    0.16
  -2  -4  11    0.09    0.13
  -2  -4  11    0.08    0.11
  -2  -4  11   -0.04    0.13
   1   4 -11    1.55    0.15
   1   4 -11    1.42    0.17
   1   4 -11    0.86    0.16
   1   4 -11    1.52    0.16
  -1  -4  11    1.24    0.16
  -1  -4  11    1.32    0.22
  -1  -4  11    1.20    0.17
  -1  -4  11    1.93    0.21
   4   3 -11    0.65    0.11
   4   3 -11    0.76    0.16
   4   3 -11    0.58    0.12
  -4  -3  11    0.71    0.16
  -4  -3  11    0.72    0.15
  -4  -3  11    0.55    0.16
  -4  -3  11    0.81    0.15
   3   3 -11    0.68    0.10
   3   3 -11    0.66    0.11
   3   3 -11    0.64    0.13
   3   3 -11    0.69    0.16
  -3  -3  11    0.60    0.16
  -3  -3  11    0.47    0.12
  -3  -3  11    0.62    0.14
  -3  -3  11    0.77    0.14
   2   3 -11   -0.04    0.14
   2   3 -11    0.33    0.14
   2   3 -11    0.51    0.12
   2   3 -11    0.52    0.12
  -2  -3  11    0.41    0.15
  -2  -3  11    0.42    0.11
  -2  -3  11    0.35    0.14
  -2  -3  11    0.23    0.12
   1   3 -11    0.31    0.10
   1   3 -11    0.17    0.15
   1   3 -11    0.32    0.12
   1   3 -11    0.07    0.10
   1   3 -11    0.49    0.14
  -1  -3  11    0.19    0.15
  -1  -3  11    0.22    0.11
  -1  -3  11    0.18    0.13
  -1  -3  11    0.17    0.12
   0   3 -11   -0.07    0.10
   0   3 -11    0.03    0.16
   0   3 -11   -0.03    0.13
   0   3 -11    0.06    0.14
   0  -3  11   -0.07    0.15
   0  -3  11    0.18    0.18
   0  -3  11    0.08    0.13
   0  -3  11    0.00    0.10
  -1   3 -11   -0.17    0.15
  -1   3 -11   -0.12    0.13
  -1   3 -11    0.08    0.12
  -1   3 -11    0.08    0.19
   1  -3  11    0.08    0.12
   1  -3  11   -0.20    0.16
   1  -3  11   -0.03    0.19
   4   2 -11    1.24    0.15
   4   2 -11    0.93    0.12
   4   2 -11    1.06    0.16
  -4  -2  11    1.30    0.16
  -4  -2  11    1.05    0.16
  -4  -2  11    1.31    0.15
  -4  -2  11    0.95    0.15
   3   2 -11    0.09    0.11
   3   2 -11    0.04    0.09
   3   2 -11    0.03    0.09
   3   2 -11    0.12    0.11
   3   2 -11    0.03    0.13
  -3  -2  11    0.02    0.12
  -3  -2  11    0.22    0.13
  -3  -2  11    0.11    0.10
  -3  -2  11    0.16    0.11
   2   2 -11    0.73    0.12
   2   2 -11    0.54    0.13
   2   2 -11    0.43    0.11
   2   2 -11    0.47    0.14
  -2  -2  11    0.52    0.12
  -2  -2  11    0.64    0.13
  -2  -2  11    0.58    0.12
  -2  -2  11    0.50    0.13
   1   2 -11    0.55    0.11
   1   2 -11    0.74    0.15
   1   2 -11    0.65    0.13
   1   2 -11    0.74    0.14
   1   2 -11    0.52    0.10
  -1  -2  11    0.58    0.14
  -1  -2  11    0.67    0.14
  -1  -2  11    0.67    0.12
  -1  -2  11    0.54    0.13
   0   2 -11    0.10    0.12
   0   2 -11    0.00    0.09
   0   2 -11    0.13    0.11
   0   2 -11    0.10    0.14
   0  -2  11    0.14    0.14
   0  -2  11    0.11    0.10
   0  -2  11    0.06    0.11
   0  -2  11   -0.13    0.12
  -1   2 -11    0.62    0.14
  -1   2 -11    0.38    0.13
  -1   2 -11    0.46    0.11
   1  -2  11    0.47    0.12
   1  -2  11    0.72    0.16
   1  -2  11    0.60    0.19
   1  -2  11    0.52    0.14
  -2   2 -11   -0.01    0.16
  -2   2 -11    0.06    0.18
  -2   2 -11   -0.21    0.11
  -2   2 -11    0.06    0.14
   2  -2  11    0.14    0.17
   2  -2  11    0.02    0.12
   2  -2  11   -0.02    0.15
   2  -2  11    0.22    0.19
   5   1 -11    0.99    0.13
   5   1 -11    1.12    0.18
  -5  -1  11    1.01    0.19
  -5  -1  11    0.95    0.15
  -5  -1  11    0.81    0.16
  -5  -1  11    0.78    0.17
   4   1 -11    0.98    0.15
   4   1 -11    0.85    0.13
   4   1 -11    0.11    0.13
   4   1 -11    0.70    0.12
  -4  -1  11    0.91    0.14
  -4  -1  11    0.58    0.13
  -4  -1  11    0.47    0.15
  -4  -1  11    0.57    0.13
   3   1 -11    0.71    0.13
   3   1 -11    0.83    0.14
   3   1 -11    0.79    0.11
   3   1 -11    0.49    0.14
  -3  -1  11    0.82    0.12
  -3  -1  11    0.77    0.14
  -3  -1  11    0.45    0.12
  -3  -1  11    0.78    0.13
   2   1 -11    0.29    0.08
   2   1 -11    0.39    0.10
   2   1 -11    0.34    0.11
   2   1 -11    0.31    0.13
   2   1 -11    0.18    0.09
  -2  -1  11    0.46    0.12
  -2  -1  11    0.32    0.10
  -2  -1  11    0.44    0.12
  -2  -1  11    0.26    0.11
   1   1 -11    0.34    0.10
   1   1 -11    0.78    0.13
   1   1 -11    0.49    0.13
   1   1 -11    0.35    0.08
   1   1 -11    0.45    0.11
  -1  -1  11    0.48    0.14
  -1  -1  11    0.43    0.11
  -1  -1  11    0.65    0.09
  -1  -1  11    0.73    0.13
  -1  -1  11    0.63    0.12
   0   1 -11    0.11    0.10
   0   1 -11    0.17    0.12
   0   1 -11    0.00    0.08
   0   1 -11    0.08    0.13
   0  -1  11    0.14    0.08
   0  -1  11    0.30    0.11
   0  -1  11    0.21    0.12
   0  -1  11    0.36    0.13
  -1   1 -11    0.63    0.12
  -1   1 -11    0.78    0.15
  -1   1 -11    0.54    0.11
   1  -1  11    0.62    0.13
   1  -1  11    0.70    0.12
   1  -1  11    0.71    0.15
   1  -1  11    0.68    0.15
  -2   1 -11    0.19    0.14
  -2   1 -11    0.17    0.11
  -2   1 -11    0.39    0.16
  -2   1 -11    0.02    0.15
   2  -1  11    0.36    0.14
   2  -1  11    0.25    0.17
   2  -1  11    0.05    0.11
   2  -1  11    0.26    0.13
  -3   1 -11    0.40    0.19
  -3   1 -11    0.34    0.13
  -3   1 -11    0.63    0.15
  -3   1 -11    0.46    0.17
   3  -1  11    0.44    0.15
   3  -1  11    0.26    0.12
   3  -1  11    0.79    0.20
   3  -1  11    0.42    0.20
   5   0 -11    0.15    0.15
   5   0 -11    0.21    0.12
   5   0 -11    0.11    0.16
  -5   0  11    0.04    0.14
  -5   0  11    0.06    0.18
  -5   0  11   -0.02    0.15
  -5   0  11    0.00    0.14
   4   0 -11    3.48    0.22
   4   0 -11    3.12    0.20
   4   0 -11    3.33    0.25
   4   0 -11    3.27    0.25
  -4   0  11    3.02    0.26
  -4   0  11    3.47    0.25
  -4   0  11    3.10    0.28
  -4   0  11    3.30    0.25
   3   0 -11    0.25    0.11
   3   0 -11   -0.13    0.09
   3   0 -11    0.00    0.09
   3   0 -11    0.16    0.12
   3   0 -11    0.11    0.08
  -3   0  11    0.11    0.10
  -3   0  11    0.02    0.09
  -3   0  11    0.04    0.13
  -3   0  11    0.27    0.11
   2   0 -11    5.44    0.26
   2   0 -11    5.91    0.30
   2   0 -11    5.47    0.25
   2   0 -11    5.72    0.28
   2   0 -11    5.78    0.23
  -2   0  11    5.70    0.26
  -2   0  11    5.98    0.28
  -2   0  11    4.91    0.26
  -2   0  11    5.74    0.30
   1   0 -11    0.12    0.11
   1   0 -11    0.04    0.08
   1   0 -11    0.05    0.11
   1   0 -11    0.06    0.09
   1   0 -11    0.08    0.07
  -1   0  11    0.08    0.09
  -1   0  11    0.05    0.08
  -1   0  11   -0.03    0.11
  -1   0  11    0.00    0.09
   0   0 -11    2.60    0.17
   0   0 -11    2.60    0.23
   0   0 -11    2.55    0.20
   0   0 -11    2.71    0.21
   0   0  11    2.75    0.22
   0   0  11    2.49    0.20
   0   0  11    2.51    0.15
   0   0  11    1.98    0.21
   0   0  11    2.61    0.19
  -1   0 -11    0.09    0.09
  -1   0 -11    0.19    0.11
  -1   0 -11   -0.01    0.09
   1   0  11    0.14    0.08
   1   0  11    0.18    0.12
   1   0  11    0.13    0.11
   1   0  11    0.01    0.08
   1   0  11   -0.03    0.08
  -2   0 -11    0.15    0.10
  -2   0 -11    0.17    0.14
  -2   0 -11    0.28    0.10
  -2   0 -11    0.23    0.13
   2   0  11    0.42    0.13
   2   0  11    0.21    0.13
   2   0  11    0.09    0.10
   2   0  11    0.34    0.09
  -3   0 -11    0.24    0.15
  -3   0 -11    0.27    0.12
  -3   0 -11    0.13    0.14
  -3   0 -11    0.33    0.16
   3   0  11    0.30    0.11
   3   0  11    0.19    0.16
   3   0  11    0.14    0.12
   3   0  11    0.35    0.16
  -4   0 -11   -0.10    0.18
  -4   0 -11   -0.15    0.16
  -4   0 -11   -0.05    0.15
   4   0  11    0.21    0.14
   4   0  11   -0.13    0.17
   4   0  11    0.04    0.10
   4   0  11    0.34    0.20
   4   0  11   -0.06    0.12
   4  -1 -11    0.10    0.09
   4  -1 -11    0.20    0.11
   4  -1 -11    0.02    0.11
   4  -1 -11    0.31    0.15
   4  -1 -11    0.11    0.13
  -4   1  11   -0.01    0.13
  -4   1  11    0.00    0.12
  -4   1  11    0.12    0.11
  -4   1  11   -0.04    0.14
   3  -1 -11    0.34    0.11
   3  -1 -11    0.50    0.12
   3  -1 -11    0.36    0.12
   3  -1 -11    0.40    0.10
   3  -1 -11    0.51    0.13
  -3   1  11    0.20    0.13
  -3   1  11    0.33    0.12
  -3   1  11    0.33    0.12
  -3   1  11    0.36    0.12
   2  -1 -11    0.38    0.11
   2  -1 -11    0.20    0.09
   2  -1 -11    0.42    0.09
   2  -1 -11    0.31    0.11
   2  -1 -11    0.35    0.12
  -2   1  11    0.23    0.12
  -2   1  11    0.31    0.11
  -2   1  11    0.24    0.10
  -2   1  11    0.39    0.11
   1  -1 -11   -0.03    0.11
   1  -1 -11    0.08    0.09
   1  -1 -11    0.05    0.09
   1  -1 -11    0.05    0.08
   1  -1 -11    0.09    0.07
  -1   1  11    0.12    0.10
  -1   1  11    0.16    0.11
  -1   1  11    0.10    0.09
  -1   1  11    0.20    0.10
   0  -1 -11    0.10    0.12
   0  -1 -11    0.03    0.07
   0  -1 -11   -0.01    0.07
   0  -1 -11    0.02    0.10
   0   1  11   -0.15    0.10
   0   1  11    0.08    0.08
   0   1  11    0.02    0.08
   0   1  11    0.01    0.10
  -1  -1 -11    0.43    0.08
  -1  -1 -11    0.59    0.12
  -1  -1 -11    0.45    0.11
  -1  -1 -11    0.43    0.14
   1   1  11    0.47    0.12
   1   1  11    0.51    0.09
   1   1  11    0.34    0.10
   1   1  11    0.73    0.11
  -2  -1 -11    0.06    0.10
  -2  -1 -11    0.06    0.13
  -2  -1 -11    0.24    0.09
   2   1  11    0.35    0.14
   2   1  11    0.11    0.08
   2   1  11    0.26    0.11
   2   1  11    0.14    0.09
   2   1  11    0.24    0.10
  -3  -1 -11    0.12    0.10
  -3  -1 -11    0.08    0.14
  -3  -1 -11    0.17    0.12
   3   1  11    0.27    0.13
   3   1  11    0.17    0.13
   3   1  11    0.21    0.10
   3   1  11    0.17    0.10
   3   1  11    0.10    0.10
  -4  -1 -11    0.25    0.16
  -4  -1 -11    0.04    0.12
  -4  -1 -11    0.35    0.14
   4   1  11    0.04    0.10
   4   1  11    0.21    0.12
   4   1  11    0.13    0.15
   4   1  11   -0.02    0.12
   4   1  11    0.18    0.16
   4  -2 -11    0.03    0.12
   4  -2 -11   -0.12    0.17
   4  -2 -11   -0.16    0.12
   4  -2 -11    0.02    0.13
  -4   2  11    0.17    0.14
  -4   2  11   -0.12    0.14
  -4   2  11   -0.09    0.13
  -4   2  11   -0.09    0.16
   3  -2 -11    0.64    0.13
   3  -2 -11    0.48    0.11
   3  -2 -11    0.30    0.14
   3  -2 -11    0.51    0.12
  -3   2  11    0.44    0.13
  -3   2  11    0.33    0.12
  -3   2  11    0.65    0.16
  -3   2  11    0.46    0.12
   2  -2 -11    1.41    0.15
   2  -2 -11    1.49    0.17
   2  -2 -11    1.43    0.16
   2  -2 -11    1.53    0.16
   2  -2 -11    1.16    0.13
  -2   2  11    1.40    0.17
  -2   2  11    1.70    0.16
  -2   2  11    1.38    0.14
  -2   2  11    1.43    0.16
   1  -2 -11    1.76    0.15
   1  -2 -11    1.95    0.18
   1  -2 -11    1.88    0.17
   1  -2 -11    1.90    0.20
   1  -2 -11    1.82    0.22
  -1   2  11    2.27    0.22
  -1   2  11    1.55    0.17
  -1   2  11    1.83    0.19
  -1   2  11    1.73    0.18
   0  -2 -11    3.36    0.22
   0  -2 -11    2.92    0.25
   0  -2 -11    2.83    0.18
   0  -2 -11    2.45    0.20
   0   2  11    2.91    0.19
   0   2  11    2.88    0.19
  -1  -2 -11    2.59    0.23
  -1  -2 -11    2.34    0.19
  -1  -2 -11    2.15    0.16
  -1  -2 -11    2.30    0.20
   1   2  11    2.46    0.20
   1   2  11    2.39    0.22
   1   2  11    2.67    0.18
   1   2  11    2.56    0.19
  -2  -2 -11    1.04    0.14
  -2  -2 -11    0.91    0.12
  -2  -2 -11    0.78    0.10
  -2  -2 -11    1.27    0.16
   2   2  11    0.95    0.15
   2   2  11    1.09    0.13
   2   2  11    1.17    0.15
   2   2  11    0.86    0.11
  -3  -2 -11    0.92    0.15
  -3  -2 -11    0.71    0.13
  -3  -2 -11    1.25    0.17
  -3  -2 -11    0.70    0.11
   3   2  11    0.81    0.15
   3   2  11    1.01    0.13
   3   2  11    0.75    0.12
   3   2  11    0.69    0.16
   3   2  11    0.95    0.14
  -4  -2 -11    0.26    0.14
  -4  -2 -11    0.15    0.10
  -4  -2 -11    0.27    0.15
  -4  -2 -11    0.24    0.13
   4   2  11    0.15    0.10
   4   2  11   -0.03    0.15
   4   2  11    0.23    0.11
   4   2  11    0.14    0.15
   4   2  11    0.19    0.11
  -5  -2 -11   -0.06    0.16
   5   2  11    0.01    0.13
   4  -3 -11    0.02    0.13
   4  -3 -11    0.06    0.12
   4  -3 -11   -0.13    0.18
   4  -3 -11    0.17    0.14
   4  -3 -11    0.02    0.11
  -4   3  11   -0.13    0.13
  -4   3  11    0.03    0.14
   3  -3 -11    0.71    0.12
   3  -3 -11    0.49    0.12
   3  -3 -11    0.60    0.12
   3  -3 -11    0.59    0.15
   3  -3 -11    0.75    0.16
  -3   3  11    0.55    0.13
  -3   3  11    0.59    0.14
  -3   3  11    0.52    0.15
   2  -3 -11   -0.09    0.09
   2  -3 -11    0.00    0.10
   2  -3 -11    0.05    0.07
   2  -3 -11   -0.05    0.13
   2  -3 -11    0.18    0.11
  -2   3  11   -0.02    0.11
  -2   3  11   -0.06    0.10
  -2   3  11   -0.01    0.10
   1  -3 -11    0.13    0.11
   1  -3 -11    0.08    0.07
   1  -3 -11    0.13    0.10
   1  -3 -11    0.06    0.08
  -1   3  11    0.17    0.09
  -1   3  11   -0.09    0.12
  -1   3  11    0.18    0.08
  -1   3  11    0.16    0.10
   0  -3 -11    0.26    0.11
   0  -3 -11    0.20    0.10
   0  -3 -11    0.15    0.08
   0  -3 -11    0.12    0.09
   0   3  11    0.19    0.10
   0   3  11    0.23    0.11
   0   3  11    0.02    0.08
   0   3  11    0.09    0.11
  -1  -3 -11    0.72    0.13
  -1  -3 -11    0.53    0.10
  -1  -3 -11    0.71    0.14
  -1  -3 -11    0.55    0.10
   1   3  11    0.60    0.10
   1   3  11    0.48    0.12
   1   3  11    0.59    0.11
   1   3  11    0.74    0.13
  -2  -3 -11    0.18    0.11
  -2  -3 -11    0.21    0.11
  -2  -3 -11   -0.02    0.09
  -2  -3 -11    0.19    0.09
   2   3  11    0.07    0.08
   2   3  11    0.15    0.12
   2   3  11    0.26    0.09
   2   3  11    0.16    0.10
  -3  -3 -11    1.51    0.14
  -3  -3 -11    1.62    0.17
  -3  -3 -11    1.56    0.17
  -3  -3 -11    1.52    0.17
   3   3  11    1.52    0.17
   3   3  11    1.48    0.16
   3   3  11    1.65    0.15
   3   3  11    1.55    0.17
  -4  -3 -11    0.46    0.14
  -4  -3 -11    0.26    0.10
  -4  -3 -11    0.10    0.14
  -4  -3 -11    0.27    0.13
   4   3  11    0.21    0.10
   4   3  11    0.37    0.14
   4   3  11    0.29    0.14
   4   3  11    0.30    0.11
  -5  -3 -11    0.75    0.18
  -5  -3 -11    0.73    0.18
  -5  -3 -11    0.78    0.17
  -5  -3 -11    0.64    0.13
   5   3  11    0.77    0.14
   5   3  11    0.98    0.19
   5   3  11    0.96    0.14
   3  -4 -11   -0.10    0.12
   3  -4 -11    0.08    0.17
   3  -4 -11    0.12    0.14
   3  -4 -11    0.08    0.11
   3  -4 -11   -0.11    0.12
  -3   4  11   -0.23    0.16
  -3   4  11    0.04    0.13
  -3   4  11    0.13    0.14
  -3   4  11    0.10    0.14
   2  -4 -11    0.12    0.10
   2  -4 -11    0.14    0.11
   2  -4 -11   -0.11    0.11
   2  -4 -11    0.09    0.10
   2  -4 -11    0.15    0.14
  -2   4  11    0.09    0.10
  -2   4  11   -0.01    0.11
  -2   4  11    0.03    0.14
  -2   4  11    0.10    0.13
   1  -4 -11    0.03    0.07
   1  -4 -11   -0.07    0.11
   1  -4 -11    0.14    0.11
   1  -4 -11    0.03    0.08
   1  -4 -11    0.05    0.12
  -1   4  11    0.09    0.09
  -1   4  11   -0.01    0.10
  -1   4  11    0.07    0.13
  -1   4  11    0.00    0.10
   0  -4 -11    0.89    0.14
   0  -4 -11    0.94    0.13
   0  -4 -11    0.98    0.15
   0  -4 -11    0.94    0.12
   0   4  11    0.95    0.15
   0   4  11    0.84    0.12
   0   4  11    0.66    0.11
   0   4  11    0.93    0.13
  -1  -4 -11    0.18    0.11
  -1  -4 -11   -0.10    0.09
  -1  -4 -11    0.09    0.09
   1   4  11    0.00    0.08
   1   4  11    0.11    0.09
   1   4  11   -0.05    0.10
   1   4  11   -0.03    0.10
  -2  -4 -11    0.96    0.15
  -2  -4 -11    0.75    0.13
  -2  -4 -11    0.67    0.11
  -2  -4 -11    0.83    0.11
   2   4  11    1.22    0.15
   2   4  11    0.90    0.13
   2   4  11    0.94    0.12
   2   4  11    0.83    0.11
  -3  -4 -11    0.04    0.09
  -3  -4 -11   -0.08    0.11
  -3  -4 -11    0.10    0.12
  -3  -4 -11    0.00    0.12
   3   4  11    0.06    0.11
   3   4  11    0.09    0.11
   3   4  11    0.07    0.09
   3   4  11    0.09    0.09
  -4  -4 -11    0.24    0.12
  -4  -4 -11    0.39    0.14
  -4  -4 -11    0.19    0.13
  -4  -4 -11    0.28    0.11
   4   4  11    0.07    0.13
   4   4  11    0.26    0.11
   4   4  11    0.37    0.12
   4   4  11    0.27    0.10
  -5  -4 -11    0.11    0.13
  -5  -4 -11    0.06    0.14
  -5  -4 -11   -0.02    0.12
  -5  -4 -11    0.00    0.15
   5   4  11   -0.11    0.15
   5   4  11    0.04    0.15
   5   4  11   -0.01    0.11
   3  -5 -11    0.14    0.14
   2  -5 -11    0.03    0.10
   2  -5 -11   -0.11    0.13
   2  -5 -11    0.13    0.10
   2  -5 -11    0.11    0.11
   2  -5 -11    0.08    0.16
  -2   5  11   -0.03    0.13
  -2   5  11    0.14    0.16
  -2   5  11    0.06    0.13
  -2   5  11   -0.03    0.12
   1  -5 -11    0.85    0.16
   1  -5 -11    0.64    0.12
   1  -5 -11    0.88    0.12
   1  -5 -11    0.56    0.14
   1  -5 -11    0.67    0.13
  -1   5  11    1.06    0.18
  -1   5  11    0.62    0.12
  -1   5  11    0.65    0.13
  -1   5  11    0.76    0.14
   0  -5 -11    0.09    0.12
   0  -5 -11    0.16    0.09
   0  -5 -11    0.08    0.11
   0  -5 -11    0.11    0.11
   0   5  11    0.21    0.10
   0   5  11   -0.01    0.09
   0   5  11   -0.08    0.12
   0   5  11   -0.10    0.11
  -1  -5 -11    1.39    0.16
  -1  -5 -11    1.02    0.13
  -1  -5 -11    1.30    0.16
  -1  -5 -11    0.86    0.11
   1   5  11    1.14    0.15
   1   5  11    1.29    0.14
   1   5  11    0.95    0.13
   1   5  11    1.16    0.14
  -2  -5 -11    0.26    0.13
  -2  -5 -11   -0.12    0.10
  -2  -5 -11   -0.15    0.10
  -2  -5 -11    0.00    0.07
   2   5  11   -0.01    0.11
   2   5  11    0.06    0.09
   2   5  11    0.09    0.09
   2   5  11   -0.05    0.11
  -3  -5 -11    0.36    0.14
  -3  -5 -11    0.32    0.11
  -3  -5 -11    0.49    0.10
  -3  -5 -11    0.67    0.13
   3   5  11    0.09    0.11
   3   5  11    0.32    0.10
   3   5  11    0.21    0.11
  -4  -5 -11   -0.24    0.10
  -4  -5 -11    0.14    0.13
  -4  -5 -11   -0.09    0.11
  -4  -5 -11    0.04    0.13
   4   5  11    0.08    0.12
   4   5  11    0.10    0.10
   4   5  11   -0.16    0.12
  -5  -5 -11    0.07    0.14
  -5  -5 -11    0.22    0.15
  -5  -5 -11   -0.07    0.14
  -5  -5 -11    0.01    0.12
   5   5  11    0.11    0.14
   5   5  11    0.35    0.15
   5   5  11    0.12    0.10
   5   5  11    0.09    0.11
   2  -6 -11    0.86    0.13
   2  -6 -11    0.57    0.18
   2  -6 -11    0.56    0.21
   2  -6 -11    1.11    0.19
  -2   6  11    0.61    0.16
  -2   6  11    0.83    0.19
  -2   6  11    0.86    0.19
  -2   6  11    0.76    0.21
   1  -6 -11    0.00    0.10
   1  -6 -11    0.04    0.11
   1  -6 -11    0.05    0.12
   1  -6 -11    0.13    0.13
   1  -6 -11   -0.08    0.16
  -1   6  11   -0.18    0.12
  -1   6  11   -0.01    0.12
  -1   6  11    0.12    0.14
  -1   6  11    0.36    0.17
   0  -6 -11    1.43    0.17
   0  -6 -11    1.59    0.15
   0  -6 -11    1.67    0.19
   0  -6 -11    1.32    0.17
   0  -6 -11    1.59    0.14
   0   6  11    1.62    0.19
   0   6  11    1.36    0.15
   0   6  11    1.71    0.17
   0   6  11    1.78    0.20
  -1  -6 -11   -0.12    0.11
  -1  -6 -11   -0.02    0.10
  -1  -6 -11    0.08    0.12
  -1  -6 -11   -0.09    0.11
   1   6  11   -0.03    0.10
   1   6  11    0.09    0.12
   1   6  11   -0.22    0.12
   1   6  11    0.06    0.10
  -2  -6 -11    0.78    0.14
  -2  -6 -11    0.47    0.12
  -2  -6 -11    0.79    0.14
  -2  -6 -11    0.60    0.12
   2   6  11    0.49    0.11
   2   6  11    0.44    0.11
   2   6  11    0.38    0.12
   2   6  11    0.58    0.14
  -3  -6 -11    0.04    0.11
  -3  -6 -11    0.00    0.09
  -3  -6 -11    0.11    0.12
  -3  -6 -11    0.01    0.13
   3   6  11    0.23    0.10
   3   6  11    0.11    0.11
   3   6  11   -0.09    0.12
  -4  -6 -11   -0.04    0.12
  -4  -6 -11    0.19    0.13
  -4  -6 -11    0.15    0.13
  -4  -6 -11    0.11    0.11
   4   6  11    0.22    0.09
   4   6  11   -0.10    0.12
   4   6  11    0.03    0.09
   4   6  11    0.06    0.12
  -5  -6 -11   -0.02    0.15
  -5  -6 -11    0.11    0.15
  -5  -6 -11    0.07    0.14
  -5  -6 -11    0.26    0.14
   5   6  11   -0.17    0.09
   5   6  11    0.00    0.09
   0  -7 -11   -0.33    0.12
   0  -7 -11    0.15    0.15
   0  -7 -11   -0.05    0.10
   0  -7 -11    0.21    0.13
   0  -7 -11    0.08    0.16
   0   7  11   -0.02    0.12
   0   7  11    0.17    0.14
   0   7  11   -0.04    0.16
   0   7  11    0.05    0.13
  -1  -7 -11    0.75    0.17
  -1  -7 -11    0.48    0.15
  -1  -7 -11    0.83    0.14
  -1  -7 -11    0.68    0.16
   1   7  11    0.61    0.13
   1   7  11    0.74    0.16
   1   7  11    0.58    0.15
   1   7  11    0.66    0.13
  -2  -7 -11    0.45    0.15
  -2  -7 -11    0.35    0.12
  -2  -7 -11    0.49    0.15
  -2  -7 -11    0.32    0.15
   2   7  11    0.58    0.12
   2   7  11    0.49    0.12
   2   7  11    0.31    0.15
   2   7  11   -0.02    0.12
  -3  -7 -11    0.68    0.12
  -3  -7 -11    0.60    0.15
  -3  -7 -11    0.53    0.14
  -3  -7 -11    0.28    0.14
   3   7  11    0.71    0.11
   3   7  11    0.53    0.14
  -4  -7 -11    0.90    0.16
  -4  -7 -11    0.77    0.15
  -4  -7 -11    0.38    0.14
   4   7  11    0.03    0.09
  -2  -8 -11    0.08    0.16
  -2  -8 -11   -0.22    0.15
  -2  -8 -11    0.22    0.16
  -2  -8 -11    0.07    0.14
   2   8  11    0.13    0.12
   2   8  11   -0.07    0.14
   2   8  11   -0.09    0.11
  -3  -8 -11    0.72    0.17
  -3  -8 -11    0.53    0.14
   3   8  11    0.69    0.13
   3   2 -12    0.19    0.13
   3   2 -12    0.42    0.12
  -3  -2  12    0.17    0.17
  -3  -2  12    0.48    0.16
  -3  -2  12    0.58    0.15
   2   2 -12    0.83    0.14
   2   2 -12    0.81    0.16
   2   2 -12    0.49    0.14
   2   2 -12    0.74    0.13
  -2  -2  12    0.62    0.18
  -2  -2  12    0.99    0.15
  -2  -2  12    0.81    0.17
  -2  -2  12    0.65    0.17
   1   2 -12    0.71    0.15
   1   2 -12    0.86    0.13
   1   2 -12    0.68    0.14
   1   2 -12    0.69    0.18
   1   2 -12    0.81    0.17
  -1  -2  12    0.98    0.19
  -1  -2  12    0.71    0.14
  -1  -2  12    1.08    0.18
  -1  -2  12    1.12    0.19
   0   2 -12    0.67    0.15
   0   2 -12    0.70    0.13
   0   2 -12    1.01    0.18
   0  -2  12    1.26    0.17
   0  -2  12    1.08    0.20
   0  -2  12    0.87    0.20
   3   1 -12    0.20    0.11
   3   1 -12   -0.04    0.16
   3   1 -12    0.20    0.14
   3   1 -12    0.15    0.13
   3   1 -12    0.10    0.12
  -3  -1  12    0.09    0.15
  -3  -1  12   -0.12    0.13
  -3  -1  12    0.12    0.13
  -3  -1  12   -0.01    0.14
   2   1 -12    0.35    0.13
   2   1 -12    0.13    0.12
   2   1 -12    0.06    0.10
   2   1 -12    0.49    0.14
   2   1 -12    0.40    0.18
  -2  -1  12    0.34    0.15
  -2  -1  12    0.05    0.13
  -2  -1  12    0.19    0.14
  -2  -1  12    0.43    0.13
   1   1 -12    0.53    0.11
   1   1 -12    0.60    0.18
   1   1 -12    0.44    0.14
   1   1 -12    0.40    0.14
   1   1 -12    0.46    0.14
  -1  -1  12    0.55    0.14
  -1  -1  12    0.53    0.14
  -1  -1  12    0.58    0.15
  -1  -1  12    0.53    0.16
   0   1 -12    0.63    0.12
   0   1 -12    0.67    0.16
   0   1 -12    0.58    0.14
   0  -1  12    0.56    0.13
   0  -1  12    0.78    0.11
   0  -1  12    0.74    0.18
   0  -1  12    0.91    0.17
   0  -1  12    0.71    0.14
  -1   1 -12    0.47    0.19
  -1   1 -12    0.38    0.13
  -1   1 -12    0.40    0.16
  -1   1 -12    0.29    0.15
   1  -1  12    0.27    0.17
   1  -1  12    0.39    0.12
   1  -1  12    0.45    0.15
   1  -1  12    0.32    0.17
   3   0 -12    0.13    0.15
   3   0 -12    0.44    0.13
   3   0 -12    0.36    0.11
   3   0 -12    0.61    0.15
   3   0 -12    0.58    0.15
  -3   0  12    0.48    0.13
  -3   0  12    0.55    0.14
  -3   0  12    0.30    0.17
  -3   0  12    0.71    0.15
   2   0 -12    1.01    0.15
   2   0 -12    0.88    0.14
   2   0 -12    1.08    0.18
   2   0 -12    1.00    0.12
   2   0 -12    1.27    0.17
  -2   0  12    0.95    0.13
  -2   0  12    1.20    0.19
  -2   0  12    0.89    0.16
  -2   0  12    1.12    0.17
   1   0 -12    0.83    0.15
   1   0 -12    0.90    0.14
   1   0 -12    1.23    0.15
   1   0 -12    0.88    0.12
   1   0 -12    1.56    0.20
  -1   0  12    1.29    0.17
  -1   0  12    0.78    0.13
  -1   0  12    0.95    0.15
  -1   0  12    0.94    0.15
   0   0 -12    1.09    0.19
   0   0 -12    1.08    0.13
   0   0 -12    0.97    0.15
   0   0 -12    1.01    0.16
   0   0  12    1.19    0.18
   0   0  12    0.85    0.15
   0   0  12    0.98    0.17
   0   0  12    0.79    0.15
  -1   0 -12    0.69    0.18
  -1   0 -12    0.47    0.16
  -1   0 -12    0.63    0.12
  -1   0 -12    0.75    0.15
   1   0  12    0.60    0.16
   1   0  12    0.72    0.12
   1   0  12    0.67    0.12
   1   0  12    0.69    0.14
   1   0  12    0.83    0.18
  -2   0 -12    0.37    0.16
  -2   0 -12    0.57    0.13
  -2   0 -12    0.43    0.18
  -2   0 -12    0.39    0.15
   2   0  12    0.36    0.13
   2   0  12    0.13    0.13
   2   0  12    0.48    0.12
   2   0  12    0.42    0.18
   2   0  12    0.30    0.18
   3  -1 -12   -0.06    0.12
   3  -1 -12    0.15    0.13
   3  -1 -12    0.23    0.11
   3  -1 -12    0.14    0.14
   3  -1 -12    0.20    0.15
  -3   1  12    0.16    0.17
  -3   1  12    0.05    0.13
  -3   1  12    0.45    0.15
  -3   1  12   -0.15    0.13
   2  -1 -12    0.11    0.13
   2  -1 -12    0.02    0.12
   2  -1 -12   -0.15    0.13
   2  -1 -12    0.02    0.11
   2  -1 -12    0.11    0.10
  -2   1  12    0.08    0.12
  -2   1  12    0.00    0.13
  -2   1  12    0.06    0.12
  -2   1  12    0.18    0.14
   1  -1 -12    0.11    0.12
   1  -1 -12    0.00    0.10
   1  -1 -12    0.09    0.12
   1  -1 -12   -0.22    0.09
   1  -1 -12   -0.04    0.13
  -1   1  12    0.16    0.12
  -1   1  12    0.16    0.12
  -1   1  12    0.16    0.12
   0  -1 -12    0.95    0.16
   0  -1 -12    0.87    0.15
   0  -1 -12    0.94    0.13
   0  -1 -12    0.84    0.17
   0   1  12    0.59    0.14
   0   1  12    1.08    0.15
   0   1  12    0.71    0.14
   0   1  12    0.94    0.14
  -1  -1 -12   -0.11    0.11
  -1  -1 -12   -0.04    0.13
  -1  -1 -12    0.32    0.10
  -1  -1 -12    0.16    0.16
   1   1  12    0.27    0.14
   1   1  12    0.16    0.14
   1   1  12    0.07    0.11
   1   1  12    0.06    0.11
  -2  -1 -12    1.33    0.15
  -2  -1 -12    1.00    0.18
  -2  -1 -12    1.31    0.17
  -2  -1 -12    1.43    0.18
   2   1  12    1.28    0.19
   2   1  12    1.16    0.15
   2   1  12    1.19    0.19
   2   1  12    0.96    0.14
  -3  -1 -12    0.11    0.17
  -3  -1 -12    0.03    0.14
  -3  -1 -12    0.18    0.18
   3   1  12    0.26    0.13
   3   1  12    0.12    0.18
   3   1  12    0.20    0.18
   3   1  12    0.12    0.11
   3   1  12    0.00    0.14
   3  -2 -12   -0.07    0.11
   3  -2 -12    0.05    0.12
   3  -2 -12    0.01    0.11
   3  -2 -12   -0.06    0.15
   3  -2 -12   -0.12    0.17
  -3   2  12   -0.16    0.15
  -3   2  12   -0.15    0.13
  -3   2  12   -0.06    0.14
   2  -2 -12    0.29    0.12
   2  -2 -12   -0.01    0.09
   2  -2 -12   -0.17    0.12
   2  -2 -12    0.15    0.13
  -2   2  12   -0.10    0.11
  -2   2  12    0.24    0.16
  -2   2  12    0.08    0.12
  -2   2  12    0.02    0.11
   1  -2 -12    1.04    0.14
   1  -2 -12    1.47    0.17
   1  -2 -12    1.26    0.17
   1  -2 -12    0.98    0.17
   1  -2 -12    1.49    0.15
  -1   2  12    1.30    0.16
  -1   2  12    1.15    0.18
  -1   2  12    1.21    0.15
  -1   2  12    1.12    0.17
   0  -2 -12    0.14    0.15
   0  -2 -12   -0.08    0.12
   0  -2 -12   -0.05    0.09
   0  -2 -12    0.12    0.11
   0   2  12    0.00    0.11
   0   2  12   -0.05    0.09
   0   2  12   -0.09    0.12
   0   2  12    0.26    0.13
  -1  -2 -12    1.45    0.18
  -1  -2 -12    1.29    0.13
  -1  -2 -12    1.38    0.20
  -1  -2 -12    1.15    0.15
   1   2  12    1.37    0.15
   1   2  12    1.55    0.17
   1   2  12    1.55    0.16
   1   2  12    1.73    0.19
  -2  -2 -12    0.07    0.10
  -2  -2 -12   -0.06    0.12
  -2  -2 -12    0.03    0.13
  -2  -2 -12    0.06    0.15
   2   2  12   -0.07    0.11
   2   2  12    0.22    0.13
   2   2  12    0.15    0.11
   2   2  12    0.06    0.14
  -3  -2 -12    0.10    0.13
  -3  -2 -12    0.34    0.17
  -3  -2 -12    0.35    0.17
  -3  -2 -12    0.54    0.12
   3   2  12    0.34    0.16
   3   2  12    0.48    0.13
   3   2  12    0.09    0.13
   3  -3 -12    0.26    0.19
   3  -3 -12    0.41    0.15
   3  -3 -12   -0.03    0.10
   3  -3 -12   -0.02    0.17
   3  -3 -12    0.15    0.15
  -3   3  12    0.10    0.17
  -3   3  12    0.12    0.15
  -3   3  12    0.17    0.20
   2  -3 -12    3.59    0.29
   2  -3 -12    3.82    0.27
   2  -3 -12    3.41    0.25
   2  -3 -12    3.37    0.31
  -2   3  12    3.70    0.28
  -2   3  12    3.31    0.27
  -2   3  12    3.48    0.28
  -2   3  12    3.45    0.33
   1  -3 -12    0.73    0.15
   1  -3 -12    0.69    0.14
   1  -3 -12    0.60    0.12
   1  -3 -12    0.91    0.16
   1  -3 -12    0.64    0.12
  -1   3  12    0.68    0.14
  -1   3  12    0.64    0.14
  -1   3  12    0.74    0.15
  -1   3  12    0.58    0.17
   0  -3 -12    2.58    0.24
   0  -3 -12    2.34    0.27
   0  -3 -12    2.13    0.19
   0  -3 -12    2.06    0.25
   0   3  12    2.88    0.25
   0   3  12    2.29    0.25
   0   3  12    2.45    0.22
   0   3  12    2.37    0.22
  -1  -3 -12    0.59    0.15
  -1  -3 -12    0.43    0.13
  -1  -3 -12    0.47    0.11
  -1  -3 -12    0.56    0.16
   1   3  12    0.58    0.13
   1   3  12    0.49    0.14
   1   3  12    0.45    0.12
   1   3  12    0.78    0.16
  -2  -3 -12    0.33    0.11
  -2  -3 -12    0.14    0.12
  -2  -3 -12    0.40    0.16
   2   3  12    0.42    0.15
   2   3  12    0.28    0.11
   2   3  12    0.13    0.14
   2   3  12    0.28    0.11
  -3  -3 -12   -0.19    0.10
  -3  -3 -12   -0.05    0.15
  -3  -3 -12    0.04    0.13
  -3  -3 -12    0.01    0.16
   3   3  12   -0.01    0.11
   3   3  12   -0.06    0.15
   3   3  12    0.21    0.14
   3   3  12    0.03    0.11
  -4  -3 -12   -0.26    0.14
  -4  -3 -12    0.03    0.17
  -4  -3 -12    0.12    0.17
   4   3  12    0.24    0.14
   4   3  12    0.21    0.17
   4   3  12    0.00    0.18
   4   3  12    0.08    0.12
   2  -4 -12   -0.05    0.15
   2  -4 -12   -0.02    0.12
   2  -4 -12    0.18    0.17
   2  -4 -12    0.23    0.13
   2  -4 -12   -0.04    0.11
  -2   4  12    0.35    0.14
  -2   4  12    0.14    0.16
  -2   4  12    0.14    0.15
  -2   4  12    0.21    0.20
   1  -4 -12    0.12    0.11
   1  -4 -12    0.33    0.11
   1  -4 -12    0.27    0.14
   1  -4 -12    0.23    0.15
   1  -4 -12    0.24    0.15
  -1   4  12   -0.20    0.16
  -1   4  12    0.20    0.14
  -1   4  12    0.04    0.12
  -1   4  12    0.27    0.12
   0  -4 -12    0.24    0.15
   0  -4 -12   -0.05    0.11
   0  -4 -12    0.31    0.14
   0   4  12   -0.02    0.12
   0   4  12    0.01    0.12
   0   4  12   -0.03    0.14
   0   4  12    0.06    0.13
  -1  -4 -12    1.64    0.18
  -1  -4 -12    1.54    0.16
  -1  -4 -12    1.55    0.19
   1   4  12    1.39    0.16
   1   4  12    1.60    0.19
   1   4  12    1.60    0.16
   1   4  12    1.62    0.19
  -2  -4 -12   -0.07    0.14
  -2  -4 -12   -0.07    0.11
  -2  -4 -12    0.02    0.10
  -2  -4 -12    0.30    0.15
   2   4  12   -0.07    0.12
   2   4  12    0.33    0.14
   2   4  12   -0.03    0.11
   2   4  12   -0.04    0.10
  -3  -4 -12    0.87    0.15
  -3  -4 -12    1.05    0.18
  -3  -4 -12    0.95    0.14
  -3  -4 -12    1.02    0.17
   3   4  12    1.05    0.18
   3   4  12    0.65    0.16
   3   4  12    1.06    0.14
   3   4  12    0.89    0.14
  -4  -4 -12    0.03    0.17
  -4  -4 -12    0.05    0.15
  -4  -4 -12   -0.07    0.17
   4   4  12   -0.03    0.13
   4   4  12    0.11    0.12
   4   4  12    0.09    0.17
   4   4  12    0.03    0.17
   1  -5 -12   -0.27    0.15
   1  -5 -12   -0.06    0.11
   1  -5 -12   -0.10    0.11
   1  -5 -12   -0.14    0.16
   1  -5 -12    0.06    0.13
  -1   5  12   -0.10    0.17
  -1   5  12   -0.05    0.14
  -1   5  12    0.05    0.13
  -1   5  12   -0.08    0.15
   0  -5 -12    0.12    0.15
   0  -5 -12   -0.02    0.14
   0  -5 -12   -0.08    0.10
   0  -5 -12   -0.04    0.11
   0  -5 -12   -0.11    0.13
   0   5  12   -0.17    0.12
   0   5  12    0.08    0.12
   0   5  12    0.02    0.16
   0   5  12   -0.04    0.13
  -1  -5 -12    0.07    0.10
  -1  -5 -12    0.04    0.15
  -1  -5 -12   -0.14    0.13
  -1  -5 -12    0.12    0.12
   1   5  12    0.03    0.12
   1   5  12    0.09    0.11
   1   5  12   -0.05    0.15
   1   5  12   -0.06    0.12
  -2  -5 -12   -0.06    0.14
  -2  -5 -12    0.30    0.15
  -2  -5 -12    0.45    0.11
  -2  -5 -12    0.21    0.15
   2   5  12    0.29    0.14
   2   5  12    0.08    0.14
   2   5  12    0.08    0.12
   2   5  12    0.12    0.11
  -3  -5 -12    0.02    0.15
  -3  -5 -12   -0.22    0.13
  -3  -5 -12   -0.05    0.11
  -3  -5 -12    0.02    0.16
   3   5  12    0.20    0.14
   3   5  12   -0.07    0.12
   3   5  12   -0.21    0.14
   3   5  12    0.07    0.12
  -4  -5 -12    0.01    0.17
  -4  -5 -12    0.25    0.17
   4   5  12    0.48    0.14
   4   5  12    0.59    0.14
   0  -6 -12   -0.03    0.15
   0  -6 -12    0.20    0.17
   0  -6 -12    0.33    0.17
   0  -6 -12    0.36    0.12
   0   6  12   -0.04    0.13
   0   6  12    0.32    0.13
   0   6  12    0.44    0.19
   0   6  12    0.34    0.15
  -1  -6 -12    0.07    0.15
  -1  -6 -12   -0.03    0.14
  -1  -6 -12    0.03    0.11
  -1  -6 -12    0.07    0.14
   1   6  12    0.00    0.12
   1   6  12   -0.12    0.13
   1   6  12    0.13    0.15
   1   6  12   -0.06    0.16
  -2  -6 -12    0.13    0.15
  -2  -6 -12    0.70    0.13
  -2  -6 -12    0.73    0.17
  -2  -6 -12    0.33    0.14
   2   6  12    0.44    0.14
   2   6  12    0.11    0.15
   2   6  12    0.59    0.13
   2   6  12    0.49    0.16
  -3  -6 -12   -0.09    0.15
  -3  -6 -12    0.06    0.13
  -3  -6 -12    0.06    0.16
  -3  -6 -12    0.13    0.15
   3   6  12    0.15    0.14
   3   6  12    0.12    0.12
   3   6  12   -0.11    0.14
   3   6  12    0.38    0.12
   1  -1 -13    0.37    0.13
   1  -1 -13    0.27    0.18
   1  -1 -13    0.71    0.15
   1  -1 -13    0.55    0.15
   1  -1 -13    0.51    0.20
  -1   1  13    0.34    0.16
  -1   1  13    0.19    0.18
  -1   1  13    0.52    0.16
   0  -1 -13    0.37    0.21
   0  -1 -13    0.07    0.12
   0  -1 -13    0.36    0.17
   0  -1 -13   -0.14    0.13
   0   1  13    0.30    0.14
   0   1  13    0.20    0.17
   0   1  13    0.24    0.18
  -1  -1 -13    0.06    0.20
  -1  -1 -13    0.04    0.15
  -1  -1 -13    0.18    0.18
   1   1  13   -0.08    0.13
   1   1  13    0.02    0.18
   1   1  13   -0.10    0.17
   1  -2 -13    1.38    0.22
   1  -2 -13    1.38    0.15
   1  -2 -13    1.07    0.17
   1  -2 -13    1.53    0.21
   1  -2 -13    1.45    0.18
  -1   2  13    1.13    0.17
  -1   2  13    1.29    0.22
  -1   2  13    1.24    0.20
   0  -2 -13    0.22    0.15
   0  -2 -13    0.14    0.19
   0  -2 -13    0.12    0.17
   0  -2 -13    0.05    0.12
   0   2  13   -0.17    0.16
   0   2  13    0.32    0.15
   0   2  13   -0.10    0.13
   0   2  13   -0.17    0.14
  -1  -2 -13    1.19    0.20
  -1  -2 -13    0.85    0.22
  -1  -2 -13    0.70    0.16
   1   2  13    0.51    0.17
   1   2  13    0.63    0.15
   1   2  13    1.13    0.20
   1   2  13    0.67    0.17
   1  -3 -13    1.76    0.19
   1  -3 -13    1.83    0.22
   1  -3 -13    2.10    0.24
   1  -3 -13    2.16    0.21
  -1   3  13    2.02    0.26
  -1   3  13    2.27    0.22
  -1   3  13    2.73    0.30
   0  -3 -13    1.40    0.22
   0  -3 -13    1.41    0.22
   0  -3 -13    1.56    0.19
   0  -3 -13    1.38    0.17
   0   3  13    1.28    0.18
   0   3  13    1.71    0.22
   0   3  13    1.04    0.19
   0   3  13    1.37    0.17
  -1  -3 -13    0.98    0.20
  -1  -3 -13    0.68    0.17
  -1  -3 -13    1.56    0.22
   1   3  13    0.99    0.15
   1   3  13    1.34    0.21
   1   3  13    1.63    0.21
   1   3  13    1.29    0.19
  -2  -3 -13    0.69    0.20
   2   3  13    0.35    0.15
   2   3  13    0.55    0.15
   2   3  13    0.50    0.19
   0  -4 -13    3.14    0.34
   0  -4 -13    3.10    0.33
   0  -4 -13    3.34    0.26
   0  -4 -13    3.43    0.29
   0   4  13    3.05    0.33
   0   4  13    2.88    0.28
   0   4  13    2.77    0.29
   0   4  13    3.57    0.32
  -1  -4 -13    0.10    0.18
  -1  -4 -13   -0.03    0.19
  -1  -4 -13    0.23    0.16
   1   4  13    0.20    0.16
   1   4  13    0.16    0.17
   1   4  13    0.10    0.15
   1   4  13    0.24    0.14
   0   0   0    0.00    0.00
;
loop_
_symmetry_equiv_pos_as_xyz
'x, y, z'
'-x, -y, -z'
loop_
_atom_site_label
_atom_site_type_symbol
_atom_site_fract_x
_atom_site_fract_y
_atom_site_fract_z
_atom_site_U_iso_or_equiv
_atom_site_adp_type
_atom_site_occupancy
_atom_site_calc_flag
Cl01 Cl 0.29961(7) -0.56369(5) 1.18924(5) 0.06435(19) Uani 1 d
O1 O 0.21944(15) 0.14233(12) 1.06853(9) 0.0400(2) Uani 1 d
C5 C 0.2825(2) -0.27319(18) 1.02622(14) 0.0405(3) Uani 1 d
H003 H 0.2989 -0.3307 0.9544 0.049 Uiso 1 calc
C3 C 0.2539(2) -0.27377(18) 1.26279(14) 0.0420(3) Uani 1 d
H004 H 0.2515 -0.3331 1.3513 0.05 Uiso 1 calc
C1 C 0.23710(19) -0.02157(16) 1.11006(13) 0.0345(3) Uani 1 d
C7 C 0.2628(2) 0.01865(18) 0.88557(13) 0.0369(3) Uani 1 d
C6 C 0.26326(19) -0.10517(17) 1.00320(13) 0.0349(3) Uani 1 d
C2 C 0.2339(2) -0.10650(18) 1.23982(13) 0.0389(3) Uani 1 d
C11 C 0.2245(2) 0.31523(19) 0.84862(15) 0.0456(3) Uani 1 d
H009 H 0.2061 0.4128 0.8835 0.055 Uiso 1 calc
C4 C 0.2773(2) -0.35437(18) 1.15657(15) 0.0425(3) Uani 1 d
C8 C 0.2798(2) 0.0220(2) 0.74864(14) 0.0465(4) Uani 1 d
H011 H 0.2989 -0.0757 0.7139 0.056 Uiso 1 calc
O3 O 0.2467(3) -0.1154(2) 1.46526(12) 0.0882(5) Uani 1 d
C12 C 0.2356(2) 0.16522(18) 0.93084(13) 0.0378(3) Uani 1 d
O2 O 0.1608(3) 0.12692(18) 1.33199(14) 0.0938(6) Uani 1 d
N1 N 0.2110(2) -0.02510(19) 1.35385(13) 0.0550(4) Uani 1 d
C10 C 0.2415(2) 0.3170(2) 0.71277(16) 0.0499(4) Uani 1 d
C9 C 0.2681(2) 0.1711(2) 0.66524(15) 0.0525(4) Uani 1 d
H017 H 0.2786 0.1749 0.5719 0.063 Uiso 1 calc
C13 C 0.2298(3) 0.4767(3) 0.6171(2) 0.0718(6) Uani 1 d
H1AA H 0.2919 0.5364 0.6611 0.108 Uiso 1 calc
H1AB H 0.088 0.5506 0.5904 0.108 Uiso 1 calc
H1AC H 0.3017 0.447 0.5375 0.108 Uiso 1 calc
loop_
_atom_site_aniso_label
_atom_site_aniso_U_11
_atom_site_aniso_U_22
_atom_site_aniso_U_33
_atom_site_aniso_U_23
_atom_site_aniso_U_13
_atom_site_aniso_U_12
Cl01 0.0823(3) 0.0349(2) 0.0774(3) -0.00845(19) 0.0178(2) -0.0270(2)
O1 0.0559(6) 0.0355(5) 0.0328(5) -0.0056(4) 0.0027(4) -0.0231(4)
C5 0.0456(7) 0.0387(7) 0.0421(7) -0.0126(6) 0.0065(6) -0.0199(6)
C3 0.0463(7) 0.0402(7) 0.0369(7) 0.0003(6) 0.0047(6) -0.0186(6)
C1 0.0393(6) 0.0336(6) 0.0327(6) -0.0051(5) 0.0023(5) -0.0176(5)
C7 0.0389(7) 0.0412(7) 0.0327(7) -0.0052(5) 0.0021(5) -0.0194(6)
C6 0.0370(6) 0.0382(7) 0.0320(6) -0.0068(5) 0.0029(5) -0.0180(5)
C2 0.0454(7) 0.0417(7) 0.0312(7) -0.0067(5) 0.0045(5) -0.0194(6)
C11 0.0497(8) 0.0420(8) 0.0452(8) 0.0018(6) -0.0024(6) -0.0231(6)
C4 0.0445(7) 0.0340(7) 0.0499(8) -0.0052(6) 0.0058(6) -0.0184(6)
C8 0.0523(8) 0.0562(9) 0.0341(7) -0.0090(6) 0.0036(6) -0.0249(7)
O3 0.1562(16) 0.0822(10) 0.0305(6) -0.0090(6) 0.0072(7) -0.0531(10)
C12 0.0410(7) 0.0409(7) 0.0323(7) -0.0020(5) 0.0001(5) -0.0197(6)
O2 0.1813(18) 0.0568(8) 0.0512(8) -0.0242(6) 0.0272(9) -0.0499(10)
N1 0.0810(10) 0.0571(8) 0.0348(7) -0.0133(6) 0.0121(6) -0.0341(7)
C10 0.0475(8) 0.0549(9) 0.0424(8) 0.0089(7) -0.0027(6) -0.0242(7)
C9 0.0554(9) 0.0702(11) 0.0306(7) 0.0005(7) 0.0014(6) -0.0285(8)
C13 0.0786(12) 0.0715(12) 0.0557(11) 0.0242(9) -0.0063(9) -0.0371(10)
loop_
_atom_type_symbol
_atom_type_description
_atom_type_scat_dispersion_real
_atom_type_scat_dispersion_imag
_atom_type_scat_source
C C 0.0033 0.0016 'International Tables Vol C Tables 4.2.6.8 and 6.1.1.4'
H H 0 0 'International Tables Vol C Tables 4.2.6.8 and 6.1.1.4'
Cl Cl 0.1484 0.1585 'International Tables Vol C Tables 4.2.6.8 and 6.1.1.4'
N N 0.0061 0.0033 'International Tables Vol C Tables 4.2.6.8 and 6.1.1.4'
O O 0.0106 0.006 'International Tables Vol C Tables 4.2.6.8 and 6.1.1.4'
loop_
_geom_angle_atom_site_label_1
_geom_angle_atom_site_label_2
_geom_angle_atom_site_label_3
_geom_angle
C1 O1 C12 105.37(10)
C4 C5 C6 118.16(13)
C4 C5 H003 120.9
C6 C5 H003 120.9
C4 C3 C2 119.74(13)
C4 C3 H004 120.1
C2 C3 H004 120.1
O1 C1 C2 127.61(12)
O1 C1 C6 112.03(11)
C2 C1 C6 120.36(12)
C12 C7 C8 118.48(13)
C12 C7 C6 105.66(11)
C8 C7 C6 135.85(13)
C5 C6 C1 120.22(12)
C5 C6 C7 134.48(13)
C1 C6 C7 105.31(11)
C3 C2 C1 119.43(12)
C3 C2 N1 118.56(12)
C1 C2 N1 122.01(13)
C12 C11 C10 116.95(15)
C12 C11 H009 121.5
C10 C11 H009 121.5
C3 C4 C5 122.08(13)
C3 C4 Cl01 118.38(11)
C5 C4 Cl01 119.53(12)
C9 C8 C7 118.13(15)
C9 C8 H011 120.9
C7 C8 H011 120.9
C11 C12 O1 124.33(13)
C11 C12 C7 124.04(13)
O1 C12 C7 111.63(11)
O2 N1 O3 124.05(15)
O2 N1 C2 118.23(13)
O3 N1 C2 117.71(14)
C11 C10 C9 119.87(14)
C11 C10 C13 119.81(17)
C9 C10 C13 120.31(16)
C8 C9 C10 122.53(14)
C8 C9 H017 118.7
C10 C9 H017 118.7
C10 C13 H1AA 109.5
C10 C13 H1AB 109.5
H1AA C13 H1AB 109.5
C10 C13 H1AC 109.5
H1AA C13 H1AC 109.5
H1AB C13 H1AC 109.5
loop_
_geom_bond_atom_site_label_1
_geom_bond_atom_site_label_2
_geom_bond_distance
Cl01 C4 1.7347(14)
O1 C1 1.3645(15)
O1 C12 1.3888(16)
C5 C4 1.384(2)
C5 C6 1.3903(18)
C5 H003 0.95
C3 C4 1.382(2)
C3 C2 1.3824(19)
C3 H004 0.95
C1 C2 1.3864(18)
C1 C6 1.4021(18)
C7 C12 1.390(2)
C7 C8 1.397(2)
C7 C6 1.4444(18)
C2 N1 1.4573(19)
C11 C12 1.3806(19)
C11 C10 1.388(2)
C11 H009 0.95
C8 C9 1.378(2)
C8 H011 0.95
O3 N1 1.2141(19)
O2 N1 1.2058(19)
C10 C9 1.397(3)
C10 C13 1.507(2)
C9 H017 0.95
C13 H1AA 0.98
C13 H1AB 0.98
C13 H1AC 0.98
loop_
_geom_torsion_atom_site_label_1
_geom_torsion_atom_site_label_2
_geom_torsion_atom_site_label_3
_geom_torsion_atom_site_label_4
_geom_torsion
C12 O1 C1 C2 178.94(13)
C12 O1 C1 C6 -0.30(14)
C4 C5 C6 C1 -0.7(2)
C4 C5 C6 C7 179.46(14)
O1 C1 C6 C5 -179.53(11)
C2 C1 C6 C5 1.2(2)
O1 C1 C6 C7 0.37(15)
C2 C1 C6 C7 -178.94(12)
C12 C7 C6 C5 179.59(14)
C8 C7 C6 C5 0.5(3)
C12 C7 C6 C1 -0.28(14)
C8 C7 C6 C1 -179.40(15)
C4 C3 C2 C1 0.2(2)
C4 C3 C2 N1 -179.53(13)
O1 C1 C2 C3 179.92(13)
C6 C1 C2 C3 -0.9(2)
O1 C1 C2 N1 -0.4(2)
C6 C1 C2 N1 178.78(13)
C2 C3 C4 C5 0.3(2)
C2 C3 C4 Cl01 -179.42(11)
C6 C5 C4 C3 -0.1(2)
C6 C5 C4 Cl01 179.68(10)
C12 C7 C8 C9 -0.2(2)
C6 C7 C8 C9 178.83(15)
C10 C11 C12 O1 -179.32(13)
C10 C11 C12 C7 0.1(2)
C1 O1 C12 C11 179.58(13)
C1 O1 C12 C7 0.10(14)
C8 C7 C12 C11 -0.1(2)
C6 C7 C12 C11 -179.36(13)
C8 C7 C12 O1 179.42(12)
C6 C7 C12 O1 0.12(15)
C3 C2 N1 O2 -168.02(17)
C1 C2 N1 O2 12.3(2)
C3 C2 N1 O3 13.0(2)
C1 C2 N1 O3 -166.68(16)
C12 C11 C10 C9 0.1(2)
C12 C11 C10 C13 179.71(14)
C7 C8 C9 C10 0.4(2)
C11 C10 C9 C8 -0.4(2)
C13 C10 C9 C8 -179.99(16)
