#------------------------------------------------------------------------------
#$Date: 2019-11-13 10:56:06 +0200 (Wed, 13 Nov 2019) $
#$Revision: 227704 $
#$URL: file:///home/coder/svn-repositories/cod/cif/7/23/50/7235039.cif $
#------------------------------------------------------------------------------
#
# This file is available in the Crystallography Open Database (COD),
# http://www.crystallography.net/
#
# All data on this site have been placed in the public domain by the
# contributors.
#
data_7235039
loop_
_publ_author_name
'Weifeng Zhang'
'Zupan Mao'
'Naihang Zheng'
'Jiabin Zou'
'Liping Wang'
'Congyuan Wei'
'Jianyao Huang'
'Dong Gao'
'Gui Yu'
_publ_section_title
;
 Highly planar cross-conjugated alternating polymers with multiple
 conformational locks: synthesis, characterization and their field-effect
 properties
;
_journal_name_full               'Journal of Materials Chemistry C'
_journal_page_first              9266
_journal_page_last               9275
_journal_paper_doi               10.1039/C6TC02891H
_journal_volume                  4
_journal_year                    2016
_chemical_formula_moiety         'C10 H4 Br2 O2 S2'
_chemical_formula_sum            'C10 H4 Br2 O2 S2'
_chemical_formula_weight         380.07
_space_group_crystal_system      orthorhombic
_space_group_IT_number           19
_space_group_name_Hall           'P 2ac 2ab'
_space_group_name_H-M_alt        'P 21 21 21'
_atom_sites_solution_hydrogens   geom
_cell_angle_alpha                90
_cell_angle_beta                 90
_cell_angle_gamma                90
_cell_formula_units_Z            4
_cell_length_a                   5.7908(6)
_cell_length_b                   11.3325(13)
_cell_length_c                   17.3880(19)
_cell_measurement_reflns_used    4291
_cell_measurement_temperature    173.1500
_cell_measurement_theta_max      27.4822
_cell_measurement_theta_min      2.1451
_cell_volume                     1141.1(2)
_computing_cell_refinement       'CrystalClear (Rigaku Inc., 2007)'
_computing_data_collection       'CrystalClear (Rigaku Inc., 2007)'
_computing_data_reduction        'CrystalClear (Rigaku Inc., 2007)'
_computing_molecular_graphics    'Olex2 (Dolomanov et al., 2009)'
_computing_publication_material  'Olex2 (Dolomanov et al., 2009)'
_computing_structure_refinement  'SHELXL (Sheldrick, 2013)'
_computing_structure_solution
;
'SHELXS (Sheldrick, 2013)'
;
_diffrn_ambient_temperature      173.1500
_diffrn_detector_area_resol_mean 28.5714
_diffrn_measured_fraction_theta_full 0.993
_diffrn_measured_fraction_theta_max 0.992
_diffrn_measurement_device
;
Saturn724 (2x2 bin mode)
;
_diffrn_measurement_device_details
;
AFC10: Fixed Chi 2 circle
;
_diffrn_measurement_device_type  'Saturn724+ CCD'
_diffrn_measurement_method       '\w scans at fixed \c = 45\%'
_diffrn_orient_matrix_type       d*Trek
_diffrn_orient_matrix_UB_11      -0.0303
_diffrn_orient_matrix_UB_12      -0.1626
_diffrn_orient_matrix_UB_13      0.0495
_diffrn_orient_matrix_UB_21      0.0831
_diffrn_orient_matrix_UB_22      -0.0067
_diffrn_orient_matrix_UB_23      0.0290
_diffrn_orient_matrix_UB_31      -0.0165
_diffrn_orient_matrix_UB_32      0.0189
_diffrn_orient_matrix_UB_33      0.0518
_diffrn_radiation_detector       CCD
_diffrn_radiation_monochromator  'Graphite Monochromator'
_diffrn_radiation_type           MoK\a
_diffrn_radiation_wavelength     0.71073
_diffrn_reflns_av_R_equivalents  0.0264
_diffrn_reflns_av_unetI/netI     0.0372
_diffrn_reflns_Laue_measured_fraction_full 0.993
_diffrn_reflns_Laue_measured_fraction_max 0.992
_diffrn_reflns_limit_h_max       7
_diffrn_reflns_limit_h_min       -7
_diffrn_reflns_limit_k_max       14
_diffrn_reflns_limit_k_min       -12
_diffrn_reflns_limit_l_max       22
_diffrn_reflns_limit_l_min       -12
_diffrn_reflns_number            4648
_diffrn_reflns_point_group_measured_fraction_full 0.983
_diffrn_reflns_point_group_measured_fraction_max 0.974
_diffrn_reflns_theta_full        26.000
_diffrn_reflns_theta_max         27.480
_diffrn_reflns_theta_min         3.596
_diffrn_source                   'Sealed Tube'
_diffrn_source_current           30.0000
_diffrn_source_power             1.5000
_diffrn_source_voltage           50.0000
_exptl_absorpt_coefficient_mu    7.448
_exptl_absorpt_correction_T_max  1.0000
_exptl_absorpt_correction_T_min  0.3890
_exptl_absorpt_correction_type   multi-scan
_exptl_absorpt_process_details   'CrystalClear (Rigaku Inc., 2007)'
_exptl_crystal_colour            yellow
_exptl_crystal_colour_primary    yellow
_exptl_crystal_density_diffrn    2.212
_exptl_crystal_description       rod
_exptl_crystal_F_000             728
_exptl_crystal_recrystallization_method
'Re-crystallisation from solvent: DICHLOROMETHANE/METHANOL'
_exptl_crystal_size_max          0.69
_exptl_crystal_size_mid          0.18
_exptl_crystal_size_min          0.1
_refine_diff_density_max         0.319
_refine_diff_density_min         -0.555
_refine_diff_density_rms         0.094
_refine_ls_abs_structure_details
;
 Flack x determined using 927 quotients [(I+)-(I-)]/[(I+)+(I-)]
 (Parsons and Flack (2004), Acta Cryst. A60, s61).
;
_refine_ls_abs_structure_Flack   0.023(9)
_refine_ls_extinction_coef       .
_refine_ls_extinction_method     none
_refine_ls_goodness_of_fit_ref   1.069
_refine_ls_hydrogen_treatment    constr
_refine_ls_matrix_type           full
_refine_ls_number_parameters     145
_refine_ls_number_reflns         2548
_refine_ls_number_restraints     0
_refine_ls_restrained_S_all      1.069
_refine_ls_R_factor_all          0.0297
_refine_ls_R_factor_gt           0.0277
_refine_ls_shift/su_max          0.002
_refine_ls_shift/su_mean         0.000
_refine_ls_structure_factor_coef Fsqd
_refine_ls_weighting_details
'w=1/[\s^2^(Fo^2^)+(0.0188P)^2^+0.7520P] where P=(Fo^2^+2Fc^2^)/3'
_refine_ls_weighting_scheme      calc
_refine_ls_wR_factor_gt          0.0571
_refine_ls_wR_factor_ref         0.0582
_reflns_Friedel_coverage         0.672
_reflns_Friedel_fraction_full    0.969
_reflns_Friedel_fraction_max     0.948
_reflns_number_gt                2449
_reflns_number_total             2548
_reflns_threshold_expression     'I > 2\s(I)'
_cod_data_source_file            J-Mater-Chem-C-2016-4-9266.cif
_cod_data_source_block           sa3394
_cod_database_code               7235039
_shelx_space_group_comment
;
The symmetry employed for this shelxl refinement is uniquely defined
by the following loop, which should always be used as a source of
symmetry information in preference to the above space-group names.
They are only intended as comments.
;
_shelx_res_file
;
TITL sa3394 in P2(1)2(1)2(1)
CELL 0.71073 5.7908 11.3325 17.388 90 90 90
ZERR 4 0.0006 0.0013 0.0019 0 0 0
LATT -1
SYMM 0.5-X,-Y,0.5+Z
SYMM -X,0.5+Y,0.5-Z
SYMM 0.5+X,0.5-Y,-Z

SFAC C H Br O S
UNIT 40 16 8 8 8

L.S. 4
PLAN  20
BOND
fmap 2
MORE -1
ACTA 52
CONF
OMIT 0 1 1
REM <HKL>D:/D/SXRD/sa(3300-3399)/sa3394/sa3394.hkl</HKL>

WGHT    0.018800    0.752000
FVAR       3.59641
BR1   3    0.670213    0.024517    0.812361    11.00000    0.02816    0.02790 =
         0.02527    0.00544    0.00536   -0.00093
BR2   3    1.281478    0.720737    0.340545    11.00000    0.04110    0.02909 =
         0.03003    0.00648    0.01169   -0.00077
S1    5    0.762708    0.220716    0.691845    11.00000    0.02094    0.02210 =
         0.02186   -0.00008    0.00363   -0.00089
S2    5    1.194302    0.511600    0.453118    11.00000    0.02252    0.02214 =
         0.02327    0.00140    0.00471    0.00011
O1    4    1.230326    0.301080    0.534106    11.00000    0.02488    0.02606 =
         0.02814    0.00108    0.00794   -0.00059
O2    4    0.713060    0.413587    0.601400    11.00000    0.02456    0.03021 =
         0.03632    0.00465    0.01591    0.00451
C1    1    0.858569    0.096103    0.737904    11.00000    0.02621    0.02530 =
         0.01823   -0.00001   -0.00085   -0.00255
C2    1    1.067832    0.057348    0.712702    11.00000    0.02188    0.02246 =
         0.02657   -0.00061   -0.00542    0.00202
AFIX  43
H2    2    1.143543   -0.008973    0.731585    11.00000   -1.20000
AFIX   0
C3    1    1.153971    0.130749    0.654488    11.00000    0.02106    0.02457 =
         0.02260   -0.00393   -0.00161   -0.00346
AFIX  43
H3    2    1.295897    0.118310    0.630805    11.00000   -1.20000
AFIX   0
C4    1    1.011361    0.221928    0.635673    11.00000    0.01849    0.02344 =
         0.01554   -0.00708   -0.00002   -0.00142
C5    1    1.059965    0.308010    0.574951    11.00000    0.02120    0.02406 =
         0.02086   -0.00519   -0.00159   -0.00410
C6    1    0.889069    0.410950    0.563261    11.00000    0.02128    0.01765 =
         0.02468   -0.00645    0.00044   -0.00148
C7    1    0.943979    0.502098    0.506576    11.00000    0.02148    0.01759 =
         0.01860   -0.00252    0.00187   -0.00341
C8    1    0.798406    0.594008    0.491082    11.00000    0.01938    0.02763 =
         0.02794   -0.00038    0.00354    0.00096
AFIX  43
H8    2    0.655361    0.603019    0.514677    11.00000   -1.20000
AFIX   0
C9    1    0.884338    0.673216    0.436503    11.00000    0.02810    0.02431 =
         0.02770   -0.00159   -0.00063    0.00187
AFIX  43
H9    2    0.806648    0.740149    0.419526    11.00000   -1.20000
AFIX   0
C10   1    1.097297    0.639193    0.411497    11.00000    0.03146    0.02252 =
         0.02123   -0.00016    0.00411    0.00030
HKLF 4

REM  sa3394 in P2(1)2(1)2(1)
REM R1 =  0.0277 for    2449 Fo > 4sig(Fo)  and  0.0297 for all    2548 data
REM    145 parameters refined using      0 restraints

END

WGHT      0.0188      0.7520

REM Highest difference peak  0.319,  deepest hole -0.555,  1-sigma level  0.094
Q1    1   1.0394  0.6766  0.4338  11.00000  0.05    0.32
Q2    1   0.8918  0.4637  0.6650  11.00000  0.05    0.30
Q3    1   0.9762  0.1543  0.8112  11.00000  0.05    0.30
Q4    1   0.5750  0.4757  0.4402  11.00000  0.05    0.30
Q5    1   0.9549 -0.0902  0.8008  11.00000  0.05    0.29
Q6    1   1.1282  0.8223  0.3392  11.00000  0.05    0.28
Q7    1   1.2323  0.7981  0.3585  11.00000  0.05    0.28
Q8    1   0.8665 -0.0200  0.6993  11.00000  0.05    0.28
Q9    1   1.4881  0.0781  0.6978  11.00000  0.05    0.27
Q10   1   0.7841  0.1653  0.5932  11.00000  0.05    0.27
Q11   1   1.4303  0.4309  0.4493  11.00000  0.05    0.27
Q12   1   1.5043  0.3854  0.4774  11.00000  0.05    0.27
Q13   1   0.7981  0.5286  0.6549  11.00000  0.05    0.27
Q14   1   0.8921  0.5449  0.4945  11.00000  0.05    0.26
Q15   1   0.9896  0.3763  0.5735  11.00000  0.05    0.26
Q16   1   1.4530  0.8076  0.3453  11.00000  0.05    0.25
Q17   1   1.3480  0.5952  0.2820  11.00000  0.05    0.25
Q18   1   0.8558  0.6933  0.5436  11.00000  0.05    0.25
Q19   1   1.2800  0.5637  0.3454  11.00000  0.05    0.25
Q20   1   1.0908  0.7202  0.3461  11.00000  0.05    0.25
;
_shelx_res_checksum              59360
_shelx_hkl_file
;
   0   0   1  -47.58    9.25   1-0.79371 0.79371 0.60794-0.60794 0.02045 0.02045
   0   0  -1  -19.34    8.97   1-0.80561 0.80561 0.59209-0.59209-0.02045-0.02045
   0   0   3  529.57   66.76   1-0.78016 0.78016 0.62255-0.62255 0.06136 0.06136
   0   0   420830.08  270.89   1-0.77276 0.77276 0.62939-0.62939 0.08181 0.08181
   0   0  -420590.19  273.08   1-0.82035 0.82035 0.56597-0.56597-0.08181-0.08181
   0   0   5   96.77   91.14   1-0.76495 0.76495 0.63591-0.63591 0.10226 0.10226
   0   0  -5  216.13   94.63   1-0.82443 0.82443 0.55664-0.55664-0.10226-0.10226
   0   0   6346603.3 2989.69   1-0.75709 0.75709 0.64167-0.64167 0.12270 0.12270
   0   0  -6334652.5 2903.91   1-0.82766 0.82766 0.54763-0.54763-0.12272-0.12272
   0   0   7  -15.69  125.11   1-0.74843 0.74843 0.64757-0.64757 0.14315 0.14315
   0   0  -7  246.17  119.69   1-0.83089 0.83089 0.53768-0.53768-0.14317-0.14317
   0   0   9  171.46  149.92   1-0.72982 0.72982 0.65838-0.65838 0.18405 0.18405
   0   0  10 1323.84  169.76   1-0.71986 0.71986 0.66329-0.66329 0.20450 0.20450
   0   0  11  372.95  175.22   1-0.70945 0.70945 0.66787-0.66787 0.22496 0.22496
   0   0  1219197.56  516.24   1-0.69859 0.69859 0.67211-0.67211 0.24541 0.24541
   0   0  13   84.17  168.49   1-0.68727 0.68727 0.67599-0.67599 0.26586 0.26586
   0   0  1417988.46  529.43   1-0.67547 0.67547 0.67953-0.67953 0.28631 0.28631
   0   0  15  -34.40  181.12   1-0.66318 0.66318 0.68269-0.68269 0.30676 0.30676
   0   0  16 7367.92  423.54   1-0.65040 0.65040 0.68549-0.68549 0.32721 0.32721
   0   0  17  378.56  265.28   1-0.63740 0.63740 0.68770-0.68770 0.34753 0.34753
   0   0  18 1848.11  353.08   1-0.62359 0.62359 0.68972-0.68972 0.36797 0.36797
   0   0  19  175.39  198.06   1-0.60924 0.60924 0.69134-0.69134 0.38842 0.38842
   0   0  2016701.94  796.09   1-0.59432 0.59432 0.69253-0.69253 0.40886 0.40886
   0   0  21  489.11  210.36   1-0.57883 0.57883 0.69328-0.69328 0.42930 0.42930
   0   0  22 1184.90  263.30   1-0.56272 0.56272 0.69358-0.69358 0.44975 0.44975
   0   1   0   -0.58   13.72   1-0.65119 0.65119 0.03140 0.03140-0.75825 0.75825
   0  -1   0  -34.53   20.64   1-0.60055 0.60055-0.03140-0.03140-0.79896 0.79896
   0  -1   1   17.49    9.79   1 0.00596-0.00596 0.51389-0.57668 0.85783-0.81694
   0   1  -1  -65.27   14.67   1-0.11025 0.11025 0.57336-0.51057 0.81184-0.85273
   0   1   1    0.95   31.96   1-0.82164 0.82164 0.34184-0.27904-0.45612 0.49703
   0  -1   339208.27  379.77   1-0.57658 0.57658 0.69335-0.75612 0.43220-0.30954
   0   1  -338586.80  375.11   1-0.68563 0.68563 0.67651-0.61373 0.26874-0.39144
   0   1   339979.01  445.24   1-0.83631 0.83631 0.51558-0.45279-0.18639 0.30912
   0  -1  -335549.14  400.38   1-0.84081 0.84081 0.44657-0.50937-0.30594 0.18321
   0  -1   4102454.1  920.89   1-0.63027 0.63027 0.68880-0.75157 0.35818-0.19464
   0   1  -496836.50  876.73   1-0.74277 0.74277 0.65111-0.58832 0.15601-0.31962
   0   1   4103649.9  993.67   1-0.82673 0.82673 0.55022-0.48742-0.11729 0.28092
   0  -1  -499074.50  953.05   1-0.84117 0.84117 0.46679-0.52958-0.27300 0.10937
   0  -1   5  815.97   83.64   1-0.65362 0.65362 0.68483-0.74762 0.32214-0.11763
   0   1  -5  546.35   68.96   1-0.77299 0.77299 0.62919-0.56642 0.08120-0.28573
   0   1   5  708.50  109.77   1-0.81650 0.81650 0.57376-0.51098-0.06419 0.26872
   0  -1  -5  683.61  111.24   1-0.84092 0.84092 0.47571-0.53851-0.25796 0.05342
   0  -1   6 5656.99  144.65   1-0.66405 0.66405 0.68249-0.74527 0.30534-0.05993
   0   1  -6 5540.75  149.87   1-0.79223 0.79223 0.60970-0.54692 0.02518-0.27062
   0   1   6 5822.27  193.83   1-0.80566 0.80566 0.59200-0.52923-0.02066 0.26610
   0  -1  -6 6242.89  191.12   1-0.84078 0.84078 0.47850-0.54130-0.25318 0.00773
   0  -1   788132.65  875.75   1-0.66759 0.66759 0.68161-0.74440 0.29951-0.01319
   0   1   788204.50  931.11   1-0.79476 0.79476 0.60667-0.54390 0.01705 0.26929
   0   1  -785594.64  865.85   1-0.80555 0.80555 0.59217-0.52940-0.02023-0.26611
   0  -1  -782515.42  887.42   1-0.84083 0.84083 0.47756-0.54036-0.25479-0.03155
   0  -1   814904.87  256.96   1-0.66703 0.66703 0.68175-0.74454 0.30044 0.02676
   0   1   817628.91  346.58   1-0.78377 0.78377 0.61894-0.55617 0.05092 0.27633
   0   1  -817999.15  316.05   1-0.81534 0.81534 0.57593-0.51316-0.05917-0.26808
   0  -1   973593.92 1134.58   1-0.66376 0.66376 0.68256-0.74534 0.30582 0.06228
   0   1   975018.21 1191.84   1-0.77266 0.77266 0.62948-0.56671 0.08210 0.28606
   0  -1  1045120.41  766.15   1-0.65854 0.65854 0.68377-0.74655 0.31428 0.09473
   0   1  1047533.53  855.04   1-0.76135 0.76135 0.63870-0.57593 0.11133 0.29773
   0  -1  11 2364.60  212.98   1-0.65184 0.65184 0.68520-0.74798 0.32495 0.12496
   0   1  11 2492.76  221.21   1-0.75017 0.75017 0.64643-0.58365 0.13913 0.31078
   0  -1  12123170.2 3082.47   1-0.64393 0.64393 0.68672-0.74951 0.33727 0.15355
   0   1  12126081.6 3175.76   1-0.73834 0.73834 0.65372-0.59093 0.16580 0.32501
   0  -1  1366316.10 1411.84   1-0.63528 0.63528 0.68804-0.75081 0.35072 0.18080
   0   1  1368209.70 1485.03   1-0.72620 0.72620 0.66023-0.59745 0.19160 0.34011
   0  -1  1418337.26  542.25   1-0.62546 0.62546 0.68948-0.75225 0.36525 0.20715
   0   1  1417154.08  534.12   1-0.71370 0.71370 0.66607-0.60328 0.21672 0.35590
   0  -1  1528231.46 1235.59   1-0.61482 0.61482 0.69077-0.75353 0.38055 0.23273
   0   1  1527225.60 1224.95   1-0.70082 0.70082 0.67128-0.60849 0.24128 0.37224
   0  -1  16 5000.82  318.50   1-0.60342 0.60342 0.69186-0.75463 0.39648 0.25769
   0   1  16 5090.82  355.26   1-0.68754 0.68754 0.67591-0.61312 0.26538 0.38904
   0  -1  17  416.94  256.94   1-0.59129 0.59129 0.69271-0.75548 0.41292 0.28214
   0   1  17   75.58  211.82   1-0.67382 0.67382 0.67998-0.61719 0.28910 0.40623
   0  -1  1829854.54 1531.73   1-0.57846 0.57846 0.69329-0.75606 0.42978 0.30617
   0   1  1830481.71 1581.33   1-0.65965 0.65965 0.68352-0.62073 0.31250 0.42372
   0  -1  1924201.73 1315.73   1-0.56493 0.56493 0.69357-0.75634 0.44699 0.32984
   0   1  1924257.86 1331.10   1-0.64499 0.64499 0.68653-0.62374 0.33563 0.44149
   0  -1  20 8902.60  534.57   1-0.55071 0.55071 0.69350-0.75627 0.46450 0.35322
   0   1  20 9681.34  553.79   1-0.63012 0.63012 0.68883-0.62606 0.35839 0.45933
   0  -1  21 4631.33  436.88   1-0.53579 0.53579 0.69306-0.75583 0.48226 0.37634
   0   1  21 6651.78  662.25   1-0.61444 0.61444 0.69081-0.62804 0.38110 0.47751
   0  -1  22 2793.64  307.80   1-0.52016 0.52016 0.69222-0.75499 0.50024 0.39925
   0   1  22 4032.68  447.63   1-0.59819 0.59819 0.69226-0.62949 0.40363 0.49586
   0   2   0 1203.73   69.46   1-0.67460 0.67460 0.06280 0.06280-0.73550 0.73550
   0  -2   0 1100.66   60.71   1-0.57331 0.57331-0.06280-0.06280-0.81692 0.81692
   0  -2   1 5588.60   94.38   1 0.41961-0.41961 0.21751-0.34309 0.88125-0.84035
   0   2  -1 5097.28   85.70   1 0.24120-0.24120 0.36235-0.23681 0.90028-0.94113
   0   2   1 5754.67  144.55   1-0.78776 0.78776 0.25250-0.12690-0.56183 0.60275
   0  -2  -1 5561.12  138.81   1-0.73161 0.73161 0.14737-0.27297-0.66559 0.62467
   0  -2   2 8539.00  126.04   1 0.06444-0.06444 0.48022-0.60579 0.87477-0.79300
   0   2  -2 8173.82  118.35   1-0.16804 0.16804 0.59915-0.47358 0.78279-0.86457
   0   2   2 7748.36  194.28   1-0.82819 0.82819 0.36595-0.24035-0.42446 0.50628
   0  -2  -2 8018.55  176.42   1-0.79407 0.79407 0.26643-0.39203-0.54632 0.46450
   0  -2   3264017.6 2219.42   1-0.21252 0.21252 0.61724-0.74281 0.75752-0.63486
   0   2  -3257743.3 2171.92   1-0.44932 0.44932 0.68403-0.55848 0.57462-0.69728
   0   2   3257804.1 2285.22   1-0.84021 0.84021 0.43677-0.31117-0.32136 0.44408
   0  -2  -3254145.8 2236.06   1-0.81907 0.81907 0.33341-0.45901-0.46685 0.34412
   0  -2   4204938.6 1752.78   1-0.37327 0.37327 0.66852-0.79408 0.64322-0.47968
   0   2  -4201519.5 1729.66   1-0.59988 0.59988 0.69214-0.56660 0.40134-0.56488
   0   2   4201415.4 1849.91   1-0.84038 0.84038 0.48488-0.35928-0.24215 0.40578
   0  -2  -4197107.3 1788.17   1-0.82972 0.82972 0.37235-0.49795-0.41582 0.25218
   0  -2   525682.97  304.75   1-0.46203 0.46203 0.68598-0.81154 0.56209-0.35767
   0   2  -524537.75  295.69   1-0.68188 0.68188 0.67767-0.55210 0.27529-0.47980
   0   2   527646.41  452.25   1-0.83545 0.83545 0.51981-0.39421-0.17835 0.38289
   0  -2  -525009.48  385.95   1-0.83452 0.83452 0.39544-0.52104-0.38366 0.17911
   0  -2   626935.62  337.28   1-0.51258 0.51258 0.69168-0.81722 0.50874-0.26342
   0   2  -624681.73  320.13   1-0.73092 0.73092 0.65781-0.53224 0.18175-0.42716
   0   2   627092.89  448.10   1-0.82802 0.82802 0.54662-0.42102-0.12484 0.37029
   0  -2  -624715.88  393.12   1-0.83675 0.83675 0.40895-0.53456-0.36413 0.11867
   0  -2   7 1104.50   93.28   1-0.54217 0.54217 0.69329-0.81883 0.47474-0.18853
   0   2  -7 1157.76  111.62   1-0.76227 0.76227 0.63800-0.51245 0.10902-0.39537
   0   2   7  743.35  142.00   1-0.81958 0.81958 0.56760-0.44205-0.07816 0.36451
   0  -2  -7  670.27  111.35   1-0.83778 0.83778 0.41628-0.54188-0.35331 0.06694
   0  -2   825670.49 1199.16   1-0.55943 0.55943 0.69358-0.81912 0.45383-0.12674
   0   2  -824133.50 1133.64   1-0.78424 0.78424 0.61846-0.49292 0.04955-0.37681
   0   2   826173.38 1251.14   1-0.80991 0.80991 0.58538-0.45983-0.03686 0.36411
   0  -2   9 3053.35  218.33   1-0.56890 0.56890 0.69352-0.81906 0.44200-0.07402
   0   2  -9 3208.54  213.68   1-0.80014 0.80014 0.59980-0.47425-0.00094-0.36721
   0   2   9 3026.43  288.33   1-0.79965 0.79965 0.60045-0.47490 0.00072 0.36743
   0  -2  10103021.2 1544.53   1-0.57314 0.57314 0.69344-0.81898 0.43662-0.02775
   0   2  10104029.9 1638.60   1-0.78891 0.78891 0.61347-0.48792 0.03552 0.37354
   0  -2  1115456.62 1279.96   1-0.57366 0.57366 0.69343-0.81897 0.43595 0.01379
   0   2  1118139.32 1518.22   1-0.77775 0.77775 0.62486-0.49931 0.06816 0.38181
   0  -2  1243456.94 1166.55   1-0.57141 0.57141 0.69348-0.81902 0.43882 0.05181
   0   2  1244350.89 1233.61   1-0.76618 0.76618 0.63492-0.50938 0.09910 0.39177
   0  -2  13 1062.16  116.82   1-0.56700 0.56700 0.69355-0.81909 0.44439 0.08712
   0   2  13 1544.69  245.24   1-0.75458 0.75458 0.64344-0.51787 0.12873 0.40299
   0  -2  1427931.99  706.78   1-0.56084 0.56084 0.69358-0.81912 0.45208 0.12032
   0   2  1426913.88  735.49   1-0.74223 0.74223 0.65143-0.52586 0.15722 0.41539
   0  -2  1510454.85 1147.25   1-0.55321 0.55321 0.69354-0.81908 0.46146 0.15183
   0   2  15 9804.05 1104.34   1-0.72946 0.72946 0.65857-0.53300 0.18482 0.42870
   0  -2  1667222.97 2616.93   1-0.54431 0.54431 0.69336-0.81890 0.47219 0.18198
   0   2  1670205.84 2766.13   1-0.71627 0.71627 0.66494-0.53937 0.21167 0.44275
   0  -2  1712682.16  636.76   1-0.53427 0.53427 0.69300-0.81854 0.48403 0.21103
   0   2  1712386.69  656.29   1-0.70263 0.70263 0.67059-0.54502 0.23790 0.45743
   0  -2  18 1762.98  323.82   1-0.52320 0.52320 0.69242-0.81796 0.49679 0.23915
   0   2  18 1716.49  345.83   1-0.68854 0.68854 0.67558-0.55001 0.26359 0.47263
   0  -2  19 2040.12  371.91   1-0.51116 0.51116 0.69157-0.81711 0.51032 0.26651
   0   2  19 2512.07  479.68   1-0.67397 0.67397 0.67994-0.55437 0.28884 0.48828
   0  -2  20  662.83  352.78   1-0.49820 0.49820 0.69043-0.81597 0.52449 0.29323
   0   2  20  733.95  332.77   1-0.65890 0.65890 0.68368-0.55811 0.31370 0.50432
   0  -2  21 1349.33  359.40   1-0.48434 0.48434 0.68894-0.81448 0.53921 0.31939
   0   2  21 1106.16  295.81   1-0.64330 0.64330 0.68684-0.56126 0.33823 0.52070
   0  -2  2228877.40 1717.39   1-0.46966 0.46966 0.68705-0.81261 0.55441 0.34507
   0   2  2228426.84 1724.74   1-0.62746 0.62746 0.68920-0.56366 0.36232 0.53718
   0   3   0  393.13  130.13   1-0.69723 0.69723 0.09419 0.09419-0.71062 0.71062
   0  -3   0  280.03  123.09   1-0.54477 0.54477-0.09420-0.09420-0.83327 0.83327
   0   3  -1  291.42   52.67   1 0.33076-0.33076 0.29317-0.10486 0.89701-0.93786
   0   3   1  587.23  133.03   1-0.77548 0.77548 0.22663-0.03823-0.58928 0.63020
   0  -3  -1  191.04  114.53   1-0.67347 0.67347 0.06125-0.24966-0.73666 0.69576
   0   3  -1  463.74   99.83   1-0.55716 0.55716-0.08074 0.26915-0.82646 0.78556
   0  -3   2246085.1 2087.28   1 0.35136-0.35136 0.27622-0.46453 0.89456-0.81286
   0   3  -2250222.4 2122.37   1 0.04820-0.04820 0.48982-0.30146 0.87048-0.95225
   0   3   2244043.5 2188.22   1-0.81514 0.81514 0.32128-0.13288-0.48198 0.56380
   0  -3  -2247411.8 2190.50   1-0.74431 0.74431 0.16871-0.35710-0.64616 0.56432
   0  -3   348387.77  515.65   1 0.12317-0.12317 0.44386-0.63222 0.88758-0.76493
   0   3  -345939.24  450.11   1-0.22558 0.22558 0.62225-0.43388 0.74960-0.87226
   0   3   348832.58  618.53   1-0.83341 0.83341 0.38954-0.20114-0.39202 0.51475
   0  -3  -347433.94  571.81   1-0.78214 0.78214 0.24037-0.42877-0.57486 0.45211
   0  -3   4555363.2 4630.25   1-0.07142 0.07142 0.55462-0.74298 0.82903-0.66548
   0   3  -4548574.1 4579.10   1-0.42945 0.42945 0.68060-0.49227 0.59358-0.75712
   0   3   4553429.6 4784.36   1-0.84043 0.84043 0.44000-0.25160-0.31632 0.47995
   0  -3  -4539571.5 4625.33   1-0.80297 0.80297 0.28797-0.47637-0.52183 0.35819
   0  -3   565642.03  633.51   1-0.21232 0.21232 0.61716-0.80552 0.75764-0.55321
   0   3  -564917.29  634.90   1-0.56257 0.56257 0.69358-0.50527 0.44993-0.65437
   0   3   564454.21  797.28   1-0.84075 0.84075 0.47906-0.29067-0.25222 0.45676
   0  -3  -561791.71  739.43   1-0.81467 0.81467 0.31990-0.50830-0.48369 0.27914
   0  -3   6  358.02   61.60   1-0.30794 0.30794 0.65044-0.83878 0.69432-0.44901
   0   3  -6  321.29   64.29   1-0.64763 0.64763 0.68603-0.49768 0.33155-0.57696
   0   3   6  370.29  188.64   1-0.83730 0.83730 0.51017-0.32178-0.19656 0.44201
   0  -3  -6  341.02  111.67   1-0.82145 0.82145 0.34121-0.52961-0.45693 0.21147
   0  -3   738400.90  443.38   1-0.37149 0.37149 0.66808-0.85642 0.64471-0.35851
   0   3  -736753.46  442.21   1-0.70377 0.70377 0.67015-0.48180 0.23576-0.52207
   0   3   736846.78  589.88   1-0.83149 0.83149 0.53566-0.34726-0.14726 0.43361
   0  -3   8 3796.75  232.43   1-0.41386 0.41386 0.67759-0.86593 0.60793-0.28084
   0   3  -8 3899.16  224.40   1-0.74226 0.74226 0.65142-0.46306 0.15716-0.48437
   0   3   8 4196.72  305.50   1-0.82446 0.82446 0.55655-0.36823-0.10245 0.42971
   0  -3   912810.66  625.76   1-0.44203 0.44203 0.68283-0.87117 0.58167-0.21370
   0   3  -911724.33  579.63   1-0.76921 0.76921 0.63244-0.44412 0.09125-0.45942
   0   3   914042.38  782.27   1-0.81595 0.81595 0.57481-0.38649-0.06177 0.42994
   0  -3  10109136.2 1624.29   1-0.46043 0.46043 0.68574-0.87408 0.56369-0.15483
   0   3  10110556.2 1778.25   1-0.80657 0.80657 0.59064-0.40232-0.02402 0.43309
   0  -3  1129498.16  807.63   1-0.47189 0.47189 0.68735-0.87568 0.55214-0.10240
   0   3  1130549.45  924.01   1-0.79649 0.79649 0.60454-0.41621 0.01138 0.43858
   0  -3  1246048.76 1211.06   1-0.47821 0.47821 0.68821-0.87652 0.54559-0.05495
   0   3  1246842.85 1311.65   1-0.78580 0.78580 0.61683-0.42851 0.04492 0.44595
   0  -3  13128465.9 2566.68   1-0.48067 0.48067 0.68851-0.87682 0.54304-0.01152
   0   3  13130246.4 2695.67   1-0.77457 0.77457 0.62778-0.43946 0.07692 0.45486
   0  -3  14 -254.45  157.93   1-0.48008 0.48008 0.68844-0.87675 0.54366 0.02875
   0   3  14  605.87  349.35   1-0.76282 0.76282 0.63758-0.44926 0.10765 0.46504
   0  -3  1546311.54 1833.38   1-0.47702 0.47702 0.68806-0.87637 0.54682 0.06647
   0   3  1545898.58 1867.72   1-0.75092 0.75092 0.64593-0.45758 0.13737 0.47615
   0  -3  16 4519.01  374.73   1-0.47194 0.47194 0.68735-0.87569 0.55208 0.10208
   0   3  16 4928.99  473.66   1-0.73819 0.73819 0.65381-0.46545 0.16614 0.48828
   0  -3  17 1228.92  187.25   1-0.46508 0.46508 0.68641-0.87475 0.55904 0.13601
   0   3  17 1717.59  316.53   1-0.72496 0.72496 0.66085-0.47249 0.19416 0.50117
   0  -3  1811939.27  673.60   1-0.45667 0.45667 0.68518-0.87352 0.56741 0.16852
   0   3  1811623.62  729.29   1-0.71123 0.71123 0.66713-0.47877 0.22153 0.51470
   0  -3  1944734.85 1781.27   1-0.44689 0.44689 0.68364-0.87198 0.57698 0.19983
   0   3  1947722.45 1965.09   1-0.69699 0.69699 0.67269-0.48433 0.24835 0.52878
   0  -3  20 2219.18  370.30   1-0.43584 0.43584 0.68176-0.87010 0.58757 0.23014
   0   3  20 2368.73  443.24   1-0.68223 0.68223 0.67756-0.48921 0.27469 0.54334
   0  -3  2118675.51 1511.90   1-0.42361 0.42361 0.67951-0.86785 0.59900 0.25958
   0   3  2117044.48 1431.39   1-0.66693 0.66693 0.68178-0.49342 0.30061 0.55832
   0  -3  22 9686.14  658.83   1-0.41025 0.41025 0.67686-0.86520 0.61118 0.28829
   0   3  2210069.20  739.44   1-0.65107 0.65107 0.68535-0.49700 0.32617 0.57366
   0   4   0514030.5 4333.79   1 0.51508-0.51508 0.12558 0.12558 0.84788-0.84788
   0   4   0510414.2 4337.14   1-0.71800 0.71800 0.12559 0.12559-0.68461 0.68461
   0   4  -1133296.4 1201.26   1 0.35361-0.35361 0.27435-0.02327 0.89425-0.93510
   0   4   1144985.8 1382.24   1-0.77475 0.77475 0.22517 0.02602-0.59080 0.63172
   0   4  -1138805.1 1275.08   1-0.62836 0.62836 0.00229 0.24891-0.77791 0.73701
   0  -4  -1136828.6 1279.19   1-0.62501 0.62501-0.00185-0.24935-0.78061 0.73971
   0  -4   288115.51  833.72   1 0.50179-0.50179 0.13910-0.39026 0.85372-0.77194
   0   4  -281268.34  760.94   1 0.14586-0.14586 0.42911-0.17796 0.89139-0.97316
   0   4   282407.93  906.89   1-0.80874 0.80874 0.30309-0.05189-0.50404 0.58586
   0  -4  -284372.50  878.36   1-0.69636 0.69636 0.09291-0.34411-0.71165 0.62981
   0  -4   3 4575.33  154.40   1 0.34491-0.34491 0.28158-0.53266 0.89540-0.77285
   0   4  -3 4057.47  111.83   1-0.07968 0.07968 0.55870-0.30755 0.82552-0.94818
   0   4   3 4019.57  213.76   1-0.82774 0.82774 0.36414-0.11294-0.42689 0.54962
   0  -4  -3 4779.94  191.38   1-0.74088 0.74088 0.16283-0.41402-0.65159 0.52884
   0  -4   4 2128.43  265.69   1 0.18173-0.18173 0.40456-0.65564 0.89627-0.73287
   0   4  -4 1916.66   81.49   1-0.28310 0.28310 0.64253-0.39141 0.71203-0.87558
   0   4   4 1782.96  180.75   1-0.83728 0.83728 0.41260-0.16140-0.35876 0.52240
   0  -4  -4 2006.12  183.82   1-0.76894 0.76894 0.21368-0.46487-0.60254 0.43886
   0  -4   519410.73  290.35   1 0.03591-0.03591 0.49696-0.74811 0.86702-0.66259
   0   4  -519345.84  269.81   1-0.44146 0.44146 0.68273-0.43162 0.58221-0.78664
   0   4   519371.05  420.70   1-0.84101 0.84101 0.45153-0.20034-0.29800 0.50254
   0  -4   6289102.7 4022.37   1-0.08217 0.08217 0.55992-0.81107 0.82445-0.57914
   0   4  -6277535.1 3871.09   1-0.55547 0.55547 0.69356-0.44248 0.45870-0.70402
   0   4   6293510.423679.58   1-0.84045 0.84045 0.48386-0.23267-0.24393 0.48937
   0  -4   773076.68 1084.66   1-0.17212 0.17212 0.60088-0.85203 0.78058-0.49438
   0   4  -769287.81 1041.10   1-0.63554 0.63554 0.68800-0.43692 0.35033-0.63653
   0   4   772810.16 1251.21   1-0.83715 0.83715 0.51104-0.25985-0.19494 0.48129
   0  -4   8158776.5 2265.11   1-0.23861 0.23861 0.62710-0.87825 0.74148-0.41439
   0   4  -8147100.1 2116.05   1-0.69185 0.69185 0.67448-0.42334 0.25769-0.58490
   0   4   8161983.4 2490.75   1-0.83188 0.83188 0.53427-0.28308-0.15004 0.47731
   0  -4   9 1313.04  145.26   1-0.28731 0.28731 0.64391-0.89503 0.70910-0.34113
   0   4  -9 1568.30  132.17   1-0.73246 0.73246 0.65699-0.40585 0.17849-0.54661
   0   4   9 1425.12  292.13   1-0.82551 0.82551 0.55393-0.30283-0.10808 0.47624
   0  -4  10  291.35  142.52   1-0.32226 0.32226 0.65475-0.90587 0.68369-0.27483
   0   4  10  785.29  308.74   1-0.81763 0.81763 0.57155-0.32046-0.06923 0.47830
   0  -4  1127049.07  746.45   1-0.34713 0.34713 0.66178-0.91289 0.66448-0.21474
   0   4  1128145.68  885.93   1-0.80882 0.80882 0.58714-0.33605-0.03259 0.48256
   0  -4  12 1518.25  141.81   1-0.36435 0.36435 0.66629-0.91741 0.65060-0.15998
   0   4  12 1595.25  215.71   1-0.79922 0.79922 0.60103-0.34994 0.00222 0.48866
   0  -4  1314005.41  427.26   1-0.37569 0.37569 0.66911-0.92022 0.64120-0.10969
   0   4  1314479.25  539.06   1-0.78891 0.78891 0.61347-0.36237 0.03551 0.49627
   0  -4  1418925.12  844.10   1-0.38240 0.38240 0.67071-0.92183 0.63553-0.06313
   0   4  1418398.17  907.69   1-0.77798 0.77798 0.62464-0.37355 0.06752 0.50517
   0  -4  15  668.12  105.99   1-0.38540 0.38540 0.67141-0.92253 0.63297-0.01969
   0   4  15  724.94  264.87   1-0.76644 0.76644 0.63472-0.38362 0.09844 0.51516
   0  -4  16 8064.40  610.19   1-0.38536 0.38536 0.67140-0.92252 0.63301 0.02115
   0   4  16 8409.71  675.60   1-0.75468 0.75468 0.64338-0.39224 0.12850 0.52592
   0  -4  17 1208.85  216.68   1-0.38274 0.38274 0.67079-0.92191 0.63524 0.05981
   0   4  17 1325.09  314.62   1-0.74202 0.74202 0.65156-0.40042 0.15768 0.53764
   0  -4  18 1988.66  355.32   1-0.37794 0.37794 0.66965-0.92077 0.63931 0.09662
   0   4  18 1585.99  319.71   1-0.72881 0.72881 0.65891-0.40777 0.18618 0.55004
   0  -4  19 1065.44  221.43   1-0.37121 0.37121 0.66801-0.91913 0.64494 0.13188
   0   4  19  711.01  352.44   1-0.71504 0.71504 0.66548-0.41434 0.21408 0.56304
   0  -4  20 7711.78  620.02   1-0.36276 0.36276 0.66589-0.91701 0.65190 0.16580
   0   4  20 7230.31  698.66   1-0.70072 0.70072 0.67132-0.42018 0.24147 0.57656
   0  -4  21  313.56  171.90   1-0.35274 0.35274 0.66328-0.91440 0.66001 0.19858
   0   4  21  399.77  335.50   1-0.68583 0.68583 0.67645-0.42531 0.26839 0.59054
   0   5   0  123.50   47.26   1 0.48384-0.48384 0.15697 0.15697 0.86096-0.86096
   0   5   0   94.20  114.96   1-0.73742 0.73742 0.15699 0.15699-0.65692 0.65692
   0   5  -119968.68  282.71   1 0.35162-0.35162 0.27601 0.03784 0.89452-0.93537
   0   5   121046.08  381.95   1-0.77970 0.77970 0.23528 0.07871-0.58025 0.62117
   0   5  -120694.81  332.38   1-0.67546 0.67546 0.06400 0.25001-0.73460 0.69371
   0  -5  -120020.86  330.64   1-0.58114 0.58114-0.05392-0.26009-0.81200 0.77111
   0   5  -256866.89  583.11   1 0.18690-0.18690 0.40100-0.08715 0.89680-0.97850
   0   5   258537.16  739.26   1-0.80758 0.80758 0.29997 0.01403-0.50776 0.58958
   0  -5  -256517.38  670.16   1-0.65018 0.65018 0.03008-0.34409-0.75917 0.67738
   0   5  -257974.37  632.69   1-0.59143 0.59143-0.04208 0.35610-0.80525 0.72346
   0  -5   381087.69  846.72   1 0.48563-0.48563 0.15521-0.46916 0.86027-0.73759
   0   5  -374045.28  717.97   1 0.00273-0.00273 0.51568-0.20174 0.85677-0.97943
   0   5   378619.07  947.19   1-0.82492 0.82492 0.35340-0.03939-0.44113 0.56386
   0  -5  -372799.38  819.28   1-0.69859 0.69859 0.09619-0.41019-0.70902 0.58626
   0  -5   4 3901.24  405.48   1 0.36442-0.36442 0.26527-0.57912 0.89264-0.72925
   0   5  -4 2908.27  166.69   1-0.17969 0.17969 0.60404-0.29010 0.77642-0.93997
   0   5   4 2674.39  263.39   1-0.83494 0.83494 0.39781-0.08380-0.38027 0.54391
   0  -5   551713.37  787.26   1 0.24101-0.24101 0.36249-0.67634 0.90028-0.69603
   0   5  -550436.96  769.46   1-0.34012 0.34012 0.65986-0.34596 0.67000-0.87442
   0   5   551606.04  946.19   1-0.84006 0.84006 0.43487-0.12088-0.32431 0.52884
   0  -5   616501.98  778.66   1 0.12713-0.12713 0.44131-0.75525 0.88830-0.64298
   0   5  -615922.57  751.78   1-0.46862 0.46862 0.68691-0.37301 0.55546-0.80078
   0   5   617368.86  897.11   1-0.84117 0.84117 0.46659-0.15260-0.27333 0.51878
   0  -5   729097.74 1359.67   1 0.02874-0.02874 0.50107-0.81501 0.86492-0.57872
   0   5  -729030.39 1347.28   1-0.56623 0.56623 0.69356-0.37971 0.44536-0.73157
   0   5   728419.74 1392.83   1-0.83956 0.83956 0.49390-0.17991-0.22624 0.51260
   0  -5   843665.30  764.98   1-0.05183 0.05183 0.54471-0.85865 0.83701-0.50992
   0   5  -841978.68  688.15   1-0.63851 0.63851 0.68767-0.37374 0.34554-0.67276
   0   5   844971.32  923.47   1-0.83589 0.83589 0.51768-0.20369-0.18242 0.50968
   0  -5   970924.17 1779.64   1-0.11575 0.11575 0.57593-0.88986 0.80926-0.44128
   0   5  -968190.61 1724.07   1-0.69212 0.69212 0.67439-0.36047 0.25720-0.62532
   0   5   975753.34 2029.05   1-0.83062 0.83062 0.53858-0.22460-0.14135 0.50952
   0  -5  10 5093.57  447.53   1-0.16548 0.16548 0.59806-0.91200 0.78417-0.37531
   0   5  10 5290.05  539.65   1-0.82441 0.82441 0.55668-0.24281-0.10218 0.51125
   0  -5  11 5205.47  235.47   1-0.20354 0.20354 0.61371-0.92765 0.76283-0.31308
   0   5  11 5444.95  362.19   1-0.81677 0.81677 0.57324-0.25937-0.06539 0.51537
   0  -5  1247482.32 1014.83   1-0.23221 0.23221 0.62474-0.93867 0.74550-0.25486
   0   5  1245072.66 1127.89   1-0.80821 0.80821 0.58811-0.27424-0.03024 0.52113
   0  -5  13  750.79  202.95   1-0.25335 0.25335 0.63243-0.94636 0.73201-0.20049
   0   5  13  759.09  278.55   1-0.79884 0.79884 0.60152-0.28765 0.00349 0.52829
   0  -5  14 3486.51  236.25   1-0.26839 0.26839 0.63767-0.95161 0.72202-0.14962
   0   5  14 5015.33  406.86   1-0.78874 0.78874 0.61366-0.29979 0.03604 0.53665
   0  -5  15 5684.77  435.33   1-0.27869 0.27869 0.64107-0.95496 0.71509-0.10180
   0   5  15 6152.55  565.69   1-0.77796 0.77796 0.62466-0.31079 0.06755 0.54605
   0  -5  1612035.57  677.36   1-0.28466 0.28466 0.64304-0.95694 0.71095-0.05678
   0   5  1610635.17  689.17   1-0.76654 0.76654 0.63463-0.32076 0.09817 0.55633
   0  -5  17  642.62  174.42   1-0.28719 0.28719 0.64387-0.95776 0.70918-0.01413
   0   5  17  518.79  266.96   1-0.75484 0.75484 0.64326-0.32934 0.12811 0.56722
   0  -5  1825999.44 1085.13   1-0.28677 0.28677 0.64373-0.95763 0.70948 0.02645
   0   5  1828216.97 1274.68   1-0.74221 0.74221 0.65145-0.33752 0.15726 0.57896
   0  -5  19  516.55  220.33   1-0.28380 0.28380 0.64276-0.95665 0.71155 0.06527
   0   5  19  430.66  266.92   1-0.72897 0.72897 0.65882-0.34490 0.18583 0.59129
   0   5  2011043.91 1016.92   1-0.71515 0.71515 0.66544-0.35151 0.21388 0.60415
   0   5  21 1127.60  448.43   1-0.70072 0.70072 0.67132-0.35739 0.24147 0.61745
   0   6   0 1512.99  248.61   1 0.45120-0.45120 0.18837 0.18837 0.87231-0.87231
   0   6   0 2151.61  195.71   1-0.75546 0.75546 0.18839 0.18839-0.62752 0.62752
   0   6  -1 6112.03  456.24   1 0.33742-0.33742 0.28774 0.08888 0.89629-0.93714
   0   6   1 7618.67  433.58   1-0.78741 0.78741 0.25172 0.12507-0.56268 0.60360
   0   6  -1 6531.81  362.85   1-0.71135 0.71135 0.11533 0.26146-0.69330 0.65238
   0   6  -213317.05  891.13   1 0.19990-0.19990 0.39196-0.01534 0.89799-0.97969
   0   6   214992.30  761.62   1-0.80980 0.80980 0.30598 0.07082-0.50059 0.58241
   0   6  -214567.42  711.83   1-0.65237 0.65237 0.03293 0.34388-0.75718 0.67539
   0   6  -348761.54  756.83   1 0.04534-0.04534 0.49149-0.11476 0.86969-0.99235
   0   6   353935.55  971.67   1-0.82467 0.82467 0.35247 0.02433-0.44235 0.56508
   0   6  -348723.38  783.46   1-0.57892 0.57892-0.05645 0.43327-0.81342 0.69073
   0  -6   422013.12 1063.36   1 0.49245-0.49245 0.14846-0.52520 0.85758-0.69401
   0   6  -420207.30  944.91   1-0.11463 0.11463 0.57540-0.19868 0.80979-0.97333
   0   6   420838.60 1061.92   1-0.83396 0.83396 0.39241-0.01561-0.38796 0.55160
   0  -6   5 1126.08  154.53   1 0.39754-0.39754 0.23720-0.61394 0.88639-0.68192
   0   6  -5  964.62  113.16   1-0.26551 0.26551 0.63669-0.25996 0.72396-0.92839
   0   6   5 1389.72  337.38   1-0.83931 0.83931 0.42674-0.04995-0.33680 0.54134
   0  -6   6  403.28   64.96   1 0.30060-0.30060 0.31726-0.69388 0.89943-0.65433
   0   6   6  122.68  230.67   1-0.84115 0.84115 0.45685-0.08006-0.28939 0.53483
   0  -6   7  252.15   77.66   1 0.20913-0.20913 0.38547-0.76209 0.89870-0.61276
   0   6  -7  347.63   76.88   1-0.50387 0.50387 0.69096-0.31434 0.51834-0.80454
   0   6   7  348.60  228.66   1-0.84049 0.84049 0.48331-0.10653-0.24488 0.53123
   0  -6   846882.28 1200.27   1 0.12766-0.12766 0.44097-0.81770 0.88839-0.56130
   0   6  -844294.35 1139.85   1-0.58789 0.58789 0.69290-0.31628 0.41745-0.74454
   0   6   844160.19 1279.81   1-0.83786 0.83786 0.50675-0.12997-0.20291 0.53017
   0  -6   9157348.0 3865.18   1 0.05718-0.05718 0.48454-0.86126 0.87289-0.50492
   0   6  -9148465.5 3661.75   1-0.65225 0.65225 0.68511-0.30840 0.32430-0.69241
   0   6   9155107.0 3945.86   1-0.83363 0.83363 0.52766-0.15088-0.16312 0.53129
   0  -6  10 3588.83  453.88   1-0.00159 0.00159 0.51806-0.89479 0.85533-0.44647
   0   6  10 3424.75  332.63   1-0.82808 0.82808 0.54643-0.16964-0.12523 0.53431
   0  -6  11106562.2 2111.92   1-0.04950 0.04950 0.54352-0.92025 0.83793-0.38818
   0   6  11106156.6 2292.92   1-0.82174 0.82174 0.56292-0.18628-0.08856 0.53854
   0  -6  1212579.36  579.15   1-0.08783 0.08783 0.56268-0.93940 0.82199-0.33136
   0   6  1212879.15  791.06   1-0.81407 0.81407 0.57826-0.20162-0.05375 0.54463
   0  -6  13  202.79  113.50   1-0.11798 0.11798 0.57696-0.95369 0.80820-0.27668
   0   6  13  520.74  273.26   1-0.80553 0.80553 0.59221-0.21556-0.02015 0.55195
   0  -6  14 8125.63  587.38   1-0.14118 0.14118 0.58748-0.96421 0.79682-0.22441
   0   6  14 7427.91  639.88   1-0.79619 0.79619 0.60491-0.22827 0.01237 0.56032
   0  -6  1541092.12 1665.74   1-0.15850 0.15850 0.59507-0.97179 0.78788-0.17459
   0   6  1537218.68 1634.64   1-0.78612 0.78612 0.61650-0.23985 0.04397 0.56962
   0  -6  1615040.12  814.20   1-0.17084 0.17084 0.60034-0.97706 0.78128-0.12710
   0   6  1613109.37  811.24   1-0.77536 0.77536 0.62707-0.25043 0.07477 0.57973
   0  -6  1787037.0910844.92   1-0.17893 0.17893 0.60373-0.98045 0.77684-0.08178
   0   6  1780582.31 4134.16   1-0.76393 0.76393 0.63671-0.26007 0.10485 0.59056
   0  -6  18 1814.85  293.38   1-0.18337 0.18337 0.60556-0.98229 0.77437-0.03842
   0   6  18 2527.21  471.85   1-0.75218 0.75218 0.64509-0.26838 0.13441 0.60181
   0   6  19 5118.69  564.59   1-0.73948 0.73948 0.65306-0.27634 0.16330 0.61383
   0   6  20  417.59  248.88   1-0.72615 0.72615 0.66026-0.28354 0.19170 0.62633
   0   7   0  132.01  102.16   1 0.41712-0.41712 0.21976 0.21976 0.88187-0.88187
   0   7   0  513.95  163.99   1-0.77206 0.77206 0.21979 0.21979-0.59632 0.59632
   0   7  -112410.23  633.58   1 0.31594-0.31594 0.30511 0.13427 0.89837-0.93922
   0   7   113926.65  726.87   1-0.79643 0.79643 0.27197 0.16763-0.54011 0.58102
   0   7  -112627.51  651.17   1-0.73973 0.73973 0.16088 0.27871-0.65338 0.61246
   0   7  -259094.06  918.57   1 0.19670-0.19670 0.39420 0.04518 0.89772-0.97942
   0   7   260502.77 1065.14   1-0.81400 0.81400 0.31790 0.12170-0.48615 0.56797
   0   7  -261871.19 1007.96   1-0.69797 0.69797 0.09528 0.34431-0.70975 0.62791
   0   7  -337186.44  717.20   1 0.06327-0.06327 0.48092-0.04140 0.87447-0.99713
   0   7   343237.94  860.29   1-0.82623 0.82623 0.35829 0.08131-0.43469 0.55742
   0   7  -338678.06  676.29   1-0.64539 0.64539 0.02386 0.41576-0.76347 0.64079
   0   7  -4340808.7 6486.24   1-0.07763 0.07763 0.55769-0.11818 0.82640-0.98995
   0   7   4378773.4 7329.42   1-0.83423 0.83423 0.39389 0.04571-0.38586 0.54950
   0   7  -4347190.2 6627.31   1-0.58338 0.58338-0.05136 0.49099-0.81056 0.64698
   0  -7   528282.63  758.55   1 0.51321-0.51321 0.12749-0.56703 0.84873-0.64426
   0   7  -526128.30  693.15   1-0.21613 0.21613 0.61864-0.17912 0.75535-0.95979
   0   7   528066.25  877.21   1-0.83915 0.83915 0.42519 0.01439-0.33916 0.54370
   0  -7   6  493.65  107.06   1 0.43771-0.43771 0.20096-0.64049 0.87636-0.63100
   0   7  -6  434.30   91.12   1-0.34341 0.34341 0.66076-0.22131 0.66742-0.91273
   0   7   6  820.85  358.37   1-0.84106 0.84106 0.45320-0.01362-0.29530 0.54075
   0  -7   732115.81  854.97   1 0.36052-0.36052 0.26856-0.70795 0.89325-0.60730
   0   7  -732831.84  862.26   1-0.45324 0.45324 0.68465-0.24520 0.57079-0.85699
   0   7   732683.94  996.27   1-0.84080 0.84080 0.47826-0.03868-0.25360 0.53995
   0  -7   815639.00  450.41   1 0.28654-0.28654 0.32821-0.76760 0.90009-0.57329
   0   7  -815185.07  389.02   1-0.54387 0.54387 0.69334-0.25396 0.47272-0.79981
   0   7   815973.22  573.06   1-0.83873 0.83873 0.50080-0.06121-0.21382 0.54108
   0  -7   9 8108.28  652.64   1 0.21830-0.21830 0.37895-0.81834 0.89929-0.53165
   0   7   9 8010.55  427.78   1-0.83516 0.83516 0.52116-0.08158-0.17575 0.54392
   0  -7  1024452.73 1057.68   1 0.15817-0.15817 0.42095-0.86047 0.89318-0.48432
   0   7  1024491.74 1164.30   1-0.83030 0.83030 0.53965-0.10007-0.13918 0.54825
   0  -7  1117485.73  761.85   1 0.10571-0.10571 0.45494-0.89445 0.88422-0.43447
   0   7  1118461.02  933.70   1-0.82466 0.82466 0.55607-0.11666-0.10348 0.55346
   0  -7  12 6503.27  649.53   1 0.06139-0.06139 0.48203-0.92155 0.87399-0.38336
   0   7  12 7721.27  614.97   1-0.81768 0.81768 0.57146-0.13205-0.06943 0.56032
   0  -7  1343714.70 1745.11   1 0.02471-0.02471 0.50337-0.94288 0.86371-0.33219
   0   7  1344838.02 1919.60   1-0.80980 0.80980 0.58556-0.14615-0.03641 0.56820
   0  -7  14 2218.53  287.39   1-0.00503 0.00503 0.51995-0.95946 0.85418-0.28177
   0   7  14 1492.65  337.42   1-0.80110 0.80110 0.59850-0.15908-0.00429 0.57698
   0  -7  15 3648.22  588.53   1-0.02864 0.02864 0.53264-0.97216 0.84585-0.23256
   0   7  15 3361.67  547.44   1-0.79164 0.79164 0.61038-0.17096 0.02703 0.58657
   0   7  16 5889.42  562.83   1-0.78146 0.78146 0.62128-0.18186 0.05765 0.59685
   0   7  1711525.42  716.44   1-0.77058 0.77058 0.63128-0.19187 0.08764 0.60777
   0   7  18 1814.06  461.36   1-0.75902 0.75902 0.64044-0.20102 0.11708 0.61924
   0   7  1910405.07  954.45   1-0.74713 0.74713 0.64840-0.20890 0.14614 0.63098
   0   8   026279.26  787.18   1-0.78717 0.78717 0.25119 0.25119-0.56325 0.56325
   0   8   186138.33 2228.77   1-0.80559 0.80559 0.29472 0.20769-0.51395 0.55486
   0   8  -189396.98 2280.04   1-0.76331 0.76331 0.20291 0.29948-0.61332 0.57240
   0   8   2 1162.65  305.52   1-0.81919 0.81919 0.33381 0.16859-0.46634 0.54816
   0   8  -2  677.60  191.70   1-0.73308 0.73308 0.14979 0.35260-0.66343 0.58159
   0   8  -3  136.71   92.29   1 0.06517-0.06517 0.47978 0.02251 0.87496-0.99761
   0   8   3  188.86  202.89   1-0.82891 0.82891 0.36891 0.13349-0.42048 0.54321
   0   8  -3   77.12  121.87   1-0.69529 0.69529 0.09213 0.41029-0.71279 0.59010
   0   8  -4   64.31   53.66   1-0.06052 0.06052 0.54916-0.04686 0.83352-0.99706
   0   8   4   66.10  202.28   1-0.83540 0.83540 0.40047 0.10194-0.37645 0.54009
   0   8  -4  -29.24  119.11   1-0.65076 0.65076 0.03083 0.47159-0.75864 0.59506
   0   8  -580776.55 1600.70   1-0.18704 0.18704 0.60707-0.10477 0.77231-0.97674
   0   8   593695.49 2013.34   1-0.83951 0.83951 0.42872 0.07365-0.33378 0.53832
   0   8  -587489.63 1765.90   1-0.59950 0.59950-0.03264 0.53507-0.79970 0.59522
   0   8  -6 9703.53  274.28   1-0.30752 0.30752 0.65031-0.14808 0.69463-0.93994
   0   8   612629.91  558.23   1-0.84110 0.84110 0.45444 0.04793-0.29330 0.53874
   0  -8   761503.07 1271.19   1 0.48263-0.48263 0.15816-0.66048 0.86142-0.57517
   0   8   760485.82 1447.39   1-0.84082 0.84082 0.47780 0.02457-0.25439 0.54074
   0  -8   8 1911.54  330.72   1 0.42134-0.42134 0.21595-0.71827 0.88081-0.55366
   0   8   8 2298.70  390.87   1-0.83895 0.83895 0.49909 0.00328-0.21692 0.54418
   0  -8   9 3374.72  592.58   1 0.36087-0.36087 0.26826-0.77042 0.89319-0.52555
   0   8   9 3361.22  500.32   1-0.83571 0.83571 0.51856-0.01617-0.18075 0.54892
   0  -8  10  106.17   62.43   1 0.30444-0.30444 0.31424-0.81640 0.89920-0.49070
   0   8  10 -156.71  226.88   1-0.83127 0.83127 0.53641-0.03403-0.14574 0.55481
   0  -8  1112269.87  870.50   1 0.25296-0.25296 0.35367-0.85583 0.90051-0.45117
   0   8  1114378.60  762.85   1-0.82610 0.82610 0.55242-0.05023-0.11130 0.56127
   0  -8  12  280.20   59.49   1 0.20723-0.20723 0.38681-0.88897 0.89856-0.40837
   0   8  12  238.91  254.91   1-0.81960 0.81960 0.56754-0.06535-0.07829 0.56918
   0  -8  1323333.95 1172.65   1 0.16756-0.16756 0.41420-0.91636 0.89462-0.36358
   0   8  1325172.12 1417.00   1-0.81223 0.81223 0.58150-0.07931-0.04612 0.57791
   0   8  14 1271.25  428.78   1-0.80403 0.80403 0.59440-0.09221-0.01468 0.58738
   0   8  15 1955.41  503.13   1-0.79506 0.79506 0.60631-0.10412 0.01608 0.59752
   0   8  16 1107.94  346.15   1-0.78535 0.78535 0.61731-0.11512 0.04626 0.60824
   0   8  17 1917.81  477.90   1-0.77494 0.77494 0.62745-0.12526 0.07592 0.61949
   0   8  18  251.58  232.94   1-0.76383 0.76383 0.63679-0.13460 0.10510 0.63121
   0   9   0  -95.69  166.53   1-0.80082 0.80082 0.28260 0.28260-0.52802 0.52802
   0   9   141870.04 1011.91   1-0.81442 0.81442 0.31916 0.24605-0.48460 0.52551
   0   9  -142002.51  972.51   1-0.78320 0.78320 0.24263 0.32256-0.57246 0.53154
   0   9   266167.21 1478.21   1-0.82469 0.82469 0.35254 0.21266-0.44225 0.52407
   0   9  -267945.74 1451.75   1-0.76133 0.76133 0.19918 0.36601-0.61701 0.53517
   0   9   315844.78  555.09   1-0.83209 0.83209 0.38303 0.18218-0.40113 0.52386
   0   9  -315736.66  469.73   1-0.73462 0.73462 0.15233 0.41286-0.66115 0.53839
   0   9   428693.38 1294.81   1-0.83704 0.83704 0.41089 0.15431-0.36128 0.52492
   0   9  -429520.57 1271.93   1-0.70281 0.70281 0.10243 0.46275-0.70396 0.54028
   0   9   514144.09  735.70   1-0.84016 0.84016 0.43621 0.12896-0.32223 0.52677
   0   9  -514134.54  648.51   1-0.66531 0.66531 0.05013 0.51509-0.74487 0.54039
   0   9   6  522.84  236.09   1-0.84118 0.84118 0.45960 0.10557-0.28488 0.53033
   0   9  -6  247.83  140.64   1-0.62373 0.62373-0.00343 0.56867-0.78162 0.53625
   0   9   733795.59 1536.08   1-0.84064 0.84064 0.48112 0.08405-0.24867 0.53503
   0   9  -729657.85 1260.29   1-0.57842 0.57842-0.05702 0.62225-0.81374 0.52746
   0  -9   860856.82 2339.28   1 0.53077-0.53077 0.10928-0.67439 0.84043-0.51329
   0   9   858715.25 2370.37   1-0.83871 0.83871 0.50097 0.06420-0.21351 0.54077
   0  -9   9 5951.91  581.76   1 0.48202-0.48202 0.15876-0.72387 0.86165-0.49361
   0   9   9 6125.39  534.56   1-0.83556 0.83556 0.51931 0.04586-0.17931 0.54748
   0  -9  10 6950.24  657.23   1 0.43396-0.43396 0.20442-0.76953 0.87742-0.46849
   0   9  10 6381.26  585.73   1-0.83130 0.83130 0.53629 0.02888-0.14598 0.55505
   0  -9  11 7947.36  550.27   1 0.38804-0.38804 0.24552-0.81063 0.88833-0.43851
   0   9  11 8648.12  719.82   1-0.82639 0.82639 0.55164 0.01332-0.11295 0.56292
   0   9  12 4462.26  648.39   1-0.82021 0.82021 0.56626-0.00130-0.08116 0.57205
   0   9  1327353.66 1541.53   1-0.81318 0.81318 0.57985-0.01489-0.05002 0.58181
   0   9  14 4620.15  698.25   1-0.80534 0.80534 0.59248-0.02752-0.01946 0.59216
   0   9  15 1061.60  325.19   1-0.79674 0.79674 0.60422-0.03926 0.01056 0.60304
   0   9  16 4187.25  703.46   1-0.78740 0.78740 0.61512-0.05016 0.04012 0.61438
   0   9  17  822.52  398.17   1-0.77735 0.77735 0.62523-0.06027 0.06925 0.62616
   0  10   051198.49 2181.44   1-0.81265 0.81265 0.31400 0.31400-0.49090 0.49090
   0  10   113202.64  673.73   1-0.82250 0.82250 0.34480 0.28321-0.45231 0.49322
   0  10  -113818.39  688.73   1-0.80009 0.80009 0.28080 0.34720-0.53008 0.48917
   0  10   2 5466.38  684.06   1-0.82995 0.82995 0.37333 0.25467-0.41448 0.49629
   0  10  -2 5551.45  656.06   1-0.78434 0.78434 0.24506 0.38292-0.56986 0.48802
   0  10   3 9109.49 1034.53   1-0.83528 0.83528 0.39976 0.22824-0.37747 0.50020
   0  10  -310120.48 1114.29   1-0.76541 0.76541 0.20687 0.42111-0.60938 0.48662
   0  10   4 3494.40  328.68   1-0.83903 0.83903 0.42411 0.20386-0.34080 0.50443
   0  10  -4 3309.53  272.20   1-0.74294 0.74293 0.16634 0.46165-0.64835 0.48468
   0  10   5  405.13  202.10   1-0.84082 0.84082 0.44681 0.18115-0.30554 0.51008
   0  10  -5  459.57  177.42   1-0.71683 0.71683 0.12377 0.50421-0.68616 0.48157
   0  10   6 1702.25  288.94   1-0.84115 0.84115 0.46792 0.16005-0.27111 0.51656
   0  10  -6 1917.59  194.07   1-0.68658 0.68658 0.07960 0.54843-0.72267 0.47729
   0  10   7 6630.80  590.42   1-0.84017 0.84017 0.48756 0.14041-0.23747 0.52382
   0  10  -7 6186.86  460.57   1-0.65370 0.65370 0.03468 0.59335-0.75595 0.46968
   0  10   8 3517.61  430.52   1-0.83800 0.83800 0.50586 0.12211-0.20455 0.53182
   0  10  -8 2143.10  216.09   1-0.61823 0.61823-0.01018 0.63821-0.78592 0.45875
   0  10   975870.72 3783.61   1-0.83476 0.83476 0.52294 0.10503-0.17232 0.54049
   0  10  -964627.24 3144.54   1-0.58103 0.58103-0.05405 0.68209-0.81208 0.44401
   0  10  10 2305.93  447.65   1-0.83053 0.83053 0.53889 0.08907-0.14072 0.54979
   0  10  1135311.83 1922.77   1-0.82571 0.82571 0.55341 0.07432-0.10918 0.55916
   0  10  12  459.37  264.63   1-0.81969 0.81969 0.56735 0.06037-0.07871 0.56960
   0  10  13  211.75  279.12   1-0.81286 0.81286 0.58040 0.04733-0.04872 0.58052
   0  10  14  -62.15  257.91   1-0.80526 0.80526 0.59260 0.03513-0.01917 0.59187
   0  10  1525544.00 2085.59   1-0.79691 0.79691 0.60400 0.02372 0.00998 0.60362
   0  10  16  560.52  402.05   1-0.78784 0.78784 0.61464 0.01308 0.03878 0.61573
   0  11   0  375.43  257.37   1-0.82268 0.82268 0.34540 0.34540-0.45153 0.45154
   0  11   111946.49  662.92   1-0.82948 0.82948 0.37132 0.31948-0.41721 0.45812
   0  11  -110685.96  560.83   1-0.81397 0.81397 0.31782 0.37299-0.48624 0.44533
   0  11   243864.52 1835.77   1-0.83456 0.83456 0.39565 0.29515-0.38335 0.46517
   0  11  -242544.66 1745.33   1-0.80318 0.80318 0.28852 0.40229-0.52119 0.43937
   0  11   327830.60 1235.84   1-0.83806 0.83806 0.41849 0.27232-0.35001 0.47274
   0  11  -329013.70 1229.31   1-0.78997 0.78997 0.25741 0.43337-0.55648 0.43372
   0  11   423695.87 1077.86   1-0.84042 0.84042 0.43978 0.25099-0.31666 0.48029
   0  11  -425730.25 1098.51   1-0.77451 0.77451 0.22468 0.46610-0.59130 0.42762
   0  11   524492.78 1126.48   1-0.84119 0.84119 0.45988 0.23088-0.28442 0.48896
   0  11  -525612.17 1087.93   1-0.75657 0.75657 0.19041 0.50037-0.62556 0.42097
   0  11   6 2861.90  461.21   1-0.84077 0.84077 0.47878 0.21198-0.25270 0.49815
   0  11  -6 3611.80  471.35   1-0.73614 0.73614 0.15485 0.53593-0.65887 0.41335
   0  11   7  368.03  227.58   1-0.83926 0.83926 0.49655 0.19421-0.22149 0.50784
   0  11   8 3932.83  694.42   1-0.83675 0.83675 0.51328 0.17749-0.19075 0.51801
   0  11   911038.22  758.61   1-0.83329 0.83329 0.52902 0.16174-0.16046 0.52863
   0  11  10 5148.82  782.62   1-0.82895 0.82895 0.54385 0.14692-0.13058 0.53966
   0  11  11 7004.47  608.23   1-0.82411 0.82411 0.55742 0.13308-0.10058 0.55056
   0  11  12  433.52  254.31   1-0.81813 0.81813 0.57056 0.11994-0.07149 0.56237
   0  11  13 5879.22  636.30   1-0.81139 0.81139 0.58293 0.10757-0.04272 0.57451
   0  11  14 4610.98  644.15   1-0.80391 0.80391 0.59457 0.09593-0.01425 0.58695
   0  12   0 9259.20  614.58   1-0.83074 0.83074 0.37680 0.37680-0.40972 0.40972
   0  12   115777.73  900.85   1-0.83506 0.83506 0.39850 0.35510-0.37928 0.42019
   0  12  -116932.04  937.21   1-0.82509 0.82509 0.35401 0.39960-0.44033 0.39942
   0  12   224643.54 1329.32   1-0.83814 0.83814 0.41914 0.33447-0.34903 0.43085
   0  12  -222863.14 1206.23   1-0.81803 0.81803 0.33011 0.42350-0.47100 0.38918
   0  12   3 6395.06  492.92   1-0.84034 0.84034 0.43864 0.31493-0.31845 0.44117
   0  12  -3 6404.26  451.24   1-0.80948 0.80948 0.30510 0.44851-0.50164 0.37891
   0  12   4 8503.79  583.72   1-0.84116 0.84116 0.45724 0.29632-0.28874 0.45237
   0  12  -4 8466.54  550.90   1-0.79937 0.79937 0.27903 0.47458-0.53211 0.36847
   0  12   534407.64 1845.27   1-0.84095 0.84095 0.47492 0.27864-0.25930 0.46384
   0  12   623842.84 1346.12   1-0.83979 0.83979 0.49171 0.26185-0.23013 0.47558
   0  12   7 3902.61  653.69   1-0.83772 0.83772 0.50766 0.24590-0.20123 0.48759
   0  12   8 5321.18  809.15   1-0.83479 0.83479 0.52280 0.23076-0.17259 0.49986
   0  12   9  828.97  282.52   1-0.83105 0.83105 0.53717 0.21639-0.14420 0.51237
   0  12  10  326.88  244.00   1-0.82651 0.82651 0.55081 0.20275-0.11604 0.52512
   0  12  11 3882.41  511.19   1-0.82154 0.82154 0.56336 0.18991-0.08759 0.53757
   0  12  12 3609.89  509.79   1-0.81551 0.81551 0.57562 0.17765-0.05990 0.55078
   0  12  1310042.81  777.40   1-0.80877 0.80877 0.58722 0.16605-0.03239 0.56419
   0  13   1 4513.88  649.87   1-0.83925 0.83925 0.42613 0.39023-0.33773 0.37864
   0  13  -1 4988.80  704.71   1-0.83342 0.83342 0.38959 0.42682-0.39195 0.35104
   0  13   227400.47 1195.95   1-0.84065 0.84065 0.44344 0.37292-0.31090 0.39272
   0  13   3  286.54  206.76   1-0.84119 0.84119 0.46011 0.35625-0.28406 0.40678
   0  13   4 9397.37  780.03   1-0.84090 0.84090 0.47614 0.34022-0.25723 0.42086
   0  13   523471.51 1735.44   1-0.83980 0.83980 0.49154 0.32482-0.23044 0.43498
   0  13   6 3351.98  567.19   1-0.83793 0.83793 0.50632 0.31004-0.20370 0.44915
   0  13   7 9538.60  875.26   1-0.83530 0.83530 0.52050 0.29586-0.17703 0.46338
   0  13   8 8359.58  783.72   1-0.83194 0.83194 0.53408 0.28228-0.15042 0.47768
   0  13   9  306.21  233.45   1-0.82786 0.82786 0.54707 0.26929-0.12389 0.49206
   0  13  10 5484.39  531.46   1-0.82340 0.82340 0.55912 0.25693-0.09689 0.50596
   0  14   3 9058.14  819.28   1-0.84055 0.84055 0.48252 0.39664-0.24625 0.36898
   0  14   4 1930.57  400.85   1-0.83931 0.83931 0.49616 0.38300-0.22219 0.38582
   0  14   5  283.20  208.08   1-0.83743 0.83743 0.50943 0.36973-0.19795 0.40249
   0  14   6 4796.26  476.24   1-0.83490 0.83490 0.52230 0.35686-0.17356 0.41901
   1   0   0  964.15   93.91   1 0.06128 0.06128 0.48210-0.48210 0.87396-0.87396
   1   0  -1 4006.68   95.53   1 0.36563-0.24311 0.26425-0.26425 0.89245-0.93330
  -1   0   1 3842.62   83.03   1 0.23200-0.35451 0.36907-0.36907 0.89997-0.85912
   1   0   1 3674.22   89.61   1-0.18911 0.31169 0.60791-0.60791 0.77114-0.73026
  -1   0  -1 3898.64   89.21   1-0.30130 0.17873 0.64838-0.64838 0.69914-0.74003
  -1   0   2110544.3  979.20   1 0.48543-0.60802 0.15540-0.15540 0.86034-0.77856
   1   0   2107407.2  966.77   1-0.35208 0.47466 0.66311-0.66311 0.66054-0.57877
  -1   0  -2103643.9  929.03   1-0.46293 0.34036 0.68611-0.68611 0.56119-0.64296
  -1   0   2105875.4  952.36   1-0.61457 0.49192-0.01463 0.01463-0.78872 0.87051
   1   0   3  888.40   83.43   1-0.45085 0.57343 0.68428-0.68428 0.57313-0.45047
  -1   0  -3  629.14   86.54   1-0.56716 0.44458 0.69355-0.69355 0.44420-0.56685
  -1   0   3 1161.82  120.27   1-0.75370 0.63101 0.18522-0.18522-0.63057 0.75333
   1   0  -3  774.36   77.45   1-0.64306 0.76571 0.02087-0.02087-0.76552 0.64283
   1   0   4 2973.29  147.21   1-0.51089 0.63347 0.69155-0.69155 0.51062-0.34707
  -1   0  -4 2259.19  102.01   1-0.63630 0.51372 0.68788-0.68788 0.34919-0.51273
  -1   0   4 2931.19  155.30   1-0.81476 0.69200 0.32015-0.32015-0.48337 0.64701
   1   0  -4 2482.57  125.19   1-0.72676 0.84945 0.13949-0.13949-0.67256 0.50889
   1   0   5 4118.36  160.46   1-0.54813 0.67070 0.69345-0.69345 0.46761-0.26318
  -1   0  -5 3130.48  145.34   1-0.68417 0.56150 0.67697-0.67697 0.27131-0.47582
  -1   0   5 3587.79  151.13   1-0.83685 0.71409 0.40963-0.40963-0.36314 0.56769
   1   0  -5 3330.00  158.09   1-0.76986 0.89255 0.21547-0.21547-0.60072 0.39613
   1   0   632127.79  428.44   1-0.57143 0.69400 0.69348-0.69348 0.43880-0.19348
  -1   0  -629506.00  387.67   1-0.71909 0.59643 0.66365-0.66365 0.20605-0.45147
  -1   0   631941.38  430.88   1-0.84110 0.71832 0.47017-0.47017-0.26734 0.51278
   1   0  -629856.32  450.62   1-0.79275 0.91543 0.26370-0.26370-0.54955 0.30403
   1   0   716274.03  310.58   1-0.58578 0.70836 0.69300-0.69300 0.42023-0.13402
  -1   0  -714421.08  280.41   1-0.74546 0.62280 0.64945-0.64945 0.14994-0.43625
  -1   0   715915.35  309.45   1-0.83660 0.71381 0.51409-0.51409-0.18923 0.47558
   1   0  -714962.98  351.55   1-0.80534 0.92810 0.29405-0.29405-0.51474 0.22837
   1   0   838580.01  675.57   1-0.59411 0.71668 0.69254-0.69254 0.40915-0.08206
  -1   0   840177.33  698.84   1-0.82787 0.70508 0.54705-0.54705-0.12395 0.45121
   1   0  -835982.98  680.38   1-0.81250 0.93526 0.31357-0.31357-0.49143 0.16415
   1   0   947852.12  822.83   1-0.59817 0.72075 0.69227-0.69227 0.40366-0.03568
  -1   0   949582.92  850.18   1-0.81734 0.69460 0.57212-0.57212-0.06795 0.43611
   1   0  10 1783.86  262.53   1-0.59909 0.72167 0.69220-0.69220 0.40241 0.00645
  -1   0  10 2312.09  199.08   1-0.80511 0.68237 0.59282-0.59282-0.01862 0.42769
   1   0  1112738.07 1073.86   1-0.59759 0.72017 0.69231-0.69231 0.40444 0.04530
  -1   0  1113334.50 1131.50   1-0.79207 0.66933 0.60987-0.60987 0.02567 0.42430
   1   0  1263919.25 1678.30   1-0.59417 0.71674 0.69254-0.69254 0.40907 0.08156
  -1   0  1262724.89 1631.81   1-0.77847 0.65573 0.62418-0.62418 0.06613 0.42474
   1   0  13 2775.04  226.62   1-0.58916 0.71174 0.69283-0.69283 0.41576 0.11576
  -1   0  13 3545.78  268.16   1-0.76441 0.64167 0.63633-0.63633 0.10362 0.42816
   1   0  1436517.71  896.50   1-0.58281 0.70538 0.69313-0.69313 0.42413 0.14827
  -1   0  1437813.25  896.70   1-0.75035 0.62768 0.64632-0.64632 0.13871 0.43390
   1   0  1528877.63 1279.74   1-0.57528 0.69786 0.69339-0.69339 0.43387 0.17942
  -1   0  1528008.12 1236.87   1-0.73550 0.61284 0.65532-0.65532 0.17197 0.44155
   1   0  1615630.10  756.00   1-0.56671 0.68929 0.69355-0.69355 0.44476 0.20942
  -1   0  1616497.77  753.38   1-0.72026 0.59760 0.66311-0.66311 0.20370 0.45072
   1   0  17 1712.38  230.66   1-0.55718 0.67976 0.69357-0.69357 0.45660 0.23846
  -1   0  17 1981.26  293.45   1-0.70461 0.58195 0.66983-0.66983 0.23418 0.46114
   1   0  1840069.80 2031.74   1-0.54677 0.66935 0.69342-0.69342 0.46925 0.26670
  -1   0  1841104.85 2071.62   1-0.68853 0.56587 0.67559-0.67559 0.26362 0.47261
   1   0  19 1793.70  355.72   1-0.53551 0.65809 0.69305-0.69305 0.48259 0.29425
  -1   0  19 2536.32  451.95   1-0.67199 0.54933 0.68047-0.68047 0.29218 0.48495
   1   0  2015755.29  782.77   1-0.52345 0.64602 0.69243-0.69243 0.49651 0.32121
  -1   0  2014967.67  725.62   1-0.65497 0.53230 0.68455-0.68455 0.32000 0.49803
   1   0  21 1922.70  436.47   1-0.51060 0.63317 0.69153-0.69153 0.51095 0.34766
  -1   0  21 1610.81  357.55   1-0.63742 0.51476 0.68785-0.68785 0.34719 0.51173
   1   0  22  -53.95  197.65   1-0.49696 0.61954 0.69031-0.69031 0.52582 0.37367
  -1   0  22  157.93  189.71   1-0.61965 0.49708 0.69021-0.69021 0.37366 0.52584
   1  -1   0234477.9 2006.10   1 0.25699-0.13448 0.35066-0.41343 0.90054-0.90054
  -1   1   0230395.4 1970.60   1 0.14332-0.26588 0.43078-0.36800 0.89099-0.89099
   1   1   0236593.7 1986.61   1-0.24505 0.36763 0.62945-0.56667 0.73738-0.73738
  -1  -1   0229638.2 1926.03   1-0.42557 0.30300 0.67988-0.74266 0.59719-0.59719
  -1   1   2113606.3 1039.58   1 0.52068-0.64326 0.11980-0.05701 0.84529-0.76351
  -1   1  -2125302.1 1117.30   1-0.26302 0.14045 0.63582-0.57304 0.72562-0.80740
   1  -1   3216208.1 1877.66   1-0.26229 0.38487 0.63557-0.69836 0.72611-0.60345
  -1   1  -3210168.5 1825.37   1-0.40695 0.28438 0.67618-0.61340 0.61413-0.73679
   1   1   3216057.0 1883.80   1-0.60708 0.72966 0.69154-0.62877 0.39142-0.26876
  -1  -1  -3209258.2 1815.02   1-0.70824 0.58558 0.66837-0.73116 0.22728-0.34998
  -1  -1   3211474.4 1808.84   1-0.80477 0.68201 0.29259-0.35540-0.51644 0.63917
  -1   1   3222299.6 1973.03   1-0.73093 0.60825 0.14626-0.08346-0.66658 0.78934
   1   1  -3209862.9 1791.86   1-0.63861 0.76126 0.01519 0.04761-0.76937 0.64668
   1  -1  -3211191.6 1879.98   1-0.63236 0.75501 0.00729-0.07010-0.77463 0.65194
  -1   1  -416709.41  247.26   1-0.51197 0.38940 0.69164-0.62887 0.50942-0.67296
   1   1   417582.86  268.68   1-0.63481 0.75738 0.68812-0.62535 0.35143-0.18788
  -1  -1  -415468.36  238.62   1-0.73927 0.61661 0.65318-0.71596 0.16376-0.32737
  -1  -1   417424.47  237.75   1-0.84011 0.71732 0.43549-0.49829-0.32334 0.48698
  -1   1   415532.34  289.40   1-0.79131 0.66862 0.26041-0.19761-0.55318 0.71685
   1   1  -415382.61  237.66   1-0.75191 0.87460 0.18202-0.11922-0.63362 0.46995
   1  -1  -416707.20  300.73   1-0.70202 0.82470 0.10125-0.16405-0.70492 0.54124
   1  -1   5140400.0 1294.24   1-0.41582 0.53840 0.67799-0.74077 0.60614-0.40171
  -1   1  -5125956.9 1166.88   1-0.58831 0.46573 0.69288-0.63011 0.41689-0.62132
   1   1   5135597.1 1274.64   1-0.64990 0.77256 0.68559-0.62280 0.32800-0.12349
  -1  -1  -5136110.2 1262.29   1-0.76111 0.63837 0.63888-0.70166 0.11193-0.31646
  -1  -1   5134859.2 1217.26   1-0.83738 0.71459 0.50970-0.57250-0.19744 0.40198
  -1   1   5139759.1 1360.61   1-0.82276 0.69999 0.34569-0.28288-0.45117 0.65572
   1  -1  -5126381.3 1256.43   1-0.74407 0.86675 0.16829-0.23109-0.64655 0.44196
  -1   1  -657626.93  624.33   1-0.64449 0.52183 0.68662-0.62383 0.33640-0.58181
   1   1   657078.94  651.62   1-0.65793 0.78059 0.68390-0.62112 0.31527-0.06986
  -1  -1  -662291.19  675.03   1-0.77788 0.65514 0.62473-0.68751 0.06778-0.31322
  -1  -1   661817.41  638.35   1-0.82589 0.70315 0.55296-0.61573-0.11015 0.35559
  -1   1   665451.91  765.33   1-0.83695 0.71419 0.41033-0.34752-0.36211 0.60757
   1   1  -660432.66  688.80   1-0.81367 0.93643 0.31694-0.25414-0.48732 0.24186
   1  -1   728158.12  406.76   1-0.48730 0.60988 0.68928-0.75205 0.53611-0.24990
   1   1   727804.02  451.69   1-0.66130 0.78396 0.68314-0.62035 0.30982-0.02351
  -1   1  -725975.43  366.07   1-0.68703 0.56437 0.67607-0.61329 0.26627-0.55259
  -1  -1   728734.75  391.21   1-0.81167 0.68893 0.58245-0.64522-0.04387 0.33022
  -1   1   728399.40  476.56   1-0.84118 0.71840 0.45949-0.39669-0.28507 0.57143
   1   1  -726557.51  425.82   1-0.82225 0.94501 0.34392-0.28112-0.45345 0.16708
   1  -1  -728616.79  476.02   1-0.78552 0.90821 0.24762-0.31042-0.56712 0.28068
   1  -1   8189415.6 2723.88   1-0.50682 0.62940 0.69122-0.75399 0.51511-0.18802
   1   1   8186405.1 2696.62   1-0.66149 0.78415 0.68309-0.62031 0.30952 0.01769
  -1  -1   8191480.9 2722.79   1-0.79704 0.67430 0.60384-0.66661 0.00955 0.31770
  -1   1   8189554.5 2765.44   1-0.83901 0.71622 0.49861-0.43581-0.21778 0.54504
   1   1  -8181010.4 2647.13   1-0.82641 0.94917 0.35896-0.29616-0.43380 0.10652
   1  -1   998741.85 1501.33   1-0.51958 0.64215 0.69218-0.75495 0.50090-0.13292
   1   1   9102709.8 1593.79   1-0.65936 0.78202 0.68358-0.62080 0.31296 0.05514
  -1  -1   9106950.3 1584.49   1-0.78245 0.65970 0.62029-0.68307 0.05479 0.31336
  -1   1   999605.21 1557.91   1-0.83301 0.71022 0.53010-0.46731-0.15832 0.52649
   1   1  -996054.71 1509.80   1-0.82835 0.95111 0.36662-0.30381-0.42357 0.05538
   1  -1  10   48.74  181.57   1-0.52734 0.64992 0.69266-0.75543 0.49206-0.08319
   1   1  10  404.27  227.58   1-0.65546 0.77812 0.68444-0.62166 0.31922 0.08979
  -1  -1  10  754.40  122.87   1-0.76794 0.64520 0.63349-0.69626 0.09455 0.31451
  -1   1  10  542.10  312.91   1-0.82494 0.70220 0.55537-0.49260-0.10498 0.51405
   1  -1  1193915.78 2378.89   1-0.53132 0.65390 0.69286-0.75563 0.48746-0.03771
   1   1  1199977.67 2539.53   1-0.65013 0.77279 0.68554-0.62276 0.32764 0.12227
  -1  -1  1198845.89 2482.15   1-0.75389 0.63122 0.64393-0.70671 0.13038 0.31953
  -1   1  1196026.95 2458.91   1-0.81475 0.69201 0.57703-0.51425-0.05663 0.50661
   1  -1  12 4826.02  460.28   1-0.53234 0.65492 0.69291-0.75568 0.48628 0.00434
   1   1  12 4018.19  395.16   1-0.64362 0.76628 0.68678-0.62399 0.33775 0.15307
  -1  -1  12 4315.87  422.40   1-0.73938 0.61672 0.65311-0.71590 0.16351 0.32730
  -1   1  12 5184.66  490.74   1-0.80334 0.68060 0.59538-0.53261-0.01220 0.50309
   1  -1  1314728.05  453.79   1-0.53097 0.65355 0.69284-0.75561 0.48787 0.04365
   1   1  1313537.09  455.30   1-0.63635 0.75892 0.68787-0.62510 0.34911 0.18240
  -1  -1  1314475.23  442.40   1-0.72476 0.60210 0.66095-0.72373 0.19456 0.33715
  -1   1  1313909.03  458.37   1-0.79100 0.66826 0.61112-0.54834 0.02905 0.50273
   1  -1  1447141.22 1994.47   1-0.52764 0.65022 0.69267-0.75544 0.49171 0.08069
   1   1  1449861.95 2121.19   1-0.62791 0.75049 0.68914-0.62637 0.36166 0.21074
  -1  -1  1450432.38 2112.13   1-0.70994 0.58728 0.66767-0.73046 0.22402 0.34860
  -1   1  1446727.62 1985.36   1-0.77790 0.65515 0.62472-0.56195 0.06774 0.50495
   1  -1  1542892.43 1830.22   1-0.52264 0.64522 0.69238-0.75515 0.49743 0.11586
   1   1  1540106.25 1746.72   1-0.61865 0.74123 0.69033-0.62756 0.37510 0.23819
  -1  -1  1540756.37 1731.40   1-0.69487 0.57221 0.67344-0.73623 0.25223 0.36129
  -1   1  1542291.08 1813.39   1-0.76414 0.64140 0.63655-0.57377 0.10431 0.50929
   1  -1  1619520.19  885.20   1-0.51620 0.63878 0.69195-0.75472 0.50470 0.14948
   1   1  1617147.05  822.36   1-0.60862 0.73119 0.69140-0.62863 0.38928 0.26489
  -1  -1  1616205.93  728.80   1-0.67948 0.55682 0.67838-0.74117 0.27944 0.37498
  -1   1  1620555.29  911.85   1-0.75018 0.62752 0.64642-0.58364 0.13909 0.51533
   1  -1  1758116.17 2361.03   1-0.50848 0.63106 0.69136-0.75412 0.51328 0.18178
   1   1  1760037.29 6907.09   1-0.59786 0.72043 0.69229-0.62952 0.40409 0.29097
  -1  -1  1759217.80 6801.35   1-0.66373 0.54107 0.68256-0.74535 0.30586 0.38946
  -1   1  1756780.44 2320.58   1-0.73529 0.61263 0.65544-0.59265 0.17242 0.52290
   1  -1  1810118.11  643.04   1-0.49961 0.62218 0.69056-0.75333 0.52297 0.21298
   1   1  1811000.78  682.96   1-0.58639 0.70897 0.69297-0.63020 0.41942 0.31653
  -1  -1  1810673.78  646.38   1-0.64758 0.52492 0.68604-0.74883 0.33162 0.40460
  -1   1  1810449.67  673.12   1-0.71986 0.59720 0.66330-0.60051 0.20451 0.53172
   1  -1  19 5612.83  766.32   1-0.48967 0.61225 0.68955-0.75232 0.53360 0.24323
   1   1  19 5911.15  466.18   1-0.57424 0.69682 0.69342-0.63065 0.43520 0.34163
  -1  -1  19 5748.26  418.94   1-0.63130 0.50872 0.68865-0.75142 0.35666 0.42018
  -1   1  19 5692.07  440.82   1-0.70389 0.58123 0.67011-0.60732 0.23554 0.54159
   1  -1  20 1270.27  288.85   1-0.47873 0.60131 0.68827-0.75104 0.54505 0.27267
   1   1  20 1733.46  354.18   1-0.56142 0.68399 0.69358-0.63081 0.45137 0.36635
  -1   1  20 1669.09  333.96   1-0.68737 0.56471 0.67596-0.61318 0.26567 0.55236
   1  -1  21 2568.76  499.26   1-0.46690 0.58947 0.68667-0.74945 0.55720 0.30138
   1   1  21 2883.57  552.61   1-0.54791 0.67049 0.69345-0.63068 0.46787 0.39073
  -1  -1  21 2880.23  525.20   1-0.59660 0.47402 0.69238-0.75515 0.40579 0.45281
  -1   1  21 3191.20  597.59   1-0.67029 0.54763 0.68092-0.61814 0.29502 0.56391
   1  -1  22 8889.23  649.54   1-0.45409 0.57667 0.68479-0.74757 0.56996 0.32952
   1   1  22 7788.64  650.16   1-0.53373 0.65631 0.69297-0.63020 0.48466 0.41483
  -1  -1  22 8892.51  660.88   1-0.57841 0.45583 0.69330-0.75607 0.42985 0.46964
  -1   1  22 8300.09  660.36   1-0.65263 0.52997 0.68504-0.62225 0.32370 0.57613
   1  -2   0 8761.91  174.21   1 0.38227-0.25968 0.25053-0.37611 0.88943-0.88943
  -1   2   0 8151.23  160.56   1 0.24378-0.36630 0.36046-0.23492 0.90035-0.90035
   1   2   0 9088.13  126.65   1-0.58425 0.70683 0.69307-0.56753 0.42223-0.42223
  -1  -2   0 8871.54  121.61   1-0.77096 0.64822 0.63095-0.75650 0.08663-0.08663
   1  -2  -190397.55  868.38   1 0.52808-0.40550 0.11210-0.23768 0.84175-0.88265
   1  -2   189510.32  847.21   1 0.21975-0.09724 0.37791-0.50345 0.89938-0.85853
  -1   2  -183366.34  792.41   1 0.06640-0.18897 0.47904-0.35347 0.87527-0.91615
   1   2  -183767.66  713.16   1-0.29498 0.41756 0.64638-0.52082 0.70367-0.74456
   1   2   186437.51  785.01   1-0.66628 0.78895 0.68194-0.55637 0.30167-0.26077
  -1  -2   186624.41  736.51   1-0.74751 0.62485 0.64816-0.77373 0.14526-0.10436
  -1  -2  -184032.43  761.55   1-0.78334 0.66060 0.61939-0.74493 0.05219-0.09310
  -1   2   2248366.4 2176.62   1 0.52619-0.64877 0.11408 0.01150 0.84267-0.76089
   1  -2   2239674.7 2074.50   1 0.06266 0.05989 0.48128-0.60685 0.87432-0.79255
  -1   2  -2245506.4 2119.80   1-0.10848-0.01409 0.57253-0.44696 0.81266-0.89444
   1   2   2255308.9 2197.05   1-0.69868 0.82134 0.67207-0.54650 0.24524-0.16343
  -1  -2  -2236138.5 2029.10   1-0.79247 0.66973 0.60941-0.73496 0.02442-0.10623
  -1   2   2238432.5 2109.86   1-0.64271 0.52006 0.02042 0.10518-0.76583 0.84762
   1  -2   4999998.645248.10   1-0.18094 0.30351 0.60456-0.73013 0.77573-0.61219
  -1   2  -4946639.842834.85   1-0.38795 0.26537 0.67200-0.54644 0.63079-0.79433
   1   2   4954224.643183.68   1-0.71919 0.84186 0.66361-0.53803 0.20585-0.04224
  -1  -2  -4946264.142820.26   1-0.80659 0.68385 0.59060-0.71615-0.02412-0.13950
  -1   2   4968031.543824.15   1-0.77776 0.65508 0.23128-0.10568-0.58445 0.74812
   1   2  -4844962.038227.14   1-0.77997 0.90266 0.23584-0.11024-0.57966 0.41599
   1  -2  -4923965.141825.62   1-0.67652 0.79917 0.06546-0.19107-0.73350 0.56991
  -1  -2   529213.61  309.01   1-0.76032 0.63758 0.63947-0.76502 0.11387 0.09065
   1  -2   6 7673.66  191.33   1-0.32378 0.44636 0.65520-0.78076 0.68254-0.43723
  -1   2  -6 9805.42  232.48   1-0.56218 0.43960 0.69358-0.56804 0.45043-0.69574
  -1  -2   6 9560.86  159.20   1-0.74871 0.62605 0.64739-0.77296 0.14251 0.10289
  -1  -2  -6 7389.81  226.15   1-0.81759 0.69485 0.57163-0.69718-0.06905-0.17638
  -1   2   6 7445.19  271.66   1-0.82923 0.70647 0.37027-0.24467-0.41864 0.66410
   1   2  -6 7602.72  191.89   1-0.83108 0.95384 0.37834-0.25273-0.40762 0.16216
   1  -2  -6 9202.99  280.29   1-0.74511 0.86779 0.17008-0.29568-0.64488 0.39937
   1  -2   738319.53  494.95   1-0.36828 0.49086 0.66729-0.79284 0.64737-0.36117
   1   2   740887.27  560.97   1-0.71606 0.83873 0.66503-0.53946 0.21207 0.07423
  -1  -2   740278.35  445.33   1-0.73731 0.61465 0.65431-0.77988 0.16805 0.11825
  -1   2   741337.18  634.90   1-0.83832 0.71556 0.42062-0.29501-0.34682 0.63319
   1   2  -740068.73  523.86   1-0.83490 0.95767 0.39761-0.27200-0.38056 0.09419
   1  -2   831443.91 2560.54   1-0.40059 0.52317 0.67482-0.80038 0.61978-0.29269
  -1  -2   824247.83 1130.76   1-0.72605 0.60338 0.66031-0.78588 0.19192 0.13529
   1   2   824010.02 1153.02   1-0.71133 0.83399 0.66709-0.54152 0.22134 0.10586
  -1   2   830677.98 2518.50   1-0.84120 0.71841 0.46140-0.33581-0.28192 0.60919
   1   2  -830742.47 2507.97   1-0.83627 0.95904 0.40582-0.28021-0.36871 0.04143
   1  -2   922881.69 1088.70   1-0.42377 0.54635 0.67954-0.80510 0.59886-0.23089
   1   2   921115.89 1030.68   1-0.70545 0.82811 0.66950-0.54392 0.23260 0.13551
  -1  -2   921288.63 1002.10   1-0.71466 0.59200 0.66565-0.79122 0.21484 0.15327
  -1   2   923160.88 1140.49   1-0.83936 0.71658 0.49568-0.37009-0.22305 0.59122
   1   2  -923567.44 1132.28   1-0.83658 0.95934 0.40781-0.28221-0.36580-0.00238
   1  -2  10142012.2 2106.74   1-0.44002 0.56260 0.68249-0.80804 0.58359-0.17473
   1   2  10144153.4 2181.79   1-0.69862 0.82129 0.67210-0.54653 0.24535 0.16366
  -1  -2  10144098.4 2090.57   1-0.70302 0.58036 0.67044-0.79601 0.23717 0.17184
  -1   2  10141874.9 2183.93   1-0.83439 0.71160 0.52453-0.39893-0.16924 0.57832
   1   2 -10131839.9 2015.27   1-0.83629 0.95905 0.40590-0.28030-0.36858-0.04051
   1  -2  11 4132.28  408.58   1-0.45094 0.57352 0.68429-0.80985 0.57304-0.12330
   1   2  11 3406.99  359.33   1-0.69098 0.81364 0.67478-0.54921 0.25925 0.19066
  -1  -2  11 4269.19  384.38   1-0.69105 0.56839 0.67475-0.80032 0.25912 0.19079
  -1   2  11 3798.02  397.67   1-0.82714 0.70436 0.54908-0.42349-0.11968 0.56967
   1  -2  1240500.09 1101.73   1-0.45768 0.58025 0.68533-0.81089 0.56642-0.07579
   1   2  1241233.63 1159.08   1-0.68259 0.80525 0.67746-0.55188 0.27406 0.21675
  -1  -2  1242302.88 1120.45   1-0.67869 0.55603 0.67861-0.80418 0.28080 0.21002
  -1   2  1243478.54 1231.77   1-0.81858 0.69584 0.56966-0.44411-0.07353 0.56441
   1  -2  13 1094.99  172.16   1-0.46106 0.58363 0.68584-0.81139 0.56306-0.03155
  -1  -2  13 1394.18  198.61   1-0.66591 0.54325 0.68203-0.80760 0.30228 0.22943
   1   2  13 1149.35  206.38   1-0.67352 0.79618 0.68006-0.55449 0.28960 0.24211
  -1   2  13 2004.12  292.41   1-0.80827 0.68553 0.58800-0.46246-0.03049 0.56228
   1  -2  14 1955.30  292.21   1-0.46170 0.58427 0.68593-0.81149 0.56242 0.00996
  -1  -2  14 1982.29  306.53   1-0.65268 0.53002 0.68503-0.81060 0.32362 0.24899
   1   2  14 2315.72  343.89   1-0.66381 0.78647 0.68254-0.55697 0.30573 0.26688
  -1   2  14 1886.21  327.47   1-0.79689 0.67415 0.60403-0.47848 0.01005 0.56264
   1  -2  1511507.79  558.51   1-0.46004 0.58262 0.68569-0.81125 0.56407 0.04920
   1   2  1510902.19 1214.02   1-0.65348 0.77615 0.68486-0.55929 0.32235 0.29117
  -1  -2  1511025.89  515.82   1-0.63897 0.51631 0.68759-0.81316 0.34485 0.26867
  -1   2  1511404.82  638.27   1-0.78460 0.66185 0.61810-0.49255 0.04851 0.56509
   1  -2  16 4813.05  374.73   1-0.45644 0.57901 0.68515-0.81071 0.56764 0.08651
  -1  -2  16 4326.89  310.63   1-0.62507 0.50249 0.68953-0.81507 0.36582 0.28836
   1   2  16 4849.71  381.52   1-0.64256 0.76522 0.68697-0.56140 0.33938 0.31504
  -1   2  16 5401.14  372.07   1-0.77150 0.64876 0.63049-0.50494 0.08518 0.56932
   1  -2  17 1605.66  294.99   1-0.45114 0.57371 0.68432-0.80988 0.57285 0.12219
  -1  -2  17 2475.89  254.73   1-0.61033 0.48775 0.69123-0.81677 0.38689 0.30817
   1   2  17 2981.39  350.76   1-0.63132 0.75389 0.68865-0.56311 0.35663 0.33843
  -1   2  17 1824.03  284.40   1-0.75806 0.63540 0.64097-0.51540 0.12033 0.57499
   1  -2  18 2811.07  464.30   1-0.44433 0.56691 0.68322-0.80877 0.57946 0.15648
   1   2  18 3834.70  576.31   1-0.61922 0.74180 0.69026-0.56472 0.37428 0.36167
  -1  -2  18 3084.55  430.97   1-0.59503 0.47245 0.69248-0.81802 0.40791 0.32804
  -1   2  18 3117.56  484.79   1-0.74358 0.62092 0.65061-0.52504 0.15418 0.58204
   1  -2  19 6955.92  416.47   1-0.43617 0.55875 0.68182-0.80737 0.58725 0.18956
  -1  -2  19 8092.79  457.64   1-0.57915 0.45658 0.69327-0.81881 0.42888 0.34795
   1   2  19 8069.68  503.97   1-0.60654 0.72911 0.69159-0.56605 0.39217 0.38466
  -1   2  19 7555.51  482.04   1-0.72846 0.60580 0.65909-0.53352 0.18691 0.59021
   1  -2  20  875.67  245.85   1-0.42676 0.54934 0.68011-0.80566 0.59608 0.22162
  -1  -2  20  995.95  272.42   1-0.56266 0.44009 0.69358-0.81912 0.44982 0.36790
   1   2  20 1503.81  389.28   1-0.59326 0.71584 0.69260-0.56706 0.41028 0.40744
  -1   2  20 1393.72  330.30   1-0.71270 0.59004 0.66650-0.54093 0.21867 0.59936
   1  -2  21   89.90  197.88   1-0.41620 0.53877 0.67806-0.80362 0.60580 0.25279
  -1  -2  21 1257.22  310.98   1-0.54553 0.42296 0.69339-0.81893 0.47073 0.38787
   1   2  21 1487.96  420.93   1-0.57939 0.70196 0.69326-0.56772 0.42858 0.43003
  -1   2  21 1256.85  379.17   1-0.69632 0.57365 0.67293-0.54736 0.24958 0.60934
   1  -2  22 6724.40  520.17   1-0.40453 0.52710 0.67566-0.80122 0.61630 0.28318
  -1  -2  22 6950.83  538.94   1-0.52772 0.40515 0.69268-0.81822 0.49162 0.40787
   1   2  22 7237.21  595.95   1-0.56489 0.68747 0.69357-0.56803 0.44704 0.45245
  -1   2  22 7486.50  653.11   1-0.67929 0.55663 0.67844-0.55286 0.27976 0.62007
   1  -3   013698.21  241.29   1 0.46917-0.34659 0.17125-0.35962 0.86633-0.86633
  -1   3   012319.34  219.93   1 0.29200-0.41451 0.32398-0.13567 0.89987-0.89987
   1   3   013285.45  180.60   1-0.76714 0.88988 0.63415-0.44583 0.09665-0.09665
  -1  -3   012937.44  177.37   1-0.83709 0.71432 0.41124-0.59965-0.36076 0.36076
  -1   3   1110010.7 1044.98   1 0.41790-0.54049 0.21906-0.03069 0.88168-0.84078
   1  -3   1115993.9 1093.87   1 0.34586-0.22335 0.28079-0.46910 0.89528-0.85443
  -1   3  -1114118.3 1064.65   1 0.14752-0.27008 0.42802-0.23966 0.89164-0.93253
   1   3  -1118797.6 1015.56   1-0.73610 0.85876 0.65499-0.46663 0.17067-0.21157
   1   3   1120558.1 1094.65   1-0.77506 0.89780 0.62734-0.43902 0.07558-0.03467
  -1  -3  -1115058.7 1041.76   1-0.84114 0.71836 0.46831-0.65670-0.27046 0.22956
  -1  -3   1114755.5  990.86   1-0.78763 0.66495 0.25222-0.44062-0.56214 0.60306
  -1   3   1114538.6 1110.40   1-0.57617 0.45352-0.05957 0.24798-0.81515 0.85604
  -1   3   212393.49  248.23   1 0.51864-0.64123 0.12191 0.06645 0.84625-0.76446
   1  -3   211784.89  222.71   1 0.21722-0.09470 0.37972-0.56803 0.89923-0.81753
  -1   3   212744.37  296.20   1-0.66200 0.53935 0.04569 0.14271-0.74810 0.82989
   1   3   328558.05  388.93   1-0.77425 0.89699 0.62807-0.43975 0.07780 0.04491
  -1  -3  -330724.51  388.06   1-0.83804 0.71525 0.50560-0.69399-0.20504 0.08232
  -1   3   331992.66  483.10   1-0.72664 0.60395 0.13929 0.04910-0.67274 0.79550
   1   3  -418355.10  198.74   1-0.81900 0.94176 0.33318-0.14477-0.46714 0.30350
  -1   3   420888.75  454.71   1-0.77223 0.64955 0.22013-0.03173-0.59597 0.75965
   1  -3   551925.54  576.15   1-0.10470 0.22727 0.57075-0.75911 0.81441-0.60998
  -1  -3   546317.71  426.02   1-0.42613 0.30355 0.67999-0.86832 0.59667-0.39224
   1   3   547301.76  598.97   1-0.76570 0.88844 0.63531-0.44699 0.10034 0.10419
  -1  -3  -550872.64  602.36   1-0.83709 0.71431 0.51136-0.69975-0.19435-0.01018
   1   3  -551326.94  514.89   1-0.83919 0.96195 0.42854-0.24014-0.33481 0.13026
  -1   3   553753.03  719.27   1-0.80306 0.68030 0.28821-0.09980-0.52155 0.72610
   1  -3   615493.32  275.77   1-0.17768 0.30025 0.60320-0.79156 0.77754-0.53222
  -1   3  -615292.39  268.87   1-0.48062 0.35805 0.68850-0.50019 0.54309-0.78841
  -1  -3   615735.41  199.28   1-0.52489 0.40231 0.69252-0.88083 0.49487-0.24955
   1   3   615437.10  336.71   1-0.75994 0.88268 0.63976-0.45144 0.11482 0.13061
   1   3  -616043.36  253.39   1-0.84093 0.96372 0.44932-0.26093-0.30154 0.05610
  -1   3   616460.83  417.06   1-0.82277 0.70000 0.34572-0.15732-0.45113 0.69659
   1   3  -762717.68  971.03   1-0.84110 0.96389 0.45459-0.26619-0.29306 0.00670
  -1   3   764880.92 1120.20   1-0.83428 0.71152 0.39415-0.20575-0.38549 0.67186
   1  -3   852870.78  857.01   1-0.27931 0.40189 0.64128-0.82961 0.71466-0.38757
  -1  -3   852017.83  787.89   1-0.58585 0.46327 0.69300-0.88131 0.42014-0.09304
   1   3   852049.25  927.75   1-0.74664 0.86930 0.64872-0.46036 0.14727 0.17993
  -1   3   854871.85  998.55   1-0.84004 0.71726 0.43472-0.24633-0.32454 0.65181
   1   3  -854826.27  893.21   1-0.84106 0.96385 0.45295-0.26456-0.29570-0.03155
   1  -3   910768.33  546.89   1-0.31303 0.43560 0.65199-0.84033 0.69058-0.32261
  -1  -3   911140.78  540.99   1-0.59418 0.47160 0.69254-0.88085 0.40906-0.04108
   1   3   912206.39  674.23   1-0.73891 0.86157 0.65339-0.46504 0.16457 0.20354
  -1   3   910635.80  605.05   1-0.84112 0.71833 0.46971-0.28132-0.26811 0.63628
   1   3  -910935.46  560.85   1-0.84087 0.96365 0.44773-0.25933-0.30409-0.06407
   1  -3  10 9068.30  771.14   1-0.33837 0.46094 0.65937-0.84771 0.67136-0.26250
  -1  -3  1012206.54 1007.48   1-0.59620 0.47363 0.69240-0.88071 0.40633 0.00253
   1   3  1011950.75 1021.01   1-0.73062 0.85328 0.65796-0.46961 0.18238 0.22663
  -1   3  10 9453.55  842.77   1-0.83886 0.71607 0.49980-0.31141-0.21562 0.62470
   1   3 -10 8100.25  698.66   1-0.84046 0.96324 0.44030-0.25191-0.31584-0.09323
   1  -3  1155150.42 1440.01   1-0.35704 0.47962 0.66441-0.85275 0.65655-0.20681
  -1  -3  1159021.52 1502.54   1-0.59421 0.47163 0.69254-0.88085 0.40901 0.04073
   1   3  1154722.28 1482.41   1-0.72180 0.84447 0.66238-0.47402 0.20059 0.24932
  -1   3  1156988.12 1566.06   1-0.83407 0.71128 0.52589-0.33750-0.16658 0.61657
   1  -3  1224569.44  618.91   1-0.37035 0.49293 0.66780-0.85614 0.64565-0.15502
  -1  -3  1222570.03  538.02   1-0.58942 0.46684 0.69282-0.88113 0.41542 0.07521
   1   3  1222508.56  659.83   1-0.71247 0.83513 0.66660-0.47824 0.21912 0.27170
  -1   3  1223789.21  703.10   1-0.82729 0.70450 0.54867-0.36028-0.12055 0.61144
   1  -3  1334529.23  825.26   1-0.37932 0.50190 0.66998-0.85832 0.63814-0.10663
  -1  -3  1329398.19  678.84   1-0.58254 0.45996 0.69315-0.88145 0.42448 0.10704
   1   3  1329795.79  800.86   1-0.70263 0.82529 0.67059-0.48224 0.23790 0.29381
  -1   3  1333121.68  919.80   1-0.81931 0.69656 0.56817-0.37984-0.07690 0.60869
   1  -3  1410378.37 1141.05   1-0.38472 0.50729 0.67125-0.85959 0.63356-0.06116
  -1  -3  1412209.58  571.37   1-0.57401 0.45144 0.69342-0.88173 0.43550 0.13690
   1   3  1412828.66  722.71   1-0.69228 0.81494 0.67434-0.48598 0.25690 0.31571
  -1   3  1411380.83  608.28   1-0.80962 0.68688 0.58586-0.39754-0.03570 0.60840
   1  -3  15 5698.99  400.67   1-0.38713 0.50970 0.67181-0.86015 0.63149-0.01821
  -1  -3  15 7228.13  388.56   1-0.56411 0.44154 0.69357-0.88188 0.44802 0.16527
   1   3  15 7589.45  453.52   1-0.68143 0.80409 0.67781-0.48945 0.27608 0.33744
  -1   3  15 5751.53  437.50   1-0.79882 0.67608 0.60155-0.41323 0.00356 0.61004
   1  -3  1635345.98 1475.71   1-0.38700 0.50958 0.67178-0.86012 0.63160 0.02256
  -1  -3  1639165.90 1603.07   1-0.55302 0.43045 0.69353-0.88184 0.46169 0.19248
   1   3  1635647.76 1532.53   1-0.67006 0.79272 0.68098-0.49262 0.29541 0.35901
  -1   3  1632861.44 1456.62   1-0.78706 0.66432 0.61549-0.42717 0.04116 0.61334
   1  -3  17 8856.09  544.89   1-0.38469 0.50727 0.67125-0.85959 0.63358 0.06147
  -1  -3  17 8692.33  539.70   1-0.54087 0.41829 0.69325-0.88156 0.47628 0.21878
   1   3  17 8241.35 1220.93   1-0.65818 0.78085 0.68385-0.49549 0.31486 0.38047
  -1   3  17 8859.37  607.34   1-0.77443 0.65169 0.62791-0.43959 0.07731 0.61810
   1  -3  18 2635.26  457.96   1-0.38047 0.50304 0.67025-0.85859 0.63717 0.09876
  -1  -3  18 1823.07  343.49   1-0.52773 0.40515 0.69268-0.88099 0.49161 0.24433
   1   3  18 1823.79  384.85   1-0.64578 0.76844 0.68638-0.49803 0.33441 0.40181
  -1   3  18 2535.13  472.21   1-0.76100 0.63826 0.63896-0.45064 0.11219 0.62412
   1  -3  1911410.49  600.71   1-0.37454 0.49711 0.66883-0.85717 0.64216 0.13465
  -1  -3  19 9670.80  487.46   1-0.51365 0.39108 0.69176-0.88007 0.50755 0.26928
   1   3  19 9812.19  581.55   1-0.63312 0.75570 0.68838-0.50007 0.35394 0.42289
  -1   3  1910854.59  626.68   1-0.74720 0.62454 0.64836-0.46000 0.14599 0.63114
   1  -3  20  516.63  283.34   1-0.36706 0.48964 0.66698-0.85532 0.64837 0.16933
  -1  -3  20 1064.63  281.34   1-0.49867 0.37609 0.69047-0.87878 0.52398 0.29374
   1   3  20  749.03  349.17   1-0.61965 0.74222 0.69021-0.50190 0.37367 0.44405
  -1   3  20 1225.39  307.19   1-0.73231 0.60965 0.65706-0.46871 0.17879 0.63923
   1  -3  21  857.87  243.42   1-0.35817 0.48074 0.66471-0.85304 0.65564 0.20295
  -1  -3  21 2898.73  523.90   1-0.48279 0.36021 0.68876-0.87707 0.54084 0.31777
   1   3  21 1902.43  429.35   1-0.60561 0.72818 0.69167-0.50336 0.39346 0.46514
  -1   3  21 1206.49  373.05   1-0.71673 0.59407 0.66473-0.47637 0.21075 0.64818
   1  -4   0  604.73  139.01   1 0.53448-0.41190 0.10536-0.35653 0.83858-0.83858
  -1   4   0  506.71   73.74   1 0.31245-0.43497 0.30789-0.05681 0.89864-0.89864
   1   4   0  551.14   80.48   1-0.82377 0.94651 0.55823-0.30713-0.09883 0.09883
  -1  -4   0  462.69   66.00   1-0.77321 0.65053 0.22207-0.47327-0.59398 0.59398
   1  -4   135487.70  447.31   1 0.44024-0.31766 0.19861-0.44977 0.87563-0.83473
  -1   4   133947.23  436.62   1 0.41778-0.54036 0.21917 0.03198 0.88171-0.84082
   1   4   131485.58  412.92   1-0.81816 0.94091 0.57049-0.31940-0.07165 0.11255
  -1  -4  -134475.39  410.61   1-0.81404 0.69128 0.31803-0.56924-0.48598 0.44507
  -1   4   134103.17  485.08   1-0.61559 0.49294-0.01340 0.26461-0.78795 0.82884
  -1   4   226660.44  393.32   1 0.50386-0.62644 0.13701 0.11414 0.85284-0.77105
   1   4  -224890.04  259.59   1 0.30973-0.18722 0.31006-0.05897 0.89884-0.98054
   1  -4   225226.70  355.30   1 0.33756-0.21504 0.28762-0.53870 0.89628-0.81458
   1   4   224883.08  384.45   1-0.81239 0.93513 0.58123-0.33013-0.04677 0.12858
  -1  -4  -225003.39  345.95   1-0.82966 0.70689 0.37208-0.62329-0.41618 0.33436
  -1   4   225439.58  427.53   1-0.68186 0.55921 0.07292 0.17829-0.72783 0.80962
   1  -4   311266.75  377.49   1 0.23358-0.11106 0.36792-0.61901 0.90003-0.77748
  -1   4  -3 9759.26  202.48   1-0.07213-0.05044 0.55497-0.30382 0.82873-0.95139
   1   4  -311325.91  113.55   1-0.45882 0.58140 0.68555-0.43447 0.56523-0.68789
   1   4   310048.53  259.53   1-0.80633 0.92907 0.59100-0.33991-0.02314 0.14586
   1   4  -310836.06  127.04   1-0.84051 0.96327 0.44619-0.19498-0.30732 0.18459
  -1  -4  -311099.58  231.61   1-0.83602 0.71326 0.40424-0.65545-0.37100 0.24827
  -1   4   311270.67  309.65   1-0.73376 0.61107 0.15090 0.10029-0.66243 0.78519
   1  -4  -3 9393.56  262.90   1-0.57140 0.69405-0.06494-0.18626-0.81809 0.69540
   1  -4   4 1986.22  224.09   1 0.13480-0.01223 0.43635-0.68750 0.88961-0.72607
  -1   4  -4 2320.53  111.06   1-0.19755 0.07497 0.61133-0.36018 0.76632-0.92986
   1   4  -4 1420.83   37.97   1-0.79911 0.92185 0.60117-0.35007 0.00258-0.16621
   1   4   4 2326.12  147.13   1-0.79994 0.92268 0.60007-0.34897-0.00026 0.16389
  -1  -4  -4 1289.82  117.40   1-0.83898 0.71619 0.42366-0.67485-0.34148 0.17785
  -1   4   4 1801.68  244.68   1-0.77221 0.64953 0.22009 0.03110-0.59602 0.75969
   1   4  -4 1537.56   43.71   1-0.65833 0.78098 0.04079 0.21041-0.75161 0.58803
  -1  -4   515335.81  178.41   1 0.19111-0.31362 0.39809-0.64917 0.89721-0.69296
   1  -4   514101.93  284.68   1 0.04545 0.07711 0.49143-0.74258 0.86972-0.66529
  -1   4  -514519.66  262.04   1-0.31021 0.18763 0.65114-0.40002 0.69266-0.89709
   1   4   515484.33  356.18   1-0.79319 0.91593 0.60856-0.35747 0.02212 0.18241
   1   4  -513540.41  173.01   1-0.82482 0.94761 0.55523-0.30404-0.10665-0.09788
  -1   4   513935.43  399.39   1-0.79984 0.67708 0.28019-0.02899-0.53078 0.73533
   1  -4   6 4486.80  575.39   1-0.03176 0.15432 0.53428-0.78544 0.84470-0.59938
  -1  -4   6 7490.65  353.40   1-0.10597-0.01660 0.57135-0.82250 0.81383-0.56851
  -1   4  -6 7109.23  367.21   1-0.40722 0.28464 0.67623-0.42511 0.61390-0.85921
   1   4   6 7239.71  420.54   1-0.78605 0.90880 0.61657-0.36547 0.04417 0.20126
   1   4  -6 4272.66  226.64   1-0.83232 0.95511 0.53269-0.28150-0.15319-0.09225
  -1   4   6 4100.66  318.49   1-0.81881 0.69604 0.33257-0.08137-0.46791 0.71336
   1  -4   7121784.3 1791.07   1-0.09637 0.21895 0.56679-0.81794 0.81820-0.53199
  -1  -4   7125425.3 1762.14   1-0.26446 0.14188 0.63632-0.88747 0.72467-0.43846
   1   4   7128730.9 1973.47   1-0.77852 0.90126 0.62413-0.37303 0.06599 0.22035
   1   4  -7122486.0 1765.59   1-0.83623 0.95902 0.51600-0.26481-0.18561-0.10074
  -1   4   7126812.1 2001.07   1-0.83100 0.70823 0.37797-0.12676-0.40812 0.69449
   1  -4   8122612.3 1814.95   1-0.14926 0.27183 0.59105-0.84220 0.79270-0.46561
  -1  -4   8123348.3 1749.89   1-0.35285 0.23027 0.66331-0.91443 0.65992-0.33284
   1   4   8125108.6 1952.11   1-0.77058 0.89332 0.63128-0.38018 0.08762 0.23962
   1   4  -8117589.6 1724.98   1-0.83867 0.96146 0.50125-0.25006-0.21299-0.11426
  -1   4   8129856.0 2056.91   1-0.83792 0.71516 0.41741-0.16620-0.35162 0.67890
   1  -4   910415.70  531.29   1-0.19176 0.31434 0.60899-0.86014 0.76964-0.40166
  -1  -4   9 9020.74  445.74   1-0.40434 0.28176 0.67562-0.92674 0.61646-0.24849
   1   4   9 8418.87  484.94   1-0.76223 0.88497 0.63803-0.38694 0.10913 0.25902
   1   4  -910480.72  537.75   1-0.84020 0.96298 0.48723-0.23604-0.23803-0.13013
  -1   4   910532.13  618.94   1-0.84101 0.71822 0.45140-0.20021-0.29821 0.66638
   1  -4  10 2440.56  256.42   1-0.22542 0.34799 0.62218-0.87333 0.74971-0.34085
  -1  -4  10 2379.65  242.14   1-0.43529 0.31271 0.68166-0.93278 0.58809-0.17923
   1   4  10 1952.91  269.85   1-0.75378 0.87644 0.64400-0.39286 0.13063 0.27838
   1   4 -10 2136.65  239.29   1-0.84101 0.96379 0.47345-0.22226-0.26180-0.14727
  -1   4  10 2468.30  355.80   1-0.84061 0.71782 0.48155-0.23036-0.24792 0.65700
   1  -4  1111351.66  960.32   1-0.25165 0.37423 0.63182-0.88297 0.73311-0.28337
  -1  -4  1110562.55  883.21   1-0.45370 0.33112 0.68473-0.93584 0.57035-0.12060
   1   4  1110359.12  912.74   1-0.74458 0.86724 0.65000-0.39886 0.15194 0.29797
  -1   4  1112588.28 1109.44   1-0.83764 0.71485 0.50813-0.25694-0.20036 0.65035
   1   4 -1111211.34  951.41   1-0.84119 0.96397 0.45965-0.20846-0.28480-0.16518
   1  -4  1249173.28 1080.56   1-0.27170 0.39428 0.63880-0.88995 0.71979-0.22915
  -1  -4  1248621.99 1019.09   1-0.46389 0.34131 0.68625-0.93736 0.56023-0.06960
   1   4  1248181.64 1155.43   1-0.73494 0.85760 0.65563-0.40449 0.17318 0.31763
  -1   4  1249823.54 1260.19   1-0.83260 0.70981 0.53166-0.28047-0.15524 0.64613
   1  -4  1398324.05 4039.40   1-0.28677 0.40934 0.64373-0.89485 0.70948-0.17797
  -1  -4  13105859.6 4021.95   1-0.46837 0.34580 0.68687-0.93799 0.55571-0.02420
   1   4  13103904.7 4030.28   1-0.72485 0.84751 0.66090-0.40976 0.19437 0.33734
  -1   4  1398132.32 4092.15   1-0.82623 0.70349 0.55207-0.30098-0.11203 0.64382
   1  -4  1413903.21  668.17   1-0.29735 0.41992 0.64714-0.89825 0.70199-0.12959
  -1  -4  1416032.28  719.94   1-0.46869 0.34611 0.68692-0.93803 0.55539 0.01699
   1   4  1415279.19  787.19   1-0.71431 0.83697 0.66580-0.41466 0.21552 0.35709
  -1   4  1413379.99  721.21   1-0.81803 0.69528 0.57077-0.31967-0.07102 0.64372
   1  -4  1534006.17 1379.66   1-0.30428 0.42686 0.64931-0.90043 0.69699-0.08370
  -1  -4  1532388.53 1289.03   1-0.46581 0.34323 0.68652-0.93763 0.55830 0.05497
   1   4  1533548.51 1427.96   1-0.70331 0.82597 0.67033-0.41919 0.23664 0.37688
  -1   4  1533790.11 1436.10   1-0.80859 0.68585 0.58751-0.33641-0.03170 0.64531
   1  -4  1610577.50  533.47   1-0.30810 0.43068 0.65049-0.90161 0.69420-0.04003
  -1  -4  1611959.15  566.87   1-0.46038 0.33781 0.68574-0.93685 0.56373 0.09043
   1   4  1611115.46  621.75   1-0.69183 0.81449 0.67449-0.42335 0.25772 0.39670
  -1   4  16 9759.71  583.74   1-0.79807 0.67533 0.60253-0.35143 0.00611 0.64839
   1  -4  17 1822.58  283.94   1-0.30923 0.43181 0.65084-0.90196 0.69337 0.00167
  -1  -4  17 1484.15  232.18   1-0.45286 0.33028 0.68459-0.93571 0.57117 0.12388
   1   4  17 1658.79  349.70   1-0.67986 0.80252 0.67827-0.42713 0.27879 0.41653
  -1   4  17 1885.96  386.10   1-0.78657 0.66383 0.61601-0.36492 0.04261 0.65280
   1  -4  1825129.25 1337.11   1-0.30801 0.43059 0.65046-0.90158 0.69427 0.04166
  -1  -4  1828249.74 1479.09   1-0.44353 0.32096 0.68308-0.93420 0.58022 0.15571
   1   4  1828850.61 1582.64   1-0.66740 0.79006 0.68166-0.43052 0.29983 0.43639
  -1   4  1825974.80 1462.40   1-0.77419 0.65145 0.62812-0.37703 0.07795 0.65837
   1  -4  1917466.76  801.71   1-0.30470 0.42727 0.64944-0.90056 0.69669 0.08013
  -1  -4  1918232.34  796.60   1-0.43262 0.31005 0.68118-0.93230 0.59060 0.18621
   1   4  1917580.20  889.54   1-0.65443 0.77709 0.68466-0.43352 0.32086 0.45627
  -1   4  1915500.74  803.64   1-0.76098 0.63823 0.63898-0.38789 0.11226 0.66497
   1  -4  2014481.72 1096.46   1-0.29951 0.42208 0.64782-0.89893 0.70044 0.11726
   1   4  2014192.29 1134.75   1-0.64093 0.76359 0.68726-0.43611 0.34187 0.47615
  -1   4  2015122.70 1178.96   1-0.74733 0.62467 0.64827-0.39713 0.14568 0.67235
   1  -4  21 9595.84  664.67   1-0.29260 0.41518 0.64562-0.89674 0.70537 0.15322
   1   4  2110511.17  773.28   1-0.62717 0.74974 0.68924-0.43816 0.36275 0.49586
  -1   4  21 8830.46  682.27   1-0.73257 0.60991 0.65693-0.40578 0.17824 0.68068
  -1   5   0614071.6 5216.55   1 0.31674-0.43925 0.30448 0.00937 0.89831-0.89831
   1   5   0655148.1 5566.94   1-0.83757 0.96036 0.50854-0.19455-0.19959 0.19959
  -1  -5   0677032.430643.10   1-0.69385 0.57120 0.09004-0.40406-0.71446 0.71446
  -1   5   0660230.029903.58   1-0.58628 0.46363-0.04803 0.36205-0.80867 0.80867
   1  -5   115956.64  328.96   1 0.51331-0.39073 0.12740-0.44135 0.84869-0.80779
  -1   5  -116690.13  928.92   1 0.21217-0.33468 0.38331-0.06946 0.89891-0.93976
   1   5   117877.12  342.71   1-0.83302 0.95581 0.53006-0.21608-0.15840 0.19931
   1   5  -114155.86  263.04   1-0.84072 0.96351 0.47972-0.16574-0.25108 0.21017
  -1  -5  -114720.29  262.56   1-0.75841 0.63573 0.19378-0.50778-0.62229 0.58137
  -1   5   114751.24  341.97   1-0.64933 0.52668 0.02897 0.28504-0.75994 0.80084
   1  -5   210674.25  245.30   1 0.43232-0.30973 0.20593-0.51988 0.87788-0.79610
   1   5  -2 9513.83  173.41   1 0.32395-0.20143 0.29868 0.01516 0.89768-0.97938
  -1   5  -210704.90  548.89   1 0.09805-0.22062 0.45972-0.14578 0.88263-0.96440
   1   5   212054.57  295.51   1-0.82773 0.95052 0.54744-0.23345-0.12313 0.20495
   1   5  -210072.11  200.46   1-0.84017 0.96296 0.43628-0.12229-0.32212 0.24030
  -1  -5  -211330.46  231.48   1-0.79182 0.66914 0.26158-0.57558-0.55188 0.47005
  -1   5   211335.94  338.22   1-0.70193 0.57924 0.10112 0.21287-0.70502 0.78686
   1  -5   363654.32 1002.16   1 0.34669-0.22417 0.28010-0.59395 0.89517-0.77262
   1   5  -361934.37  877.20   1-0.07898 0.20156 0.55836-0.24442 0.82583-0.94848
   1   5   361798.23 1037.56   1-0.82218 0.94492 0.56193-0.24806-0.09075 0.21347
   1   5  -362554.03  919.10   1-0.82611 0.94887 0.35781-0.04380-0.43532 0.31259
  -1  -5  -360176.64  951.16   1-0.81015 0.68738 0.30695-0.62096-0.49943 0.37670
  -1   5   364125.55 1092.43   1-0.74360 0.62092 0.16748 0.14651-0.64730 0.77005
   1  -5   434770.64  737.77   1 0.26126-0.13875 0.34746-0.66131 0.90055-0.73716
  -1   5  -427972.13 1303.09   1-0.13753 0.01495 0.58585-0.27191 0.79865-0.96220
   1   5  -434637.42  500.36   1-0.50167 0.62424 0.69076-0.37691 0.52074-0.68428
   1   5   430174.92 1441.73   1-0.81593 0.93867 0.57483-0.26097-0.06171 0.22534
  -1  -5  -431813.31 2591.51   1-0.82036 0.69760 0.33761-0.65161-0.46153 0.29789
  -1   5   436655.33  735.40   1-0.77581 0.65313 0.22730 0.08668-0.58858 0.75226
   1   5  -434808.38  519.47   1-0.76187 0.88455 0.20019 0.11379-0.61601 0.45233
   1  -5   5 7338.81  388.76   1 0.17968-0.05716 0.40596-0.71982 0.89604-0.69180
   1   5  -5 6675.69  315.15   1-0.71709 0.83975 0.66457-0.35064 0.21005-0.41456
   1   5   5 4756.39  318.44   1-0.80927 0.93201 0.58642-0.27256-0.03433 0.23887
  -1   5   5 6493.66  419.42   1-0.79995 0.67718 0.28045 0.03355-0.53049 0.73504
   1   5  -5 6588.85  312.54   1-0.58022 0.70287-0.05497 0.36899-0.81260 0.60812
  -1  -5   6169765.3 2354.07   1 0.32586-0.44838 0.29714-0.61099 0.89750-0.65241
   1  -5   6169092.2 2432.59   1 0.10526 0.01730 0.45522-0.76916 0.88413-0.63881
   1   5  -6166571.6 2323.50   1-0.78860 0.91134 0.61381-0.29995 0.03647-0.28192
   1   5   6180151.9 2701.78   1-0.80220 0.92494 0.59698-0.28312-0.00815 0.25359
  -1   5   6171768.0 2610.47   1-0.81729 0.69453 0.32782-0.01382-0.47386 0.71932
  -1  -5   7 3971.63  298.39   1 0.10917-0.23173 0.45276-0.76670 0.88492-0.59871
   1  -5   7 5069.97  413.22   1 0.03906 0.08350 0.49514-0.80908 0.86793-0.58172
   1   5   7 4009.04  370.16   1-0.79473 0.91748 0.60670-0.29284 0.01714 0.26920
   1   5  -7 4637.65  248.88   1-0.81563 0.93837 0.57540-0.26153-0.06040-0.22594
  -1   5   7 4019.10  368.78   1-0.82912 0.70636 0.36980-0.05579-0.41927 0.70564
   1  -5   8130619.6 3295.13   1-0.01799 0.14055 0.52696-0.84090 0.84969-0.52260
  -1  -5   8133931.9 3267.39   1-0.04488-0.07767 0.54114-0.85508 0.83973-0.51264
   1   5   8133202.8 3381.59   1-0.78686 0.90960 0.61571-0.30184 0.04175 0.28549
   1   5  -8122156.7 3008.89   1-0.82755 0.95034 0.54795-0.23397-0.12205-0.20520
  -1   5   8132340.4 3383.26   1-0.83646 0.71369 0.40701-0.09300-0.36697 0.69425
   1  -5   977628.44 2024.70   1-0.06609 0.18867 0.55196-0.86590 0.83124-0.46326
  -1  -5   979090.67 1951.78   1-0.14897 0.02640 0.59093-0.90486 0.79284-0.42487
   1   5   978433.26 2076.48   1-0.77857 0.90131 0.62408-0.31021 0.06585 0.30231
   1   5  -976559.24 1928.78   1-0.83443 0.95721 0.52439-0.21040-0.16952-0.19864
  -1   5   979011.00 2109.28   1-0.84041 0.71763 0.43968-0.12569-0.31681 0.68498
   1  -5  10  213.48  140.49   1-0.10599 0.22857 0.57136-0.88530 0.81382-0.40496
  -1  -5  10  806.98  115.86   1-0.21916 0.09658 0.61980-0.93374 0.75353-0.34467
   1   5  10 1078.44  206.48   1-0.76986 0.89261 0.63189-0.31802 0.08952 0.31954
   1   5 -10  280.20  112.67   1-0.83832 0.96111 0.50375-0.18976-0.20844-0.20063
  -1   5  10  656.17  266.37   1-0.84113 0.71834 0.46913-0.15514-0.26909 0.67816
   1  -5  1141950.94  924.87   1-0.13852 0.26110 0.58630-0.90024 0.79815-0.34841
  -1  -5  1143604.40  901.83   1-0.26670 0.14412 0.63709-0.95103 0.72317-0.27342
   1   5  1144330.04 1095.80   1-0.76073 0.88347 0.63917-0.32530 0.11286 0.33711
  -1   5  1140256.11 1038.53   1-0.83939 0.71660 0.49545-0.18146-0.22347 0.67345
   1   5 -1138512.94  884.64   1-0.84039 0.96318 0.48477-0.17078-0.24234-0.20763
   1  -5  12 8893.28  981.63   1-0.16461 0.28719 0.59769-0.91163 0.78463-0.29400
  -1  -5  12 5571.58  612.96   1-0.29916 0.17658 0.64771-0.96160 0.70069-0.21006
   1   5  12 4757.19  596.95   1-0.75149 0.87415 0.64555-0.33163 0.13604 0.35477
  -1   5  12 9690.48 1110.04   1-0.83561 0.71282 0.51905-0.20507-0.17979 0.67069
   1  -5  13 7175.71  802.16   1-0.18512 0.30770 0.60628-0.92022 0.77339-0.24187
  -1  -5  13 7065.11  772.65   1-0.32047 0.19790 0.65422-0.96812 0.68503-0.15352
   1   5  13 6281.36  754.12   1-0.74149 0.86415 0.65188-0.33795 0.15886 0.37285
  -1   5  13 8034.55  951.47   1-0.83010 0.70731 0.54028-0.22629-0.13789 0.66969
   1  -5  1429931.19 1220.36   1-0.20082 0.32340 0.61263-0.92657 0.76442-0.19201
  -1  -5  1429534.53 1171.02   1-0.33395 0.21137 0.65813-0.97202 0.67478-0.10238
   1   5  1430035.35 1294.29   1-0.73104 0.85370 0.65774-0.34382 0.18150 0.39112
  -1   5  1430271.14 1331.56   1-0.82348 0.70074 0.55893-0.24506-0.09730 0.67000
   1  -5  1525369.18 1079.85   1-0.21236 0.33494 0.61718-0.93111 0.75761-0.14432
  -1  -5  1527731.14 1140.91   1-0.34153 0.21895 0.66025-0.97414 0.66889-0.05561
   1   5  1526151.70 1212.52   1-0.72012 0.84279 0.66317-0.34925 0.20398 0.40954
  -1   5  1525899.99 1198.72   1-0.81518 0.69244 0.57624-0.26237-0.05846 0.67207
   1  -5  16    3.47  154.13   1-0.22031 0.34288 0.62024-0.93418 0.75283-0.09865
  -1  -5  16  636.66  212.34   1-0.34454 0.22197 0.66107-0.97497 0.66652-0.01236
   1   5  16  369.10  382.18   1-0.70874 0.83140 0.66817-0.35424 0.22632 0.42810
  -1   5  16  158.90  244.59   1-0.80573 0.68299 0.59190-0.27803-0.02092 0.67543
   1  -5  1735906.26 1864.49   1-0.22510 0.34768 0.62206-0.93600 0.74990-0.05484
  -1  -5  1741063.67 2100.35   1-0.34389 0.22132 0.66090-0.97479 0.66703 0.02801
   1   5  1737247.84 1988.84   1-0.69688 0.81954 0.67273-0.35880 0.24856 0.44677
  -1   5  1736711.91 1972.13   1-0.79525 0.67251 0.60607-0.29221 0.01546 0.67995
   1  -5  18 2278.32  353.82   1-0.22713 0.34971 0.62283-0.93677 0.74865-0.01270
   1   5  18 1553.20  306.49   1-0.68452 0.80718 0.67686-0.36294 0.27069 0.46553
  -1   5  18 1611.82  367.76   1-0.78381 0.66107 0.61890-0.30504 0.05081 0.68551
   1  -5  19 3163.58  485.81   1-0.22669 0.34927 0.62266-0.93660 0.74892 0.02790
   1   5  19 3715.26  653.07   1-0.67165 0.79432 0.68056-0.36664 0.29274 0.48438
  -1   5  19 3318.93  594.49   1-0.77149 0.64874 0.63050-0.31663 0.08523 0.69200
   1  -5  2010187.85  890.15   1-0.22403 0.34661 0.62166-0.93560 0.75056 0.06716
   1   5  20 7370.82  736.63   1-0.65826 0.78093 0.68383-0.36990 0.31473 0.50330
  -1   5  20 9555.77  926.85   1-0.75831 0.63557 0.64096-0.32709 0.11882 0.69932
   1  -5  21 4520.34  392.03   1-0.21935 0.34193 0.61987-0.93381 0.75341 0.10519
   1   5  21 4248.65  510.09   1-0.64433 0.76700 0.68665-0.37272 0.33665 0.52228
  -1   5  21 4253.25  451.69   1-0.74468 0.62202 0.64994-0.33601 0.15170 0.70723
   1   6   024591.90 1173.78   1-0.84056 0.96335 0.48232-0.10554-0.24660 0.24660
  -1  -6   024412.07 1140.87   1-0.62161 0.49896-0.00604-0.37078-0.78329 0.78329
  -1   6   023922.27 1153.50   1-0.62935 0.50669 0.00352 0.37329-0.77711 0.77711
   1   6  -143171.23  665.41   1 0.50050-0.37792 0.14040 0.23633 0.85427-0.89516
   1   6   148350.60  854.77   1-0.83800 0.96078 0.50591-0.12912-0.20447 0.24538
   1   6  -140934.05  711.89   1-0.84104 0.96383 0.45252-0.07573-0.29640 0.25549
  -1  -6  -140809.32  678.87   1-0.69675 0.57407 0.09350-0.47029-0.71118 0.67026
  -1   6   140946.37  766.15   1-0.67900 0.55634 0.06890 0.30791-0.73089 0.77179
  -1   6  -148411.63  829.03   1-0.57196 0.44930-0.06432 0.44114-0.81775 0.77685
   1  -6   288299.53 1355.23   1 0.50797-0.38539 0.13284-0.50959 0.85106-0.76927
   1   6  -277251.75 1111.37   1 0.30693-0.18442 0.31227 0.06434 0.89903-0.98073
   1   6   282436.51 1335.23   1-0.83417 0.95696 0.52547-0.14869-0.16740 0.24922
   1   6  -283963.17 1270.30   1-0.83718 0.95995 0.41191-0.03511-0.35977 0.27795
  -1  -6  -282694.54 1266.71   1-0.74242 0.61974 0.16546-0.54226-0.64916 0.56733
  -1   6   283868.45 1368.20   1-0.72100 0.59832 0.13031 0.24648-0.68056 0.76240
   1  -6   3104817.7 1567.69   1 0.43897-0.31638 0.19979-0.57654 0.87600-0.75332
   1   6  -399297.99 1402.79   1 0.03034 0.09221 0.50016-0.12343 0.86539-0.98805
   1   6   396232.29 1545.92   1-0.82947 0.95226 0.54228-0.16549-0.13381 0.25653
   1   6  -3103212.6 1505.72   1-0.82496 0.94772 0.35353 0.02326-0.44095 0.31822
  -1   6   3106310.5 1679.45   1-0.75488 0.63219 0.18734 0.18944-0.62853 0.75128
   1  -6   4100891.8 1576.73   1 0.36762-0.24504 0.26307-0.63981 0.89198-0.72841
   1   6  -495602.46 1345.60   1-0.29139 0.41396 0.64523-0.26856 0.70623-0.86977
   1   6   495898.96 1563.34   1-0.82437 0.94711 0.55679-0.18015-0.10193 0.26556
  -1   6   4101962.7 1647.16   1-0.78172 0.65904 0.23950 0.13728-0.57579 0.73946
   1   6  -495747.19 1380.28   1-0.79231 0.91499 0.26269 0.11410-0.55066 0.38699
   1  -6   534391.57  610.81   1 0.29627-0.17375 0.32065-0.69727 0.89966-0.69542
   1   6  -533396.48  499.84   1-0.55533 0.67791 0.69356-0.31694 0.45887-0.66330
   1   6   537090.70  760.37   1-0.81839 0.94113 0.57003-0.19339-0.07269 0.27722
  -1   6   535660.53  771.05   1-0.80243 0.67966 0.28661 0.09019-0.52340 0.72795
   1   6  -533760.45  523.25   1-0.71871 0.84139 0.12670 0.25008-0.68366 0.47907
   1  -6   6 7703.89  993.56   1 0.22821-0.10569 0.37182-0.74844 0.89981-0.65471
   1   6  -6 6197.50  299.21   1-0.70544 0.82811 0.66950-0.29278 0.23261-0.47802
   1   6   6 7935.39  501.25   1-0.81190 0.93464 0.58206-0.20542-0.04479 0.29023
  -1   6   6 7339.49  692.98   1-0.81779 0.69502 0.32935 0.04745-0.47195 0.71741
   1   6  -6 6433.14  312.88   1-0.58763 0.71028-0.04647 0.42330-0.80778 0.56241
  -1  -6   723681.54  605.01   1 0.42357-0.54615 0.21392-0.59067 0.88023-0.59398
   1  -6   724484.28  695.45   1 0.16505-0.04254 0.41589-0.79251 0.89430-0.60836
   1   6  -722253.60  577.01   1-0.77491 0.89765 0.62748-0.25083 0.07599-0.36234
   1   6   721549.68  715.31   1-0.80492 0.92766 0.59310-0.21646-0.01792 0.30427
  -1   6   722237.62  801.20   1-0.82866 0.70589 0.36787 0.00893-0.42188 0.70825
  -1  -6   8 6320.63  522.61   1 0.26376-0.38628 0.34558-0.72220 0.90055-0.57375
   1  -6   810195.12  858.17   1 0.10848 0.01408 0.45319-0.82992 0.88478-0.55769
   1   6   8 6804.05  665.85   1-0.79746 0.92021 0.60330-0.22666 0.00813 0.31911
   1   6  -8 9222.74  764.08   1-0.80785 0.93059 0.58867-0.21203-0.02886-0.29838
  -1   6   810251.24  920.68   1-0.83575 0.71299 0.40257-0.02576-0.37341 0.70069
  -1  -6   951244.25 1019.33   1 0.13331-0.25588 0.43732-0.81404 0.88936-0.52139
   1  -6   947240.18 1009.01   1 0.05831 0.06424 0.48386-0.86059 0.87319-0.50521
   1   6   948737.34 1170.74   1-0.78955 0.91229 0.61276-0.23611 0.03355 0.33460
   1   6  -946513.42  967.41   1-0.82456 0.94730 0.55631-0.17967-0.10297-0.26518
  -1   6   950959.01 1252.02   1-0.83994 0.71716 0.43351-0.05672-0.32642 0.69459
  -1  -6  1024727.89  570.61   1 0.03208-0.15464 0.49916-0.87589 0.86591-0.45705
   1  -6  1025217.76  638.94   1 0.01500 0.10755 0.50885-0.88558 0.86072-0.45186
   1   6  1022276.38  673.27   1-0.78118 0.90392 0.62155-0.24491 0.05845 0.35062
   1   6 -1023200.86  555.06   1-0.83300 0.95578 0.53017-0.15338-0.15819-0.25087
  -1   6  1026334.33  803.80   1-0.84120 0.71841 0.46177-0.08498-0.28132 0.69040
   1  -6  11 6148.22  867.22   1-0.02172 0.14429 0.52896-0.90569 0.84836-0.39861
  -1  -6  11 3288.57  490.24   1-0.04365-0.07890 0.54050-0.91723 0.84020-0.39045
   1   6  11 3113.74  435.36   1-0.77235 0.89509 0.62975-0.25311 0.08291 0.36706
   1   6 -11 4441.91  512.45   1-0.83801 0.96080 0.50583-0.12905-0.20460-0.24537
  -1   6  11 4507.13  598.33   1-0.84019 0.71740 0.48734-0.11056-0.23784 0.68782
   1  -6  1214685.80  680.38   1-0.05237 0.17493 0.54498-0.92171 0.83680-0.34617
  -1  -6  1214875.22  645.87   1-0.09956-0.02300 0.56832-0.94504 0.81676-0.32612
   1   6  1214735.85  774.37   1-0.76307 0.88581 0.63738-0.26074 0.10702 0.38385
  -1   6  1213739.28  756.53   1-0.83724 0.71445 0.51054-0.13375-0.19588 0.68677
   1  -6  13 6297.88  348.38   1-0.07746 0.20003 0.55761-0.93433 0.82648-0.29496
  -1  -6  13 5920.09  304.25   1-0.14048 0.01791 0.58717-0.96390 0.79717-0.26565
   1   6  13 4334.96  363.38   1-0.75364 0.87630 0.64410-0.26739 0.13098 0.40074
  -1   6  13 5691.95  425.23   1-0.83261 0.70983 0.53161-0.15482-0.15534 0.68714
   1  -6  14 2419.90  243.44   1-0.09763 0.22021 0.56739-0.94412 0.81763-0.24522
  -1  -6  14 2503.16  236.07   1-0.16995 0.04737 0.59996-0.97669 0.78176-0.20935
   1   6  14 1771.44  409.22   1-0.74343 0.86609 0.65071-0.27399 0.15453 0.41809
  -1   6  14 2704.78  419.37   1-0.82652 0.70374 0.55078-0.17400-0.11611 0.68881
   1  -6  1513065.46  737.42   1-0.11340 0.23598 0.57483-0.95156 0.81037-0.19707
   1   6  1513093.48  821.89   1-0.73275 0.85541 0.65683-0.28012 0.17787 0.43565
  -1   6  1512298.31  890.85   1-0.81949 0.69675 0.56778-0.19114-0.07776 0.69137
   1  -6  16 1655.29  318.06   1-0.12526 0.24784 0.58031-0.95703 0.80470-0.15052
   1   6  16 1167.88  325.78   1-0.72159 0.84425 0.66248-0.28577 0.20103 0.45339
  -1   6  16 1742.89  409.08   1-0.81092 0.68818 0.58372-0.20708-0.04084 0.69535
   1  -6  17 4394.79  609.20   1-0.13364 0.25622 0.58411-0.96083 0.80059-0.10552
   1   6  17 3833.38  611.66   1-0.70993 0.83259 0.66767-0.29096 0.22403 0.47129
  -1   6  17 3590.52  632.76   1-0.80128 0.67854 0.59826-0.22162-0.00491 0.70033
   1  -6  18 2470.65  414.27   1-0.13893 0.26150 0.58648-0.96320 0.79795-0.06200
   1   6  18 3291.61  594.95   1-0.69778 0.82044 0.67241-0.29569 0.24691 0.48932
  -1   6  18 2365.32  457.73   1-0.79066 0.66791 0.61151-0.23487 0.03012 0.70620
   1  -6  19 2902.98  524.05   1-0.14142 0.26399 0.58759-0.96431 0.79670-0.01986
   1   6  19 2804.47  601.30   1-0.68511 0.80777 0.67668-0.29997 0.26967 0.50746
  -1   6  19 4674.13  661.08   1-0.77911 0.65636 0.62357-0.24693 0.06434 0.71288
   1  -6  20  648.25  168.24   1-0.14138 0.26396 0.58757-0.96430 0.79671 0.02100
   1   6  20  469.86  251.60   1-0.67190 0.79457 0.68050-0.30378 0.29232 0.52570
  -1   6  20  767.64  362.35   1-0.76668 0.64393 0.63453-0.25788 0.09783 0.72030
   1   7   022364.38 1092.51   1-0.84106 0.96385 0.47187-0.03229-0.26447 0.26447
  -1   7   022076.29 1082.71   1-0.66603 0.54338 0.05110 0.38852-0.74416 0.74416
  -1  -7   020833.67  984.21   1-0.55627 0.43362-0.08172-0.35789-0.82697 0.82697
   1   7  -129403.33 1362.53   1 0.44212-0.31954 0.19687 0.24265 0.87508-0.91597
   1   7   139091.40  778.94   1-0.83952 0.96230 0.49433-0.05474-0.22548 0.26639
   1   7  -130957.51 2532.59   1-0.84073 0.96352 0.44498-0.00539-0.30847 0.26756
  -1   7   131376.09 2575.32   1-0.70586 0.58318 0.10700 0.33259-0.70021 0.74113
  -1   7  -136474.62  708.03   1-0.62062 0.49797-0.00726 0.44688-0.78407 0.74317
  -1  -7  -128554.98 1339.16   1-0.63460 0.51195 0.01011-0.44973-0.77277 0.73187
   1   7  -238447.83  600.80   1 0.27908-0.15656 0.33395 0.10543 0.90032-0.98202
   1   7   246875.98  898.95   1-0.83668 0.95947 0.51364-0.07405-0.19007 0.27189
   1   7  -241073.33  724.45   1-0.83707 0.95984 0.41114 0.02846-0.36091 0.27909
  -1   7   241049.07  808.12   1-0.73921 0.61653 0.16001 0.27957-0.65417 0.73601
  -1   7  -242284.55  776.92   1-0.56974 0.44708-0.06681 0.50644-0.81910 0.73731
   1  -7   310049.17  851.66   1 0.51445-0.39186 0.12623-0.56576 0.84817-0.72549
   1   7  -3 9531.26  862.63   1 0.06470 0.05785 0.48006-0.04055 0.87484-0.99750
   1   7   310136.56  897.34   1-0.83288 0.95566 0.53063-0.09104-0.15729 0.28001
   1   7  -3 9859.01  828.92   1-0.82858 0.95135 0.36756 0.07204-0.42229 0.29956
  -1   7   310421.03  933.91   1-0.76678 0.64409 0.20949 0.23009-0.60675 0.72951
   1  -7   424767.04  699.96   1 0.45590-0.33332 0.18392-0.62346 0.87081-0.70724
   1   7  -422492.37  576.63   1-0.18631 0.30889 0.60677-0.16726 0.77272-0.93627
   1   7   422700.61  743.77   1-0.82828 0.95107 0.54583-0.10625-0.12647 0.29010
   1   7  -424207.67  648.93   1-0.81077 0.93353 0.30868 0.13092-0.49735 0.33371
  -1   7   425396.41  806.68   1-0.78901 0.66632 0.25526 0.18433-0.55883 0.72251
   1  -7   559740.31 1538.85   1 0.39604-0.27346 0.23852-0.67805 0.88670-0.68224
   1   7  -558655.46 1447.37   1-0.42849 0.55107 0.68043-0.24097 0.59447-0.79890
   1   7   556330.71 1548.74   1-0.82331 0.94605 0.55932-0.11991-0.09645 0.30099
  -1   7   560189.03 1646.41   1-0.80651 0.68375 0.29713 0.14247-0.51112 0.71567
   1   7  -557735.35 1442.60   1-0.77555 0.89824 0.22678 0.21281-0.58913 0.38453
   1  -7   679095.80 2002.44   1 0.33629-0.21377 0.28866-0.72805 0.89642-0.65133
   1   7  -676677.31 1882.98   1-0.61110 0.73368 0.69115-0.25177 0.38580-0.63112
   1   7   680248.40 2141.39   1-0.81744 0.94018 0.57193-0.13251-0.06838 0.31382
  -1   7   677430.52 2098.61   1-0.81976 0.69700 0.33564 0.10396-0.46403 0.70949
   1   7  -675206.32 1858.58   1-0.71409 0.83678 0.11953 0.32005-0.68976 0.44425
   1  -7   723654.69  567.24   1 0.27913-0.15661 0.33391-0.77331 0.90032-0.61437
   1   7  -723117.99  485.32   1-0.72158 0.84424 0.66249-0.22299 0.20104-0.48736
   1   7   725950.12  770.62   1-0.81102 0.93376 0.58356-0.14414-0.04123 0.32758
  -1   7   723790.59  735.06   1-0.82936 0.70660 0.37083 0.06877-0.41788 0.70425
   1   7  -722949.47  490.09   1-0.62056 0.74321-0.00733 0.44696-0.78412 0.49785
  -1  -7   8  447.39   58.66   1 0.50719-0.62977 0.13364-0.57317 0.85140-0.52426
   1  -7   8  725.87  100.40   1 0.22557-0.10305 0.37373-0.81312 0.89969-0.57289
   1   7  -8  533.53   63.88   1-0.77990 0.90264 0.62280-0.18339 0.06209-0.38934
   1   7   8  824.78  328.79   1-0.80407 0.92681 0.59434-0.15493-0.01481 0.34207
  -1   7   8  366.53  262.29   1-0.83581 0.71305 0.40295 0.03665-0.37287 0.70015
  -1  -7   912597.34  289.93   1 0.39005-0.51263 0.24377-0.68330 0.88793-0.51989
   1  -7   916305.20 1120.88   1 0.17657-0.05405 0.40809-0.84748 0.89570-0.52805
   1   7  -914678.99  364.01   1-0.81067 0.93341 0.58414-0.14472-0.03984-0.32831
   1   7   913800.99  552.33   1-0.79661 0.91935 0.60438-0.16497 0.01099 0.35717
  -1   7   916106.71  670.23   1-0.83981 0.71702 0.43194 0.00763-0.32883 0.69700
  -1  -7  1024682.89 1048.14   1 0.28215-0.40466 0.33160-0.77099 0.90023-0.49174
   1  -7  1021837.48 1060.75   1 0.13315-0.01059 0.43742-0.87694 0.88934-0.48047
   1   7  1026672.04 1250.21   1-0.78866 0.91140 0.61375-0.17434 0.03630 0.37276
  -1   7  1022444.94 1092.00   1-0.84118 0.71839 0.45874-0.01916-0.28629 0.69537
  -1  -7  11 3026.87  470.30   1 0.19186-0.31438 0.39757-0.83696 0.89728-0.44794
   1  -7  11 5083.17  811.33   1 0.09462 0.02793 0.46185-0.90137 0.88189-0.43214
   1   7  11 3682.85  506.94   1-0.78021 0.90295 0.62250-0.18308 0.06120 0.38876
  -1   7  11 4895.27  647.37   1-0.84050 0.71771 0.48326-0.04367-0.24498 0.69496
  -1  -7  1230657.31 1185.18   1 0.11979-0.24235 0.44602-0.88554 0.88696-0.39633
   1  -7  1234908.59 1397.49   1 0.06136 0.06119 0.48205-0.92157 0.87398-0.38335
   1   7  1232729.61 1418.93   1-0.77129 0.89403 0.63067-0.19126 0.08576 0.40512
  -1   7  1233743.07 1456.34   1-0.83803 0.71524 0.50570-0.06612-0.20484 0.69574
   1  -7  13 5440.24  636.18   1 0.03314 0.08941 0.49855-0.93807 0.86622-0.33470
   1   7  13 6003.09  548.89   1-0.76187 0.88462 0.63830-0.19889 0.11002 0.42176
  -1   7  13 6326.96  578.81   1-0.83397 0.71119 0.52628-0.08670-0.16583 0.69763
   1  -7  14 4242.42  663.45   1 0.00964 0.11292 0.51185-0.95136 0.85901-0.28661
   1   7  14 4816.71  723.67   1-0.75228 0.87494 0.64502-0.20553 0.13419 0.43843
  -1   7  14 5355.04  750.34   1-0.82851 0.70572 0.54516-0.10558-0.12786 0.70056
   1  -7  15 1898.26  421.71   1-0.00951 0.13207 0.52238-0.96190 0.85265-0.23936
   1   7  15 2014.72  446.55   1-0.74189 0.86455 0.65163-0.21214 0.15797 0.45555
  -1   7  15  966.29  291.94   1-0.82214 0.69940 0.56203-0.12262-0.09052 0.70413
   1  -7  1614164.14  667.91   1-0.02469 0.14725 0.53054-0.97006 0.84729-0.19311
   1   7  1612138.58  714.04   1-0.73101 0.85367 0.65776-0.21826 0.18156 0.47286
  -1   7  1614639.39  867.35   1-0.81424 0.69149 0.57796-0.13855-0.05445 0.70896
   1  -7  17 3828.11  768.19   1-0.03624 0.15880 0.53664-0.97615 0.84303-0.14796
   1   7  17 4430.86  677.86   1-0.71962 0.84228 0.66341-0.22391 0.20500 0.49032
  -1   7  17 3471.21  572.63   1-0.80527 0.68253 0.59259-0.15317-0.01920 0.71462
   1   7  18 1345.75  413.98   1-0.70771 0.83037 0.66859-0.22909 0.22830 0.50792
  -1   7  18 1399.91  460.30   1-0.79530 0.67256 0.60601-0.16659 0.01528 0.72104
   1   7  19 1430.83  326.72   1-0.69528 0.81794 0.67330-0.23380 0.25148 0.52564
  -1   7  19 1726.35  333.24   1-0.78440 0.66166 0.61830-0.17888 0.04908 0.72814
   1   8   0 1318.12  207.87   1 0.49579-0.37321 0.14512 0.35719 0.85622-0.85622
   1   8   0 1466.52  200.33   1-0.84106 0.96385 0.47176 0.03061-0.26466 0.26466
  -1   8   0 1837.21  280.20   1-0.69823 0.57555 0.09566 0.40672-0.70944 0.70944
   1   8  -1 5139.32  608.44   1 0.38824-0.26565 0.24535 0.25696 0.88829-0.92918
   1   8   1 3869.40  405.80   1-0.83978 0.96256 0.49183 0.01054-0.22992 0.27083
   1   8  -1 4888.98  461.84   1-0.84091 0.96370 0.44876 0.05361-0.30244 0.26153
  -1   8   1 7124.63  715.04   1-0.72962 0.60693 0.14411 0.35827-0.66849 0.70941
  -1   8  -1 4221.03  426.61   1-0.66178 0.53912 0.04538 0.45704-0.74832 0.70742
   1   8  -213859.24 1134.42   1 0.24537-0.12285 0.35929 0.14286 0.90038-0.98208
   1   8   213291.60 1139.54   1-0.83738 0.96017 0.50968-0.00730-0.19747 0.27929
   1   8  -216231.38 1349.54   1-0.83842 0.96118 0.42145 0.08095-0.34556 0.26374
  -1   8   215490.78 1317.19   1-0.75639 0.63370 0.19008 0.31230-0.62588 0.70772
  -1   8  -212894.33 1105.79   1-0.62133 0.49868-0.00638 0.50881-0.78351 0.70172
   1   8  -3  226.60   60.38   1 0.06745 0.05510 0.47842 0.02388 0.87553-0.99819
   1   8   3  413.62  196.94   1-0.83409 0.95688 0.52579-0.02341-0.16679 0.28951
   1   8  -3  115.65  101.87   1-0.83326 0.95602 0.38877 0.11363-0.39310 0.27037
  -1   8   3  622.00  234.80   1-0.77874 0.65606 0.23329 0.26909-0.58234 0.70509
  -1   8  -3  775.35  242.37   1-0.57701 0.45436-0.05861 0.56104-0.81462 0.69193
   1  -8   426079.38  649.60   1 0.52974-0.40716 0.11036-0.61268 0.84094-0.67737
   1   8  -421802.94  466.46   1-0.13881 0.26139 0.58643-0.08413 0.79801-0.96155
   1   8   425546.80  724.05   1-0.83004 0.95282 0.54049-0.03811-0.13747 0.30110
   1   8  -423061.08  542.91   1-0.82346 0.94623 0.34815 0.15425-0.44798 0.28434
  -1   8   424618.55  735.55   1-0.79706 0.67429 0.27346 0.22894-0.53843 0.70207
   1  -8   570651.64 1508.13   1 0.48028-0.35769 0.16046-0.66279 0.86231-0.65784
   1   8  -565128.79 1271.48   1-0.35026 0.47283 0.66262-0.16039 0.66200-0.86642
   1   8   575404.60 1694.64   1-0.82559 0.94833 0.55372-0.05154-0.10851 0.31304
  -1   8   566415.15 1515.38   1-0.81157 0.68880 0.31092 0.19148-0.49464 0.69919
   1   8  -564673.05 1301.82   1-0.80623 0.92900 0.29640 0.20601-0.51198 0.30743
   1  -8   6 7248.16  638.87   1 0.43005-0.30747 0.20801-0.71033 0.87851-0.63315
   1   8  -6 6019.68  162.75   1-0.53385 0.65643 0.69298-0.19082 0.48453-0.72985
  -1   8   6 6332.91  404.83   1-0.82273 0.69997 0.34560 0.15680-0.45128 0.69674
   1   8  -6 6517.80  204.66   1-0.77671 0.89940 0.22913 0.27326-0.58669 0.34118
   1  -8   756456.16 2348.21   1 0.38034-0.25776 0.25219-0.75451 0.88979-0.60354
   1   8  -755491.58 2258.35   1-0.66730 0.78996 0.68169-0.17940 0.30000-0.58631
   1   8   758376.34 2501.48   1-0.81428 0.93702 0.57789-0.07570-0.05461 0.34096
  -1   8   757859.18 2495.37   1-0.83093 0.70816 0.37765 0.12475-0.40856 0.69493
   1   8  -756872.76 2320.03   1-0.73096 0.85365 0.14631 0.35608-0.66654 0.38010
   1  -8   8 6927.82 1039.03   1 0.33185-0.20934 0.29228-0.79444 0.89690-0.57011
   1   8   8 4491.28  573.26   1-0.80778 0.93052 0.58878-0.08659-0.02859 0.35584
  -1   8   8 7161.07  851.08   1-0.83649 0.71373 0.40724 0.09517-0.36664 0.69392
   1   8  -8 7071.07  760.74   1-0.66519 0.78784 0.04996 0.45246-0.74499 0.41783
   1  -8   9 8952.31  977.61   1 0.28647-0.16396 0.32826-0.83042 0.90009-0.53245
   1   8   9 7795.35  922.12   1-0.80074 0.92349 0.59899-0.09680-0.00304 0.37120
  -1   8   910328.43 1193.63   1-0.84000 0.71721 0.43421 0.06816-0.32533 0.69350
   1   8  -9 9321.47  999.64   1-0.58568 0.70833-0.04872 0.55115-0.80907 0.44100
   1  -8  1012236.90  543.92   1 0.24453-0.12202 0.35990-0.86207 0.90037-0.49187
   1   8  1013416.99  709.31   1-0.79319 0.91593 0.60856-0.10637 0.02210 0.38696
  -1   8  1012896.60  754.91   1-0.84118 0.71839 0.45940 0.04297-0.28522 0.69430
   1  -8  1117276.86  790.06   1 0.20651-0.08399 0.38732-0.88948 0.89851-0.44917
   1   8  1117537.78  891.62   1-0.78513 0.90787 0.61754-0.11535 0.04692 0.40305
  -1   8  1118161.91  908.82   1-0.84054 0.71775 0.48265 0.01972-0.24603 0.69601
   1  -8  12 5873.17  899.58   1 0.17266-0.05014 0.41075-0.91291 0.89524-0.40505
   1   8  12 6874.87  680.56   1-0.77656 0.89930 0.62596-0.12378 0.07145 0.41943
  -1   8  12 6110.92  599.17   1-0.83826 0.71547 0.50413-0.00175-0.20773 0.69863
   1  -8  1388418.03 4330.41   1 0.14362-0.02105 0.43059-0.93289 0.89104-0.35952
   1   8  1397954.5013712.98   1-0.76749 0.89023 0.63386-0.13167 0.09573 0.43605
  -1   8  1393130.16 4616.41   1-0.83452 0.71173 0.52398-0.02160-0.17031 0.70211
   1  -8  14 2679.59  545.65   1 0.11823 0.00432 0.44702-0.94932 0.88667-0.31426
   1   8  14 4838.44  781.31   1-0.75820 0.88086 0.64087-0.13859 0.12000 0.45262
  -1   8  14 2706.50  536.84   1-0.82945 0.70666 0.54233-0.03995-0.13370 0.70641
   1  -8  1519220.73 1650.12   1 0.09686 0.02570 0.46047-0.96277 0.88237-0.26908
   1   8  1521090.64 1016.21   1-0.74812 0.87078 0.64777-0.14549 0.14388 0.46964
  -1   8  1521756.47 1070.03   1-0.82352 0.70078 0.55883-0.05664-0.09751 0.71112
   1  -8  16 5865.64 1122.23   1 0.07929 0.04326 0.47126-0.97357 0.87841-0.22423
   1   8  16 6727.93  659.93   1-0.73752 0.86018 0.65419-0.15190 0.16760 0.48682
  -1   8  16 7163.28  764.39   1-0.81610 0.69336 0.57452-0.07233-0.06243 0.71695
   1   8  17 1903.23  453.39   1-0.72640 0.84906 0.66013-0.15785 0.19118 0.50414
  -1   8  17 2644.77  579.25   1-0.80763 0.68489 0.58901-0.08682-0.02803 0.72345
   1   8  18 6095.48  593.74   1-0.71476 0.83742 0.66561-0.16332 0.21465 0.52158
  -1   8  18 6078.23  564.02   1-0.79818 0.67543 0.60239-0.10020 0.00575 0.73057
   1   9   0146436.315471.24   1-0.84078 0.96357 0.47859 0.08658-0.25303 0.25303
  -1   9   0143463.9 2911.79   1-0.72603 0.60334 0.13831 0.42687-0.67360 0.67360
   1   9  -112450.82  325.67   1 0.33553-0.21302 0.28928 0.27564 0.89650-0.93735
   1   9   114518.23  495.33   1-0.83934 0.96213 0.49588 0.06929-0.22270 0.26361
   1   9  -114963.13  461.75   1-0.84118 0.96397 0.45953 0.10564-0.28501 0.24410
  -1   9   112946.84  473.66   1-0.75098 0.62830 0.18036 0.38482-0.63520 0.67612
  -1   9  -114265.97  490.72   1-0.69748 0.57480 0.09456 0.47062-0.71032 0.66941
   1   9  -223969.00  534.09   1 0.20753-0.08502 0.38660 0.17833 0.89859-0.98029
   1   9   225806.37  730.68   1-0.83703 0.95982 0.51173 0.05344-0.19365 0.27547
   1   9  -227577.69  689.07   1-0.84031 0.96310 0.43821 0.12696-0.31911 0.23729
  -1   9   227681.21  783.30   1-0.77238 0.64970 0.22043 0.34476-0.59567 0.67751
  -1   9  -224763.98  672.30   1-0.66499 0.54234 0.04970 0.51552-0.74518 0.66339
   1   9  -325819.48 1079.83   1 0.05329 0.06927 0.48683 0.07825 0.87186-0.99452
   1   9   328647.12 1292.46   1-0.83395 0.95674 0.52639 0.03878-0.16561 0.28834
   1   9  -326231.73 1137.24   1-0.83741 0.96017 0.41355 0.15166-0.35736 0.23463
  -1   9   327214.39 1244.31   1-0.79038 0.66770 0.25832 0.30686-0.55548 0.67823
  -1   9  -326206.49 1159.21   1-0.62971 0.50706 0.00398 0.56125-0.77681 0.65412
   1   9  -416292.70  691.86   1-0.12331 0.24589 0.57941-0.01433 0.80564-0.96918
   1   9   415209.92  765.66   1-0.83018 0.95296 0.54004 0.02513-0.13839 0.30202
   1   9  -418099.26  796.13   1-0.83254 0.95530 0.38518 0.18002-0.39812 0.23448
  -1   9   418129.81  910.33   1-0.80525 0.68248 0.29383 0.27138-0.51500 0.67864
  -1   9  -414419.70  683.11   1-0.59168 0.46902-0.04179 0.60702-0.80508 0.64150
   1   9   512979.26  694.59   1-0.82606 0.94880 0.55252 0.01244-0.11108 0.31562
   1   9  -514024.92  625.87   1-0.82438 0.94714 0.35142 0.21378-0.44372 0.23917
  -1   9   512526.14  677.11   1-0.81710 0.69434 0.32723 0.23797-0.47460 0.67915
  -1   9  -510992.09  524.95   1-0.55154 0.42888-0.08689 0.65212-0.82961 0.62512
   1  -9   639172.91 1696.75   1 0.51014-0.38755 0.13064-0.69575 0.85010-0.60475
   1   9   640159.06 1775.95   1-0.82104 0.94378 0.56448 0.00047-0.08512 0.33056
  -1   9   637285.54 1672.66   1-0.82628 0.70351 0.35845 0.20675-0.43447 0.67993
   1   9  -637058.72 1539.94   1-0.81136 0.93413 0.31035 0.25486-0.49534 0.24988
   1  -9   729115.70 1207.02   1 0.46817-0.34559 0.17221-0.73733 0.86669-0.58043
   1   9   728476.26 1241.36   1-0.81544 0.93818 0.57575-0.01079-0.05960 0.34595
  -1   9   726685.81 1229.54   1-0.83302 0.71025 0.38757 0.17763-0.39478 0.68115
   1   9  -727797.12 1084.61   1-0.79066 0.91335 0.25896 0.30623-0.55477 0.26834
   1  -9   832065.56 1278.00   1 0.42667-0.30408 0.21110-0.77622 0.87942-0.55227
   1   9   833459.09 1439.28   1-0.80930 0.93204 0.58637-0.02141-0.03445 0.36171
  -1   9   832843.50 1429.51   1-0.83757 0.71480 0.41470 0.15050-0.35565 0.68293
   1  -9   919612.59  849.74   1 0.38648-0.26390 0.24687-0.81199 0.88863-0.52060
   1   9   919246.26  966.37   1-0.80262 0.92536 0.59641-0.03145-0.00961 0.37777
  -1   9   921169.91 1026.08   1-0.84041 0.71762 0.43966 0.12551-0.31685 0.68502
   1  -9  1012772.47  588.16   1 0.34781-0.22530 0.27917-0.84410 0.89503-0.48654
   1   9  1012781.47  730.71   1-0.79540 0.91815 0.60588-0.04092 0.01495 0.39411
  -1   9  1013729.60  752.76   1-0.84120 0.71841 0.46317 0.10200-0.27901 0.68809
   1  -9  11 2037.98  385.74   1 0.31225-0.18974 0.30805-0.87298 0.89866-0.44932
   1   9  11 3425.28  543.41   1-0.78767 0.91041 0.61483-0.04987 0.03930 0.41067
  -1   9  11 2413.56  442.44   1-0.84037 0.71758 0.48505 0.08012-0.24186 0.69184
   1  -9  12 9011.04  921.64   1 0.27975-0.15723 0.33344-0.89837 0.90030-0.41011
   1   9  12 6078.97  816.44   1-0.77942 0.90216 0.62327-0.05830 0.06345 0.42742
  -1   9  1210436.28  714.19   1-0.83807 0.71528 0.50542 0.05975-0.20537 0.69627
   1  -9  13 4352.77  924.39   1 0.25055-0.12804 0.35545-0.92038 0.90048-0.36944
   1   9  13 5594.89  826.24   1-0.77065 0.89340 0.63121-0.06625 0.08744 0.44434
  -1   9  13 4918.65  852.17   1-0.83443 0.71164 0.52437 0.04080-0.16955 0.70135
   1  -9  14 2186.96  451.15   1 0.22482-0.10230 0.37427-0.93920 0.89965-0.32776
   1   9  14 4494.12  736.30   1-0.76137 0.88411 0.63869-0.07372 0.11128 0.46141
  -1   9  14 1931.79  373.71   1-0.82955 0.70676 0.54201 0.02316-0.13435 0.70706
   1   9  15 5762.32  640.45   1-0.75185 0.87451 0.64532-0.08025 0.13521 0.47831
  -1   9  15 5756.89  632.48   1-0.82388 0.70114 0.55797 0.00698-0.09938 0.71298
   1   9  16  609.52  270.44   1-0.74152 0.86418 0.65186-0.08679 0.15880 0.49563
  -1   9  16  895.25  398.51   1-0.81677 0.69403 0.57324-0.00828-0.06538 0.71989
   1   9  17 8317.87  758.11   1-0.73066 0.85332 0.65794-0.09287 0.18229 0.51303
  -1   9  17 6965.39  655.75   1-0.80864 0.68590 0.58742-0.02246-0.03192 0.72734
   1  10   0 5478.14  642.85   1-0.83993 0.96272 0.49022 0.13775-0.23277 0.23277
  -1  10   0 5975.90  756.20   1-0.75042 0.62774 0.17937 0.44861-0.63614 0.63614
   1  10   134432.93 1423.12   1-0.83818 0.96097 0.50468 0.12329-0.20673 0.24764
   1  10  -135342.17 1440.89   1-0.84095 0.96374 0.47485 0.15311-0.25941 0.21851
  -1  10   131407.78 1324.49   1-0.77012 0.64743 0.21597 0.41202-0.60022 0.64113
  -1  10  -133103.05 1367.63   1-0.72794 0.60525 0.14139 0.48660-0.67090 0.62998
   1  10   217616.69  833.17   1-0.83576 0.95855 0.51834 0.10963-0.18116 0.26298
   1  10  -217105.09  749.29   1-0.84117 0.96396 0.45843 0.16954-0.28681 0.20499
  -1  10   216508.73  784.90   1-0.78707 0.66439 0.25098 0.37701-0.56349 0.64532
  -1  10  -216615.32  763.26   1-0.70270 0.58002 0.10228 0.52571-0.70408 0.62225
   1  10   350089.00 2028.68   1-0.83270 0.95549 0.53128 0.09668-0.15599 0.27871
   1  10  -345774.82 1801.58   1-0.84048 0.96327 0.44073 0.18724-0.31517 0.19245
  -1  10   344292.35 1827.16   1-0.80145 0.67869 0.28416 0.34384-0.52622 0.64895
  -1  10  -346537.63 1853.99   1-0.67441 0.55176 0.06255 0.56548-0.73569 0.61300
   1  10   4  841.38  201.86   1-0.82904 0.95183 0.54358 0.08439-0.13113 0.29476
   1  10  -4  408.32   94.93   1-0.83836 0.96113 0.42097 0.20703-0.34628 0.18264
  -1  10   4  762.45  224.47   1-0.81325 0.69048 0.31572 0.31229-0.48881 0.65245
  -1  10  -4  553.47  168.68   1-0.64421 0.52156 0.02235 0.60568-0.76451 0.60092
   1  10   515801.04  758.11   1-0.82509 0.94783 0.55499 0.07274-0.10580 0.31034
   1  10  -517828.86  745.78   1-0.83524 0.95800 0.39953 0.22847-0.37780 0.17325
  -1  10   516404.56  806.89   1-0.82271 0.69994 0.34551 0.28249-0.45139 0.65594
  -1  10  -515093.25  687.43   1-0.61207 0.48942-0.01766 0.64569-0.79060 0.58612
   1  10   6 7656.12  622.68   1-0.82028 0.94303 0.56611 0.06162-0.08150 0.32695
  -1  10   6 5732.29  516.73   1-0.83001 0.70724 0.37358 0.25442-0.41413 0.65959
  -1  10  -6 6998.99  532.76   1-0.57847 0.45582-0.05696 0.68499-0.81370 0.56832
   1  10   7 6847.37  600.38   1-0.81493 0.93767 0.57670 0.05103-0.05739 0.34374
  -1  10   7 5899.90  553.70   1-0.83532 0.71255 0.39998 0.22802-0.37715 0.66352
   1 -10   8 6139.77  827.88   1 0.50940-0.38681 0.13139-0.75929 0.85043-0.52329
   1  10   8 6469.27  564.13   1-0.80904 0.93178 0.58679 0.04093-0.03344 0.36069
  -1  10   8 7482.90  683.99   1-0.83907 0.71628 0.42450 0.20347-0.34021 0.66747
   1 -10   947380.97 2352.01   1 0.47508-0.35250 0.16553-0.79343 0.86422-0.49618
   1  10   946029.03 2360.66   1-0.80262 0.92536 0.59641 0.03132-0.00962 0.37778
  -1  10   948886.89 2505.01   1-0.84087 0.71808 0.44776 0.18021-0.30404 0.67221
   1 -10  10 3449.58  591.36   1 0.44182-0.31924 0.19714-0.82504 0.87516-0.46623
   1  10  10 5663.07  761.89   1-0.79567 0.91841 0.60555 0.02217 0.01408 0.39498
  -1  10  10 2689.20  464.66   1-0.84112 0.71833 0.46957 0.15840-0.26834 0.67742
   1 -10  11 1102.28  240.59   1 0.41017-0.28758 0.22601-0.85391 0.88355-0.43373
   1  10  11 3064.65  527.38   1-0.78820 0.91095 0.61425 0.01348 0.03768 0.41229
  -1  10  11  911.39  414.48   1-0.83995 0.71716 0.49002 0.13794-0.23312 0.68311
   1  10  12 1420.98  405.79   1-0.78022 0.90296 0.62250 0.00523 0.06119 0.42968
  -1  10  12  586.01  279.47   1-0.83747 0.71468 0.50919 0.11878-0.19839 0.68928
   1  10  13 2344.24  460.19   1-0.77171 0.89445 0.63031-0.00257 0.08463 0.44715
  -1  10  13 2749.18  537.61   1-0.83376 0.71097 0.52714 0.10082-0.16414 0.69594
   1  10  14 2470.20  491.00   1-0.76268 0.88542 0.63769-0.00995 0.10801 0.46468
  -1  10  14  504.86  277.24   1-0.82892 0.70613 0.54395 0.08401-0.13036 0.70307
   1  10  15 6000.17  665.01   1-0.75338 0.87604 0.64427-0.01642 0.13158 0.48194
  -1  10  15 5403.81  626.89   1-0.82335 0.70061 0.55924 0.06849-0.09664 0.71024
   1  10  16 5181.75  531.87   1-0.74329 0.86595 0.65079-0.02294 0.15484 0.49958
  -1  10  16 5978.74  645.65   1-0.81640 0.69366 0.57394 0.05379-0.06377 0.71828
   1  11   040828.10 1700.17   1-0.83809 0.96088 0.50527 0.18549-0.20564 0.20564
  -1  11   038448.50 1631.58   1-0.77177 0.64909 0.21922 0.47156-0.59690 0.59690
   1  11   115342.83  750.07   1-0.83603 0.95882 0.51700 0.17377-0.18372 0.22462
   1  11  -113753.38  668.03   1-0.83963 0.96241 0.49329 0.19747-0.22732 0.18641
  -1  11   113272.49  709.47   1-0.78712 0.66443 0.25108 0.43971-0.56338 0.60430
  -1  11  -115879.96  771.84   1-0.75427 0.63159 0.18625 0.50454-0.62958 0.58866
   1  11   212051.20  620.15   1-0.83344 0.95623 0.52843 0.16233-0.16161 0.24343
   1  11  -212615.22  602.74   1-0.84064 0.96342 0.48111 0.20965-0.24869 0.16687
  -1  11   211502.30  676.98   1-0.80041 0.67765 0.28159 0.40922-0.52918 0.61100
  -1  11  -212265.86  633.96   1-0.73463 0.61194 0.15234 0.53844-0.66114 0.57930
   1  11   317987.41  869.00   1-0.83033 0.95311 0.53955 0.15121-0.13937 0.26210
   1  11  -321391.15  919.60   1-0.84113 0.96392 0.46881 0.22195-0.26961 0.14689
  -1  11   320685.72  979.66   1-0.81155 0.68879 0.31088 0.37993-0.49469 0.61742
  -1  11  -318113.59  844.43   1-0.71293 0.59024 0.11774 0.57305-0.69127 0.56852
   1  11   412971.06  679.68   1-0.82669 0.94947 0.55035 0.14042-0.11703 0.28066
  -1  11   415941.30  817.66   1-0.82073 0.69796 0.33881 0.35200-0.46000 0.62364
  -1  11  -412478.76  645.60   1-0.68886 0.56621 0.08285 0.60798-0.72013 0.55655
   1  11   5 4629.81  650.63   1-0.82280 0.94554 0.56051 0.12999-0.09386 0.29839
  -1  11   5 4110.91  597.30   1-0.82804 0.70528 0.36536 0.32544-0.42526 0.62981
  -1  11  -5 3933.15  540.20   1-0.66356 0.54091 0.04777 0.64306-0.74659 0.54211
   1  11   630292.80 1615.11   1-0.81811 0.94086 0.57059 0.11991-0.07142 0.31686
  -1  11   629293.23 1576.29   1-0.83360 0.71084 0.39056 0.30025-0.39058 0.63604
  -1  11  -628613.87 1463.08   1-0.63690 0.51425 0.01302 0.67781-0.77083 0.52545
   1  11   7 1674.52  335.12   1-0.81291 0.93565 0.58032 0.11018-0.04892 0.33527
  -1  11   7 1152.23  288.89   1-0.83753 0.71477 0.41443 0.27638-0.35605 0.64242
  -1  11  -7 1214.06  212.46   1-0.60927 0.48662-0.02102 0.71186-0.79267 0.50640
   1  11   8 2166.17  418.99   1-0.80719 0.92993 0.58969 0.10081-0.02637 0.35362
  -1  11   8 3723.59  708.10   1-0.84020 0.71741 0.43674 0.25403-0.32141 0.64867
  -1  11  -8 2117.82  359.76   1-0.58112 0.45846-0.05395 0.74479-0.81202 0.48485
   1  11   933243.22 1806.94   1-0.80096 0.92370 0.59870 0.09180-0.00378 0.37194
  -1  11   929973.75 1651.62   1-0.84117 0.71838 0.45807 0.23270-0.28740 0.65557
  -1  11  -925636.55 1347.67   1-0.55291 0.43025-0.08540 0.77624-0.82885 0.46078
   1  11  10 2116.67  403.72   1-0.79421 0.91695 0.60734 0.08316 0.01884 0.39022
  -1  11  10 1064.24  295.43   1-0.84080 0.71801 0.47821 0.21256-0.25369 0.66277
   1  11  1110669.84  931.27   1-0.78695 0.90969 0.61561 0.07489 0.04150 0.40847
  -1  11  1110744.64  929.79   1-0.83919 0.71640 0.49721 0.19356-0.22031 0.67030
   1  11  1216209.83 1271.84   1-0.77916 0.90190 0.62352 0.06698 0.06418 0.42669
  -1  11  1216719.72 1314.51   1-0.83640 0.71361 0.51513 0.17564-0.18726 0.67816
   1  11  13  694.19  385.92   1-0.77086 0.89360 0.63104 0.05946 0.08689 0.44489
  -1  11  13  577.54  277.86   1-0.83251 0.70972 0.53201 0.15876-0.15455 0.68635
   1  11  14 1934.81  345.44   1-0.76203 0.88477 0.63818 0.05232 0.10963 0.46306
  -1  11  14 2081.23  413.93   1-0.82757 0.70478 0.54790 0.14287-0.12217 0.69488
   1  12   0 4987.09  756.28   1-0.83479 0.95758 0.52281 0.23075-0.17258 0.17258
  -1  12   0 4846.06  753.07   1-0.79029 0.66761 0.25812 0.49546-0.55570 0.55570
   1  12   1  545.92  263.52   1-0.83252 0.95531 0.53195 0.22162-0.15467 0.19558
  -1  12   1  154.36  214.46   1-0.80207 0.67931 0.28572 0.46788-0.52443 0.56534
  -1  12  -1 1144.44  328.02   1-0.77693 0.65425 0.22957 0.52401-0.58622 0.54530
   1  12   2 2266.36  393.77   1-0.82981 0.95260 0.54120 0.21236-0.13601 0.21782
  -1  12   2 3468.77  587.69   1-0.81211 0.68934 0.31245 0.44115-0.49278 0.57460
  -1  12  -2 1847.41  369.02   1-0.76192 0.63924 0.20030 0.55329-0.61590 0.53407
   1  12   3 1272.89  286.96   1-0.82663 0.94942 0.55048 0.20308-0.11674 0.23946
  -1  12   3  783.56  267.90   1-0.82054 0.69777 0.33818 0.41543-0.46080 0.58353
  -1  12  -3  774.65  215.33   1-0.74532 0.62264 0.17045 0.58314-0.64454 0.52178
   1  12   411454.05  751.70   1-0.82326 0.94600 0.55945 0.19383-0.09618 0.25981
  -1  12   410835.63  727.79   1-0.82741 0.70465 0.36285 0.39075-0.42862 0.59226
  -1  12  -410816.44  660.88   1-0.72722 0.60453 0.14023 0.61336-0.67192 0.50825
   1  12   512940.88  806.68   1-0.81913 0.94187 0.56853 0.18474-0.07607 0.28061
  -1  12   512636.78  813.48   1-0.83280 0.71003 0.38647 0.36714-0.39632 0.60087
  -1  12  -512365.38  732.15   1-0.70776 0.58508 0.10987 0.64372-0.69784 0.49325
   1  12   6 2232.55  432.73   1-0.81451 0.93725 0.57746 0.17581-0.05561 0.30106
  -1  12   6 1050.15  252.58   1-0.83676 0.71400 0.40903 0.34458-0.36401 0.60947
  -1  12  -6  895.76  227.17   1-0.68668 0.56403 0.07973 0.67390-0.72257 0.47719
   1  12   722642.69 1052.46   1-0.80940 0.93215 0.58620 0.16707-0.03486 0.32121
  -1  12   723558.59 1116.59   1-0.83966 0.71687 0.43030 0.32327-0.33137 0.61772
  -1  12  -721414.92  912.88   1-0.66515 0.54250 0.04992 0.70372-0.74503 0.45876
   1  12   8 3502.08  633.00   1-0.80380 0.92654 0.59472 0.15855-0.01386 0.34112
  -1  12   8 4623.67  738.18   1-0.84099 0.71820 0.45076 0.30280-0.29923 0.62649
   1  12   9  904.28  258.42   1-0.79770 0.92044 0.60300 0.15028 0.00734 0.36081
  -1  12   9  832.89  367.32   1-0.84110 0.71831 0.47023 0.28333-0.26723 0.63540
   1  12  10 7703.16  743.58   1-0.79110 0.91384 0.61100 0.14227 0.02874 0.38032
  -1  12  10 6953.13  710.52   1-0.84007 0.71728 0.48873 0.26483-0.23541 0.64448
   1  12  11 7287.25  742.89   1-0.78398 0.90673 0.61873 0.13455 0.05030 0.39966
  -1  12  11 8492.32  820.09   1-0.83794 0.71515 0.50628 0.24728-0.20377 0.65376
   1  12  12  166.99  216.79   1-0.77636 0.89910 0.62615 0.12712 0.07201 0.41886
  -1  12  12   74.27  260.10   1-0.83476 0.71197 0.52293 0.23063-0.17235 0.66324
  -1  13   0 3964.46  590.19   1-0.80616 0.68340 0.29621 0.52020-0.51220 0.51220
  -1  13   119060.86  905.02   1-0.81477 0.69200 0.32016 0.49625-0.48336 0.52427
  -1  13  -121953.91  990.41   1-0.79629 0.67353 0.27164 0.54477-0.54048 0.49957
  -1  13   2 2121.52  407.64   1-0.82210 0.69934 0.34342 0.47299-0.45409 0.53591
  -1  13  -2 2468.57  394.77   1-0.78504 0.66236 0.24658 0.56981-0.56824 0.48640
   1  13   3  575.21  248.98   1-0.82159 0.94433 0.56326 0.25278-0.08782 0.21054
  -1  13   3  480.44  227.13   1-0.82818 0.70542 0.36594 0.45047-0.42448 0.54721
  -1  13  -3  411.80  175.21   1-0.77270 0.65001 0.22105 0.59533-0.59503 0.47228
   1  13   4 2349.06  431.26   1-0.81797 0.94071 0.57088 0.24517-0.07076 0.23439
  -1  13   4 1198.66  325.57   1-0.83304 0.71027 0.38767 0.42874-0.39464 0.55828
  -1  13  -4 2323.49  413.55   1-0.75921 0.63653 0.19525 0.62113-0.62086 0.45718
   1  13   512759.50 1019.21   1-0.81389 0.93663 0.57859 0.23746-0.05299 0.25753
  -1  13   513609.89 1078.80   1-0.83670 0.71394 0.40860 0.40781-0.36464 0.56919
   1  13   6 5088.50  492.13   1-0.80934 0.93208 0.58631 0.22974-0.03461 0.28005
  -1  13   6 5431.10  588.46   1-0.83949 0.71670 0.42850 0.38786-0.33412 0.57956
   1  13   7 3481.11  435.05   1-0.80431 0.92706 0.59398 0.22206-0.01571 0.30206
  -1  13   7 3571.03  484.25   1-0.84087 0.71808 0.44779 0.36857-0.30399 0.59034
   1  13   8  545.78  229.43   1-0.79880 0.92155 0.60157 0.21448 0.00362 0.32363
  -1  13   8 1128.39  401.96   1-0.84118 0.71839 0.46627 0.35009-0.27386 0.60112
   1  13   9  706.31  281.64   1-0.79281 0.91555 0.60902 0.20703 0.02334 0.34481
   1  13  10 5392.69  487.41   1-0.78631 0.90905 0.61629 0.19975 0.04340 0.36566
  -1  13  10 7356.59  662.97   1-0.83872 0.71593 0.50085 0.31551-0.21372 0.62280
  -1  14   0 1086.33  327.34   1-0.81919 0.69643 0.33379 0.54542-0.46636 0.46636
  -1  14   1 8780.01  797.73   1-0.82519 0.70242 0.35437 0.52484-0.43985 0.48076
  -1  14  -1 8962.06  802.34   1-0.81223 0.68947 0.31281 0.56640-0.49235 0.45144
  -1  14   224644.76 1999.07   1-0.83022 0.70745 0.37449 0.50473-0.41290 0.49472
  -1  14   4 9990.25  746.50   1-0.83735 0.71459 0.41312 0.46609-0.35800 0.52164
  -1  14   5 1797.91  337.11   1-0.83976 0.71697 0.43137 0.44779-0.32971 0.53425
  -1  14   6 3691.70  447.98   1-0.84093 0.71814 0.44920 0.42995-0.30173 0.54717
   2   0   0749959.133940.89   1 0.12256 0.12256 0.44425-0.44425 0.88747-0.88747
  -2   0   0694768.331442.72   1-0.12257-0.12257 0.57907-0.57907 0.80600-0.80600
   2   0  -112328.22  212.72   1 0.27602-0.03099 0.33629-0.33629 0.90039-0.94124
   2   0   113067.02  232.94   1-0.01587 0.26100 0.52583-0.52583 0.85044-0.80955
  -2   0   111938.58  204.80   1 0.01773-0.26286 0.50732-0.50732 0.86157-0.82068
  -2   0  -111410.07  195.58   1-0.24858 0.00343 0.63073-0.63073 0.73510-0.77599
   2   0  -253230.68  563.30   1 0.42935-0.18418 0.20865-0.20865 0.87870-0.96048
  -2   0   249687.66  526.19   1 0.16191-0.40694 0.41800-0.41800 0.89389-0.81219
   2   0   251371.46  566.54   1-0.13122 0.37638 0.58302-0.58302 0.80178-0.72001
  -2   0  -249045.58  529.52   1-0.35559 0.11044 0.66403-0.66403 0.65772-0.73949
  -2   0   3117177.6 1084.83   1 0.29678-0.54181 0.32026-0.32026 0.89964-0.77709
   2   0   3122430.5 1163.31   1-0.22268 0.46783 0.62114-0.62114 0.75138-0.62873
  -2   0  -3117477.4 1105.72   1-0.44355 0.19840 0.68309-0.68309 0.58021-0.70286
  -2   0   3121488.9 1147.11   1-0.56455 0.31925-0.07259 0.07259-0.82219 0.94488
  -2   0   412082.13  217.89   1 0.41205-0.65721 0.22432-0.22432 0.88311-0.71954
   2   0   412953.49  259.20   1-0.29316 0.53831 0.64580-0.64580 0.70497-0.54143
  -2   0  -412002.49  233.79   1-0.51484 0.26969 0.69185-0.69185 0.50622-0.66977
  -2   0   412862.30  257.51   1-0.67048 0.42518 0.05715-0.05715-0.73971 0.90330
  -2   0   5137015.8 1290.45   1 0.50353-0.74870 0.13734-0.13734 0.85298-0.64852
   2   0   5137176.5 1323.70   1-0.34662 0.59177 0.66164-0.66164 0.66488-0.46045
  -2   0   5142888.7 1369.91   1-0.74536 0.49999 0.17052-0.17052-0.64447 0.84907
   2   0   6231617.7 2117.41   1-0.38684 0.63199 0.67175-0.67175 0.63174-0.38643
  -2   0   6236879.0 3376.66   1-0.79349 0.54812 0.26540-0.26540-0.54765 0.79316
   2   0   7  245.40  145.20   1-0.41688 0.66203 0.67820-0.67820 0.60518-0.31898
  -2   0   7  594.78  121.70   1-0.82165 0.57613 0.34191-0.34191-0.45603 0.74240
   2   0  -7  509.24  131.58   1-0.62308 0.86838-0.00424 0.00424-0.78214 0.49587
   2   0   8123139.1 1856.01   1-0.43907 0.68422 0.68232-0.68232 0.58450-0.25741
  -2   0   8123406.5 1857.37   1-0.83598 0.59045 0.40395-0.40395-0.37142 0.69870
   2   0   913277.03  682.34   1-0.45517 0.70032 0.68495-0.68495 0.56889-0.20092
  -2   0   913145.79  671.96   1-0.84107 0.59549 0.45337-0.45337-0.29502 0.66319
   2   0  10 5264.39  484.94   1-0.46648 0.71163 0.68661-0.68661 0.55763-0.14877
  -2   0  10 5865.05  562.48   1-0.83953 0.59395 0.49418-0.49418-0.22573 0.63481
   2   0  1144602.80 1225.44   1-0.47395 0.71910 0.68762-0.68762 0.55003-0.10029
  -2   0  1144895.02 1214.71   1-0.83361 0.58803 0.52776-0.52776-0.16293 0.61292
   2   0  12 5387.22  282.32   1-0.47827 0.72342 0.68821-0.68821 0.54553-0.05490
  -2   0  12 6277.41  303.12   1-0.82509 0.57961 0.55500-0.55500-0.10579 0.59667
   2   0  13 2123.51  257.98   1-0.48004 0.72519 0.68843-0.68843 0.54370-0.01217
  -2   0  13 2381.01  265.65   1-0.81393 0.56845 0.57851-0.57851-0.05316 0.58496
   2   0  1450623.99 2150.49   1-0.47964 0.72479 0.68838-0.68838 0.54412 0.02828
  -2   0  1451486.53 2170.77   1-0.80115 0.55566 0.59844-0.59844-0.00444 0.57714
   2   0  15 8139.00  470.32   1-0.47737 0.72252 0.68810-0.68810 0.54646 0.06683
  -2   0  15 8970.05  500.59   1-0.78711 0.54162 0.61544-0.61544 0.04101 0.57259
   2   0  16  188.98  206.74   1-0.47352 0.71867 0.68756-0.68756 0.55047 0.10369
  -2   0  16  359.31  183.10   1-0.77205 0.52657 0.63001-0.63001 0.08372 0.57078
   2   0  17 6730.10  840.74   1-0.46819 0.71334 0.68685-0.68685 0.55589 0.13915
  -2   0  17 7073.17  867.94   1-0.75654 0.51122 0.64206-0.64206 0.12402 0.57131
   2   0  18  582.13  310.28   1-0.46157 0.70672 0.68591-0.68591 0.56255 0.17338
  -2   0  18  -38.19  167.60   1-0.73987 0.49454 0.65283-0.65283 0.16245 0.57378
   2   0  19 6432.67  439.79   1-0.45375 0.69891 0.68473-0.68473 0.57029 0.20653
  -2   0  19 6894.10  422.49   1-0.72248 0.47716 0.66206-0.66206 0.19921 0.57791
   2   0  20 8898.46  739.08   1-0.44484 0.68999 0.68330-0.68330 0.57897 0.23874
  -2   0  20 9099.41  760.96   1-0.70442 0.45909 0.66990-0.66990 0.23455 0.58348
   2   0  21 4597.69  512.87   1-0.43489 0.68004 0.68159-0.68159 0.58847 0.27012
  -2   0  21 5277.14  501.87   1-0.68568 0.44035 0.67650-0.67650 0.26866 0.59027
   2  -1   062860.98  659.66   1 0.22618 0.01884 0.37329-0.43606 0.89971-0.89971
  -2   1   059944.80  625.50   1 0.00163-0.24676 0.51628-0.45349 0.85641-0.85641
  -2  -1   059667.24  585.00   1-0.29624 0.05109 0.64678-0.70956 0.70278-0.70278
   2  -1  -1122671.6 1165.54   1 0.35337-0.10835 0.27455-0.33732 0.89428-0.93513
   2   1  -1115943.4 1056.26   1 0.17926 0.06576 0.40625-0.34348 0.89600-0.93685
   2  -1   1116070.2 1108.97   1 0.10349 0.14163 0.45633-0.51912 0.88376-0.84288
  -2   1   1109660.0 1039.74   1 0.12718-0.37231 0.44128-0.37849 0.88830-0.84742
  -2   1  -1116156.7 1094.22   1-0.12054-0.12461 0.57814-0.51535 0.80698-0.84786
  -2  -1   1120907.9 1086.89   1-0.15417-0.09097 0.59320-0.65598 0.79015-0.74926
   2   1   1121959.8 1126.06   1-0.14956 0.39471 0.59118-0.52839 0.79254-0.75165
  -2  -1  -1109149.6 1005.33   1-0.40937 0.16422 0.67668-0.73946 0.61197-0.65286
   2  -1  -2 5726.89  167.42   1 0.47499-0.22982 0.16562-0.22841 0.86426-0.94604
   2   1  -2 4700.33  284.84   1 0.37577-0.13060 0.25612-0.19333 0.89061-0.97240
  -2   1   2 3919.72  284.50   1 0.24765-0.49268 0.35760-0.29483 0.90043-0.81873
  -2  -1   2 4731.14  176.21   1 0.01173-0.25685 0.51068-0.57347 0.85968-0.77791
   2  -1   2 4846.19  561.36   1-0.00702 0.25214 0.52103-0.58382 0.85350-0.77173
  -2   1  -2 5200.56  148.11   1-0.23275-0.01240 0.62493-0.56215 0.74516-0.82694
   2   1   2 5493.91  150.80   1-0.26090 0.50606 0.63509-0.57230 0.72703-0.64526
  -2   1   366931.37  698.89   1 0.35572-0.60075 0.27258-0.20981 0.89395-0.77140
  -2  -1   361766.88  605.54   1 0.18391-0.42894 0.40306-0.46583 0.89650-0.77395
   2   1   363947.12  680.76   1-0.34222 0.58737 0.66044-0.59766 0.66835-0.54569
  -2  -1  -368095.45  697.14   1-0.56345 0.31830 0.69358-0.75635 0.44884-0.57150
  -2   1   368528.51  749.05   1-0.58124 0.33594-0.05381 0.11661-0.81194 0.93463
  -2  -1   360795.75  616.83   1-0.55405 0.30875-0.08414 0.02134-0.82821 0.95090
  -2   1   458198.84  645.11   1 0.44695-0.69211 0.19236-0.12957 0.87362-0.71005
  -2  -1   456056.46  565.17   1 0.33917-0.58420 0.28630-0.34907 0.89609-0.73269
   2  -1   457882.72  654.06   1-0.17860 0.42376 0.60359-0.66638 0.77702-0.61348
   2   1   460073.07  668.23   1-0.40093 0.64608 0.67489-0.61211 0.61948-0.45594
  -2   1  -456105.24  619.53   1-0.41587 0.17072 0.67800-0.61522 0.60610-0.76964
  -2  -1  -455794.64  606.32   1-0.61537 0.37022 0.69070-0.75347 0.37977-0.54332
  -2  -1   460105.01  636.28   1-0.68728 0.44198 0.08059-0.14339-0.72190 0.88548
  -2   1   460196.05  705.68   1-0.66721 0.42191 0.05270 0.01009-0.74299 0.90657
  -2  -1   5  408.71   66.87   1 0.46302-0.70819 0.17715-0.23994 0.86845-0.66399
   2   1   5  460.43   98.13   1-0.44318 0.68833 0.68302-0.62024 0.58056-0.37613
  -2  -1   5  625.76   89.19   1-0.77088 0.52551 0.21747-0.28027-0.59869 0.80329
   2  -1   624378.90 1152.38   1-0.28955 0.53470 0.64464-0.70742 0.70752-0.46221
   2   1   631997.60 2605.75   1-0.47354 0.71869 0.68756-0.62479 0.55045-0.30514
  -2  -1   630743.36 2499.86   1-0.81574 0.57022 0.32309-0.38589-0.47975 0.72521
  -2   1   625056.26 1197.36   1-0.77814 0.53277 0.23205-0.16925-0.58364 0.82915
   2   1  -623042.86 1081.10   1-0.55362 0.79892-0.08462 0.14742-0.82845 0.58307
   2  -1  -629193.73 1376.33   1-0.57672 0.82203-0.05894-0.00385-0.81480 0.56943
   2  -1   7176442.6 2566.77   1-0.32765 0.57280 0.65632-0.71910 0.67961-0.39341
   2   1   7179311.0 2613.73   1-0.49516 0.74031 0.69012-0.62735 0.52776-0.24155
  -2  -1   7171520.6 2467.33   1-0.83581 0.59028 0.40292-0.46572-0.37292 0.65929
  -2   1   7176790.1 2601.87   1-0.80863 0.56310 0.30281-0.24000-0.50439 0.79076
   2   1  -7156542.5 2273.69   1-0.61736 0.86266-0.01125 0.07405-0.78659 0.50032
   2  -1   827063.75 1283.82   1-0.35703 0.60218 0.66441-0.72719 0.65656-0.32947
   2   1   824413.90 1175.01   1-0.51034 0.75549 0.69151-0.62874 0.51123-0.18414
  -2  -1   825102.93 1186.08   1-0.84120 0.59562 0.46211-0.52491-0.28076 0.60802
  -2   1   826419.98 1279.54   1-0.82741 0.58189 0.36287-0.30006-0.42860 0.75588
   2   1  -822550.98 1085.70   1-0.66128 0.90658 0.04472 0.01808-0.74880 0.42163
   2  -1   989416.41 1409.07   1-0.37940 0.62455 0.67000-0.73278 0.63808-0.27011
   2   1   990643.66 1440.27   1-0.52060 0.76575 0.69225-0.62948 0.49975-0.13177
  -2  -1   989749.86 1379.92   1-0.83768 0.59210 0.50791-0.57071-0.20077 0.56894
  -2   1   987831.01 1421.00   1-0.83739 0.59186 0.41338-0.35058-0.35761 0.72580
   2  -1  10 9980.38  859.02   1-0.39611 0.64126 0.67384-0.73662 0.62372-0.21486
   2   1  1012151.14 1031.65   1-0.52703 0.77219 0.69264-0.62987 0.49241-0.08355
  -2  -1  1011689.01  985.22   1-0.82905 0.58347 0.54356-0.60635-0.13118 0.54026
  -2   1  1011292.54  984.15   1-0.84112 0.59554 0.45538-0.39258-0.29177 0.70085
   2  -1  11 7280.75  647.69   1-0.40821 0.65337 0.67644-0.73922 0.61301-0.16326
   2   1  1110522.14  909.91   1-0.53043 0.77558 0.69282-0.63005 0.48850-0.03875
  -2  -1  1110006.63  850.17   1-0.81784 0.57235 0.57115-0.63392-0.07016 0.52014
  -2   1  11 7495.38  676.19   1-0.83981 0.59423 0.49149-0.42869-0.23052 0.68051
   2  -1  1229583.81  752.00   1-0.41655 0.66170 0.67813-0.74091 0.60548-0.11486
   2   1  1229601.42  756.63   1-0.53135 0.77650 0.69286-0.63009 0.48743 0.00320
  -2  -1  1230652.33  726.34   1-0.80422 0.55873 0.59413-0.65690-0.01536 0.50624
  -2   1  1229574.92  769.12   1-0.83491 0.58933 0.52228-0.45948-0.17360 0.66449
   2  -1  1372416.81 3014.98   1-0.42173 0.66689 0.67915-0.74193 0.60073-0.06922
   2   1  1364430.46 2698.22   1-0.53023 0.77538 0.69281-0.63004 0.48874 0.04278
  -2  -1  1368140.28 2822.20   1-0.78932 0.54384 0.61301-0.67578 0.03425 0.49753
  -2   1  1370220.92 2931.55   1-0.82729 0.58171 0.54869-0.48589-0.12051 0.65231
   2  -1  14 4667.66  561.48   1-0.42427 0.66943 0.67964-0.74241 0.59839-0.02599
   2   1  14 2982.20  425.10   1-0.52736 0.77251 0.69266-0.62989 0.49204 0.08036
  -2  -1  14 3532.71  441.53   1-0.77353 0.52805 0.62871-0.69149 0.07974 0.49295
  -2   1  14 4381.53  529.55   1-0.81798 0.57249 0.57087-0.50810-0.07079 0.64349
   2  -1  1533252.24 1376.78   1-0.42455 0.66970 0.67969-0.74247 0.59814 0.01514
   2   1  1536356.87 1506.44   1-0.52299 0.76814 0.69240-0.62963 0.49704 0.11625
  -2  -1  1533868.00 1363.89   1-0.75747 0.51215 0.64140-0.70419 0.12177 0.49174
  -2   1  1534470.14 1424.06   1-0.80656 0.56107 0.59066-0.52789-0.02398 0.63759
   2  -1  16 3098.80  322.06   1-0.42286 0.66801 0.67937-0.74214 0.59970 0.05446
   2   1  16 3212.60  317.85   1-0.51729 0.76244 0.69203-0.62926 0.50348 0.15069
  -2  -1  16 3095.30  290.23   1-0.74041 0.49509 0.65251-0.71530 0.16125 0.49317
  -2   1  16 2770.59  311.22   1-0.79376 0.54828 0.60788-0.54511 0.02028 0.63422
   2  -1  17 6704.13  879.38   1-0.41944 0.66459 0.67870-0.74148 0.60284 0.09221
   2   1  17 5606.88  758.97   1-0.51040 0.75555 0.69151-0.62874 0.51117 0.18389
  -2  -1  17 4911.05  618.22   1-0.72283 0.47750 0.66189-0.72468 0.19851 0.49681
  -2   1  17 5973.15  785.04   1-0.77980 0.53432 0.62290-0.56012 0.06237 0.63304
   2  -1  18 3626.17  584.02   1-0.41448 0.65963 0.67772-0.74050 0.60736 0.12857
   2   1  18 4370.63  684.77   1-0.50242 0.74757 0.69083-0.62806 0.51992 0.21603
  -2  -1  18 4286.87  675.10   1-0.70473 0.45941 0.66978-0.73256 0.23395 0.50227
  -2   1  18 3625.97  624.66   1-0.76484 0.51935 0.63600-0.57323 0.10254 0.63377
   2  -1  1915346.05  747.37   1-0.40812 0.65327 0.67642-0.73920 0.61309 0.16373
   2   1  1914149.60  750.61   1-0.49343 0.73859 0.68995-0.62718 0.52960 0.24723
  -2  -1  1912983.18  619.52   1-0.68613 0.44080 0.67636-0.73914 0.26787 0.50926
  -2   1  1912882.37  679.32   1-0.74937 0.50404 0.64696-0.58418 0.14099 0.63613
   2  -1  20 4293.09  675.28   1-0.40048 0.64563 0.67480-0.73757 0.61988 0.19782
   2   1  20 3780.23  609.99   1-0.48350 0.72865 0.68885-0.62608 0.54009 0.27763
  -2  -1  20 4817.98  472.25   1-0.66699 0.42167 0.68176-0.74455 0.30051 0.51752
  -2   1  20 3352.08  546.84   1-0.73265 0.48733 0.65688-0.59410 0.17807 0.63995
   2  -1  21 9006.04  812.39   1-0.39163 0.63679 0.67284-0.73562 0.62761 0.23098
   2   1  21 7512.41  712.70   1-0.47272 0.71787 0.68746-0.62468 0.55130 0.30729
  -2  -1  21 7612.67  697.92   1-0.64729 0.40197 0.68610-0.74888 0.33207 0.52686
  -2   1  21 9259.43  823.68   1-0.71514 0.46981 0.66544-0.60265 0.21390 0.64503
   2  -2   019524.18  314.12   1 0.31243-0.06740 0.30791-0.43345 0.89865-0.89865
  -2   2   019446.44  300.92   1 0.08493-0.33006 0.46782-0.34225 0.87972-0.87972
   2   2   020834.43  271.58   1-0.14765 0.39280 0.59034-0.46477 0.79352-0.79352
  -2  -2   019701.35  245.11   1-0.50876 0.26361 0.69138-0.81692 0.51297-0.51297
   2  -2  -1 1054.40  141.44   1 0.41758-0.17242 0.21935-0.34493 0.88176-0.92265
  -2   2   1  929.04  157.87   1 0.19435-0.43938 0.39584-0.27030 0.89751-0.85666
   2  -2   1 1302.73  160.51   1 0.20667 0.03835 0.38721-0.51275 0.89852-0.85767
   2   2  -1 1195.00  168.91   1 0.05462 0.19050 0.48605-0.36047 0.87221-0.91310
  -2   2  -1  562.42   72.73   1-0.02692-0.21819 0.53173-0.40615 0.84648-0.88736
   2   2   1  622.40   63.44   1-0.29004 0.53519 0.64480-0.51924 0.70718-0.66629
  -2  -2   1  614.77   51.21   1-0.40032 0.15517 0.67476-0.80032 0.62002-0.57913
  -2  -2  -1  928.72   72.72   1-0.58362 0.33846 0.69310-0.81864 0.42307-0.46396
   2  -2  -224795.83  373.62   1 0.51537-0.27020 0.12528-0.25086 0.84775-0.92954
   2   2  -222626.65  271.47   1 0.30875-0.06372 0.31083-0.18529 0.89891-0.98061
  -2   2   221376.51  367.35   1 0.29605-0.54108 0.32082-0.19528 0.89967-0.81797
   2  -2   221380.70  336.45   1 0.10625 0.13887 0.45460-0.58018 0.88433-0.80256
  -2   2  -222702.77  332.79   1-0.13548-0.10966 0.58494-0.45936 0.79967-0.88145
  -2  -2   223373.37  259.88   1-0.24470-0.00044 0.62933-0.75490 0.73760-0.65583
   2   2   223994.58  330.79   1-0.38646 0.63161 0.67166-0.54610 0.63207-0.55029
  -2  -2  -222188.15  295.60   1-0.63680 0.39164 0.68780-0.81334 0.34844-0.43021
   2  -2   320136.41  327.90   1 0.01528 0.22984 0.50869-0.63427 0.86080-0.73814
  -2   2  -320190.60  304.41   1-0.23633-0.00881 0.62626-0.50069 0.74292-0.86557
  -2  -2  -320172.22  291.84   1-0.67599 0.43067 0.67938-0.80495 0.28542-0.40812
  -2   2   320549.92  372.83   1-0.60087 0.35556-0.03102 0.15663-0.79874 0.92143
  -2  -2   323355.45  278.75   1-0.55763 0.31232-0.08023-0.04536-0.82620 0.94889
  -2   2   4 4555.42  518.94   1 0.46176-0.70692 0.17836-0.05278 0.86888-0.70531
  -2  -2   4 5233.24  106.90   1 0.18087-0.42590 0.40515-0.53069 0.89617-0.73278
   2  -2   4 5095.95  209.77   1-0.06375 0.30890 0.55078-0.67636 0.83220-0.66866
   2   2   4 5508.86  175.66   1-0.49579 0.74094 0.69019-0.56465 0.52708-0.36353
  -2  -2  -4 5095.94  151.89   1-0.70614 0.46082 0.66922-0.79479 0.23128-0.39489
  -2  -2   4 5476.16  138.93   1-0.72917 0.48380 0.14338-0.26898-0.66913 0.83281
  -2   2   4 5592.54  228.68   1-0.67170 0.42640 0.05882 0.06678-0.73848 0.90206
  -2  -2   545577.32  460.81   1 0.37004-0.61507 0.26050-0.38604 0.89174-0.68749
   2  -2   550150.87  613.48   1-0.13047 0.37562 0.58267-0.70825 0.80216-0.59773
   2   2   545950.03  580.20   1-0.52617 0.77132 0.69259-0.56705 0.49341-0.28898
  -2  -2   547136.65  505.17   1-0.81143 0.56590 0.31053-0.43614-0.49511 0.69966
  -2   2   551164.10  680.09   1-0.72768 0.48231 0.14097-0.01537-0.67126 0.87586
  -2  -2   673939.61 1084.57   1 0.50599-0.75116 0.13486-0.26044 0.85192-0.60656
   2  -2   676230.55 1186.33   1-0.18554 0.43070 0.60646-0.73203 0.77316-0.52784
   2   2   674431.00 1170.38   1-0.54697 0.79212 0.69342-0.56789 0.46901-0.22369
  -2  -2   672743.38 1076.73   1-0.83844 0.59292 0.42166-0.54727-0.34524 0.59070
  -2   2   680132.26 1295.86   1-0.76951 0.52414 0.21477-0.08917-0.60143 0.84694
   2  -2   7 8617.99  451.87   1-0.23029 0.47544 0.62402-0.74959 0.74670-0.46050
   2   2   7 9607.51  523.49   1-0.56098 0.80613 0.69358-0.56804 0.45191-0.16570
  -2  -2   7 9451.46  467.10   1-0.83966 0.59408 0.49301-0.61861-0.22783 0.51418
  -2   2   7 9629.84  564.47   1-0.79944 0.55391 0.27921-0.15361-0.53190 0.81827
   2   2  -7 8129.32  411.46   1-0.59553 0.84083-0.03730 0.16290-0.80246 0.51619
   2  -2   816779.82  824.15   1-0.26616 0.51131 0.63691-0.76248 0.72353-0.39644
   2   2   813400.18  683.42   1-0.57003 0.81518 0.69350-0.56796 0.44057-0.11347
  -2  -2   813610.81  655.79   1-0.82961 0.58403 0.54183-0.66743-0.13472 0.46198
  -2   2   817180.39  891.80   1-0.81977 0.57424 0.33567-0.21007-0.46399 0.79126
   2   2  -815055.72  734.95   1-0.65326 0.89856 0.03410 0.09150-0.75636 0.42919
   2  -2   922008.07 1062.24   1-0.29466 0.53981 0.64628-0.77184 0.70390-0.33593
   2   2   924860.17 1204.57   1-0.57534 0.82049 0.69339-0.56785 0.43380-0.06582
  -2  -2   924515.89 1149.94   1-0.81559 0.57011 0.57547-0.70102-0.06025 0.42841
  -2   2   923805.54 1177.86   1-0.83242 0.58689 0.38461-0.25901-0.39892 0.76711
   2   2  -920547.82  990.60   1-0.69047 0.93577 0.08516 0.04044-0.71832 0.35025
   2  -2  10 8517.17  739.82   1-0.31683 0.56199 0.65314-0.77870 0.68776-0.27890
   2   2  10 9837.67  860.36   1-0.57773 0.82288 0.69332-0.56778 0.43072-0.02186
  -2  -2  10 9426.52  789.47   1-0.79918 0.55370 0.60108-0.72662 0.00234 0.40672
  -2   2  1010520.50  920.30   1-0.83928 0.59370 0.42646-0.30086-0.33724 0.74631
   2   2 -10 7971.53  695.51   1-0.71466 0.96003 0.12041 0.00518-0.68902 0.27983
   2  -2  1169752.02 1825.79   1-0.33381 0.57896 0.65809-0.78364 0.67489-0.22515
   2   2  1162242.11 1659.35   1-0.57780 0.82295 0.69332-0.56778 0.43063 0.01911
  -2  -2  1160151.44 1536.42   1-0.78202 0.53654 0.62071-0.74626 0.05601 0.39395
  -2   2  1169538.80 1860.87   1-0.84120 0.59562 0.46327-0.33767-0.27885 0.72883
   2  -2  1239151.10  924.88   1-0.34643 0.59158 0.66159-0.78715 0.66504-0.17441
   2   2  1238681.59  938.97   1-0.57596 0.82112 0.69337-0.56783 0.43300 0.05763
  -2  -2  1243690.69  941.17   1-0.76456 0.51908 0.63622-0.76176 0.10324 0.38763
  -2   2  1241231.39 1037.64   1-0.83941 0.59383 0.49531-0.36972-0.22371 0.71460
   2  -2  1321384.72  969.51   1-0.35538 0.60054 0.66398-0.78954 0.65789-0.12637
   2   2  1322301.90 1023.49   1-0.57253 0.81768 0.69346-0.56792 0.43740 0.09412
  -2  -2  1322985.71  991.19   1-0.74740 0.50207 0.64823-0.77380 0.14553 0.38618
  -2   2  1320422.89  973.26   1-0.83467 0.58910 0.52332-0.39772-0.17160 0.70340
   2  -2  14 5357.95  654.67   1-0.36123 0.60638 0.66550-0.79106 0.65316-0.08076
   2   2  14 8008.37  935.16   1-0.56771 0.81286 0.69354-0.56800 0.44350 0.12890
  -2  -2  14 6758.44  750.06   1-0.72964 0.48432 0.65847-0.78405 0.18443 0.38819
  -2   2  14 5482.17  683.13   1-0.82758 0.58200 0.54787-0.42227-0.12223 0.69494
   2  -2  1514354.93  679.95   1-0.36439 0.60955 0.66631-0.79186 0.65057-0.03728
   2   2  1514707.02  788.00   1-0.56169 0.80684 0.69358-0.56804 0.45104 0.16225
  -2  -2  1514540.36  646.15   1-0.71173 0.46640 0.66692-0.79249 0.22056 0.39295
  -2   2  1514081.11  700.57   1-0.81896 0.57347 0.56888-0.44334-0.07528 0.68889
   2  -2  1624731.81 1087.26   1-0.36524 0.61039 0.66652-0.79208 0.64987 0.00429
   2   2  1627753.30 1232.81   1-0.55458 0.79973 0.69355-0.56801 0.45980 0.19438
  -2  -2  1626773.49 1122.41   1-0.69359 0.44827 0.67389-0.79946 0.25454 0.39988
  -2   2  1624409.30 1108.87   1-0.80830 0.56282 0.58796-0.46241-0.03061 0.68512
   2  -2  1714584.59  821.24   1-0.36405 0.60920 0.66622-0.79178 0.65085 0.04419
   2   2  1714820.86  851.95   1-0.54647 0.79163 0.69341-0.56787 0.46960 0.22546
  -2  -2  1716206.45  862.21   1-0.67518 0.42986 0.67961-0.80518 0.28679 0.40853
  -2   2  1714256.28  824.22   1-0.79627 0.55079 0.60480-0.47926 0.01209 0.68332
   2  -2  18 3963.39  672.63   1-0.36104 0.60619 0.66545-0.79101 0.65331 0.08262
   2   2  18 4632.88  727.29   1-0.53746 0.78261 0.69313-0.56759 0.48031 0.25564
  -2  -2  18 5461.59  738.09   1-0.65643 0.41111 0.68423-0.80980 0.31766 0.41856
  -2   2  18 4794.34  745.86   1-0.78304 0.53756 0.61969-0.49414 0.05306 0.68325
   2  -2  1927414.20 1193.52   1-0.35639 0.60155 0.66424-0.78980 0.65707 0.11974
   2   2  1927469.92 1215.18   1-0.52757 0.77272 0.69267-0.56713 0.49179 0.28504
  -2  -2  1929808.51 1241.59   1-0.63728 0.39196 0.68787-0.81344 0.34740 0.42973
  -2   2  1927083.36 1189.03   1-0.76873 0.52325 0.63284-0.50729 0.09250 0.68473
   2  -2  2010736.47  850.21   1-0.35026 0.59541 0.66262-0.78818 0.66199 0.15571
   2   2  2010775.04  914.78   1-0.51686 0.76201 0.69200-0.56646 0.50396 0.31376
  -2  -2  20 9430.46  750.96   1-0.61806 0.37291 0.69040-0.81594 0.37594 0.44178
  -2   2  2011487.73  926.34   1-0.75383 0.50851 0.64396-0.51839 0.13052 0.68751
   2  -2  21 3989.21  386.67   1-0.34274 0.58790 0.66058-0.78614 0.66794 0.19065
   2   2  21 3956.20  441.99   1-0.50535 0.75050 0.69109-0.56555 0.51672 0.34189
  -2   2  21 3520.77  369.30   1-0.73762 0.49230 0.65413-0.52856 0.16737 0.69156
   2  -3   0  528.02  112.55   1 0.38537-0.14020 0.24784-0.43621 0.88885-0.88885
   2   3   0  466.51   62.15   1-0.30379 0.54895 0.64916-0.46082 0.69734-0.69734
  -2  -3   0  515.31   50.64   1-0.70816 0.46284 0.66840-0.85676 0.22744-0.22744
   2  -3  -1130525.1 1280.79   1 0.47210-0.22693 0.16842-0.35679 0.86530-0.90619
   2  -3   1132916.1 1295.26   1 0.29530-0.05027 0.32141-0.50972 0.89971-0.85886
   2   3  -1134663.7 1180.97   1-0.10409 0.34924 0.57046-0.38210 0.81469-0.85558
   2   3   1127890.5 1173.40   1-0.42360 0.66875 0.67951-0.49117 0.59901-0.55813
  -2  -3   1128561.2 1122.18   1-0.67213 0.42681 0.68044-0.86879 0.29194-0.25104
  -2  -3  -1130391.0 1175.15   1-0.73252 0.48719 0.65695-0.84531 0.17836-0.21926
   2   3  -266697.21  604.22   1 0.21553 0.02949 0.38092-0.19261 0.89913-0.98083
   2  -3   268358.13  760.18   1 0.20655 0.03847 0.38729-0.57560 0.89851-0.81682
   2   3   262569.08  660.27   1-0.49707 0.74222 0.69032-0.50201 0.52570-0.44393
  -2  -3   262106.71  561.26   1-0.61051 0.36536 0.69121-0.87952 0.38663-0.30486
  -2  -3  -266491.19  671.78   1-0.75067 0.50535 0.64610-0.83445 0.13795-0.21975
  -2   3   264498.45  761.11   1-0.55176 0.30646-0.08664 0.27505-0.82948 0.91127
   2  -3   341367.57  544.42   1 0.12278 0.12233 0.44410-0.63247 0.88751-0.76486
  -2  -3   346648.88  422.10   1-0.48602 0.24087 0.68914-0.87745 0.53745-0.41479
   2   3   346590.37  555.55   1-0.54365 0.78880 0.69334-0.50503 0.47298-0.35032
  -2   3   340852.85  578.39   1-0.62182 0.37652-0.00579 0.19420-0.78313 0.90582
  -2  -3   345594.28  428.83   1-0.60194 0.35664-0.02976-0.15865-0.79798 0.92067
   2  -3   4225558.5 3214.76   1 0.04631 0.19881 0.49093-0.67929 0.86996-0.70642
  -2  -3   4227253.7 3125.65   1-0.23207-0.01308 0.62468-0.81304 0.74559-0.58204
   2   3   4236404.6 3358.35   1-0.57386 0.81901 0.69343-0.50512 0.43570-0.27215
  -2  -3  -4214147.2 3029.63   1-0.77678 0.53130 0.62576-0.81408 0.07084-0.23447
  -2  -3   4223090.3 3079.59   1-0.81701 0.57148 0.32695-0.51536-0.47495 0.63859
  -2   3   4226800.4 3285.43   1-0.68080 0.43550 0.07143 0.11697-0.72896 0.89255
  -2  -3   568938.04  971.65   1 0.11126-0.35639 0.45144-0.63980 0.88533-0.68090
   2   3   567803.86 1079.16   1-0.59361 0.83876 0.69257-0.50427 0.40982-0.20539
  -2  -3   566934.15  949.02   1-0.83783 0.59225 0.50695-0.69534-0.20254 0.40708
  -2   3   556414.16  984.61   1-0.72887 0.48351 0.14291 0.04548-0.66956 0.87415
  -2  -3   611237.92  523.52   1 0.37775-0.62291 0.25442-0.44279 0.89026-0.64490
   2  -3   6 8621.67  451.32   1-0.07937 0.32452 0.55855-0.74691 0.82566-0.58034
   2   3   611874.45  604.79   1-0.60633 0.85149 0.69161-0.50330 0.39246-0.14714
  -2  -3   611616.16  541.28   1-0.81354 0.56806 0.57921-0.76753-0.05153 0.29697
  -2   3   6 9492.89  577.87   1-0.76617 0.52080 0.20832-0.01993-0.60793 0.85344
   2  -3   7161315.5 2364.31   1-0.12854 0.37370 0.58180-0.77016 0.80310-0.51690
   2   3   7167509.5 2478.06   1-0.61413 0.85928 0.69084-0.50253 0.38154-0.09533
  -2  -3   7164283.8 2297.16   1-0.78760 0.54211 0.61491-0.80323 0.03953 0.24681
  -2   3   7159706.3 2417.03   1-0.79419 0.54866 0.26672-0.07832-0.54599 0.83236
   2  -3   8 7811.45  434.31   1-0.16945 0.41460 0.59975-0.78811 0.78203-0.45494
   2   3   8 3514.79  296.78   1-0.61831 0.86346 0.69037-0.50206 0.37558-0.04849
  -2  -3   8 4509.65  237.95   1-0.76513 0.51965 0.63576-0.82408 0.10178 0.22546
  -2   3   8 8671.88  527.02   1-0.81440 0.56887 0.31908-0.13068-0.48469 0.81197
   2   3  -8 7386.42  375.56   1-0.62635 0.87165-0.00019 0.18860-0.77953 0.45236
   2  -3   929393.97  827.49   1-0.20300 0.44815 0.61350-0.80186 0.76315-0.39517
   2   3   926883.80  794.01   1-0.61975 0.86490 0.69020-0.50189 0.37351-0.00553
  -2  -3   928207.66  731.52   1-0.74581 0.50048 0.64924-0.83759 0.14916 0.21895
  -2   3   930401.80  930.79   1-0.82807 0.58255 0.36550-0.17710-0.42507 0.79326
   2   3  -926314.31  719.85   1-0.67864 0.92394 0.06841 0.11999-0.73127 0.36320
   2  -3  10102183.6 2584.68   1-0.23015 0.47531 0.62397-0.81233 0.74678-0.33792
   2   3  10106539.3 2725.02   1-0.61904 0.86419 0.69029-0.50198 0.37454 0.03432
  -2  -3  10107269.6 2646.30   1-0.72755 0.48223 0.65955-0.84791 0.18880 0.22021
  -2   3  10107226.1 2784.22   1-0.83639 0.59086 0.40657-0.21817-0.36760 0.77670
   2   3 -1090104.65 2282.30   1-0.70991 0.95528 0.11313 0.07526-0.69514 0.28595
   2  -3  11 6718.63  296.34   1-0.25179 0.49694 0.63187-0.82024 0.73302-0.28328
   2   3  11 5889.62  298.92   1-0.61658 0.86173 0.69057-0.50226 0.37805 0.07169
  -2  -3  11 7228.68  242.50   1-0.71022 0.46490 0.66755-0.85591 0.22347 0.22644
  -2   3  11 7740.57  428.68   1-0.84059 0.59501 0.44241-0.25401-0.31253 0.76251
   2   3 -11 5712.36  265.97   1-0.72940 0.97477 0.14376 0.04463-0.66880 0.21870
   2  -3  1212191.10  413.48   1-0.26869 0.51384 0.63777-0.82614 0.72183-0.23119
   2   3  1211801.70  445.99   1-0.61266 0.85781 0.69099-0.50269 0.38361 0.10702
  -2  -3  1212028.42  330.88   1-0.69338 0.44805 0.67396-0.86232 0.25493 0.23588
  -2   3  1211726.42  490.38   1-0.84096 0.59539 0.47461-0.28622-0.25983 0.75072
   2  -3  1360327.08 2529.88   1-0.28163 0.52678 0.64204-0.83038 0.71306-0.18155
   2   3  1368168.68 2870.25   1-0.60749 0.85264 0.69150-0.50319 0.39085 0.14066
  -2  -3  1371069.76 2916.64   1-0.67672 0.43139 0.67918-0.86753 0.28418 0.24753
  -2   3  1359328.43 2529.21   1-0.83840 0.59282 0.50320-0.31480-0.20945 0.74125
   2  -3  14 5124.06  332.22   1-0.29094 0.53609 0.64509-0.83342 0.70654-0.13414
   2   3  14 4725.42  353.72   1-0.60122 0.84637 0.69204-0.50373 0.39950 0.17290
  -2  -3  14 5676.99  308.28   1-0.66004 0.41471 0.68343-0.87178 0.31187 0.26075
  -2   3  14 4997.50  395.71   1-0.83340 0.58782 0.52862-0.34022-0.16125 0.73396
   2  -3  1541296.04 1710.77   1-0.29721 0.54236 0.64709-0.83543 0.70208-0.08880
   2   3  1541192.60 1750.08   1-0.59397 0.83912 0.69255-0.50424 0.40933 0.20395
  -2  -3  1541400.65 1665.42   1-0.64319 0.39787 0.68686-0.87521 0.33840 0.27512
  -2   3  1541827.64 1772.92   1-0.82675 0.58127 0.55069-0.36237-0.11496 0.72856
   2  -3  16 7532.65  917.96   1-0.30082 0.54597 0.64823-0.83657 0.69949-0.04532
   2   3  16 6296.77  809.64   1-0.58582 0.83097 0.69300-0.50469 0.42017 0.23400
  -2  -3  16 6417.26  789.30   1-0.62645 0.38130 0.68934-0.87765 0.36379 0.29038
  -2   3  16 8419.78  658.95   1-0.81795 0.57247 0.57092-0.38260-0.07066 0.72518
   2  -3  17 6409.44  463.22   1-0.30208 0.54723 0.64863-0.83696 0.69858-0.00352
   2   3  17 5680.91  455.63   1-0.57683 0.82198 0.69335-0.50504 0.43188 0.26318
  -2  -3  17 6494.93  419.46   1-0.60897 0.36382 0.69136-0.87967 0.38879 0.30627
  -2   3  17 6391.32  503.20   1-0.80764 0.56215 0.58900-0.40068-0.02806 0.72348
   2  -3  18 4257.32  601.50   1-0.30125 0.54641 0.64837-0.83670 0.69918 0.03675
   2   3  18 6539.63  554.63   1-0.56705 0.81220 0.69355-0.50524 0.44433 0.29162
  -2  -3  18 6703.75  378.88   1-0.59103 0.34588 0.69273-0.88104 0.41327 0.32268
  -2   3  18 4252.48  642.21   1-0.79600 0.55051 0.60515-0.41683 0.01301 0.72331
   2  -3  1914918.41 1121.84   1-0.29855 0.54370 0.64751-0.83585 0.70113 0.07569
   2   3  1912648.72 1016.75   1-0.55652 0.80167 0.69357-0.50526 0.45742 0.31941
  -2   3  1913437.66 1047.23   1-0.78316 0.53768 0.61957-0.43125 0.05272 0.72451
   2  -3  20  205.15  177.07   1-0.29413 0.53928 0.64611-0.83445 0.70428 0.11342
   2   3  20   75.52  245.18   1-0.54524 0.79039 0.69338-0.50507 0.47108 0.34664
  -2   3  20  148.82  211.69   1-0.76923 0.52375 0.63242-0.44410 0.09119 0.72694
   2  -3  21 6100.27  494.00   1-0.28813 0.53328 0.64418-0.83251 0.70852 0.15007
   2   3  21 7181.19  701.42   1-0.53325 0.77840 0.69295-0.50464 0.48523 0.37338
  -2   3  21 7013.03  588.92   1-0.75467 0.50935 0.64338-0.45503 0.12852 0.73041
   2  -4   0194821.7 2809.02   1 0.44764-0.20247 0.19171-0.44288 0.87341-0.87341
   2   4   0193734.8 2712.70   1-0.44952 0.69467 0.68407-0.43295 0.57443-0.57443
  -2  -4   0189639.4 2651.32   1-0.82330 0.57782 0.55935-0.81045-0.09638 0.09638
   2  -4  -125444.22 1210.13   1 0.51960-0.27443 0.12092-0.37208 0.84580-0.88669
   2  -4   126674.89 1291.78   1 0.37182-0.12665 0.25950-0.51066 0.89129-0.85040
   2   4  -126211.21 1201.83   1-0.28623 0.53138 0.64356-0.39244 0.70985-0.75074
   2   4   124354.51 1130.59   1-0.53571 0.78086 0.69306-0.44198 0.48236-0.44148
  -2  -4  -125984.84 1202.66   1-0.82022 0.57474 0.56624-0.81734-0.08120 0.04030
  -2  -4   123305.91 1069.17   1-0.83015 0.58457 0.54012-0.79131-0.13823 0.17914
   2  -4   269051.39 1087.63   1 0.29465-0.04962 0.32192-0.57300 0.89974-0.81804
   2   4  -270480.62  997.10   1 0.06514 0.17997 0.47980-0.22865 0.87495-0.95672
   2   4   271208.37 1081.72   1-0.58535 0.83050 0.69302-0.44194 0.42079-0.33902
  -2  -4  -270908.35 1062.30   1-0.81952 0.57404 0.56772-0.81881-0.07790-0.00390
  -2  -4   266796.80  941.77   1-0.84054 0.59496 0.48266-0.73385-0.24601 0.32783
  -2   4   264799.71 1083.59   1-0.58522 0.33992-0.04924 0.30046-0.80937 0.89116
   2  -4   3130175.6 1919.87   1 0.21945 0.02557 0.37812-0.62920 0.89936-0.77681
   2   4   3133448.6 1945.62   1-0.61549 0.86064 0.69069-0.43961 0.37960-0.25695
  -2  -4  -3133694.8 1933.86   1-0.82026 0.57477 0.56616-0.81726-0.08138-0.04133
  -2   4   3132476.7 2002.21   1-0.64321 0.39790 0.02106 0.23015-0.76539 0.88808
   2  -4   441498.01  721.63   1 0.14860 0.09652 0.42731-0.67846 0.89180-0.72826
   2   4   439320.39  686.56   1-0.63420 0.87935 0.68821-0.43713 0.35233-0.18879
  -2   4   442656.53  811.02   1-0.69269 0.44738 0.08835 0.16285-0.71580 0.87938
   2  -4   578208.37 1224.36   1 0.08338 0.16173 0.46877-0.71992 0.87937-0.67494
   2   4   579592.22 1257.36   1-0.64546 0.89078 0.68644-0.43530 0.33491-0.13040
  -2   4   579871.56 1323.93   1-0.73393 0.48856 0.15118 0.10001-0.66218 0.86677
   2  -4   660017.71  980.32   1 0.02504 0.22008 0.50318-0.75433 0.86381-0.61849
   2   4   667957.09 1123.16   1-0.65210 0.89742 0.68515-0.43400 0.32454-0.07913
  -2   4   662720.37 1114.16   1-0.76677 0.52140 0.20948 0.04171-0.60677 0.85228
  -2  -4   730700.22 2477.12   1 0.32238-0.56741 0.29994-0.55102 0.89782-0.61188
   2  -4   736496.51  751.56   1-0.02605 0.27118 0.53127-0.78242 0.84679-0.56059
  -2  -4   730532.02 1388.06   1-0.45356 0.20841 0.68475-0.93583 0.57043-0.28423
   2   4   731608.08 2589.97   1-0.65529 0.90061 0.68448-0.43334 0.31948-0.03317
  -2   4   734112.53  741.52   1-0.79231 0.54694 0.26270-0.01150-0.55065 0.83708
   2  -4   8124624.1 3116.09   1-0.07000 0.31516 0.55391-0.80506 0.82962-0.50253
  -2  -4   8125809.2 3060.96   1-0.53591 0.29076 0.69307-0.94415 0.48212-0.15503
   2   4   8119952.8 3033.52   1-0.65592 0.90125 0.68434-0.43320 0.31847 0.00873
  -2   4   8120126.8 3075.88   1-0.81146 0.56593 0.31060-0.05940-0.49502 0.82230
   2  -4   917054.89 1416.63   1-0.10729 0.35244 0.57197-0.82312 0.81322-0.44524
  -2  -4   913049.44 1064.52   1-0.56288 0.31773 0.69358-0.94466 0.44955-0.08157
   2   4   912410.77 1071.27   1-0.65458 0.89990 0.68463-0.43349 0.32062 0.04749
  -2   4   918548.97 1579.79   1-0.82512 0.57959 0.35412-0.10291-0.44018 0.80837
   2   4  -916027.22 1310.09   1-0.64259 0.88789 0.02026 0.23094-0.76594 0.39787
   2  -4  1015924.55  470.88   1-0.13844 0.38359 0.58626-0.83741 0.79820-0.38933
  -2  -4  1017431.30  393.52   1-0.57225 0.32710 0.69346-0.94454 0.43774-0.02888
   2   4  1016795.52  524.92   1-0.65163 0.89696 0.68524-0.43410 0.32527 0.08373
  -2   4  1016330.50  631.64   1-0.83412 0.58859 0.39327-0.14206-0.38674 0.79584
   2  -4  1168201.64 1452.08   1-0.16410 0.40925 0.59747-0.84862 0.78491-0.33516
  -2  -4  1177237.74 1521.33   1-0.57332 0.32817 0.69344-0.94452 0.43638 0.01336
   2   4  1175860.39 1665.02   1-0.64737 0.89269 0.68608-0.43494 0.33195 0.11796
  -2   4  1170646.07 1595.41   1-0.83944 0.59386 0.42798-0.17679-0.33491 0.78490
   2  -4  12 2821.51  365.30   1-0.18489 0.43004 0.60618-0.85733 0.77353-0.28289
  -2  -4  12 1765.23  225.19   1-0.56962 0.32447 0.69351-0.94459 0.44108 0.04954
   2   4  12 1829.93  295.55   1-0.64197 0.88729 0.68707-0.43593 0.34028 0.15053
  -2   4  12 2886.23  514.32   1-0.84118 0.59561 0.45962-0.20842-0.28486 0.77575
   2   4 -12 2610.62  335.38   1-0.73542 0.98078 0.15365 0.09754-0.65995 0.16893
   2  -4  13 7687.39  890.76   1-0.20138 0.44653 0.61285-0.86400 0.76410-0.23258
  -2  -4  13 8282.22  901.17   1-0.56280 0.31765 0.69358-0.94466 0.44964 0.08187
   2   4  13 7323.64  855.77   1-0.63583 0.88099 0.68795-0.43687 0.34988 0.18163
  -2   4  13 9044.19 1047.65   1-0.84012 0.59455 0.48807-0.23688-0.23656 0.76837
   2  -4  1414631.85  675.16   1-0.21409 0.45925 0.61785-0.86900 0.75658-0.18417
  -2  -4  1415997.75  666.39   1-0.55374 0.30858 0.69354-0.94462 0.46082 0.11158
   2   4  1416194.39  829.29   1-0.62855 0.87370 0.68905-0.43797 0.36072 0.21168
  -2   4  1416212.32  813.38   1-0.83667 0.59109 0.51369-0.26250-0.18998 0.76268
   2  -4  15 1027.95  208.16   1-0.22348 0.46864 0.62145-0.87260 0.75089-0.13760
  -2  -4  15 1752.81  198.92   1-0.54291 0.29776 0.69332-0.94440 0.47386 0.13943
   2   4  15 1639.97  283.36   1-0.62045 0.86560 0.69012-0.43904 0.37252 0.24077
  -2   4  15  811.29  245.48   1-0.83116 0.58559 0.53677-0.28558-0.14501 0.75863
   2  -4  16 3087.91  452.20   1-0.22993 0.47508 0.62388-0.87503 0.74692-0.09274
  -2  -4  16 3136.50  414.52   1-0.53063 0.28548 0.69283-0.94391 0.48826 0.16591
   2   4  16 2435.47  408.58   1-0.61158 0.85673 0.69111-0.44003 0.38514 0.26904
  -2   4  16 2727.87  481.54   1-0.82426 0.57878 0.55704-0.30595-0.10139 0.75591
   2  -4  17 5971.01  437.56   1-0.23376 0.47891 0.62531-0.87646 0.74453-0.04947
   2   4  17 4793.04  755.41   1-0.60198 0.84713 0.69198-0.44090 0.39847 0.29659
  -2   4  17 7082.30  576.53   1-0.81539 0.56991 0.57584-0.32475-0.05938 0.75480
   2  -4  18  708.72  204.64   1-0.23524 0.48040 0.62586-0.87701 0.74360-0.00765
   2   4  18  423.66  317.32   1-0.59168 0.83683 0.69269-0.44161 0.41241 0.32354
  -2   4  18 1024.89  404.12   1-0.80512 0.55964 0.59280-0.34171-0.01867 0.75500
   2  -4  19 2552.16  424.95   1-0.23461 0.47976 0.62563-0.87678 0.74400 0.03283
   2   4  19 2661.86  495.64   1-0.58070 0.82585 0.69322-0.44214 0.42688 0.34996
  -2   4  19 2303.59  440.08   1-0.79359 0.54811 0.60809-0.35699 0.02084 0.75639
   2  -4  20 4217.69  452.27   1-0.23205 0.47720 0.62467-0.87582 0.74560 0.07211
   2   4  20 4492.11  514.90   1-0.56905 0.81420 0.69352-0.44244 0.44181 0.37591
  -2   4  20 4805.15  525.66   1-0.78089 0.53541 0.62184-0.37074 0.05927 0.75886
   2  -5   041518.59  810.76   1 0.50176-0.25660 0.13913-0.45308 0.85373-0.85373
   2   5   040938.82  639.82   1-0.56445 0.80960 0.69357-0.37972 0.44759-0.44759
  -2  -5   037804.90  592.26   1-0.83535 0.58982 0.40018-0.71419-0.37687 0.37687
   2  -5   136693.14  669.04   1 0.43793-0.19276 0.20076-0.51471 0.87630-0.83541
   2   5  -136277.71  550.29   1-0.45522 0.70037 0.68496-0.37106 0.56885-0.60973
   2   5   134639.85  574.55   1-0.61923 0.86438 0.69026-0.37641 0.37426-0.33338
  -2  -5  -135066.94  570.49   1-0.84059 0.59501 0.44246-0.75644-0.31245 0.27154
  -2  -5   133418.60  516.18   1-0.81375 0.56822 0.31717-0.63118-0.48704 0.52795
  -2   5   133068.91  656.91   1-0.56157 0.31627-0.07589 0.38991-0.82393 0.86483
   2  -5   276860.71 1282.69   1 0.37201-0.12685 0.25933-0.57328 0.89126-0.80947
   2   5  -274760.92 1046.52   1-0.17124 0.41639 0.60050-0.28657 0.78106-0.86283
   2   5   273684.60 1133.11   1-0.64969 0.89501 0.68563-0.37170 0.32833-0.24653
  -2  -5  -274364.80 1124.25   1-0.84118 0.59560 0.46579-0.77977-0.27467 0.19285
  -2  -5   271216.64 1003.50   1-0.70022 0.45492 0.09938-0.41340-0.70696 0.78876
  -2   5   274160.15 1233.86   1-0.61615 0.37084-0.01272 0.32674-0.78752 0.86931
   2  -5   351604.01  865.53   1 0.30570-0.06067 0.31324-0.62709 0.89912-0.77657
   2   5   357648.92  933.85   1-0.66770 0.91303 0.68159-0.36766 0.29933-0.17662
  -2  -5  -347935.12  774.95   1-0.84075 0.59518 0.47911-0.79310-0.25214 0.12942
  -2   5   351413.30  934.31   1-0.66450 0.41919 0.04903 0.26498-0.74567 0.86836
   2  -5   4 5448.02  553.10   1 0.24149 0.00353 0.36214-0.67599 0.90029-0.73689
   2   5   4 5528.93  326.67   1-0.67825 0.92357 0.67874-0.36481 0.28156-0.11795
  -2   5   4 5335.54  398.84   1-0.70652 0.46115 0.10799 0.20600-0.69939 0.86307
   2  -5   512416.01  630.37   1 0.18072 0.06430 0.40525-0.71910 0.89616-0.69191
   2   5   516076.21  804.60   1-0.68400 0.92933 0.67702-0.36310 0.27160-0.06709
  -2   5   512255.59  673.74   1-0.74154 0.49617 0.16395 0.15004-0.65056 0.85516
   2  -5   616761.69 1388.03   1 0.12485 0.12027 0.44278-0.75672 0.88789-0.64257
   2   5   623180.16  702.45   1-0.68646 0.93179 0.67625-0.36232 0.26727-0.02186
  -2   5   618605.41 1573.48   1-0.77021 0.52484 0.21615 0.09784-0.60004 0.84555
   2  -5   716506.98 1369.78   1 0.07410 0.17101 0.47441-0.78835 0.87717-0.59097
   2   5   716767.15 1404.55   1-0.68653 0.93186 0.67623-0.36230 0.26715 0.01915
  -2   5   717896.65 1524.84   1-0.79305 0.54768 0.26439 0.04960-0.54878 0.83521
   2  -5   818318.79 1517.72   1 0.02907 0.21605 0.50089-0.81483 0.86502-0.53793
   2   5   818784.41 1575.15   1-0.68477 0.93010 0.67678-0.36286 0.27025 0.05695
  -2   5   818271.80 1556.61   1-0.81067 0.56514 0.30840 0.00560-0.49769 0.82497
  -2  -5   928723.36  566.08   1 0.50700-0.75217 0.13383-0.44778 0.85148-0.48345
   2  -5   933893.75  806.63   1-0.01025 0.25537 0.52278-0.83672 0.85240-0.48442
  -2  -5   927313.15  533.55   1-0.09258-0.15256 0.56497-0.87891 0.81989-0.45192
   2   5   928259.03  776.46   1-0.68155 0.92688 0.67777-0.36384 0.27587 0.09224
  -2   5   932862.99  895.20   1-0.82368 0.57815 0.34892-0.03491-0.44698 0.81517
   2  -5  1024622.79  637.80   1-0.04407 0.28919 0.54071-0.85465 0.84004-0.43118
  -2  -5  1024800.32  504.55   1-0.25293 0.00778 0.63228-0.94622 0.73228-0.32342
   2   5  1026095.55  727.07   1-0.67712 0.92245 0.67906-0.36513 0.28349 0.12552
  -2   5  1024726.43  788.58   1-0.83267 0.58714 0.38586-0.07185-0.39718 0.80628
   2   5 -1021426.17  460.64   1-0.63731 0.88261 0.01353 0.30048-0.77048 0.36152
   2  -5  1120627.55  928.73   1-0.07271 0.31787 0.55526-0.86920 0.82848-0.37874
  -2  -5  1126313.66 1086.47   1-0.32503 0.07988 0.65556-0.96946 0.68160-0.23186
   2   5  1126902.73 1222.30   1-0.67166 0.91698 0.68056-0.36663 0.29273 0.15718
  -2   5  1120298.56 1009.84   1-0.83819 0.59266 0.41950-0.10549-0.34850 0.79851
   2   5 -1117593.80  754.24   1-0.69025 0.93556 0.08484 0.22917-0.71857 0.26871
   2  -5  12 6212.30  705.50   1-0.09667 0.34182 0.56693-0.88087 0.81806-0.32743
  -2  -5  12 7935.93  852.59   1-0.36311 0.11796 0.66598-0.97988 0.65162-0.16099
   2   5  12 7254.21  848.87   1-0.66529 0.91061 0.68219-0.36826 0.30331 0.18750
  -2   5  12 5759.39  700.09   1-0.84095 0.59537 0.44965-0.13566-0.30101 0.79191
   2  -5  13 5521.00  347.95   1-0.11632 0.36148 0.57619-0.89013 0.80898-0.27746
  -2  -5  13 6223.85  286.39   1-0.38397 0.13881 0.67108-0.98497 0.63420-0.10269
   2   5  13 6465.60  440.54   1-0.65809 0.90342 0.68386-0.36994 0.31500 0.21672
  -2   5  13 6157.94  552.91   1-0.84084 0.59526 0.47749-0.16350-0.25491 0.78671
   2  -5  14 8206.27  615.42   1-0.13211 0.37726 0.58342-0.89735 0.80135-0.22894
   2   5  14 9162.87  726.10   1-0.65014 0.89547 0.68554-0.37161 0.32761 0.24500
  -2   5  14 8333.60  800.98   1-0.83845 0.59287 0.50282-0.18884-0.21012 0.78283
   2  -5  1527281.53 1405.30   1-0.14441 0.38956 0.58892-0.90285 0.79518-0.18189
   2   5  1528315.47 1516.25   1-0.64148 0.88681 0.68716-0.37323 0.34102 0.27250
  -2   5  1527969.03 1515.53   1-0.83407 0.58849 0.52588-0.21189-0.16661 0.78023
   2  -5  16 6058.46  431.86   1-0.15358 0.39873 0.59294-0.90688 0.79046-0.13628
   2   5  16 4560.84  736.11   1-0.63242 0.87757 0.68849-0.37464 0.35500 0.29918
  -2   5  16 6256.65  650.42   1-0.82793 0.58235 0.54686-0.23287-0.12433 0.77886
   2  -5  17 4007.43  567.53   1-0.15993 0.40508 0.59569-0.90962 0.78712-0.09206
   2   5  17 4219.61  632.94   1-0.62243 0.86758 0.68987-0.37602 0.36965 0.32541
  -2   5  17 4812.15  761.75   1-0.82060 0.57511 0.56543-0.25157-0.08300 0.77842
   2  -5  1811323.89  872.39   1-0.16373 0.40888 0.59732-0.91125 0.78510-0.04915
   2   5  1812855.75 1026.26   1-0.61181 0.85696 0.69108-0.37723 0.38481 0.35114
  -2   5  1812921.63 1048.07   1-0.81145 0.56597 0.58282-0.26895-0.04298 0.77931
   2  -5  19 2840.11  544.43   1-0.16521 0.41036 0.59795-0.91189 0.78431-0.00748
   2   5  19 4092.56  501.73   1-0.60056 0.84571 0.69209-0.37824 0.40041 0.37642
  -2   5  19 3418.24  469.39   1-0.80101 0.55553 0.59862-0.28475-0.00397 0.78121
   2  -5  20 4437.73  433.78   1-0.16456 0.40971 0.59767-0.91161 0.78466 0.03305
   2   5  20 5693.12  620.26   1-0.58868 0.83383 0.69286-0.37901 0.41640 0.40132
  -2   5  20 5579.29  517.90   1-0.78937 0.54389 0.61295-0.29909 0.03409 0.78404
   2   6   0 3410.79  203.81   1-0.64290 0.88823 0.68691-0.31020 0.33885-0.33885
  -2  -6   0 3273.71  200.01   1-0.78259 0.53722 0.24132-0.61812-0.57385 0.57385
  -2   6   0 3257.60  319.95   1-0.54929 0.30399-0.08932 0.46614-0.83083 0.83083
   2  -6   1 5414.12  489.30   1 0.49573-0.25057 0.14518-0.52192 0.85625-0.81535
   2   6  -1 5085.58  259.60   1-0.57807 0.82322 0.69331-0.31669 0.43029-0.47117
   2   6   1 3623.79  220.47   1-0.67572 0.92104 0.67946-0.30274 0.28588-0.24498
  -2  -6  -1 4678.92  262.70   1-0.81195 0.56642 0.31201-0.68882-0.49333 0.45242
  -2  -6   1 3026.31  173.08   1-0.71417 0.46881 0.11966-0.49645-0.68966 0.73057
  -2   6   1 5107.24  367.67   1-0.59931 0.35401-0.03286 0.40968-0.79983 0.84073
   2   6  -2 5708.25  341.91   1 0.51397-0.26880 0.12672 0.25001 0.84839-0.93018
   2  -6   2 5792.42  736.69   1 0.43962-0.19445 0.19919-0.57593 0.87581-0.79402
   2   6  -2 5766.35  274.82   1-0.41100 0.65615 0.67701-0.30034 0.61051-0.69228
   2   6   2 5720.24  331.54   1-0.69385 0.93918 0.67380-0.29708 0.25407-0.17226
  -2  -6  -2 5111.95  290.91   1-0.82556 0.58003 0.35577-0.73257-0.43802 0.35620
  -2   6   2 5083.90  390.27   1-0.64485 0.39954 0.02316 0.35365-0.76395 0.84574
   2  -6   332030.75 2616.72   1 0.38244-0.13727 0.25038-0.62712 0.88940-0.76672
   2   6   334409.83  649.24   1-0.70402 0.94935 0.67006-0.29334 0.23529-0.11258
  -2   6   331236.89 2570.83   1-0.68534 0.44003 0.07782 0.29899-0.72405 0.84674
   2  -6   416929.85 1405.51   1 0.32531-0.08028 0.29759-0.67421 0.89755-0.73416
   2   6   416578.82 1382.06   1-0.70935 0.95467 0.66792-0.29120 0.22516-0.06155
  -2   6   416405.17 1396.57   1-0.72087 0.47550 0.13011 0.24668-0.68074 0.84441
   2  -6   519683.72  520.85   1 0.27018-0.02516 0.34073-0.71735 0.90049-0.69625
   2   6   517253.54 1442.69   1-0.71146 0.95678 0.66703-0.29032 0.22109-0.01658
  -2   6   520314.73  606.52   1-0.75078 0.50541 0.18001 0.19678-0.63554 0.84013
   2  -6   631449.54  875.29   1 0.21791 0.02711 0.37922-0.75585 0.89927-0.65418
   2   6   635064.87 1017.96   1-0.71128 0.95660 0.66711-0.29040 0.22144 0.02396
  -2   6   633781.64 1030.70   1-0.77563 0.53027 0.22694 0.14985-0.58896 0.83448
   2  -6   7 2580.61  239.73   1 0.16934 0.07568 0.41300-0.78962 0.89484-0.60890
   2   6   7 2583.76  239.76   1-0.70937 0.95470 0.66791-0.29119 0.22511 0.06119
  -2   6   7 1571.92  279.58   1-0.79579 0.55026 0.27045 0.10635-0.54182 0.82819
   2  -6   8 9636.29  882.83   1 0.12537 0.11975 0.44245-0.81917 0.88798-0.56089
   2   6   810745.34  424.79   1-0.70611 0.95144 0.66923-0.29252 0.23134 0.09586
  -2   6   8 8493.04  483.60   1-0.81163 0.56610 0.31110 0.06570-0.49442 0.82170
   2  -6   974308.96 1557.10   1 0.08567 0.15945 0.46737-0.84410 0.87989-0.51192
   2   6   981325.63 1793.03   1-0.70173 0.94705 0.67094-0.29423 0.23960 0.12851
  -2   6   974239.60 1691.48   1-0.82361 0.57808 0.34868 0.02812-0.44729 0.81548
   2  -6  10 5320.32  880.93   1 0.05062 0.19450 0.48840-0.86513 0.87114-0.46228
   2   6  1010784.64 1222.47   1-0.69638 0.94170 0.67291-0.29620 0.24947 0.15954
  -2   6  10 4908.98  723.31   1-0.83215 0.58662 0.38332-0.00651-0.40073 0.80983
   2  -6  1156345.99 2356.76   1 0.02012 0.22500 0.50597-0.88270 0.86231-0.41256
   2   6  1158089.89 2497.05   1-0.69018 0.93551 0.67504-0.29833 0.26067 0.18924
  -2   6  1157454.77 2478.59   1-0.83763 0.59210 0.41519-0.03838-0.35493 0.80494
   2  -6  1249111.19 2003.67   1-0.00602 0.25115 0.52049-0.89721 0.85384-0.36321
   2   6  1241196.55 1720.74   1-0.68322 0.92855 0.67726-0.30055 0.27296 0.21785
  -2   6  1249610.12 2054.97   1-0.84068 0.59510 0.44405-0.06727-0.30993 0.80082
   2  -6  1310012.60  996.96   1-0.02808 0.27321 0.53234-0.90907 0.84605-0.31453
   2   6  13 7864.07  714.06   1-0.67555 0.92087 0.67950-0.30279 0.28617 0.24555
  -2   6  1311156.39  674.38   1-0.84108 0.59551 0.47096-0.09418-0.26600 0.79780
   2  -6  1424663.93 1280.15   1-0.04635 0.29148 0.54190-0.91862 0.83916-0.26675
   2   6  1423884.10 1306.79   1-0.66721 0.91253 0.68171-0.30500 0.30014 0.27247
  -2   6  1425165.92 1385.82   1-0.83937 0.59379 0.49567-0.11888-0.22307 0.79578
   2  -6  1525586.20 1327.34   1-0.06114 0.30626 0.54944-0.92617 0.83328-0.21999
   2   6  1522384.85 1239.00   1-0.65823 0.90356 0.68383-0.30712 0.31478 0.29874
  -2   6  1524151.40 1359.12   1-0.83576 0.59018 0.51835-0.14156-0.18114 0.79475
   2  -6  16 3162.31  520.56   1-0.07269 0.31784 0.55525-0.93197 0.82849-0.17431
   2   6  16 2946.88  512.55   1-0.64864 0.89396 0.68584-0.30912 0.32998 0.32444
  -2   6  16 2039.09  453.78   1-0.83045 0.58487 0.53916-0.16237-0.14018 0.79470
   2  -6  1742666.34 1727.00   1-0.08135 0.32650 0.55952-0.93624 0.82481-0.12974
   2   6  1741450.48 1765.96   1-0.63843 0.88376 0.68768-0.31097 0.34567 0.34966
  -2   6  1741008.50 1749.54   1-0.82398 0.57850 0.55773-0.18109-0.09990 0.79532
   2  -6  18 6383.29  552.88   1-0.08732 0.33247 0.56243-0.93915 0.82221-0.08626
   2   6  18 7709.00  717.69   1-0.62790 0.87306 0.68914-0.31252 0.36167 0.37428
  -2   6  18 6981.25  668.79   1-0.81572 0.57023 0.57524-0.19860-0.06078 0.79711
   2  -6  19 2436.02  478.21   1-0.09081 0.33597 0.56412-0.94085 0.82067-0.04384
   2   6  19 3585.17  473.19   1-0.61651 0.86166 0.69058-0.31396 0.37815 0.39868
  -2   6  19 3474.57  530.83   1-0.80616 0.56068 0.59126-0.21462-0.02249 0.79973
   2   7   036286.64  953.70   1-0.69194 0.93727 0.67445-0.23495 0.25752-0.25752
  -2  -7   036537.87  943.06   1-0.70449 0.45912 0.10494-0.54454-0.70190 0.70190
  -2   7   035118.18 1012.84   1-0.59162 0.34631-0.04186 0.48148-0.80512 0.80512
   2   7  -149449.20 1249.31   1-0.65344 0.89876 0.68487-0.24537 0.32243-0.36333
   2   7   148734.76 1277.40   1-0.71177 0.95709 0.66690-0.22740 0.22049-0.17959
  -2  -7  -148894.72 1253.63   1-0.75652 0.51115 0.19032-0.62991-0.62566 0.58474
  -2   7   149304.21 1361.96   1-0.63345 0.38815 0.00867 0.43095-0.77372 0.81462
  -2  -7   145889.96 1153.42   1-0.60416 0.35886-0.02712-0.41250-0.79639 0.83729
  -2   7  -147289.87 1309.90   1-0.54658 0.30128-0.09225 0.53188-0.83230 0.79140
   2  -7   262944.58 1651.28   1 0.49917-0.25400 0.14174-0.58127 0.85483-0.77304
   2   7  -258093.65 1427.90   1 0.39138-0.14621 0.24261 0.19691 0.88767-0.96945
   2   7  -260251.60 1485.42   1-0.56340 0.80855 0.69358-0.25419 0.44891-0.53068
   2   7   253028.21 1396.38   1-0.72250 0.96782 0.66205-0.22255 0.19918-0.11737
  -2  -7  -253580.00 1370.98   1-0.78578 0.54041 0.24817-0.68776-0.56652 0.48469
  -2   7   260774.78 1647.84   1-0.67153 0.42622 0.05858 0.38104-0.73865 0.82044
   2  -7   311947.07 1013.62   1 0.45012-0.20496 0.18938-0.62891 0.87264-0.74997
   2   7   3 9724.27  837.31   1-0.72804 0.97336 0.65930-0.21980 0.18778-0.06508
  -2   7   310963.01  976.01   1-0.70584 0.46047 0.10697 0.33261-0.70024 0.82299
   2  -7   4126666.6 3174.40   1 0.40061-0.15544 0.23450-0.67403 0.88572-0.72215
   2   7   4131040.0 3319.47   1-0.73028 0.97560 0.65814-0.21865 0.18309-0.01949
  -2   7   4122617.3 3148.01   1-0.73553 0.49017 0.15385 0.28574-0.65978 0.82345
   2  -7   5 9950.29  817.55   1 0.35132-0.10629 0.27626-0.71565 0.89456-0.69032
   2   7   5 9781.41  380.23   1-0.73024 0.97556 0.65817-0.21867 0.18319 0.02131
  -2   7   5 9407.43  454.02   1-0.76100 0.51563 0.19856 0.24102-0.61761 0.82220
   2  -7   6 2334.38  241.96   1 0.30388-0.05885 0.31468-0.75407 0.89923-0.65414
   2   7   6 1859.17  259.83   1-0.72851 0.97383 0.65906-0.21957 0.18681 0.05859
  -2   7   6 2101.30  310.20   1-0.78238 0.53701 0.24089 0.19870-0.57432 0.81983
   2  -7   738191.47  874.68   1 0.25879-0.01376 0.34931-0.78871 0.90055-0.61461
   2   7   741344.60 1027.34   1-0.72546 0.97078 0.66060-0.22111 0.19313 0.09318
  -2   7   739134.72 1036.64   1-0.79994 0.55441 0.28044 0.15916-0.53050 0.81687
   2  -7   839789.75 1681.33   1 0.21671 0.02831 0.38008-0.81947 0.89920-0.57241
   2   7   834388.24 1531.37   1-0.72133 0.96665 0.66261-0.22311 0.20155 0.12566
  -2   7   840370.48 1802.43   1-0.81393 0.56840 0.31770 0.12190-0.48638 0.81366
   2  -7   9  936.38  158.25   1 0.17807 0.06695 0.40706-0.84645 0.89587-0.52822
   2   7   9  864.29  332.42   1-0.71628 0.96161 0.66493-0.22543 0.21164 0.15647
  -2   7   9 1523.24  398.75   1-0.82467 0.57914 0.35246 0.08714-0.44236 0.81055
   2  -7  1055714.92 2182.51   1 0.14353 0.10159 0.43065-0.87016 0.89103-0.48216
   2   7  1063144.22 2533.24   1-0.71042 0.95575 0.66747-0.22797 0.22309 0.18592
  -2   7  1054713.02 2234.39   1-0.83245 0.58693 0.38479 0.05481-0.39867 0.80777
   2  -7  11 8584.88  779.36   1 0.11246 0.13266 0.45068-0.89020 0.88557-0.43582
   2   7  11 8291.81  507.02   1-0.70383 0.94915 0.67013-0.23063 0.23566 0.21425
  -2   7  11 7913.46  566.82   1-0.83758 0.59205 0.41480 0.02480-0.35550 0.80551
   2  -7  12 3331.63  523.12   1 0.08519 0.15992 0.46766-0.90718 0.87978-0.38915
   2   7  12 2867.35  460.07   1-0.69655 0.94188 0.67285-0.23335 0.24915 0.24166
  -2   7  12 3120.94  429.33   1-0.84058 0.59500 0.44222-0.00264-0.31282 0.80371
   2  -7  1319145.98 1740.40   1 0.06163 0.18348 0.48189-0.92141 0.87405-0.34253
   2   7  1314938.12  939.16   1-0.68864 0.93396 0.67555-0.23605 0.26342 0.26829
  -2   7  1319306.04 1142.08   1-0.84115 0.59557 0.46799-0.02841-0.27099 0.80279
   2  -7  14 7092.03 1042.80   1 0.04162 0.20350 0.49366-0.93317 0.86865-0.29624
   2   7  14 7250.21  561.91   1-0.68011 0.92543 0.67820-0.23870 0.27836 0.29425
  -2   7  14 6711.68  561.96   1-0.83977 0.59420 0.49184-0.05226-0.22990 0.80261
   2  -7  15  958.02  194.52   1 0.02495 0.22016 0.50323-0.94275 0.86378-0.25049
   2   7  15 1105.10  332.45   1-0.67098 0.91630 0.68074-0.24124 0.29387 0.31965
  -2   7  15  172.25  254.42   1-0.83663 0.59105 0.51390-0.07432-0.18958 0.80319
   2  -7  1618464.74  947.66   1 0.01143 0.23368 0.51084-0.95036 0.85959-0.20541
   2   7  1613630.54  758.20   1-0.66127 0.90659 0.68314-0.24365 0.30987 0.34455
  -2   7  1618425.53  934.77   1-0.83188 0.58630 0.53429-0.09470-0.15001 0.80453
   2  -7  17 1722.20  411.62   1 0.00085 0.24426 0.51671-0.95623 0.85615-0.16108
   2   7  17 1985.38  432.88   1-0.65098 0.89630 0.68537-0.24587 0.32631 0.36902
  -2   7  17 2191.92  510.03   1-0.82602 0.58054 0.55260-0.11319-0.11090 0.80632
   2  -7  18 2561.87  672.34   1-0.00698 0.25211 0.52101-0.96052 0.85351-0.11756
   2   7  18 3786.40  513.92   1-0.64011 0.88544 0.68740-0.24790 0.34311 0.39311
  -2   7  18 3266.94  459.06   1-0.81842 0.57293 0.56998-0.13057-0.07280 0.80912
   2   8   010722.49  326.87   1-0.72054 0.96587 0.66298-0.16069 0.20313-0.20313
  -2   8   010337.07  431.80   1-0.62952 0.38422 0.00374 0.49868-0.77697 0.77697
  -2  -8   010177.66  284.81   1-0.61950 0.37420-0.00863-0.49379-0.78494 0.78494
   2   8  -137512.06  768.18   1 0.50561-0.26044 0.13524 0.36707 0.85209-0.89298
   2   8  -136839.68  788.55   1-0.69603 0.94135 0.67303-0.17075 0.25011-0.29102
   2   8   139421.63  893.83   1-0.73334 0.97867 0.65651-0.15423 0.17661-0.13570
  -2   8   137119.53  934.15   1-0.66449 0.41919 0.04902 0.45340-0.74568 0.78657
  -2  -8  -135180.39  761.70   1-0.68821 0.44291 0.08192-0.58435-0.72086 0.67996
  -2   8  -138950.22  949.86   1-0.59177 0.34647-0.04168 0.54411-0.80502 0.76412
   2   8  -237640.33  748.67   1 0.30097-0.05594 0.31697 0.18518 0.89941-0.98110
   2   8  -239526.93  799.96   1-0.64291 0.88824 0.68691-0.18462 0.33883-0.42063
   2   8   236989.73  884.39   1-0.74002 0.98534 0.65274-0.15046 0.16212-0.08032
  -2   8   239360.10  994.95   1-0.69668 0.45131 0.09338 0.40900-0.71127 0.79311
  -2   8  -234638.00  852.80   1-0.55175 0.30644-0.08666 0.58909-0.82949 0.74770
   2  -8   3 8751.32  342.71   1 0.51015-0.26498 0.13063-0.63295 0.85010-0.72742
   2   8  -3 7487.53  153.19   1-0.16752 0.41267 0.59893-0.09663 0.78307-0.90573
   2   8   3 6259.35  344.13   1-0.74301 0.98834 0.65096-0.14868 0.15546-0.03276
  -2   8   3 7937.48  448.21   1-0.72512 0.47975 0.13686 0.36553-0.67487 0.79763
   2  -8   427486.19  694.54   1 0.46751-0.22234 0.17285-0.67517 0.86692-0.70334
   2   8   424205.61  688.64   1-0.74356 0.98889 0.65063-0.14834 0.15423 0.00937
  -2   8   424668.03  733.77   1-0.75012 0.50475 0.17883 0.32355-0.63665 0.80033
   2  -8   561494.46 2561.33   1 0.42474-0.17957 0.21286-0.71518 0.87993-0.67546
   2   8   560186.42 2556.53   1-0.74235 0.98768 0.65136-0.14908 0.15694 0.04756
  -2   8   559980.83 2554.90   1-0.77168 0.52631 0.21904 0.28335-0.59709 0.80168
   2  -8   6 9977.37 1264.33   1 0.38260-0.13744 0.25024-0.75256 0.88937-0.64401
   2   8   6 8088.39  925.23   1-0.73979 0.98512 0.65288-0.15059 0.16261 0.08279
  -2   8   6 9705.11 1116.74   1-0.78993 0.54456 0.25730 0.24508-0.55659 0.80211
   2  -8   710589.82 1161.25   1 0.34144-0.09641 0.28444-0.78660 0.89582-0.60988
   2   8   7 9666.58 1095.81   1-0.73615 0.98147 0.65496-0.15268 0.17058 0.11573
  -2   8   712166.78  769.31   1-0.80504 0.55951 0.29329 0.20911-0.51563 0.80200
   2  -8   817844.93 1597.03   1 0.30259-0.05756 0.31570-0.81786 0.89931-0.57252
   2   8   816266.71  790.32   1-0.73158 0.97690 0.65746-0.15517 0.18035 0.14686
  -2   8   819176.31  940.09   1-0.81717 0.57164 0.32744 0.17496-0.47434 0.80162
   2  -8   9 6528.60  828.92   1 0.26619-0.02117 0.34375-0.84591 0.90053-0.53289
   2   8   9 6780.43  461.95   1-0.72621 0.97153 0.66023-0.15794 0.19158 0.17653
  -2   8   9 7723.38  540.52   1-0.82656 0.58103 0.35953 0.14288-0.43305 0.80124
   2  -8  1016508.19 1219.09   1 0.23262 0.01240 0.36862-0.87078 0.90000-0.49150
   2   8  1015581.01  822.73   1-0.72011 0.96544 0.66318-0.16089 0.20400 0.20501
  -2   8  1015972.17  848.45   1-0.83342 0.58789 0.38960 0.11280-0.39193 0.80103
   2  -8  1118041.62  808.00   1 0.20211 0.04291 0.39042-0.89258 0.89817-0.44883
   2   8  1119737.03  977.97   1-0.71335 0.95867 0.66622-0.16394 0.21741 0.23250
  -2   8  1119994.51 1068.65   1-0.83797 0.59244 0.41773 0.08467-0.35114 0.80115
   2  -8  12 7072.80  976.62   1 0.17477 0.07025 0.40931-0.91147 0.89549-0.40530
   2   8  12 5330.79  713.41   1-0.70595 0.95128 0.66930-0.16701 0.23165 0.25917
  -2   8  12 6254.21  848.81   1-0.84066 0.59508 0.44362 0.05875-0.31061 0.80151
   2  -8  1314580.41  823.04   1 0.15112 0.09400 0.42564-0.92794 0.89218-0.36066
   2   8  1311956.43  797.51   1-0.69795 0.94328 0.67234-0.17006 0.24659 0.28513
  -2   8  1312539.65  851.75   1-0.84115 0.59557 0.46813 0.03424-0.27076 0.80256
   2  -8  14 1925.37  482.93   1 0.13021 0.11490 0.43932-0.94163 0.88883-0.31643
   2   8  14 1573.89  348.63   1-0.68937 0.93469 0.67531-0.17303 0.26213 0.31049
  -2   8  14 2250.39  476.04   1-0.83986 0.59428 0.49096 0.01141-0.23146 0.80417
   2  -8  15 4966.85  932.36   1 0.11240 0.13271 0.45072-0.95302 0.88555-0.27226
   2   8  15 6303.39  548.41   1-0.68021 0.92553 0.67817-0.17588 0.27819 0.33533
  -2   8  15 5249.17  853.51   1-0.83694 0.59136 0.51223-0.00985-0.19272 0.80634
   2  -8  16  410.30  164.85   1 0.09757 0.14755 0.46002-0.96233 0.88252-0.22834
   2   8  16  846.39  406.13   1-0.67048 0.91580 0.68087-0.17859 0.29471 0.35971
  -2   8  16  473.83  298.17   1-0.83251 0.58693 0.53200-0.02962-0.15456 0.80909
   2  -8  17 2635.48  571.02   1 0.08558 0.15954 0.46743-0.96973 0.87987-0.18481
   2   8  17 3096.70  636.71   1-0.66019 0.90551 0.68339-0.18111 0.31162 0.38370
  -2   8  17 4037.55  604.30   1-0.82668 0.58110 0.55037-0.04799-0.11698 0.81241
   2   9   0 9499.41 1041.17   1-0.73572 0.98105 0.65520-0.09013 0.17149-0.17149
  -2   9   0 9978.22 1158.12   1-0.66361 0.41831 0.04784 0.51738-0.74654 0.74654
   2   9  -1 7287.93  796.19   1-0.71813 0.96345 0.66409-0.09903 0.20797-0.24887
   2   9   1 5949.16  680.45   1-0.74497 0.99029 0.64976-0.08469 0.15106-0.11015
  -2   9   1 7693.28  894.36   1-0.69276 0.44745 0.08846 0.47677-0.71572 0.75661
  -2   9  -1 7281.40  855.55   1-0.63208 0.38678 0.00694 0.55828-0.77486 0.73397
   2   9  -265289.64 2663.19   1-0.68203 0.92735 0.67763-0.11256 0.27504-0.35684
   2   9   265597.33 2750.08   1-0.74960 0.99492 0.64681-0.08174 0.14046-0.05865
  -2   9   271788.30 3025.63   1-0.71964 0.47427 0.12817 0.43702-0.68240 0.76424
  -2   9  -273067.33 3054.56   1-0.59851 0.35321-0.03380 0.59903-0.80039 0.71860
   2   9  -3 6344.38  675.92   1-0.57838 0.82353 0.69330-0.12837 0.42988-0.55254
   2   9   3 3255.43  441.75   1-0.75132 0.99665 0.64567-0.08060 0.13643-0.01373
  -2   9   3 6051.27  730.34   1-0.74339 0.49802 0.16712 0.39807-0.64763 0.77039
  -2   9  -3 3799.69  498.67   1-0.56334 0.31803-0.07393 0.63917-0.82290 0.70022
   2  -9   421872.90  989.98   1 0.52716-0.28199 0.11307-0.67818 0.84220-0.67863
   2   9   418559.94  902.44   1-0.75105 0.99637 0.64585-0.08078 0.13707 0.02653
  -2   9   420083.09  992.06   1-0.76432 0.51895 0.20481 0.36038-0.61144 0.77511
   2  -9   514768.47 1209.12   1 0.49031-0.24514 0.15058-0.71569 0.85843-0.65397
   2   9   514024.48  712.11   1-0.74929 0.99462 0.64701-0.08194 0.14116 0.06334
  -2   9   514507.84  735.47   1-0.78245 0.53708 0.24104 0.32415-0.57416 0.77875
   2  -9   618230.56 1283.32   1 0.45353-0.20836 0.18617-0.75128 0.87157-0.62621
   2   9   620125.40  930.70   1-0.74637 0.99169 0.64888-0.08382 0.14788 0.09752
  -2   9   616182.54  817.39   1-0.79790 0.55237 0.27547 0.28974-0.53616 0.78162
   2  -9   7 3520.54  395.08   1 0.41740-0.17223 0.21951-0.78463 0.88180-0.59555
   2   9   7 3113.85  402.73   1-0.74248 0.98780 0.65128-0.08622 0.15666 0.12964
  -2   9   7 4043.65  467.88   1-0.81068 0.56516 0.30844 0.25676-0.49763 0.78400
   2  -9   832756.82 1392.16   1 0.38245-0.13728 0.25037-0.81548 0.88940-0.56226
   2   9   829480.03 1338.78   1-0.73775 0.98307 0.65406-0.08899 0.16709 0.16011
  -2   9   831363.95 1405.26   1-0.82100 0.57547 0.33972 0.22548-0.45883 0.78611
   2  -9   9 3506.41  418.76   1 0.34873-0.10370 0.27841-0.84334 0.89491-0.52726
   2   9   9 2088.00  334.00   1-0.73228 0.97760 0.65708-0.09201 0.17887 0.18924
  -2   9   9 3096.40  432.02   1-0.82900 0.58347 0.36930 0.19590-0.41995 0.78814
   2  -9  1012529.26 1023.54   1 0.31745-0.07242 0.30391-0.86884 0.89825-0.48976
   2   9  1010695.92  701.63   1-0.72613 0.97145 0.66027-0.09520 0.19175 0.21726
  -2   9  1014146.63  879.34   1-0.83483 0.58930 0.39720 0.16800-0.38114 0.79024
   2  -9  11  950.85  199.82   1 0.28850-0.04348 0.32669-0.89162 0.90001-0.45067
   2   9  11 1163.29  274.33   1-0.71934 0.96467 0.66354-0.09847 0.20555 0.24436
  -2   9  11 1219.03  329.08   1-0.83892 0.59334 0.42310 0.14207-0.34232 0.79231
   2  -9  12  558.41  168.26   1 0.26211-0.01708 0.34682-0.91176 0.90055-0.41036
   2   9  12  454.33  286.06   1-0.71195 0.95727 0.66682-0.10176 0.22014 0.27067
  -2   9  12  672.65  409.38   1-0.84087 0.59529 0.44779 0.11738-0.30399 0.79488
   2  -9  1315335.16 1430.15   1 0.23840 0.00662 0.36440-0.92934 0.90020-0.36916
   2   9  1316714.83  866.41   1-0.70397 0.94929 0.67008-0.10501 0.23539 0.29632
  -2   9  1316568.10  881.73   1-0.84108 0.59551 0.47096 0.09420-0.26600 0.79780
   2  -9  14 3858.03  799.38   1 0.21744 0.02758 0.37956-0.94449 0.89924-0.32736
   2   9  14 4999.00  541.88   1-0.69542 0.94074 0.67325-0.10818 0.25123 0.32139
  -2   9  14 4325.54  710.28   1-0.83969 0.59411 0.49269 0.07248-0.22839 0.80110
   2  -9  15 3075.64  735.80   1 0.19923 0.04579 0.39244-0.95737 0.89794-0.28520
   2   9  15 3155.81  632.95   1-0.68630 0.93163 0.67630-0.11123 0.26756 0.34596
  -2   9  15 3452.49  509.99   1-0.83679 0.59121 0.51304 0.05213-0.19120 0.80482
   2  -9  16 8325.79 1480.32   1 0.18374 0.06128 0.40318-0.96811 0.89648-0.24289
   2   9  1611680.58 1069.80   1-0.67663 0.92195 0.67920-0.11413 0.28433 0.37009
  -2   9  1612793.75 1142.13   1-0.83249 0.58691 0.53206 0.03311-0.15444 0.80896
   2  10   016393.04  714.41   1-0.74179 0.98711 0.65170-0.02384 0.15819-0.15819
  -2  10   018160.50  883.24   1-0.69432 0.44902 0.09073 0.53730-0.71391 0.71391
   2  10   1  844.38  236.86   1-0.74950 0.99482 0.64687-0.01902 0.14068-0.09978
   2  10  -1  237.42   97.93   1-0.72727 0.97260 0.65969-0.03184 0.18938-0.23028
  -2  10   1  758.60  235.13   1-0.71885 0.47348 0.12693 0.50106-0.68347 0.72439
  -2  10  -1 1036.47  293.35   1-0.66814 0.42284 0.05396 0.57407-0.74207 0.70117
   2  10   2 4282.94  334.70   1-0.75328 0.99861 0.64434-0.01649 0.13181-0.05001
  -2  10   2 5100.16  441.32   1-0.74082 0.49545 0.16273 0.46525-0.65168 0.73352
  -2  10  -2 5663.08  459.51   1-0.64017 0.39487 0.01718 0.61085-0.76803 0.68624
   2  10   3 9067.77  684.28   1-0.75453 0.99985 0.64348-0.01563 0.12885-0.00614
  -2  10   314101.40  730.03   1-0.76052 0.51515 0.19767 0.43031-0.61848 0.74124
  -2  10  -312704.63  636.13   1-0.61073 0.36542-0.01927 0.64731-0.79160 0.66891
   2  10   4 2359.98  296.93   1-0.75398 0.99931 0.64386-0.01600 0.13015 0.03344
  -2  10   4 3219.47  367.87   1-0.77790 0.53254 0.23156 0.39642-0.58415 0.74782
  -2  10  -4 1695.17  282.80   1-0.58016 0.33486-0.05504 0.68308-0.81263 0.64905
   2  10   5 2137.47  329.19   1-0.75208 0.99740 0.64516-0.01730 0.13466 0.06984
  -2  10   5 3544.42  435.91   1-0.79299 0.54762 0.26425 0.36373-0.54893 0.75352
  -2  10  -5 3328.42  434.83   1-0.54889 0.30359-0.08975 0.71779-0.83105 0.62657
   2 -10   633603.87 1408.62   1 0.51742-0.27225 0.12317-0.75108 0.84681-0.60145
   2  10   628606.73 1304.32   1-0.74909 0.99441 0.64714-0.01929 0.14164 0.10376
  -2  10   629661.83 1340.30   1-0.80587 0.56034 0.29545 0.33256-0.51310 0.75856
   2 -10   7  267.38   91.35   1 0.48602-0.24086 0.15482-0.78272 0.86012-0.57386
   2  10   7  370.27  239.94   1-0.74518 0.99050 0.64963-0.02178 0.15058 0.13572
  -2  10   7  329.27  261.02   1-0.81653 0.57100 0.32547 0.30253-0.47679 0.76316
   2 -10   8 4600.59  870.65   1 0.45526-0.21010 0.18453-0.81243 0.87102-0.54387
   2  10   8 6744.06  888.83   1-0.74047 0.98580 0.65248-0.02462 0.16111 0.16609
  -2  10   8 5487.16  752.51   1-0.82511 0.57959 0.35410 0.27391-0.44021 0.76749
   2 -10   936615.34 1891.39   1 0.42555-0.18039 0.21212-0.84002 0.87971-0.51167
   2  10   941413.39 2234.46   1-0.73505 0.98037 0.65557-0.02772 0.17295 0.19516
  -2  10   935805.80 1946.79   1-0.83173 0.58620 0.38132 0.24669-0.40350 0.77169
   2 -10  10 3894.36  714.94   1 0.39726-0.15210 0.23745-0.86535 0.88644-0.47751
   2  10  10 5633.37  478.96   1-0.72896 0.97429 0.65883-0.03097 0.18586 0.22315
  -2  10  10 3563.63  672.20   1-0.83648 0.59095 0.40714 0.22086-0.36678 0.77588
   2 -10  1127288.99 2000.91   1 0.37070-0.12554 0.26045-0.88835 0.89148-0.44165
   2  10  1127551.35 1278.56   1-0.72225 0.96757 0.66217-0.03431 0.19969 0.25022
  -2  10  1128141.88 1286.26   1-0.83975 0.59417 0.43124 0.19673-0.32992 0.77990
   2 -10  1216551.24 1220.32   1 0.34560-0.10057 0.28101-0.90871 0.89531-0.40512
   2  10  1214064.26 1150.71   1-0.71494 0.96026 0.66553-0.03767 0.21429 0.27652
  -2  10  1217054.46 1338.20   1-0.84110 0.59552 0.45434 0.17362-0.29345 0.78435
   2 -10  13 2643.21  543.47   1 0.32313-0.07811 0.29934-0.92704 0.89776-0.36672
   2  10  13 2929.55  525.28   1-0.70705 0.95237 0.66886-0.04100 0.22956 0.30215
  -2  10  13 3127.83  596.64   1-0.84090 0.59532 0.47615 0.15182-0.25720 0.78901
   2 -10  1418652.75 1495.48   1 0.30297-0.05794 0.31540-0.94310 0.89929-0.32740
   2  10  1423163.13 1927.67   1-0.69859 0.94391 0.67211-0.04426 0.24542 0.32720
  -2  10  1420232.63 1710.06   1-0.83925 0.59367 0.49671 0.13126-0.22121 0.79392
   2  10  1511458.48  868.80   1-0.68956 0.93489 0.67525-0.04739 0.26177 0.35174
  -2  10  15 9727.35  813.22   1-0.83622 0.59064 0.51605 0.11192-0.18551 0.79913
  -2  11   014290.20  874.80   1-0.72232 0.47696 0.13240 0.55838-0.67875 0.67875
   2  11   1 5067.81  633.55   1-0.74851 0.99384 0.64751 0.04312 0.14296-0.10206
  -2  11   1 6714.59  860.74   1-0.74217 0.49681 0.16504 0.52575-0.64956 0.69048
  -2  11  -1 4944.65  658.79   1-0.70078 0.45541 0.09942 0.59136-0.70641 0.66549
   2  11   218937.92 1040.04   1-0.75225 0.99758 0.64504 0.04559 0.13425-0.05244
  -2  11   219238.27 1080.40   1-0.76022 0.51485 0.19712 0.49366-0.61902 0.70086
  -2  11  -221492.33 1170.79   1-0.67731 0.43201 0.06656 0.62427-0.73267 0.65087
   2  11   3 7271.02  934.29   1-0.75355 0.99888 0.64415 0.04648 0.13117-0.00847
  -2  11   3 8380.46  597.72   1-0.77639 0.53103 0.22848 0.46231-0.58736 0.71012
  -2  11  -3 6176.03  793.65   1-0.65291 0.40761 0.03364 0.65719-0.75668 0.63399
   2  11   422317.26 1211.33   1-0.75311 0.99844 0.64446 0.04617 0.13222 0.03138
  -2  11   424443.29 1335.90   1-0.79066 0.54530 0.25896 0.43182-0.55477 0.71845
  -2  11  -425190.06 1340.62   1-0.62745 0.38215 0.00116 0.68967-0.77865 0.61506
   2  11   5 2248.34  425.64   1-0.75134 0.99666 0.64566 0.04497 0.13640 0.06810
  -2  11   5 1505.04  333.97   1-0.80309 0.55756 0.28829 0.40252-0.52146 0.72601
  -2  11  -5 2256.67  440.91   1-0.60123 0.35593-0.03059 0.72143-0.79848 0.59400
   2  11   611690.01  760.32   1-0.74848 0.99381 0.64753 0.04310 0.14303 0.10237
  -2  11   615363.28  950.93   1-0.81359 0.56807 0.31672 0.37408-0.48758 0.73304
  -2  11  -611575.64  720.51   1-0.57459 0.32929-0.06135 0.75219-0.81613 0.57075
   2  11   7 2984.85  511.22   1-0.74472 0.99005 0.64991 0.04072 0.15162 0.13469
  -2  11   7 1645.65  370.10   1-0.82228 0.57675 0.34404 0.34676-0.45329 0.73966
  -2  11  -7 2937.48  488.02   1-0.54788 0.30257-0.09085 0.78170-0.83160 0.54533
   2 -11   811090.29  549.74   1 0.52149-0.27632 0.11896-0.80966 0.84491-0.51777
   2  11   8 8824.60  561.18   1-0.74016 0.98549 0.65266 0.03797 0.16180 0.16541
  -2  11   8 9995.24  625.99   1-0.82922 0.58369 0.37021 0.32059-0.41872 0.74599
   2 -11   9 7638.20 1136.92   1 0.49562-0.25046 0.14529-0.83598 0.85629-0.48825
   2  11   9 7882.83  584.70   1-0.73489 0.98021 0.65566 0.03497 0.17329 0.19481
  -2  11   9 9731.93  647.31   1-0.83448 0.58895 0.39522 0.29559-0.38397 0.75216
   2 -11  10 9499.40 1165.27   1 0.47070-0.22554 0.16977-0.86046 0.86579-0.45686
   2  11  1011392.58  936.34   1-0.72894 0.97427 0.65884 0.03179 0.18590 0.22311
  -2  11  10 8512.94  773.79   1-0.83813 0.59260 0.41906 0.27175-0.34916 0.75826
   2 -11  11  988.70  285.20   1 0.44703-0.20186 0.19229-0.88298 0.87360-0.42378
   2  11  11 1564.55  367.49   1-0.72237 0.96770 0.66211 0.02852 0.19944 0.25047
  -2  11  11 2006.73  400.97   1-0.84053 0.59495 0.44140 0.24936-0.31411 0.76409
   2  11  12  987.48  324.71   1-0.71520 0.96052 0.66541 0.02522 0.21378 0.27703
  -2  11  12 1702.99  404.96   1-0.84120 0.59562 0.46295 0.22782-0.27938 0.77027
   2  11  13 2008.78  360.95   1-0.70744 0.95276 0.66870 0.02193 0.22882 0.30290
  -2  11  13  820.52  324.46   1-0.84049 0.59491 0.48338 0.20739-0.24477 0.77657
  -2  12   0 7127.56  578.71   1-0.74707 0.50171 0.17349 0.58009-0.64169 0.64169
  -2  12   111535.58  788.51   1-0.76319 0.51782 0.20267 0.55091-0.61356 0.65448
  -2  12  -1 8723.06  643.69   1-0.72955 0.48418 0.14400 0.60958-0.66858 0.62766
  -2  12   220081.19  974.94   1-0.77782 0.53245 0.23138 0.52220-0.58434 0.66617
  -2  12  -219983.88  942.37   1-0.71074 0.46537 0.11439 0.63919-0.69408 0.61224
  -2  12   3 3621.23  595.62   1-0.79090 0.54553 0.25949 0.49409-0.55419 0.67694
  -2  12  -3 2643.54  481.37   1-0.69040 0.44510 0.08506 0.66858-0.71840 0.59571
   2  12   413696.19  703.10   1-0.74880 0.99412 0.64733 0.10609 0.14230 0.02130
  -2  12   412774.72  712.68   1-0.80248 0.55695 0.28674 0.46687-0.52325 0.68689
  -2  12  -412382.24  643.80   1-0.66949 0.42419 0.05580 0.69783-0.74071 0.57713
   2  12   518390.04  867.79   1-0.74738 0.99270 0.64824 0.10517 0.14557 0.05893
  -2  12   515988.69  845.46   1-0.81242 0.56689 0.31334 0.44027-0.49171 0.69626
  -2  12  -517366.37  810.87   1-0.64786 0.40256 0.02706 0.72658-0.76127 0.55679
   2  12   620280.33  957.82   1-0.74484 0.99016 0.64984 0.10357 0.15136 0.09404
  -2  12   619186.16  978.82   1-0.82081 0.57528 0.33907 0.41454-0.45966 0.70512
  -2  12  -618393.83  843.79   1-0.62574 0.38044-0.00094 0.75459-0.78002 0.53464
   2  12   7  811.91  274.21   1-0.74135 0.98668 0.65196 0.10146 0.15917 0.12714
  -2  12   7  201.59  246.83   1-0.82767 0.58215 0.36390 0.38971-0.42722 0.71359
  -2  12  -7 1236.27  277.23   1-0.60342 0.35812-0.02800 0.78165-0.79692 0.51065
   2  12   8 3130.83  515.44   1-0.73704 0.98237 0.65446 0.09896 0.16863 0.15858
  -2  12   8 6327.95  702.74   1-0.83306 0.58753 0.38778 0.36583-0.39449 0.72177
  -2  12  -8 4143.98  656.30   1-0.58116 0.33586-0.05390 0.80755-0.81199 0.48483
   2  12   9 2209.80  500.40   1-0.73200 0.97732 0.65723 0.09618 0.17947 0.18864
  -2  12   9 1726.91  476.65   1-0.83701 0.59148 0.41070 0.34291-0.36157 0.72976
  -2  12  -9 2749.91  523.47   1-0.55925 0.31394-0.07845 0.83210-0.82527 0.45721
   2  12  10 1027.47  309.36   1-0.72626 0.97158 0.66020 0.09321 0.19147 0.21754
  -2  12  10 1062.25  332.03   1-0.83984 0.59427 0.43233 0.32124-0.32824 0.73732
   2  12  11 7249.93  670.22   1-0.71988 0.96521 0.66329 0.09013 0.20447 0.24544
  -2  12  11 5341.94  543.30   1-0.84107 0.59549 0.45330 0.30026-0.29514 0.74513
  -2  13   0 1556.96  378.14   1-0.76907 0.52370 0.21392 0.60246-0.60229 0.60229
  -2  13   1 2322.21  430.94   1-0.78192 0.53655 0.23992 0.57646-0.57535 0.61626
  -2  13  -1 4867.04  507.79   1-0.75506 0.50969 0.18767 0.62872-0.62821 0.58730
  -2  13   2 8774.86  812.55   1-0.79355 0.54818 0.26555 0.55084-0.54749 0.62933
  -2  13  -210595.13  920.64   1-0.73998 0.49461 0.16131 0.65508-0.65299 0.57115
  -2  13   3 2754.68  514.97   1-0.80398 0.55845 0.29055 0.52586-0.51882 0.64155
  -2  13  -3 2186.83  418.50   1-0.72395 0.47858 0.13499 0.68140-0.67651 0.55375
  -2  13   4 5221.13  716.76   1-0.81304 0.56751 0.31513 0.50128-0.48953 0.65317
  -2  13  -4 5940.70  630.85   1-0.70711 0.46174 0.10888 0.70751-0.69866 0.53499
  -2  13   5 9454.56  889.56   1-0.82081 0.57528 0.33907 0.47734-0.45967 0.66422
  -2  13  -5 9464.80  830.81   1-0.68921 0.44390 0.08334 0.73310-0.71975 0.51527
  -2  13   6 4245.26  583.59   1-0.82727 0.58175 0.36231 0.45410-0.42934 0.67480
  -2  13  -6 4001.48  429.10   1-0.67124 0.42593 0.05818 0.75826-0.73895 0.49357
  -2  13   7 5886.65  585.79   1-0.83246 0.58693 0.38482 0.43159-0.39863 0.68500
  -2  13  -7 6072.63  482.26   1-0.65301 0.40771 0.03377 0.78266-0.75659 0.47031
   2  13   810222.20  742.77   1-0.73117 0.97650 0.65767 0.15853 0.18121 0.14599
  -2  13   810218.40  782.91   1-0.83639 0.59086 0.40656 0.40985-0.36762 0.69490
  -2  14   0 6151.24  580.78   1-0.78836 0.54299 0.25381 0.62537-0.56041 0.56041
  -2  14   1  654.39  303.81   1-0.79843 0.55290 0.27675 0.60246-0.53470 0.57561
  -2  14   2 1520.11  335.91   1-0.80741 0.56188 0.29952 0.57969-0.50829 0.59011
  -2  14  -2 1345.07  308.76   1-0.76562 0.52025 0.20728 0.67190-0.60897 0.52713
  -2  14   3 5249.73  524.75   1-0.81536 0.56983 0.32193 0.55728-0.48118 0.60391
  -2  14  -3 5954.71  564.54   1-0.75304 0.50767 0.18404 0.69515-0.63170 0.50894
   3   0   0  148.76  110.39   1 0.18377 0.18377 0.40316-0.40316 0.89648-0.89648
  -3   0   0  189.89   86.12   1-0.18386-0.18386 0.60576-0.60576 0.77410-0.77410
   3   0  -126888.41 1259.30   1 0.28608 0.08146 0.32857-0.32857 0.90010-0.94095
   3   0   127878.21 1322.01   1 0.08821 0.27947 0.46581-0.46581 0.88047-0.83958
  -3   0   125305.38 1183.33   1-0.09510-0.27262 0.56618-0.56618 0.81877-0.77788
   3   0  -2118934.4 1745.95   1 0.39042-0.02267 0.24344-0.24344 0.88786-0.96964
  -3   0   2112242.8 1651.25   1-0.00280-0.36488 0.51872-0.51872 0.85493-0.77316
   3   0   2115325.0 1715.88   1 0.00241 0.36527 0.51585-0.51585 0.85667-0.77489
   3   0  -3 4475.63  486.20   1 0.49066-0.12291 0.15024-0.15024 0.85830-0.98097
  -3   0   3 3165.90  325.29   1 0.08951-0.45720 0.46501-0.46501 0.88076-0.75810
   3   0   3 3271.78  222.00   1-0.07210 0.43984 0.55496-0.55496 0.82874-0.70608
   3   0   477389.36 1222.78   1-0.13542 0.50316 0.58491-0.58491 0.79970-0.63616
  -3   0   475877.60 1186.34   1-0.58129 0.21334-0.05375 0.05375-0.81191 0.97549
   3   0   516652.18  816.67   1-0.18827 0.55600 0.60757-0.60757 0.77162-0.56719
  -3   0   517061.93  836.40   1-0.65843 0.29047 0.04092-0.04092-0.75152 0.95600
   3   0   6 1199.56  169.85   1-0.23181 0.59954 0.62458-0.62458 0.74575-0.50044
  -3   0   6  735.19  128.51   1-0.72042 0.35236 0.12939-0.12939-0.68136 0.92687
   3   0   734650.60  963.24   1-0.26729 0.63502 0.63730-0.63730 0.72277-0.43657
  -3   0   736310.17 1000.65   1-0.76714 0.39909 0.21019-0.21019-0.60606 0.89249
   3   0   813284.52 1120.75   1-0.29595 0.66368 0.64669-0.64669 0.70298-0.37590
  -3   0   812390.09 1049.62   1-0.80024 0.43195 0.28117-0.28117-0.52966 0.85694
   3   0   974696.00 1945.28   1-0.31878 0.68651 0.65372-0.65372 0.68630-0.31833
  -3   0   970721.10 1843.89   1-0.82211 0.45382 0.34345-0.34345-0.45405 0.82224
   3   0  1022229.28  621.22   1-0.33672 0.70444 0.65891-0.65891 0.67264-0.26379
  -3   0  1021265.60  586.83   1-0.83482 0.46653 0.39714-0.39714-0.38122 0.79032
   3   0  1143446.46 1020.75   1-0.35051 0.71824 0.66269-0.66269 0.66180-0.21205
  -3   0  1142703.64 1019.57   1-0.84059 0.47223 0.44252-0.44252-0.31236 0.76234
   3   0  12 1706.27  342.95   1-0.36078 0.72850 0.66538-0.66538 0.65352-0.16290
  -3   0  12 1260.06  255.82   1-0.84058 0.47221 0.48202-0.48202-0.24711 0.73800
   3   0  13  314.90  210.03   1-0.36802 0.73575 0.66722-0.66722 0.64758-0.11607
  -3   0  13  -61.31  179.04   1-0.83625 0.46788 0.51592-0.51592-0.18577 0.71757
   3   0  14  579.71  210.85   1-0.37266 0.74039 0.66837-0.66837 0.64373-0.07133
  -3   0  14  539.31  277.82   1-0.82855 0.46019 0.54505-0.54505-0.12810 0.70081
   3   0  1553928.10 2213.01   1-0.37503 0.74276 0.66895-0.66895 0.64175-0.02847
  -3   0  1552598.63 2140.23   1-0.81868 0.45045 0.56945-0.56945-0.07400 0.68760
   3   0  16 1042.68  275.06   1-0.37539 0.74311 0.66903-0.66903 0.64145 0.01271
  -3   0  16  999.16  226.39   1-0.80622 0.43800 0.59116-0.59116-0.02274 0.67725
   3   0  1721728.39 1217.83   1-0.37396 0.74169 0.66869-0.66869 0.64265 0.05240
  -3   0  1720944.28 1157.22   1-0.79203 0.42380 0.60993-0.60993 0.02581 0.66960
   3   0  18 7862.90  500.42   1-0.37092 0.73865 0.66794-0.66794 0.64518 0.09075
  -3   0  18 8327.54  501.78   1-0.77637 0.40815 0.62614-0.62614 0.07198 0.66434
   3   0  19  805.28  256.92   1-0.36642 0.73415 0.66682-0.66682 0.64890 0.12792
  -3   0  19 2586.36  469.26   1-0.75945 0.39122 0.64013-0.64013 0.11604 0.66119
   3   0  20 1311.54  339.10   1-0.36057 0.72830 0.66533-0.66533 0.65369 0.16401
  -3   0  20 2214.09  466.60   1-0.74185 0.37386 0.65166-0.65166 0.15807 0.65996
   3  -1   032293.42  603.60   1 0.24991 0.11762 0.35593-0.41870 0.90047-0.90047
   3   1   033014.00  577.19   1 0.11221 0.25547 0.45084-0.38805 0.88552-0.88552
  -3  -1   031388.65 2547.72   1-0.29983-0.06789 0.64792-0.71070 0.70020-0.70020
   3  -1  -1 4793.32  282.77   1 0.33979 0.02774 0.28579-0.34856 0.89602-0.93687
   3   1  -1 5519.32  585.34   1 0.22786 0.13968 0.37207-0.30930 0.89979-0.94064
   3  -1   1 5530.74  581.29   1 0.16326 0.20427 0.41709-0.47986 0.89407-0.85322
   3   1   1 5650.94  533.95   1 0.00848 0.35920 0.51249-0.44970 0.85864-0.81776
  -3  -1   1 4487.40  245.31   1-0.21268-0.15504 0.61730-0.68009 0.75743-0.71654
  -3  -1  -1 4673.55  256.51   1-0.37695 0.00922 0.66941-0.73219 0.64014-0.68103
   3  -1  -2 7397.37  476.45   1 0.42937-0.06162 0.20864-0.27143 0.87869-0.96048
   3   1  -211606.53  807.01   1 0.34969 0.01785 0.27761-0.21484 0.89478-0.97648
   3  -1   210342.09  942.84   1 0.08286 0.28482 0.46909-0.53188 0.87925-0.79747
   3   1   2 7695.91  407.09   1-0.08063 0.44837 0.55917-0.49638 0.82512-0.74334
  -3  -1   2 7807.24  393.66   1-0.11691-0.25081 0.57646-0.63925 0.80871-0.72694
   3  -1  -3187651.0 2711.67   1 0.51426-0.14651 0.12643-0.18922 0.84826-0.97094
   3   1  -3176390.1 2548.18   1 0.46947-0.10172 0.17096-0.10817 0.86623-0.98891
  -3  -1   3174173.8 2482.74   1-0.01572-0.35196 0.52574-0.58853 0.85049-0.72783
   3  -1   3170861.8 2487.46   1 0.01036 0.35732 0.51145-0.57423 0.85925-0.73659
   3   1   3172208.6 2500.25   1-0.15507 0.52280 0.59359-0.53080 0.78968-0.66702
  -3  -1   4 7954.32  398.94   1 0.08606-0.45375 0.46713-0.52992 0.87998-0.71644
   3  -1   4 5962.14  344.56   1-0.05331 0.42100 0.54547-0.60825 0.83643-0.67288
   3   1   4 9365.16  491.77   1-0.21600 0.58373 0.61858-0.55580 0.75544-0.59189
  -3   1   4 6373.34  390.12   1-0.59106 0.22311-0.04251 0.10531-0.80550 0.96908
  -3  -1   4 8180.56  429.16   1-0.57779 0.20983-0.05773-0.00506-0.81413 0.97772
  -3  -1   566991.19 1019.68   1 0.18337-0.55091 0.40343-0.46620 0.89644-0.69219
   3  -1   578215.42 1246.25   1-0.10810 0.47583 0.57235-0.63514 0.81284-0.60841
   3   1   569712.42 1126.43   1-0.26522 0.63295 0.63658-0.57380 0.72416-0.51973
  -3   1   578455.96 1261.48   1-0.65750 0.28955 0.03969 0.02310-0.75240 0.95688
  -3  -1   571359.11 1113.40   1-0.66784 0.29989 0.05356-0.11636-0.74236 0.94684
  -3  -1   639136.08  656.87   1 0.27162-0.63916 0.33964-0.40241 0.90047-0.65538
   3  -1   642493.20  771.48   1-0.15460 0.52233 0.59338-0.65617 0.78993-0.54461
   3   1   643560.19  781.91   1-0.30462 0.67235 0.64942-0.58664 0.69674-0.45143
  -3  -1   643706.08  753.66   1-0.73675 0.36870 0.15588-0.21867-0.65794 0.90345
  -3   1   642832.05  795.50   1-0.71263 0.34458 0.11728-0.05448-0.69165 0.93717
  -3  -1   717313.26 1421.93   1 0.34830-0.71584 0.27877-0.34154 0.89496-0.60902
   3  -1   715375.35 1286.13   1-0.19352 0.56125 0.60970-0.67249 0.76863-0.48243
   3   1   719974.02  531.71   1-0.33587 0.70360 0.65867-0.59589 0.67330-0.38710
  -3  -1   718475.83 1526.48   1-0.78508 0.41703 0.24666-0.30946-0.56815 0.85458
  -3   1   715823.68 1327.59   1-0.75605 0.38800 0.18947-0.12667-0.62647 0.91290
   3  -1   817589.16 1463.73   1-0.22573 0.59346 0.62230-0.68509 0.74951-0.42243
   3   1   822005.33  674.04   1-0.36043 0.72816 0.66529-0.60251 0.65380-0.32672
  -3  -1   824026.80  701.01   1-0.81590 0.44761 0.32356-0.38636-0.47917 0.80645
  -3   1   818962.46 1583.82   1-0.78885 0.42080 0.25490-0.19210-0.55922 0.88657
   3  -1   936972.18 1034.28   1-0.25208 0.61981 0.63198-0.69476 0.73283-0.36486
   3   1   945542.77 1247.10   1-0.37948 0.74721 0.67002-0.60724 0.63800-0.27003
  -3  -1   946045.92 1228.08   1-0.83320 0.46490 0.38847-0.45127-0.39352 0.76171
  -3   1   935014.11 1002.31   1-0.81227 0.44398 0.31292-0.25011-0.49222 0.86041
   3  -1  10 6067.27  300.24   1-0.27336 0.64109 0.63936-0.70215 0.71866-0.30980
   3   1  10 5552.61  321.94   1-0.39398 0.76171 0.67337-0.61059 0.62557-0.21671
  -3  -1  10 5302.04  277.60   1-0.84053 0.47217 0.44154-0.50434-0.31389 0.72297
  -3   1  10 6191.45  331.87   1-0.82788 0.45958 0.36471-0.30191-0.42614 0.83524
   3  -1  11115224.4 2367.24   1-0.29032 0.65804 0.64489-0.70766 0.70698-0.25724
   3   1  11116450.0 2404.46   1-0.40469 0.77241 0.67570-0.61292 0.61615-0.16641
  -3  -1  11112732.2 2271.33   1-0.84028 0.47191 0.48619-0.54899-0.23987 0.68985
  -3   1  11115670.4 2392.34   1-0.83695 0.46866 0.41031-0.34751-0.36214 0.81215
   3  -1  1214723.51  722.73   1-0.30343 0.67115 0.64905-0.71182 0.69761-0.20698
   3   1  1210842.02 1225.63   1-0.41220 0.77993 0.67726-0.61448 0.60942-0.11880
  -3  -1  1210724.99 1172.00   1-0.83469 0.46633 0.52324-0.58604-0.17174 0.66263
  -3   1  1213774.96  698.54   1-0.84095 0.47258 0.44972-0.38692-0.30090 0.79180
   3  -1  13 9638.69  537.64   1-0.31325 0.68098 0.65206-0.71484 0.69041-0.15890
   3   1  13 9173.47  497.26   1-0.41700 0.78473 0.67822-0.61544 0.60507-0.07355
  -3  -1  1310516.47  502.32   1-0.82575 0.45752 0.55332-0.61610-0.10936 0.64116
  -3   1  13 9991.31  537.39   1-0.84038 0.47202 0.48486-0.42207-0.24218 0.77398
   3  -1  14 8609.86  667.04   1-0.32022 0.68795 0.65415-0.71693 0.68523-0.11283
   3   1  14 7363.74  594.76   1-0.41948 0.78720 0.67871-0.61593 0.60281-0.03041
  -3  -1  14 7936.98  600.42   1-0.81351 0.44528 0.57927-0.64204-0.05139 0.62409
  -3   1  14 7796.96  629.51   1-0.83629 0.46792 0.51570-0.45290-0.18618 0.75889
   3  -1  15 5783.35  492.21   1-0.32467 0.69240 0.65546-0.71824 0.68187-0.06859
   3   1  15 4741.49  435.85   1-0.41992 0.78765 0.67880-0.61602 0.60240 0.01087
  -3  -1  15 4643.29  425.87   1-0.79916 0.43093 0.60110-0.66388 0.00241 0.61118
  -3   1  15 5453.37  535.86   1-0.82931 0.46094 0.54277-0.47997-0.13281 0.74642
   3  -1  16  768.72  304.71   1-0.32690 0.69463 0.65611-0.71889 0.68018-0.02601
   3   1  16  189.12  239.93   1-0.41858 0.78631 0.67853-0.61576 0.60363 0.05053
  -3  -1  16  263.25  148.93   1-0.78318 0.41496 0.61955-0.68232 0.05265 0.60186
  -3   1  16  369.47  211.17   1-0.82038 0.45216 0.56590-0.50313-0.08197 0.73648
   3  -1  1724462.94 1343.17   1-0.32715 0.69488 0.65618-0.71896 0.67999 0.01506
   3   1  1727443.78 1499.81   1-0.41564 0.78337 0.67795-0.61517 0.60630 0.08874
  -3  -1  1726758.49 1414.65   1-0.76591 0.39768 0.63515-0.69792 0.09981 0.59560
  -3   1  1722563.39 1235.19   1-0.80900 0.44078 0.58685-0.52407-0.03331 0.72873
   3  -1  18 5210.97  774.89   1-0.32562 0.69334 0.65573-0.71851 0.68116 0.05478
   3   1  18 6769.15  455.02   1-0.41127 0.77900 0.67707-0.61429 0.61026 0.12567
  -3  -1  18 7505.45  450.03   1-0.74801 0.38002 0.64784-0.71063 0.14413 0.59210
  -3   1  18 5636.42  386.71   1-0.79591 0.42769 0.60525-0.54248 0.01328 0.72304
   3  -1  1917709.50 1333.12   1-0.32246 0.69018 0.65481-0.71759 0.68354 0.09327
   3   1  1920284.50 1519.75   1-0.40559 0.77331 0.67589-0.61311 0.61535 0.16146
  -3   1  1917138.92 1275.64   1-0.78133 0.41310 0.62141-0.55863 0.05802 0.71921
   3  -1  20 1816.54  271.43   1-0.31780 0.68553 0.65343-0.71621 0.68703 0.13067
   3   1  20 2026.45  308.88   1-0.39868 0.76641 0.67441-0.61163 0.62146 0.19624
   3  -2   0  840.98  127.73   1 0.31082 0.05672 0.30919-0.43473 0.89876-0.89876
   3   2   0  505.79   97.78   1 0.03547 0.33221 0.49721-0.37164 0.86690-0.86690
  -3  -2   0  346.27   77.96   1-0.43822 0.07049 0.68218-0.80773 0.58531-0.58531
   3  -2  -1171584.7 2500.77   1 0.38968-0.02193 0.24409-0.36967 0.88800-0.92890
   3  -2   1157292.9 2301.50   1 0.23321 0.13432 0.36819-0.49373 0.90002-0.85917
   3   2  -1165900.1 2367.97   1 0.16474 0.20279 0.41610-0.29056 0.89426-0.93511
   3   2   1173683.5 2495.20   1-0.07435 0.44208 0.55607-0.43049 0.82780-0.78691
  -3  -2   1163494.0 2316.53   1-0.36238-0.00533 0.66579-0.79135 0.65221-0.61133
  -3  -2  -1155990.7 2226.04   1-0.50131 0.13359 0.69072-0.81626 0.52112-0.56201
   3  -2  -270451.73 1123.45   1 0.46660-0.09885 0.17372-0.29930 0.86723-0.94902
   3   2  -266928.97 1006.09   1 0.30765 0.05989 0.31171-0.18617 0.89899-0.98069
   3  -2   270125.11 1123.63   1 0.15909 0.20844 0.41989-0.54543 0.89352-0.81182
   3   2   269148.92 1079.57   1-0.16417 0.53190 0.59751-0.47193 0.78487-0.70310
  -3  -2   266690.58  991.33   1-0.27276-0.09496 0.63916-0.76474 0.71907-0.63730
   3   2  -3 7725.03  537.17   1 0.45279-0.08504 0.18687-0.06129 0.87181-0.99449
   3  -2   3 6985.78  635.98   1 0.09047 0.27721 0.46442-0.59000 0.88097-0.75832
  -3  -2   3 4650.77  242.12   1-0.16984-0.19788 0.59991-0.72549 0.78182-0.65916
   3   2   3 5263.57  308.65   1-0.23593 0.60366 0.62612-0.50054 0.74317-0.62051
   3  -2   495295.10 1492.73   1 0.02824 0.33944 0.50136-0.62693 0.86477-0.70123
  -3  -2   494199.07 1368.37   1-0.05732-0.31036 0.54751-0.67309 0.83482-0.67128
   3   2   497560.47 1494.47   1-0.29250 0.66023 0.64559-0.52003 0.70544-0.54190
  -3   2   494270.22 1487.46   1-0.60470 0.23675-0.02648 0.15208-0.79600 0.95959
  -3  -2   493764.91 1386.14   1-0.58474 0.21679-0.04980-0.07580-0.80968 0.97327
  -3  -2   515865.36  746.40   1 0.05800-0.42569 0.48405-0.60963 0.87311-0.66868
   3  -2   523791.37 1208.46   1-0.02691 0.39460 0.53172-0.65730 0.84648-0.64205
   3   2   516247.78  802.19   1-0.33677 0.70450 0.65892-0.53336 0.67260-0.46817
  -3  -2   517059.56  816.27   1-0.69049 0.32253 0.08518-0.21079-0.71830 0.92278
  -3   2   523213.20 1131.92   1-0.66219 0.29423 0.04593 0.07967-0.74792 0.95240
  -3  -2   615724.54  743.02   1 0.16844-0.53598 0.41361-0.53915 0.89473-0.64964
   3  -2   616576.76  824.99   1-0.07494 0.44267 0.55636-0.68194 0.82755-0.58223
   3   2   616271.79  808.73   1-0.37121 0.73894 0.66801-0.54245 0.64494-0.39963
  -3  -2   615894.51  766.60   1-0.76480 0.39675 0.20572-0.33132-0.61052 0.85604
  -3   2   617704.94  920.16   1-0.71097 0.34292 0.11475 0.01084-0.69378 0.93929
  -3  -2   7155490.5 3808.35   1 0.26693-0.63447 0.34319-0.46873 0.90053-0.61458
   3  -2   7168013.9 4176.59   1-0.11623 0.48396 0.57615-0.70172 0.80903-0.52283
   3   2   7167079.4 4153.96   1-0.39781 0.76554 0.67421-0.54866 0.62223-0.33603
  -3  -2   7161469.4 3972.64   1-0.81006 0.44177 0.30671-0.43231-0.49972 0.78609
  -3   2   7169293.2 4225.19   1-0.75054 0.38249 0.17958-0.05399-0.63594 0.92237
  -3  -2   821045.18  818.37   1 0.35037-0.71791 0.27705-0.40259 0.89469-0.56790
   3  -2   824037.66  718.84   1-0.15126 0.51899 0.59193-0.71750 0.79166-0.46457
   3   2   821406.04  666.71   1-0.41815 0.78588 0.67845-0.55289 0.60402-0.27694
  -3  -2   821934.04  623.59   1-0.83319 0.46490 0.38844-0.51405-0.39356 0.72084
  -3   2   824445.99  777.69   1-0.78164 0.41359 0.23933-0.11373-0.57598 0.90333
  -3  -2   916974.15  411.39   1 0.41809-0.78584 0.21888-0.34447 0.88163-0.51359
   3  -2   920576.63  566.23   1-0.18061 0.54834 0.60442-0.73000 0.77591-0.40794
   3   2   918814.03  547.99   1-0.43345 0.80117 0.68133-0.55577 0.58983-0.22186
  -3  -2   919189.11  478.51   1-0.84102 0.47266 0.45180-0.57740-0.29755 0.66572
  -3   2   919130.05  610.11   1-0.80505 0.43675 0.29330-0.16770-0.51561 0.88380
   3  -2  1040723.36  951.49   1-0.20490 0.57263 0.61425-0.73983 0.76203-0.35317
   3   2  1042841.73 1015.22   1-0.44464 0.81237 0.68327-0.55771 0.57916-0.17030
  -3  -2  1043047.28  929.86   1-0.83853 0.47017 0.50223-0.62782-0.21121 0.62029
  -3   2  1042369.66 1056.13   1-0.82181 0.45352 0.34243-0.21683-0.45536 0.86446
   3  -2  11  833.70  277.79   1-0.22472 0.59246 0.62192-0.74750 0.75013-0.30038
   3   2  11  873.20  214.68   1-0.45245 0.82018 0.68453-0.55897 0.57157-0.12183
  -3  -2  11 1028.23  165.22   1-0.82958 0.46122 0.54191-0.66751-0.13456 0.58455
  -3   2  11 1083.89  353.12   1-0.83281 0.46452 0.38654-0.26094-0.39623 0.84624
   3  -2  12   17.58  185.65   1-0.24060 0.60833 0.62783-0.75341 0.74022-0.24958
   3   2  12 1118.92  323.20   1-0.45744 0.82516 0.68530-0.55974 0.56666-0.07603
  -3  -2  12  154.27  120.91   1-0.81711 0.44888 0.57258-0.69813-0.06688 0.55777
  -3   2  12 1238.27  360.91   1-0.83917 0.47081 0.42541-0.29981-0.33883 0.82972
   3  -2  13 8574.98  472.49   1-0.25301 0.62074 0.63231-0.75788 0.73223-0.20071
   3   2  13 7820.58  459.87   1-0.46003 0.82776 0.68569-0.56013 0.56408-0.03257
  -3  -2  13 7433.89  379.95   1-0.80147 0.43325 0.59799-0.72354-0.00558 0.53737
  -3   2  13 9190.76  524.09   1-0.84119 0.47283 0.46065-0.33506-0.28316 0.81496
   3  -2  14 7271.21  574.34   1-0.26235 0.63008 0.63559-0.76116 0.72607-0.15367
   3   2  14 7922.40  620.31   1-0.46057 0.82830 0.68576-0.56021 0.56355 0.00884
  -3  -2  14 7522.97  547.37   1-0.78411 0.41588 0.61860-0.74415 0.04994 0.52275
  -3   2  14 9017.77  714.25   1-0.83975 0.47138 0.49210-0.36650-0.22945 0.80216
   3  -2  1517768.89  980.52   1-0.26897 0.63671 0.63787-0.76345 0.72163-0.10834
   3   2  1517470.08  985.52   1-0.45932 0.82705 0.68558-0.56002 0.56479 0.04848
  -3  -2  1519175.95  991.76   1-0.76555 0.39732 0.63544-0.76098 0.10074 0.51286
  -3   2  1517550.92 1003.78   1-0.83538 0.46701 0.52013-0.39454-0.17772 0.79134
   3  -2  16 1096.91  270.35   1-0.27318 0.64091 0.63930-0.76488 0.71878-0.06460
   3   2  16  298.53  233.13   1-0.45649 0.82422 0.68516-0.55960 0.56759 0.08657
  -3   2  16  891.49  257.44   1-0.82852 0.46016 0.54513-0.41954-0.12793 0.78245
   3  -2  17 2457.40  407.74   1-0.27523 0.64296 0.63999-0.76557 0.71739-0.02232
   3   2  17 1017.92  382.33   1-0.45225 0.81998 0.68450-0.55894 0.57176 0.12329
  -3  -2  17 1102.41  263.66   1-0.72642 0.35843 0.66012-0.78569 0.19115 0.50418
  -3   2  17 1569.67  335.62   1-0.81996 0.45173 0.56680-0.44125-0.07996 0.77538
   3  -2  18 1858.97  348.92   1-0.27531 0.64304 0.64002-0.76560 0.71733 0.01861
   3   2  18 2734.28  474.92   1-0.44673 0.81446 0.68361-0.55805 0.57714 0.15879
  -3   2  18 2709.76  457.08   1-0.80911 0.44088 0.58668-0.46113-0.03371 0.77004
   3  -2  19 7666.65  710.88   1-0.27361 0.64134 0.63945-0.76502 0.71849 0.05834
   3   2  19 6336.31  633.93   1-0.44003 0.80776 0.68249-0.55693 0.58358 0.19324
  -3   2  19 7688.26  714.70   1-0.79662 0.42840 0.60437-0.47882 0.01094 0.76628
   3  -2  20 2152.28  327.73   1-0.27028 0.63801 0.63832-0.76389 0.72075 0.09696
   3   2  20 1730.27  300.41   1-0.43223 0.79996 0.68111-0.55555 0.59097 0.22673
  -3   2  20 3152.41  414.39   1-0.78267 0.41444 0.62007-0.49452 0.05415 0.76398
   3  -3   0 5735.35  794.48   1 0.36710 0.00064 0.26352-0.45189 0.89207-0.89207
   3   3   0 5590.47  302.10   1-0.04521 0.41290 0.54130-0.35294 0.83960-0.83960
  -3  -3   0 5481.67  284.93   1-0.58693 0.21920 0.69295-0.88126 0.41871-0.41871
   3  -3  -112447.88  761.60   1 0.43576-0.06801 0.20276-0.39113 0.87692-0.91781
   3  -3   110324.22  542.22   1 0.29792 0.06961 0.31936-0.50767 0.89958-0.85873
   3   3  -110647.06  518.02   1 0.09644 0.27124 0.46072-0.27236 0.88228-0.92317
   3   3   112506.12  608.44   1-0.15794 0.52567 0.59483-0.40647 0.78817-0.74729
  -3  -3   112583.86  598.10   1-0.53561 0.16788 0.69305-0.88136 0.48247-0.44159
  -3  -3  -110536.62  512.03   1-0.62755 0.25982 0.68919-0.87750 0.36219-0.40308
   3   3  -265312.15  970.06   1 0.26448 0.10306 0.34504-0.15673 0.90054-0.98224
   3  -3   263920.17 1048.21   1 0.23065 0.13689 0.37005-0.55836 0.89992-0.81822
   3   3   270572.74 1095.89   1-0.24520 0.61293 0.62951-0.44114 0.73728-0.65551
  -3  -3   268566.30 1005.16   1-0.46983 0.10210 0.68707-0.87541 0.55423-0.47246
  -3  -3  -263708.57  974.86   1-0.66031 0.29232 0.68337-0.87172 0.31143-0.39324
   3   3  -329555.31 1362.00   1 0.44459-0.07684 0.19456-0.00619 0.87434-0.99702
   3  -3   328117.77 1337.74   1 0.16670 0.20084 0.41478-0.60309 0.89451-0.77197
   3   3   326673.05 1259.58   1-0.31183 0.67956 0.65163-0.46329 0.69146-0.56881
  -3  -3   324524.96 1129.41   1-0.38522 0.01749 0.67137-0.85971 0.63313-0.51047
  -3   3   328435.33 1366.03   1-0.56423 0.19628-0.07295 0.26136-0.82238 0.94507
   3  -3   442264.55  781.31   1 0.10749 0.26019 0.45381-0.64218 0.88458-0.72104
  -3  -3   437340.57  568.58   1-0.27883-0.08889 0.64111-0.82945 0.71499-0.55145
   3   3   438189.82  683.99   1-0.36256 0.73029 0.66584-0.47750 0.65207-0.48853
  -3   3   439272.03  774.42   1-0.62075 0.25279-0.00710 0.19551-0.78397 0.94755
  -3  -3   438395.23  611.99   1-0.61060 0.24264-0.01943-0.16897-0.79170 0.95528
   3  -3   563598.24 1070.04   1 0.05349 0.31419 0.48672-0.67508 0.87191-0.66748
  -3  -3   559213.64  867.41   1-0.15283-0.21489 0.59261-0.78097 0.79085-0.58642
   3   3   564991.28 1069.40   1-0.40107 0.76880 0.67492-0.48659 0.61936-0.41493
  -3  -3   562714.31  942.82   1-0.73460 0.36655 0.15230-0.34070-0.66117 0.86576
  -3   3   563199.28 1104.58   1-0.67064 0.30268 0.05737 0.13104-0.73955 0.94403
   3  -3   620811.48  635.84   1 0.00522 0.36246 0.51430-0.70266 0.85759-0.61227
  -3  -3   620383.79  434.46   1-0.01593-0.35175 0.52586-0.71422 0.85042-0.60510
   3   3   619848.38  521.41   1-0.43023 0.79796 0.68075-0.49241 0.59285-0.34753
  -3  -3   618978.48 1546.63   1-0.80667 0.43838 0.29755-0.48595-0.51062 0.75608
  -3   3   620515.64  691.12   1-0.71370 0.34565 0.11893 0.06946-0.69027 0.93578
  -3  -3   7 8674.04  714.12   1 0.11719-0.48488 0.44767-0.63604 0.88648-0.60027
   3  -3   7 8634.52 1232.29   1-0.03724 0.40493 0.53716-0.72552 0.84265-0.55645
   3   3   7 9144.68  789.84   1-0.45217 0.81989 0.68449-0.49615 0.57185-0.28565
  -3  -3   7 8715.87  723.93   1-0.83661 0.46832 0.40800-0.59640-0.36553 0.65190
  -3   3   7 7473.99  692.33   1-0.74934 0.38129 0.17746 0.01093-0.63795 0.92439
  -3  -3   828556.04  758.81   1 0.23503-0.60258 0.36687-0.55518 0.90009-0.57329
   3  -3   828647.58  836.70   1-0.07407 0.44180 0.55593-0.74429 0.82791-0.50082
   3   3   831127.78  900.96   1-0.46846 0.83618 0.68688-0.49855 0.55563-0.22854
  -3  -3   829969.09  781.71   1-0.84034 0.47198 0.48536-0.67375-0.24131 0.56857
  -3   3   825432.99  800.59   1-0.77814 0.41009 0.23205-0.04365-0.58364 0.91099
  -3  -3   915825.75  573.12   1 0.33135-0.69889 0.29269-0.48100 0.89695-0.52931
   3  -3   917633.02  507.28   1-0.10568 0.47342 0.57122-0.75958 0.81396-0.44598
   3   3   915122.73  484.48   1-0.48023 0.84796 0.68845-0.50015 0.54350-0.17552
  -3  -3   915983.89  386.34   1-0.83000 0.46164 0.54060-0.72899-0.13725 0.50542
  -3   3   917583.27  647.28   1-0.80060 0.43231 0.28205-0.09364-0.52865 0.89684
  -3  -3  10 7617.63  268.80   1 0.40653-0.77427 0.22925-0.41762 0.88440-0.47547
   3  -3  10 9160.13  371.13   1-0.13246 0.50019 0.58357-0.77194 0.80118-0.39231
   3   3  10 8040.21  351.37   1-0.48842 0.85615 0.68941-0.50110 0.53492-0.12606
  -3  -3  10 8837.38  259.06   1-0.81375 0.44553 0.57883-0.76716-0.05241 0.46148
  -3   3  10 8727.32  442.85   1-0.81743 0.44914 0.32824-0.13983-0.47335 0.88245
   3  -3  1157698.58 2423.80   1-0.15483 0.52256 0.59348-0.78184 0.78981-0.34006
   3   3  1165362.56 2751.00   1-0.49366 0.86138 0.68997-0.50166 0.52936-0.07961
  -3  -3  1166981.50 2741.22   1-0.79396 0.42573 0.60764-0.79596 0.01965 0.43032
  -3   3  1160176.89 2562.60   1-0.82925 0.46095 0.37033-0.18192-0.41856 0.86857
   3  -3  12 3289.65  330.92   1-0.17322 0.54096 0.60134-0.78970 0.77998-0.28935
   3   3  12 2279.99  245.98   1-0.49643 0.86415 0.69025-0.50194 0.52640-0.03576
  -3  -3  12 2167.54  170.68   1-0.77298 0.40476 0.62919-0.81751 0.08121 0.40966
  -3   3  12 2637.24  359.03   1-0.83669 0.46840 0.40854-0.22014-0.36472 0.85564
   3  -3  1332080.31 1334.43   1-0.18806 0.55579 0.60749-0.79585 0.77174-0.24022
   3   3  1327663.72 1191.90   1-0.49711 0.86483 0.69032-0.50201 0.52567 0.00585
  -3  -3  1328058.29 1112.48   1-0.75212 0.38413 0.64513-0.83349 0.13457 0.39714
  -3   3  1333539.59 1432.48   1-0.84060 0.47223 0.44261-0.25421-0.31221 0.84401
   3  -3  14 1016.04  227.74   1-0.19971 0.56744 0.61219-0.80055 0.76507-0.19266
   3   3  14 1435.39  273.00   1-0.49599 0.86372 0.69021-0.50190 0.52687 0.04554
  -3  -3  14  946.64  139.32   1-0.73058 0.36259 0.65799-0.84634 0.18247 0.39015
  -3   3  14 1044.66  275.47   1-0.84099 0.47262 0.47391-0.28552-0.26101 0.83372
   3  -3  1521929.77 1177.96   1-0.20849 0.57622 0.61566-0.80402 0.75992-0.14663
   3   3  1523932.93 1296.50   1-0.49331 0.86103 0.68993-0.50162 0.52974 0.08355
  -3   3  1521747.95 1190.26   1-0.83854 0.47017 0.50219-0.31380-0.21128 0.82489
   3  -3  16  305.39  205.77   1-0.21470 0.58243 0.61808-0.80644 0.75622-0.10204
   3   3  16  313.52  347.78   1-0.48923 0.85695 0.68950-0.50119 0.53407 0.12010
  -3   3  16  724.06  343.42   1-0.83362 0.46526 0.52772-0.33932-0.16302 0.81755
   3  -3  1723780.67 1051.97   1-0.21858 0.58631 0.61958-0.80794 0.75388-0.05881
   3   3  1721284.37 1004.32   1-0.48389 0.85162 0.68889-0.50058 0.53968 0.15538
  -3   3  1723583.74 1104.78   1-0.82654 0.45818 0.55073-0.36234-0.11621 0.81164
   3  -3  18  216.58  266.49   1-0.22035 0.58808 0.62026-0.80862 0.75280-0.01685
   3   3  18  106.33  231.97   1-0.47741 0.84514 0.68811-0.49980 0.54641 0.18953
  -3   3  18    3.62  219.20   1-0.81797 0.44974 0.57089-0.38257-0.07074 0.80707
   3  -3  1924369.84 1963.27   1-0.22019 0.58792 0.62019-0.80856 0.75290 0.02393
   3   3  1922348.20 1838.50   1-0.46992 0.83765 0.68708-0.49875 0.55414 0.22267
  -3   3  1923947.72 1945.69   1-0.80726 0.43904 0.58958-0.40126-0.02664 0.80388
   3  -3  20  373.52  193.34   1-0.21825 0.58598 0.61945-0.80781 0.75408 0.06364
   3   3  20  270.27  236.94   1-0.46138 0.82911 0.68588-0.49755 0.56274 0.25497
  -3   3  20  439.95  215.74   1-0.79502 0.42679 0.60636-0.41804 0.01621 0.80192
   3  -4   0  459.44  130.46   1 0.41874-0.05099 0.21831-0.46947 0.88147-0.88147
   3   4   0  473.94   81.26   1-0.12735 0.49508 0.58126-0.33011 0.80368-0.80368
  -3  -4   0  454.49   91.47   1-0.72176 0.35378 0.66240-0.91354 0.20067-0.20067
   3  -4  -129429.89 1486.38   1 0.47859-0.11084 0.16211-0.41327 0.86294-0.90383
   3  -4   128912.19 1466.96   1 0.35761 0.00993 0.27100-0.52209 0.89368-0.85283
   3   4  -130738.17 2494.03   1 0.02366 0.34402 0.50396-0.25281 0.86339-0.90428
   3   4   126863.82 1254.43   1-0.23888 0.60661 0.62720-0.37605 0.74131-0.70042
  -3  -4   128425.22 1309.83   1-0.70316 0.33517 0.67039-0.92153 0.23692-0.19602
  -3  -4  -131329.94 2541.41   1-0.73724 0.36925 0.65435-0.90549 0.16821-0.20911
   3  -4  -261844.89 1058.33   1 0.53596-0.16821 0.10380-0.35496 0.83783-0.91962
   3  -4   256363.29  959.96   1 0.29720 0.07034 0.31993-0.57101 0.89961-0.81792
   3   4  -255251.54  821.92   1 0.22098 0.14656 0.37703-0.12595 0.89945-0.98115
   3   4   257380.48  923.31   1-0.32039 0.68812 0.65420-0.40308 0.68510-0.60333
  -3  -4   257281.62  842.57   1-0.67968 0.31169 0.67832-0.92947 0.27911-0.19730
  -3  -4  -253400.14  836.79   1-0.75053 0.38255 0.64619-0.89733 0.13828-0.22008
   3   4  -3 7458.78  396.39   1 0.45390-0.08615 0.18582 0.06533 0.87145-0.99413
   3  -4   3 7923.64  989.79   1 0.23863 0.12890 0.36424-0.61532 0.90021-0.77766
   3   4   3 8179.52  432.14   1-0.38021 0.74794 0.67019-0.41908 0.63739-0.51473
  -3  -4   3 8656.57  411.48   1-0.64790 0.27991 0.68598-0.93712 0.33113-0.20842
  -3   4   3 7035.01  450.42   1-0.58944 0.22148-0.04439 0.29560-0.80659 0.92927
   3  -4   417428.13 1812.55   1 0.18307 0.18446 0.40364-0.65472 0.89641-0.73301
   3   4   416111.98 1334.42   1-0.42427 0.79200 0.67963-0.42852 0.59839-0.43485
  -3  -4   416117.82 1306.05   1-0.60023 0.23250 0.69211-0.94319 0.40086-0.23731
  -3  -4   415079.53 1226.27   1-0.67723 0.30927 0.06644-0.31766-0.73276 0.89634
  -3   4   416770.63 1421.04   1-0.63824 0.27028 0.01471 0.23650-0.76969 0.93328
   3  -4   5 6376.64  893.35   1 0.13160 0.23608 0.43842-0.68958 0.88907-0.68464
   3   4   5 5126.05  475.65   1-0.45684 0.82457 0.68521-0.43409 0.56725-0.36282
  -3  -4   5 5045.76  415.25   1-0.52255 0.15482 0.69238-0.94345 0.49754-0.29310
  -3  -4   5 4657.51  386.97   1-0.81346 0.44516 0.31633-0.56753-0.48807 0.69262
  -3   4   5 7143.01  694.69   1-0.68162 0.31366 0.07257 0.17863-0.72809 0.93257
   3  -4   6 4488.12  673.39   1 0.08438 0.28330 0.46816-0.71931 0.87960-0.63428
  -3  -4   6 5428.12  444.53   1-0.39382 0.02609 0.67333-0.92445 0.62571-0.38039
   3   4   6 5856.86  532.36   1-0.48086 0.84859 0.68853-0.43745 0.54285-0.29753
  -3  -4   6 5152.20  424.33   1-0.83967 0.47131 0.49285-0.74404-0.22811 0.47356
  -3   4   6 4788.33  502.43   1-0.71955 0.35149 0.12802 0.12317-0.68253 0.92804
   3  -4   738292.07 1066.37   1 0.04189 0.32579 0.49350-0.74465 0.86873-0.58252
  -3  -4   732966.43  815.68   1-0.21423-0.15349 0.61790-0.86905 0.75650-0.47030
   3   4   735559.03 1010.07   1-0.49847 0.86619 0.69045-0.43937 0.52420-0.23800
  -3  -4   733927.39  842.06   1-0.81097 0.44275 0.58363-0.83472-0.04106 0.32740
  -3   4   735705.87 1066.48   1-0.75139 0.38334 0.18110 0.07009-0.63450 0.92094
  -3  -4   848039.71  936.07   1-0.02173-0.34595 0.52897-0.78012 0.84835-0.52126
   3  -4   841666.64  953.64   1 0.00419 0.36349 0.51487-0.76602 0.85725-0.53016
   3   4   845506.66 1061.22   1-0.51111 0.87884 0.69157-0.44049 0.51037-0.18328
  -3  -4   847325.00  924.11   1-0.77420 0.40597 0.62812-0.87921 0.07793 0.24932
  -3   4   841624.55 1043.58   1-0.77765 0.40960 0.23105 0.02014-0.58468 0.91203
  -3  -4   926402.34  539.71   1 0.14424-0.51193 0.43018-0.68133 0.89114-0.52316
   3  -4   922109.60  612.01   1-0.02881 0.39650 0.53273-0.78388 0.84579-0.47781
   3   4   927273.68  741.59   1-0.51986 0.88759 0.69220-0.44112 0.50058-0.13260
  -3  -4   927611.36  563.89   1-0.74356 0.37558 0.65062-0.90177 0.15423 0.21388
  -3   4   920775.17  679.05   1-0.79865 0.43036 0.27730-0.02609-0.53408 0.90227
   3  -4  1032987.70 1461.20   1-0.05735 0.42504 0.54753-0.79868 0.83481-0.42595
   3   4  1032812.67 1448.71   1-0.52547 0.89320 0.69255-0.44147 0.49420-0.08534
  -3  -4  1033528.37 1376.28   1-0.71709 0.34910 0.66457-0.91571 0.21004 0.19897
  -3   4  1032099.54 1460.76   1-0.81488 0.44659 0.32050-0.06929-0.48295 0.89205
   3  -4  11 8046.05  907.09   1-0.08168 0.44941 0.55968-0.81083 0.82466-0.37492
   3   4  11 6448.59  750.41   1-0.52852 0.89625 0.69272-0.44164 0.49070-0.04095
  -3  -4  11 6665.97  718.84   1-0.69376 0.32577 0.67383-0.92497 0.25424 0.19567
  -3   4  11 6740.35  808.82   1-0.82677 0.45848 0.36034-0.10914-0.43196 0.88197
   3  -4  12 2432.60  247.61   1-0.10220 0.46993 0.56957-0.82072 0.81556-0.32492
   3   4  12 2483.67  302.00   1-0.52943 0.89716 0.69277-0.44169 0.48965 0.00098
  -3  -4  12 2327.42  150.54   1-0.67225 0.30427 0.68040-0.93154 0.29174 0.19908
  -3   4  12 1672.25  277.77   1-0.83479 0.46650 0.39695-0.14574-0.38151 0.87243
   3  -4  1326353.52 1144.72   1-0.11917 0.48690 0.57751-0.82866 0.80763-0.27611
   3   4  1328523.47 1274.27   1-0.52853 0.89626 0.69272-0.44164 0.49069 0.04082
  -3   4  1324775.94 1143.71   1-0.83963 0.47126 0.42996-0.17877-0.33188 0.86368
   3  -4  14 2706.57  395.22   1-0.13291 0.50064 0.58378-0.83493 0.80095-0.22854
   3   4  14 3281.53  475.83   1-0.52605 0.89378 0.69258-0.44150 0.49354 0.07886
  -3   4  14 2733.97  462.90   1-0.84119 0.47283 0.46064-0.20945-0.28318 0.85589
   3  -4  1535520.37 1815.74   1-0.14372 0.51145 0.58861-0.83976 0.79553-0.18224
   3   4  1533574.93 1766.87   1-0.52219 0.88992 0.69235-0.44127 0.49794 0.11535
  -3   4  1537251.82 1944.69   1-0.84007 0.47171 0.48864-0.23745-0.23555 0.84917
   3  -4  1618602.37 1043.57   1-0.15184 0.51957 0.59218-0.84333 0.79136-0.13718
   3   4  1618971.54 1113.17   1-0.51710 0.88483 0.69202-0.44094 0.50369 0.15048
  -3   4  1617987.93 1060.94   1-0.83658 0.46821 0.51419-0.26300-0.18904 0.84356
   3  -4  17 7591.98  544.43   1-0.15753 0.52526 0.59465-0.84580 0.78839-0.09333
   3   4  17 8741.25  628.72   1-0.51088 0.87861 0.69155-0.44047 0.51063 0.18443
  -3   4  17 7164.26  513.66   1-0.83096 0.46260 0.53745-0.28626-0.14364 0.83907
   3  -4  18 5937.04  534.11   1-0.16097 0.52871 0.59614-0.84729 0.78657-0.05062
   3   4  18 7098.50  664.09   1-0.50363 0.87136 0.69094-0.43986 0.51860 0.21735
  -3   4  18 6864.59  642.37   1-0.82385 0.45563 0.55804-0.30694-0.09924 0.83557
   3  -4  19 6961.38  653.35   1-0.16236 0.53009 0.59673-0.84788 0.78583-0.00900
   3   4  19 6423.58  647.86   1-0.49542 0.86315 0.69015-0.43907 0.52748 0.24935
  -3   4  19 6297.88  633.90   1-0.81461 0.44638 0.57729-0.32619-0.05603 0.83326
   3  -5   0152131.3 3801.42   1 0.46638-0.09863 0.17394-0.48789 0.86731-0.86731
   3   5   0146660.6 3596.92   1-0.20734 0.57507 0.61521-0.30127 0.76060-0.76060
  -3  -5   0146053.9 3575.19   1-0.81276 0.44453 0.58058-0.89445-0.04829 0.04829
   3  -5  -1 3483.45  387.56   1 0.51848-0.15073 0.12207-0.43602 0.84632-0.88721
   3  -5   1 3056.12  479.25   1 0.41286-0.04511 0.22359-0.53754 0.88291-0.84202
   3   5  -1 2528.34  368.18   1-0.05190 0.41959 0.54475-0.23081 0.83698-0.87787
   3   5   1 2772.37  257.12   1-0.31326 0.68099 0.65207-0.33817 0.69041-0.64952
  -3  -5  -1 2503.38  232.57   1-0.81170 0.44347 0.58241-0.89627-0.04397 0.00307
  -3  -5   1 2915.71  256.53   1-0.81643 0.44820 0.57389-0.88776-0.06388 0.10478
   3  -5   2 2291.83  332.69   1 0.35880 0.00873 0.27000-0.58385 0.89350-0.81180
   3   5  -2 1912.39  279.34   1 0.17887 0.18867 0.40652-0.09267 0.89595-0.97765
   3   5   2 2080.78  216.02   1-0.38696 0.75469 0.67177-0.35788 0.63164-0.54987
  -3  -5  -2 1645.18  169.35   1-0.81227 0.44405 0.58142-0.89529-0.04631-0.03550
  -3  -5   2 1861.93  166.14   1-0.82429 0.45606 0.55698-0.87085-0.10152 0.18333
  -3   5   2 2149.90  296.27   1-0.56802 0.20007-0.06873 0.38274-0.82013 0.90192
   3   5  -376784.67 1873.53   1 0.51110-0.14335 0.12965 0.18429 0.84968-0.97236
   3  -5   370959.35 1836.86   1 0.30582 0.06171 0.31315-0.62700 0.89911-0.77656
   3   5   382127.91 2082.29   1-0.43910 0.80683 0.68233-0.36843 0.58447-0.46181
  -3  -5   379026.11 1926.94   1-0.83791 0.46955 0.50642-0.82041-0.20351 0.32624
  -3   5   372462.50 1921.32   1-0.61428 0.24632-0.01499 0.32901-0.78894 0.91163
   3  -5   4 9155.90 1051.63   1 0.25467 0.11287 0.35240-0.66625 0.90053-0.73713
   3   5   4 6370.11  561.24   1-0.47647 0.84420 0.68799-0.37414 0.54739-0.38384
  -3   5   410197.10  915.29   1-0.65650 0.28855 0.03837 0.27564-0.75334 0.91692
   3  -5   553985.98 1436.33   1 0.20617 0.16137 0.38756-0.70141 0.89849-0.69424
   3   5   553407.75 1420.08   1-0.50347 0.87120 0.69092-0.37707 0.51877-0.31434
  -3   5   551936.77 1429.56   1-0.69424 0.32629 0.09061 0.22340-0.71400 0.91848
   3  -5   681064.10 1758.99   1 0.16096 0.20657 0.41864-0.73249 0.89377-0.64867
   3   5   685445.07 1779.20   1-0.52295 0.89067 0.69240-0.37855 0.49708-0.25177
  -3   5   682258.30 1788.38   1-0.72758 0.35953 0.14081 0.17317-0.67140 0.91692
   3  -5   7 1218.74  226.81   1 0.11972 0.24796 0.44606-0.76000 0.88695-0.60075
   3   5   7 1759.19  193.14   1-0.53680 0.90453 0.69310-0.37925 0.48107-0.19487
  -3   5   7 1514.58  385.66   1-0.75586 0.38781 0.18913 0.12486-0.62680 0.91323
   3  -5   8 7353.17  698.95   1 0.08219 0.28549 0.46950-0.78344 0.87909-0.55200
   3   5   8 8057.26  372.85   1-0.54637 0.91410 0.69341-0.37956 0.46973-0.14264
  -3   5   8 7497.26  416.63   1-0.77953 0.41148 0.23492 0.07906-0.58062 0.90798
   3  -5   9 9621.91 1251.66   1 0.04868 0.31900 0.48954-0.80348 0.87061-0.50264
   3   5   913460.66  677.51   1-0.55257 0.92030 0.69353-0.37968 0.46224-0.09427
  -3   5   9 9681.42 1116.80   1-0.79881 0.43052 0.27767 0.03633-0.53365 0.90184
   3  -5  10 9215.46 1474.05   1 0.01913 0.34855 0.50652-0.82046 0.86201-0.45314
   3   5  10 7978.84  943.24   1-0.55606 0.92379 0.69357-0.37972 0.45798-0.04911
  -3   5  10 8470.03  988.52   1-0.81402 0.44573 0.31797-0.00396-0.48605 0.89515
   3  -5  1162744.42 2469.40   1-0.00658 0.37427 0.52079-0.83473 0.85365-0.40390
   3   5  1159584.82 2392.19   1-0.55734 0.92507 0.69358-0.37973 0.45641-0.00666
  -3   5  1161418.46 2470.44   1-0.82549 0.45720 0.35549-0.04148-0.43838 0.88839
   3  -5  1234501.99 1454.05   1-0.02866 0.39635 0.53265-0.84659 0.84584-0.35521
   3   5  1229986.26 1321.40   1-0.55676 0.92449 0.69357-0.37972 0.45712 0.03351
  -3   5  1232858.43 1452.69   1-0.83355 0.46526 0.39029-0.07629-0.39095 0.88187
   3  -5  13 1126.10  209.29   1-0.04734 0.41503 0.54241-0.85635 0.83877-0.30725
   3   5  13 1507.30  294.25   1-0.55459 0.92232 0.69355-0.37970 0.45978 0.07173
  -3   5  13  759.01  293.83   1-0.83854 0.47025 0.42249-0.10848-0.34400 0.87583
   3  -5  1426609.29 1411.35   1-0.06281 0.43054 0.55031-0.86425 0.83259-0.26018
   3   5  1429697.92 1577.91   1-0.55103 0.91876 0.69351-0.37966 0.46411 0.10829
  -3   5  1426430.38 1444.69   1-0.84102 0.47265 0.45171-0.13772-0.29770 0.87041
   3  -5  15 7701.81  520.56   1-0.07539 0.44312 0.55658-0.87052 0.82735-0.21406
   3   5  1510335.98  700.50   1-0.54625 0.91398 0.69341-0.37956 0.46987 0.14341
  -3   5  15 6910.74  571.70   1-0.84075 0.47239 0.47910-0.16511-0.25216 0.86578
   3  -5  16 2066.14  383.02   1-0.08525 0.45298 0.56142-0.87536 0.82312-0.16894
   3   5  16 1398.82  336.64   1-0.54036 0.90809 0.69323-0.37939 0.47689 0.17729
  -3   5  16 1843.20  377.75   1-0.83824 0.46987 0.50429-0.19030-0.20744 0.86197
   3  -5  17 7234.65  656.47   1-0.09260 0.46033 0.56498-0.87892 0.81988-0.12482
   3   5  17 5359.87  591.97   1-0.53345 0.90118 0.69296-0.37911 0.48499 0.21007
  -3   5  17 7583.11  806.62   1-0.83369 0.46533 0.52743-0.21344-0.16358 0.85901
   3  -5  18 9132.06  811.59   1-0.09764 0.46537 0.56740-0.88133 0.81763-0.08168
   3   5  18 8241.59  783.57   1-0.52561 0.89334 0.69256-0.37871 0.49405 0.24190
  -3   5  18 9463.85  888.60   1-0.82730 0.45893 0.54866-0.23467-0.12057 0.85691
   3  -5  19 1383.48  293.76   1-0.10052 0.46825 0.56877-0.88271 0.81632-0.03949
   3   5  19 1208.13  392.83   1-0.51687 0.88460 0.69200-0.37815 0.50395 0.27289
  -3   5  19 1710.36  384.81   1-0.81960 0.45138 0.56755-0.25368-0.07827 0.85551
   3  -6   0100280.9 2568.35   1 0.51040-0.14265 0.13037-0.50711 0.84999-0.84999
   3   6   096470.47 2385.16   1-0.28050 0.64823 0.64167-0.26499 0.71384-0.71384
  -3  -6   089117.14 2204.69   1-0.84108 0.47272 0.45383-0.83061-0.29429 0.29429
   3  -6   149497.64 1345.59   1 0.46354-0.09579 0.17665-0.55339 0.86828-0.82738
   3   6  -146663.16 1170.11   1-0.12664 0.49437 0.58093-0.20421 0.80403-0.84491
   3   6   147533.83 1223.69   1-0.37797 0.74570 0.66966-0.29298 0.63928-0.59839
  -3  -6  -145032.66 1153.85   1-0.84077 0.47241 0.47874-0.85553-0.25277 0.21186
  -3  -6   145323.53 1139.34   1-0.83648 0.46818 0.40714-0.78395-0.36678 0.40769
  -3   6   145253.79 1280.12   1-0.55560 0.18764-0.08245 0.45928-0.82734 0.86824
   3  -6   244931.47 1355.70   1 0.41596-0.04821 0.22081-0.59755 0.88216-0.80037
   3   6  -245496.30 1124.43   1 0.14122 0.22646 0.43216-0.05544 0.89066-0.97243
   3   6   245299.36  971.88   1-0.44288 0.81061 0.68297-0.30630 0.58085-0.49908
  -3  -6   244225.57 1096.34   1-0.80936 0.44107 0.30478-0.68159-0.50202 0.58384
  -3   6   245665.04 1295.64   1-0.59853 0.23057-0.03378 0.41060-0.80038 0.88217
   3  -6   3 7172.96  855.77   1 0.36852-0.00077 0.26231-0.63905 0.89184-0.76916
   3   6   3 5235.01  230.00   1-0.48754 0.85526 0.68931-0.31269 0.53586-0.41320
  -3   6   3 6271.56  377.33   1-0.63851 0.27056 0.01506 0.36175-0.76945 0.89214
   3  -6   436023.73  850.51   1 0.32176 0.04578 0.30045-0.67707 0.89788-0.73448
   3   6   436420.33  840.27   1-0.51890 0.88663 0.69214-0.31552 0.50167-0.33812
  -3   6   439327.24  995.74   1-0.67507 0.30712 0.06345 0.31336-0.73501 0.89859
   3  -6   5 5091.43  566.14   1 0.27698 0.09055 0.33556-0.71218 0.90037-0.69613
   3   6   5 3081.74  234.23   1-0.54110 0.90883 0.69326-0.31664 0.47601-0.27157
  -3   6   5 5070.43  372.59   1-0.70821 0.34015 0.11054 0.26625-0.69729 0.90188
   3  -6   652159.54 1332.04   1 0.23454 0.13300 0.36723-0.74385 0.90007-0.65497
   3   6   659187.33 1317.68   1-0.55675 0.92448 0.69357-0.31695 0.45713-0.21181
  -3   6   656167.01 1319.04   1-0.73711 0.36906 0.15648 0.22031-0.65740 0.90291
   3  -6   749440.22 2084.85   1 0.19490 0.17264 0.39546-0.77208 0.89756-0.61162
   3   6   753746.58 2275.10   1-0.56755 0.93528 0.69354-0.31692 0.44370-0.15750
  -3   6   750620.72 2183.60   1-0.76208 0.39403 0.20059 0.17619-0.61561 0.90204
   3  -6   8 9021.01 1579.70   1 0.15839 0.20915 0.42036-0.79698 0.89342-0.56663
   3   6   8 7846.64  888.77   1-0.57464 0.94237 0.69341-0.31679 0.43470-0.10761
  -3   6   8 7657.09  940.11   1-0.78321 0.41515 0.24264 0.13414-0.57245 0.89980
   3  -6   925936.49 1850.03   1 0.12550 0.24218 0.44236-0.81909 0.88801-0.52003
   3   6   926465.50 1149.05   1-0.57882 0.94655 0.69328-0.31666 0.42932-0.06134
  -3   6   925686.52 1225.93   1-0.80064 0.43235 0.28216 0.09464-0.52853 0.89672
   3  -6  10  683.98  141.00   1 0.09574 0.27194 0.46116-0.83789 0.88213-0.47327
   3   6  10  968.31  208.19   1-0.58065 0.94838 0.69322-0.31660 0.42694-0.01807
  -3   6  10 1001.01  419.15   1-0.81460 0.44631 0.31969 0.05711-0.48395 0.89305
   3  -6  11 1118.69  176.50   1 0.06937 0.29831 0.47726-0.85399 0.87601-0.42626
   3   6  11  723.82  222.46   1-0.58055 0.94828 0.69322-0.31660 0.42707 0.02268
  -3   6  11  390.47  289.61   1-0.82533 0.45704 0.35490 0.02190-0.43916 0.88917
   3  -6  1213302.11 1037.02   1 0.04631 0.32137 0.49092-0.86765 0.86996-0.37933
   3   6  1210797.91  663.61   1-0.57882 0.94655 0.69328-0.31666 0.42931 0.06131
  -3   6  1212166.48  735.15   1-0.83307 0.46477 0.38782-0.01101-0.39443 0.88535
   3  -6  1324785.93 1295.30   1 0.02644 0.34124 0.50239-0.87911 0.86423-0.33271
   3   6  1323387.10 1289.28   1-0.57568 0.94341 0.69338-0.31676 0.43336 0.09815
  -3   6  1322885.41 1273.79   1-0.83806 0.46977 0.41852-0.04171-0.34997 0.88179
   3  -6  14 3602.54  659.04   1 0.00958 0.35810 0.51188-0.88860 0.85900-0.28659
   3   6  14 4165.20  678.05   1-0.57130 0.93903 0.69348-0.31686 0.43895 0.13345
  -3   6  14 3667.55  649.02   1-0.84081 0.47245 0.44661-0.06982-0.30587 0.87858
   3  -6  1517475.28 1527.99   1-0.00440 0.37209 0.51960-0.89633 0.85439-0.24110
   3   6  1521912.03 1045.42   1-0.56582 0.93355 0.69356-0.31694 0.44588 0.16741
  -3   6  1518940.50 1087.87   1-0.84102 0.47265 0.47313-0.09634-0.26234 0.87596
   3  -6  16  246.56  153.86   1-0.01571 0.38340 0.52574-0.90247 0.85049-0.19631
   3   6  16  703.80  362.57   1-0.55933 0.92706 0.69358-0.31696 0.45396 0.20022
  -3   6  16  505.36  388.13   1-0.83912 0.47076 0.49771-0.12093-0.21940 0.87393
   3  -6  17  897.94  225.82   1-0.02451 0.39220 0.53045-0.90718 0.84735-0.15229
   3   6  17 1043.33  284.23   1-0.55191 0.91964 0.69352-0.31690 0.46305 0.23201
  -3   6  17 1121.73  333.82   1-0.83531 0.46694 0.52046-0.14368-0.17710 0.87253
   3  -6  18 1983.38  402.73   1-0.03096 0.39865 0.53386-0.91059 0.84500-0.10904
   3   6  18 2762.69  438.70   1-0.54361 0.91134 0.69334-0.31672 0.47302 0.26293
  -3   6  18 2157.16  348.27   1-0.82972 0.46136 0.54148-0.16469-0.13545 0.87179
   3   7   037879.42  791.92   1-0.34310 0.71082 0.66068-0.22122 0.66766-0.66766
  -3  -7   035011.89  734.33   1-0.80893 0.44064 0.30362-0.74323-0.50341 0.50341
  -3   7   034665.30  895.15   1-0.55105 0.18309-0.08741 0.52704-0.82987 0.82987
   3  -7   1 4471.34  297.02   1 0.51027-0.14252 0.13051-0.57004 0.85005-0.80915
   3   7  -1 3336.43  127.32   1-0.19560 0.56334 0.61054-0.17103 0.76744-0.80832
   3   7   1 4088.72  181.49   1-0.43079 0.79852 0.68085-0.24140 0.59233-0.55144
  -3  -7  -1 2957.09  148.82   1-0.82576 0.45746 0.35648-0.79610-0.43707 0.39616
  -3  -7   1 3881.42  137.09   1-0.76703 0.39898 0.20999-0.64958-0.60626 0.64718
  -3   7   1 3058.56  335.84   1-0.59030 0.22235-0.04339 0.48301-0.80601 0.84690
   3  -7   253784.45 1213.74   1 0.46843-0.10068 0.17196-0.61149 0.86659-0.78481
   3   7  -252378.66 1007.37   1 0.11946 0.24822 0.44623-0.00672 0.88690-0.96867
   3   7   259696.04 1249.40   1-0.48736 0.85508 0.68929-0.24990 0.53605-0.45427
  -3   7   251899.90 1223.87   1-0.62743 0.25947 0.00113 0.43849-0.77867 0.86046
  -3  -7   256470.40 1087.55   1-0.61824 0.25029-0.01016-0.42945-0.78591 0.86770
   3  -7   3 1378.54  250.11   1 0.42630-0.05855 0.21144-0.65097 0.87951-0.75683
   3   7   3  738.66  118.94   1-0.52552 0.89325 0.69255-0.25316 0.49415-0.37149
  -3   7   3  785.58  250.38   1-0.66197 0.29402 0.04564 0.39397-0.74813 0.87082
   3  -7   428222.36 1480.16   1 0.38455-0.01680 0.24855-0.68808 0.88900-0.72543
   3   7   426016.74 1143.96   1-0.55188 0.91961 0.69352-0.25413 0.46307-0.29953
  -3   7   428463.44 1309.54   1-0.69359 0.32564 0.08967 0.34995-0.71475 0.87834
   3  -7   510732.98 1350.11   1 0.34350 0.02404 0.28274-0.72213 0.89557-0.69133
   3   7   510457.09 1157.21   1-0.57024 0.93796 0.69350-0.25411 0.44031-0.23587
  -3   7   5 9397.95 1098.05   1-0.72239 0.35434 0.13251 0.30708-0.67866 0.88325
   3  -7   636056.36 1605.29   1 0.30430 0.06323 0.31435-0.75374 0.89921-0.65411
   3   7   636183.94 1575.94   1-0.58289 0.95061 0.69313-0.25374 0.42402-0.17871
  -3   7   634003.55 1528.66   1-0.74760 0.37954 0.17441 0.26518-0.64083 0.88635
   3  -7   7  -77.46  148.00   1 0.26714 0.10040 0.34304-0.78243 0.90053-0.61458
   3   7   7 1764.76  278.77   1-0.59132 0.95904 0.69271-0.25332 0.41289-0.12668
  -3   7   7  514.25  277.82   1-0.76951 0.40146 0.21478 0.22480-0.60142 0.88785
   3  -7   815492.97 1186.05   1 0.23238 0.13516 0.36880-0.80819 0.89999-0.57319
   3   7   816055.39  765.61   1-0.59652 0.96425 0.69238-0.25299 0.40590-0.07881
  -3   7   813997.49  734.37   1-0.78819 0.42014 0.25345 0.18614-0.56080 0.88816
   3  -7   9 7835.50 1139.91   1 0.20028 0.16725 0.39170-0.83109 0.89802-0.53038
   3   7   9 9114.67  703.61   1-0.59917 0.96690 0.69219-0.25280 0.40230-0.03432
  -3   7   9 7692.39  669.10   1-0.80376 0.43546 0.28998 0.14962-0.51949 0.88768
   3  -7  10 8101.50  981.97   1 0.17102 0.19652 0.41186-0.85125 0.89505-0.48655
   3   7  1011379.56  667.86   1-0.59977 0.96749 0.69215-0.25276 0.40149 0.00737
  -3   7  10 8211.01  740.12   1-0.81634 0.44805 0.32489 0.11471-0.47751 0.88661
   3  -7  1113595.26 1341.07   1 0.14502 0.22266 0.42967-0.86918 0.89126-0.44151
   3   7  1113330.18  815.87   1-0.59864 0.96637 0.69223-0.25284 0.40302 0.04672
  -3   7  1114466.33  922.68   1-0.82612 0.45783 0.35786 0.08174-0.43526 0.88527
   3  -7  1214959.42  833.68   1 0.12162 0.24606 0.44485-0.88436 0.88730-0.39667
   3   7  1217488.94 1004.32   1-0.59606 0.96379 0.69241-0.25303 0.40652 0.08411
  -3   7  1215313.06  946.45   1-0.83328 0.46499 0.38889 0.05072-0.39294 0.88386
   3  -7  13 4195.28  894.41   1 0.10111 0.26657 0.45781-0.89733 0.88327-0.35175
   3   7  13 4831.64  776.29   1-0.59221 0.95994 0.69266-0.25327 0.41169 0.11982
  -3   7  13 4942.67  882.97   1-0.83800 0.46971 0.41801 0.02159-0.35072 0.88255
   3  -7  14 7981.06  895.89   1 0.08341 0.28427 0.46875-0.90827 0.87937-0.30697
   3   7  14 8607.09  589.39   1-0.58724 0.95496 0.69293-0.25354 0.41831 0.15409
  -3   7  14 9347.86  654.11   1-0.84072 0.47236 0.44484-0.00526-0.30867 0.88138
   3  -7  15 8515.17  963.29   1 0.06842 0.29926 0.47783-0.91735 0.87577-0.26248
   3   7  15 8580.04  766.23   1-0.58125 0.94897 0.69320-0.25381 0.42616 0.18713
  -3   7  15 8691.16  769.44   1-0.84110 0.47273 0.47034-0.03076-0.26704 0.88066
   3  -7  16 1742.25  403.00   1 0.05601 0.31167 0.48523-0.92474 0.87259-0.21841
   3   7  16 3238.93  449.88   1-0.57433 0.94205 0.69341-0.25403 0.43510 0.21908
  -3   7  16 1801.18  476.69   1-0.83954 0.47117 0.49413-0.05455-0.22582 0.88035
   3  -7  17  592.49  157.68   1 0.04607 0.32161 0.49107-0.93058 0.86989-0.17483
   3   7  17  437.48  274.67   1-0.56653 0.93426 0.69355-0.25416 0.44498 0.25008
  -3   7  17  494.78  260.82   1-0.83617 0.46781 0.51629-0.07671-0.18506 0.88049
   3   8   0 3717.24  419.96   1-0.39233 0.76006 0.67300-0.17076 0.62700-0.62700
  -3   8   0 3667.41  492.51   1-0.58873 0.22078-0.04520 0.54763-0.80706 0.80706
   3   8  -1 2694.27  301.61   1-0.25319 0.62092 0.63237-0.13007 0.73211-0.77299
   3   8   1 1522.40  208.34   1-0.47101 0.83873 0.68727-0.18512 0.55298-0.51210
  -3   8   1 1977.67  361.14   1-0.62269 0.25473-0.00472 0.50715-0.78245 0.82334
  -3   8  -1 1605.67  343.33   1-0.55326 0.18530-0.08501 0.58744-0.82865 0.78776
   3  -8   221325.66  984.78   1 0.51678-0.14903 0.12383-0.62615 0.84710-0.76532
   3   8   221823.10  957.08   1-0.52063 0.88835 0.69225-0.19010 0.49972-0.41794
  -3   8   220323.45 1009.05   1-0.65472 0.28677 0.03602 0.46640-0.75500 0.83679
   3  -8   314076.36 1354.22   1 0.47967-0.11192 0.16106-0.66338 0.86253-0.73985
   3   8   315439.07  716.88   1-0.55365 0.92137 0.69354-0.19138 0.46093-0.33827
  -3   8   312620.50  697.82   1-0.68451 0.31655 0.07665 0.42577-0.72495 0.84764
   3  -8   4 7361.61  734.40   1 0.44253-0.07478 0.19648-0.69880 0.87495-0.71138
   3   8   4 7668.33  421.41   1-0.57619 0.94392 0.69336-0.19121 0.43271-0.26916
  -3   8   4 7457.93  499.48   1-0.71213 0.34408 0.11651 0.38587-0.69230 0.85598
   3  -8   5 8127.67 1182.42   1 0.40590-0.03815 0.22981-0.73214 0.88454-0.68008
   3   8   5 7375.98  451.21   1-0.59166 0.95938 0.69269-0.19053 0.41243-0.20800
  -3   8   5 8549.95  655.34   1-0.73675 0.36870 0.15587 0.34652-0.65795 0.86254
   3  -8   6 1535.06  176.56   1 0.37025-0.00250 0.26084-0.76316 0.89155-0.64619
   3   8   6 1766.73  235.06   1-0.60209 0.96982 0.69197-0.18981 0.39830-0.15299
  -3   8   6 1269.49  322.04   1-0.75862 0.39057 0.19416 0.30822-0.62192 0.86743
   3  -8   720855.10  917.02   1 0.33567 0.03187 0.28917-0.79133 0.89649-0.61055
   3   8   720690.50  969.36   1-0.60880 0.97653 0.69138-0.18922 0.38902-0.10282
  -3   8   721375.71 1016.37   1-0.77772 0.40967 0.23118 0.27121-0.58455 0.87098
   3  -8   823499.38 1505.16   1 0.30320 0.06434 0.31522-0.81738 0.89927-0.57248
   3   8   818870.91  937.58   1-0.61265 0.98037 0.69100-0.18884 0.38363-0.05654
  -3   8   822793.06 1095.58   1-0.79410 0.42580 0.26650 0.23590-0.54623 0.87351
   3  -8   9 2119.12  392.00   1 0.27280 0.09474 0.33874-0.84091 0.90045-0.53281
   3   8   9 2430.59  364.10   1-0.61421 0.98194 0.69083-0.18867 0.38141-0.01344
  -3   8   9 2036.96  358.35   1-0.80780 0.43950 0.30055 0.20185-0.50707 0.87526
   3  -8  1054923.01 2720.27   1 0.24469 0.12284 0.35979-0.86195 0.90037-0.49188
   3   8  1058908.17 2974.52   1-0.61393 0.98166 0.69086-0.18870 0.38182 0.02704
  -3   8  1055408.10 2818.43   1-0.81894 0.45065 0.33299 0.16941-0.46737 0.87647
   3  -8  11 2872.85  553.50   1 0.21902 0.14851 0.37843-0.88059 0.89934-0.45000
   3   8  11 2576.72  486.91   1-0.61209 0.97982 0.69105-0.18890 0.38442 0.06533
  -3   8  11 1999.97  438.40   1-0.82765 0.45936 0.36380 0.13860-0.42735 0.87736
   3  -8  12  449.12  136.77   1 0.19588 0.17166 0.39478-0.89694 0.89765-0.40746
   3   8  12 1044.21  409.52   1-0.60892 0.97664 0.69137-0.18921 0.38887 0.10176
  -3   8  12  328.54  282.81   1-0.83406 0.46577 0.39296 0.10944-0.38719 0.87811
   3  -8  1317899.10 1470.91   1 0.17528 0.19226 0.40897-0.91113 0.89555-0.36451
   3   8  1321004.43 1046.08   1-0.60458 0.97230 0.69176-0.18960 0.39489 0.13662
  -3   8  1317314.70  912.07   1-0.83831 0.47001 0.42049 0.08191-0.34701 0.87884
   3  -8  14 9124.79 1402.28   1 0.15722 0.21031 0.42113-0.92330 0.89326-0.32137
   3   8  1413053.42 1111.62   1-0.59919 0.96692 0.69219-0.19003 0.40227 0.17013
  -3   8  14 9700.81  893.56   1-0.84078 0.47242 0.44599 0.05638-0.30685 0.87956
   3  -8  1514423.81 1858.64   1 0.14214 0.22554 0.43156-0.93386 0.89081-0.27751
   3   8  1518750.74 1617.83   1-0.59286 0.96058 0.69262-0.19046 0.41083 0.20246
  -3   8  1517724.16 1523.45   1-0.84110 0.47273 0.47037 0.03200-0.26700 0.88062
   3  -8  1622971.78 1398.63   1 0.12905 0.23863 0.44007-0.94238 0.88863-0.23445
   3   8  1620409.34 1341.14   1-0.58564 0.95337 0.69301-0.19085 0.42041 0.23377
  -3   8  1620410.19 1344.11   1-0.83963 0.47127 0.49324 0.00913-0.22741 0.88194
   3   9   045896.76 1763.87   1-0.42716 0.79489 0.68018-0.11517 0.59571-0.59571
  -3   9   045369.09 1857.52   1-0.62362 0.25566-0.00358 0.56881-0.78171 0.78171
   3   9   1 1101.98  161.30   1-0.49895 0.86667 0.69050-0.12557 0.52368-0.48280
  -3   9   1  113.63  211.30   1-0.65288 0.28492 0.03360 0.53163-0.75671 0.79761
  -3   9  -1  642.80  232.31   1-0.59294 0.22499-0.04032 0.60555-0.80423 0.76333
   3   9   229134.53 1174.61   1-0.54348 0.91120 0.69333-0.12841 0.47318-0.39141
  -3   9   228512.90 1238.56   1-0.68042 0.31247 0.07090 0.49433-0.72937 0.81117
  -3   9  -227202.69 1172.97   1-0.56121 0.19325-0.07629 0.64152-0.82414 0.74235
   3  -9   325922.60 1142.00   1 0.52886-0.16111 0.11128-0.67639 0.84137-0.71869
   3   9   320755.19  899.38   1-0.57283 0.94056 0.69345-0.12852 0.43700-0.31434
  -3   9   321975.88 1032.75   1-0.70635 0.33830 0.10774 0.45745-0.69961 0.82236
   3  -9   422309.41 1929.30   1 0.49614-0.12839 0.14477-0.70988 0.85608-0.69251
   3   9   421087.75  933.52   1-0.59270 0.96043 0.69263-0.12770 0.41103-0.24749
  -3   9   422732.03 1085.33   1-0.72979 0.36174 0.14440 0.42078-0.66823 0.83191
   3  -9   5 5202.11  838.03   1 0.46357-0.09582 0.17662-0.74173 0.86827-0.66380
   3   9   5 5360.01  471.48   1-0.60618 0.97391 0.69162-0.12669 0.39266-0.18823
  -3   9   5 4296.34  480.80   1-0.75098 0.38293 0.18036 0.38482-0.63520 0.83980
   3  -9   641717.09 1727.78   1 0.43157-0.06382 0.20662-0.77173 0.87809-0.63273
   3   9   639546.46 1690.76   1-0.61512 0.98285 0.69073-0.12580 0.38013-0.13481
  -3   9   639134.11 1712.99   1-0.76983 0.40178 0.21541 0.34977-0.60078 0.84629
   3  -9   7 1106.39  248.75   1 0.40051-0.03276 0.23459-0.79970 0.88575-0.59949
   3   9   7 2009.54  373.27   1-0.62067 0.98840 0.69009-0.12516 0.37219-0.08599
  -3   9   7 1137.30  319.76   1-0.78634 0.41829 0.24939 0.31580-0.56521 0.85164
   3  -9   8 8675.99  766.71   1 0.37073-0.00298 0.26043-0.82554 0.89147-0.56433
   3   9   8 7217.04  941.08   1-0.62361 0.99134 0.68972-0.12479 0.36794-0.04085
  -3   9   8 8997.54  732.41   1-0.80054 0.43225 0.28191 0.28329-0.52881 0.85609
   3  -9   9   16.49   96.77   1 0.34213 0.02540 0.28386-0.84880 0.89574-0.52810
   3   9   9  589.57  334.83   1-0.62446 0.99219 0.68961-0.12468 0.36670 0.00127
  -3   9   9   62.24  285.39   1-0.81244 0.44415 0.31339 0.25181-0.49164 0.85983
   3  -9  1014434.65 1568.40   1 0.31571 0.05183 0.30530-0.87023 0.89839-0.48990
   3   9  1013026.93  851.57   1-0.62361 0.99133 0.68972-0.12479 0.36795 0.04091
  -3   9  1017060.26 1062.63   1-0.82213 0.45384 0.34352 0.22168-0.45396 0.86306
   3  -9  11 3950.92  801.94   1 0.29127 0.07626 0.32455-0.88948 0.89990-0.45056
   3   9  11 3939.71  615.89   1-0.62131 0.98903 0.69001-0.12508 0.37128 0.07846
  -3   9  11 2714.59  469.79   1-0.82970 0.46141 0.37226 0.19294-0.41593 0.86594
   3  -9  1212345.18 1363.62   1 0.26896 0.09858 0.34166-0.90659 0.90051-0.41032
   3   9  1212570.27 1031.75   1-0.61776 0.98549 0.69044-0.12551 0.37637 0.11426
  -3   9  1214068.58 1129.40   1-0.83525 0.46696 0.39960 0.16561-0.37771 0.86862
   3  -9  13 3962.02  801.35   1 0.24885 0.11869 0.35672-0.92165 0.90045-0.36941
   3   9  13 3032.28  572.50   1-0.61311 0.98084 0.69095-0.12602 0.38298 0.14854
  -3   9  13 3306.90  592.10   1-0.83914 0.47077 0.42512 0.14004-0.33926 0.87106
   3  -9  14 3612.87  668.80   1 0.23099 0.13654 0.36980-0.93474 0.89993-0.32804
   3   9  14 4472.60  530.64   1-0.60747 0.97520 0.69150-0.12657 0.39088 0.18152
  -3   9  14 5951.76  706.71   1-0.84095 0.47258 0.44968 0.11549-0.30097 0.87368
   3  -9  15 -107.77  167.71   1 0.21539 0.15214 0.38102-0.94595 0.89912-0.28638
   3   9  15  290.96  276.23   1-0.60093 0.96865 0.69206-0.12713 0.39990 0.21338
  -3   9  15  887.10  481.60   1-0.84103 0.47266 0.47287 0.09230-0.26277 0.87639
  -3  10   035221.94 1821.08   1-0.65587 0.28792 0.03754 0.59049-0.75393 0.75393
  -3  10   1 1647.36  344.61   1-0.68095 0.31299 0.07164 0.55639-0.72881 0.76971
  -3  10  -1 1400.16  303.59   1-0.62951 0.26155 0.00372 0.62431-0.77698 0.73608
   3  10   220540.26 1049.28   1-0.55685 0.92458 0.69357-0.06587 0.45701-0.37524
  -3  10   221754.70 1206.04   1-0.70485 0.33680 0.10549 0.52250-0.70145 0.78329
  -3  10  -220253.46 1106.79   1-0.60212 0.23416-0.02954 0.65758-0.79785 0.71606
   3  10   3 2354.78  331.69   1-0.58398 0.95171 0.69308-0.06539 0.42259-0.29993
  -3  10   3 4595.56  633.34   1-0.72671 0.35866 0.13941 0.48857-0.67263 0.79539
  -3  10  -3 2352.96  416.96   1-0.57401 0.20605-0.06201 0.69005-0.81649 0.69380
   3  10   4 5759.10  746.35   1-0.60224 0.96997 0.69196-0.06426 0.39810-0.23456
  -3  10   4 3705.88  528.66   1-0.74674 0.37869 0.17291 0.45507-0.64223 0.80591
  -3  10  -4 3855.55  529.54   1-0.54550 0.17754-0.09342 0.72146-0.83288 0.66930
   3 -10   5 1648.98  281.72   1 0.51695-0.14920 0.12365-0.75156 0.84703-0.64256
   3  10   5 1586.61  302.94   1-0.61454 0.98227 0.69080-0.06310 0.38096-0.17652
  -3  10   5 1567.87  405.99   1-0.76484 0.39679 0.20580 0.42219-0.61045 0.81504
   3 -10   621805.80 1188.58   1 0.48859-0.12084 0.15228-0.78018 0.85911-0.61375
   3  10   615922.09  948.24   1-0.62259 0.99031 0.68985-0.06215 0.36942-0.12411
  -3  10   620419.23 1184.60   1-0.78096 0.41291 0.23790 0.39008-0.57748 0.82300
   3 -10   7 9095.16  941.66   1 0.46082-0.09307 0.17925-0.80716 0.86919-0.58294
   3  10   7 9938.35  689.20   1-0.62747 0.99520 0.68920-0.06150 0.36231-0.07610
  -3  10   7 8808.54  694.38   1-0.79511 0.42682 0.26887 0.35914-0.54359 0.82996
   3 -10   8 4050.29  805.04   1 0.43394-0.06619 0.20444-0.83234 0.87743-0.55029
   3  10   8 5046.25  790.56   1-0.62989 0.99762 0.68886-0.06116 0.35874-0.03164
  -3  10   8 5086.81  795.83   1-0.80724 0.43894 0.29905 0.32895-0.50884 0.83612
   3 -10   9 7519.77 1027.58   1 0.40823-0.04048 0.22774-0.85564 0.88401-0.51597
   3  10   9 7623.67  578.87   1-0.63035 0.99808 0.68879-0.06109 0.35806 0.00991
  -3  10   9 7930.59  551.95   1-0.81740 0.44911 0.32815 0.29986-0.47346 0.84165
   3 -10  10 5421.12  623.92   1 0.38391-0.01616 0.24910-0.87701 0.88913-0.48019
   3  10  10 5082.53  591.64   1-0.62918 0.99691 0.68896-0.06126 0.35979 0.04907
  -3  10  10 6882.68  672.63   1-0.82565 0.45736 0.35610 0.27191-0.43758 0.84668
   3 -10  11 2063.47  491.17   1 0.36076 0.00678 0.26836-0.89606 0.89321-0.44387
   3  10  11 2317.55  477.07   1-0.62664 0.99436 0.68932-0.06162 0.36353 0.08621
  -3  10  11 1910.58  468.31   1-0.83205 0.46376 0.38287 0.24514-0.40135 0.85136
   3 -10  12 2618.22  636.92   1 0.33976 0.02777 0.28582-0.91352 0.89602-0.40583
   3  10  12 3056.85  654.85   1-0.62289 0.99062 0.68981-0.06211 0.36898 0.12165
  -3  10  12 3072.34  588.03   1-0.83667 0.46838 0.40844 0.21957-0.36488 0.85580
   3 -10  13 5779.15 1049.61   1 0.32063 0.04690 0.30135-0.92905 0.89798-0.36694
   3  10  13 6948.08  718.62   1-0.61809 0.98582 0.69040-0.06270 0.37590 0.15562
  -3  10  13 6822.80  617.85   1-0.83985 0.47148 0.43241 0.19555-0.32811 0.85991
  -3  11   013403.64  898.34   1-0.68562 0.31767 0.07823 0.61260-0.72373 0.72373
  -3  11   1 5436.11  771.38   1-0.70730 0.33925 0.10917 0.58161-0.69842 0.73934
  -3  11  -1 5165.67  805.58   1-0.66313 0.29518 0.04720 0.64363-0.74701 0.70611
  -3  11   221910.72 1259.01   1-0.72731 0.35925 0.14037 0.55042-0.67179 0.75363
  -3  11  -223729.70 1325.35   1-0.63969 0.27173 0.01655 0.67428-0.76845 0.68666
  -3  11   3 2039.59  415.77   1-0.74584 0.37779 0.17135 0.51943-0.64369 0.76645
  -3  11  -3 1709.27  376.25   1-0.61552 0.24757-0.01347 0.70432-0.78799 0.66531
  -3  11   410713.43  657.63   1-0.76281 0.39476 0.20195 0.48883-0.61427 0.77794
  -3  11  -4 9344.18  611.90   1-0.59089 0.22294-0.04270 0.73354-0.80561 0.64203
   3  11   5 2193.04  394.79   1-0.61725 0.98497 0.69049-0.00003 0.37710-0.17267
  -3  11   5 1388.41  347.04   1-0.77813 0.41008 0.23202 0.45876-0.58367 0.78826
  -3  11  -5 1845.18  321.53   1-0.56606 0.19810-0.07091 0.76176-0.82130 0.61682
   3  11   625306.70 1122.35   1-0.62496 0.99269 0.68954 0.00091 0.36598-0.12066
  -3  11   630360.01 1375.06   1-0.79175 0.42370 0.26143 0.42936-0.55205 0.79757
   3  11   7 1320.38  347.18   1-0.62960 0.99733 0.68890 0.00156 0.35917-0.07296
  -3  11   7  792.97  294.82   1-0.80371 0.43542 0.28986 0.40095-0.51963 0.80600
   3 -11   8  580.50  222.96   1 0.49304-0.12529 0.14787-0.83856 0.85734-0.53020
   3  11   8  430.93  259.43   1-0.63185 0.99958 0.68857 0.00189 0.35583-0.02874
  -3  11   8  521.68  283.41   1-0.81391 0.44562 0.31765 0.37316-0.48645 0.81373
   3 -11   915885.88 1182.42   1 0.47002-0.10227 0.17043-0.86112 0.86604-0.49800
   3  11   911792.82 1077.70   1-0.63219 0.99991 0.68852 0.00194 0.35534 0.01263
  -3  11   914257.74 1170.04   1-0.82242 0.45413 0.34451 0.34629-0.45268 0.82087
   3 -11  10  855.50  212.28   1 0.44808-0.08033 0.19130-0.88199 0.87328-0.46435
   3  11  10 1649.46  413.99   1-0.63093 0.99866 0.68871 0.00175 0.35720 0.05165
  -3  11  10  681.57  289.12   1-0.82927 0.46097 0.37041 0.32040-0.41845 0.82755
   3 -11  11  306.46  137.86   1 0.42739-0.05964 0.21044-0.90114 0.87922-0.42940
   3  11  11  260.03  246.56   1-0.62833 0.99605 0.68908 0.00137 0.36105 0.08869
  -3  11  11  526.73  279.93   1-0.83449 0.46620 0.39530 0.29550-0.38385 0.83386
  -3  12   0  671.58  273.12   1-0.71329 0.34524 0.11830 0.63529-0.69080 0.69080
  -3  12   1  750.41  269.92   1-0.73126 0.36321 0.14680 0.60678-0.66610 0.70702
  -3  12  -1  522.71  254.64   1-0.69394 0.32599 0.09018 0.66346-0.71435 0.67345
  -3  12   2 9367.91  814.89   1-0.74808 0.38003 0.17526 0.57833-0.64003 0.72187
  -3  12  -210201.06  849.98   1-0.67408 0.30613 0.06209 0.69155-0.73603 0.65424
  -3  12   3  604.83  277.30   1-0.76364 0.39559 0.20352 0.55007-0.61272 0.73547
  -3  12  -3 3884.24  648.17   1-0.65353 0.28558 0.03446 0.71918-0.75610 0.63342
  -3  12   4 8875.26  844.74   1-0.77785 0.40979 0.23145 0.52214-0.58427 0.74795
  -3  12  -4 8701.40  734.89   1-0.63250 0.26455 0.00747 0.74617-0.77451 0.61093
  -3  12   5  524.24  273.23   1-0.79065 0.42259 0.25892 0.49466-0.55482 0.75941
  -3  12  -5  476.02  299.25   1-0.61120 0.24324-0.01870 0.77235-0.79125 0.58677
  -3  12   6 2736.09  606.85   1-0.80204 0.43375 0.28565 0.46796-0.52451 0.76997
  -3  12  -6 1678.99  385.21   1-0.58985 0.22189-0.04391 0.79756-0.80631 0.56094
  -3  12   711340.09 1044.90   1-0.81192 0.44363 0.31192 0.44169-0.49343 0.77980
  -3  12  -710371.86  904.74   1-0.56867 0.20071-0.06800 0.82165-0.81974 0.53347
  -3  12   8 9261.47  743.04   1-0.82032 0.45203 0.33747 0.41613-0.46170 0.78898
  -3  12  -8 8463.49  647.93   1-0.54789 0.17993-0.09084 0.84449-0.83160 0.50443
   3 -12   9 2865.41  334.03   1 0.52775-0.16000 0.11244-0.86592 0.84191-0.47388
   3  12   9 1930.04  338.73   1-0.63015 0.99787 0.68882 0.06440 0.35836 0.00960
  -3  12   9 1741.63  369.31   1-0.82726 0.45897 0.36225 0.39135-0.42942 0.79761
  -3  13   0 7951.14  777.08   1-0.73822 0.37017 0.15834 0.65804-0.65570 0.65570
  -3  13   1   26.76  226.62   1-0.75317 0.38512 0.18428 0.63211-0.63147 0.67239
  -3  13  -1  662.75  263.70   1-0.72238 0.35433 0.13249 0.68389-0.67867 0.63775
  -3  13   211898.89 1063.26   1-0.76713 0.39908 0.21017 0.60622-0.60608 0.68791
  -3  13  -211434.78 1025.57   1-0.70577 0.33772 0.10687 0.70951-0.70032 0.61848
  -3  13   3  602.80  359.41   1-0.78000 0.41195 0.23589 0.58049-0.57961 0.70236
  -3  13  -3  131.90  220.29   1-0.68818 0.32023 0.08187 0.73457-0.72090 0.59821
  -3  13   4 3422.80  466.25   1-0.79171 0.42366 0.26134 0.55505-0.55216 0.71583
  -3  13  -4 4329.91  432.89   1-0.67047 0.30252 0.05714 0.75930-0.73972 0.57613
  -3  13   5 4813.33  528.28   1-0.80228 0.43398 0.28623 0.53018-0.52384 0.72839
  -3  13  -5 6273.66  535.58   1-0.65247 0.28452 0.03307 0.78337-0.75708 0.55260
   4   0   021736.93  646.75   1 0.24502 0.24502 0.35954-0.35954 0.90038-0.90038
   4   0  -1 5901.15  634.57   1 0.32157 0.16848 0.30060-0.30060 0.89790-0.93875
   4   0   1 5615.16  902.72   1 0.17211 0.31794 0.41112-0.41112 0.89518-0.85433
   4   0  -2  378.83   79.35   1 0.39975 0.09057 0.23526-0.23526 0.88591-0.96770
   4   0   2  148.49  205.59   1 0.10450 0.38575 0.45570-0.45570 0.88397-0.80220
   4   0  -3220589.6 4284.58   1 0.47660 0.01373 0.16406-0.16406 0.86367-0.98635
   4   0   3212070.2 5255.56   1 0.04303 0.44721 0.49283-0.49283 0.86905-0.74639
   4   0   4 9387.29 1251.80   1-0.01177 0.50202 0.52361-0.52361 0.85187-0.68832
  -4   0   4 7732.81  680.83   1-0.54955 0.05895-0.08904 0.08904-0.83069 0.99428
   4   0   561747.54 1629.67   1-0.05992 0.55018 0.54883-0.54883 0.83377-0.62934
  -4   0   560592.08 1593.61   1-0.61615 0.12554-0.01272 0.01272-0.78752 0.99200
   4   0   636090.52  865.69   1-0.10165 0.59196 0.56931-0.56931 0.81581-0.57049
  -4   0   634224.71  819.34   1-0.67455 0.18394 0.06273-0.06273-0.73555 0.98093
   4   0   7  264.63  193.24   1-0.13751 0.62782 0.58584-0.58584 0.79866-0.51246
  -4   0   7  715.77  279.64   1-0.72388 0.23314 0.13487-0.13487-0.67661 0.96304
   4   0   8  752.29  251.66   1-0.16797 0.65828 0.59912-0.59912 0.78283-0.45574
  -4   0   8  622.62  262.37   1-0.76347 0.27274 0.20321-0.20321-0.61303 0.94038
   4   0   9 6522.47  754.87   1-0.19359 0.68390 0.60973-0.60973 0.76859-0.40062
  -4   0   9 8439.70  955.05   1-0.79384 0.30311 0.26622-0.26622-0.54674 0.91501
   4   0  10 3789.79  495.30   1-0.21488 0.70519 0.61815-0.61815 0.75611-0.34725
  -4   0  10 4217.44  519.54   1-0.81571 0.32466 0.32300-0.32300-0.47986 0.88896
   4   0  1142577.09 1730.14   1-0.23233 0.72264 0.62478-0.62478 0.74542-0.29568
  -4   0  1144000.60 1773.80   1-0.83020 0.33914 0.37442-0.37442-0.41300 0.86301
   4   0  12 1001.73  283.97   1-0.24638 0.73669 0.62993-0.62993 0.73652-0.24589
  -4   0  12  821.65  217.37   1-0.83827 0.34721 0.42020-0.42020-0.34745 0.83837
   4   0  13  288.75  214.64   1-0.25740 0.74771 0.63386-0.63386 0.72935-0.19783
  -4   0  13  461.84  278.79   1-0.84119 0.35003 0.46003-0.46003-0.28419 0.81599
   4   0  14 2298.20  379.55   1-0.26573 0.75604 0.63676-0.63676 0.72381-0.15141
  -4   0  14 2133.14  326.56   1-0.83935 0.34820 0.49579-0.49579-0.22287 0.79557
   4   0  15 2098.63  391.07   1-0.27166 0.76196 0.63879-0.63879 0.71982-0.10653
  -4   0  15 1664.90  355.32   1-0.83374 0.34259 0.52723-0.52723-0.16397 0.77759
   4   0  16 6142.11  439.54   1-0.27542 0.76572 0.64006-0.64006 0.71726-0.06308
  -4   0  16 7862.55  461.49   1-0.82546 0.33449 0.55406-0.55406-0.10780 0.76231
   4   0  17  419.10  229.29   1-0.27722 0.76753 0.64066-0.64066 0.71602-0.02096
  -4   0  17  167.57  177.03   1-0.81406 0.32309 0.57828-0.57828-0.05370 0.74912
   4   0  18  972.97  293.18   1-0.27724 0.76755 0.64067-0.64067 0.71601 0.01993
   4   0  19 5465.44  491.00   1-0.27563 0.76593 0.64013-0.64013 0.71711 0.05971
   4  -1   028591.48  938.82   1 0.29067 0.19937 0.32501-0.38778 0.89992-0.89992
   4   1   030633.65  850.02   1 0.19873 0.29132 0.39278-0.33001 0.89789-0.89789
   4  -1  -128542.70  809.82   1 0.35970 0.13035 0.26925-0.33202 0.89337-0.93422
   4   1  -120797.27  721.12   1 0.28344 0.20661 0.33060-0.26783 0.90019-0.94104
   4  -1   121658.00  655.02   1 0.22379 0.26626 0.37500-0.43777 0.89960-0.85875
   4   1   128763.24  812.06   1 0.11975 0.37049 0.44604-0.38326 0.88696-0.84607
   4  -1  -2 5428.94  694.85   1 0.42930 0.06103 0.20870-0.27149 0.87871-0.96050
   4   1  -2 6487.54  707.18   1 0.37140 0.11892 0.25985-0.19706 0.89136-0.97315
   4  -1   2 6438.74  757.67   1 0.16052 0.32953 0.41893-0.48170 0.89371-0.81201
   4   1   2 5405.49  803.62   1 0.04803 0.44221 0.48992-0.42713 0.87044-0.78866
   4  -1  -3 5575.81  732.94   1 0.49705-0.00671 0.14387-0.20666 0.85571-0.97838
   4   1  -3 5893.07  682.05   1 0.45897 0.03135 0.18101-0.11822 0.86981-0.99249
   4  -1   3 6381.16  749.21   1 0.10201 0.38823 0.45725-0.52004 0.88346-0.76080
   4   1   3 4883.89  820.53   1-0.01563 0.50588 0.52569-0.46291 0.85052-0.72786
   4  -1   425488.86  756.22   1 0.04869 0.44156 0.48954-0.55232 0.87061-0.70707
   4   1   426368.87  776.96   1-0.07112 0.56143 0.55447-0.49168 0.82915-0.66561
  -4   1   425602.49  762.75   1-0.56117 0.07056-0.07633 0.13914-0.82417 0.98775
   4  -1   5  198.86  141.01   1 0.00092 0.48932 0.51668-0.57946 0.85617-0.65174
   4   1   5  513.46  236.85   1-0.11893 0.60924 0.57740-0.51461 0.80775-0.60331
  -4   1   5  460.54  265.48   1-0.61997 0.12936-0.00805 0.07086-0.78458 0.98906
  -4  -1   5  213.10  159.94   1-0.61820 0.12759-0.01022-0.05258-0.78595 0.99043
   4  -1   637205.39  898.55   1-0.04129 0.53154 0.53927-0.60206 0.84111-0.59579
   4   1   636482.69  874.19   1-0.15962 0.64993 0.59556-0.53277 0.78729-0.54197
  -4   1   636072.75  879.21   1-0.67218 0.18157 0.05947 0.00332-0.73799 0.98337
  -4  -1   636786.23  848.98   1-0.68346 0.19286 0.07517-0.13798-0.72609 0.97147
   4  -1   778286.32 1667.74   1-0.07811 0.56842 0.55793-0.62072 0.82620-0.53999
   4   1   780545.47 1709.15   1-0.19392 0.68423 0.60987-0.54708 0.76840-0.48220
  -4  -1   778460.36 1631.18   1-0.73687 0.24613 0.15607-0.21887-0.65776 0.94419
  -4   1   781442.25 1734.38   1-0.71724 0.22650 0.12441-0.06161-0.68562 0.97205
   4  -1   8 1804.17  283.61   1-0.10998 0.60029 0.57324-0.63602 0.81197-0.48488
   4   1   8 1623.24  300.02   1-0.22256 0.71287 0.62110-0.55831 0.75146-0.42437
  -4  -1   8 1844.41  278.16   1-0.77788 0.28715 0.23152-0.29432-0.58419 0.91154
  -4   1   8 1870.41  285.94   1-0.75445 0.26371 0.18657-0.12377-0.62927 0.95662
   4  -1   926608.85 1196.93   1-0.13723 0.62754 0.58572-0.64851 0.79880-0.43083
   4   1   923484.19 1061.01   1-0.24623 0.73654 0.62988-0.56709 0.73662-0.36864
  -4  -1   924050.46 1059.50   1-0.80727 0.31622 0.29915-0.36195-0.50873 0.87692
  -4   1   927051.25 1211.64   1-0.78418 0.29344 0.24472-0.18192-0.57023 0.93850
   4  -1  1012525.83  607.27   1-0.16027 0.65058 0.59583-0.65862 0.78694-0.37808
   4   1  1013953.46  669.39   1-0.26556 0.75587 0.63670-0.57391 0.72393-0.31507
  -4  -1  1013084.28  620.79   1-0.82659 0.33553 0.35965-0.42245-0.43289 0.84199
  -4   1  1012500.02  627.05   1-0.80683 0.31577 0.29797-0.23517-0.51012 0.91922
   4  -1  11  676.23  196.35   1-0.17950 0.66981 0.60396-0.66675 0.77653-0.32678
   4   1  11 2169.18  277.60   1-0.28113 0.77143 0.64188-0.57910 0.71340-0.26366
  -4  -1  11 1545.12  196.04   1-0.83728 0.34622 0.41260-0.47540-0.35876 0.80877
  -4   1  11  813.02  173.70   1-0.82316 0.33210 0.34708-0.28428-0.44937 0.89938
   4  -1  1213207.24  658.99   1-0.19530 0.68561 0.61042-0.67321 0.76761-0.27698
   4   1  1214124.79  707.10   1-0.29335 0.78365 0.64586-0.58308 0.70483-0.21421
  -4  -1  1214186.08  659.17   1-0.84116 0.35001 0.45777-0.52057-0.28788 0.77877
  -4   1  1213902.67  688.31   1-0.83381 0.34275 0.39163-0.32883-0.38907 0.87999
   4  -1  1331935.16 1657.37   1-0.20801 0.69832 0.61547-0.67826 0.76020-0.22868
   4   1  1324422.81 1298.78   1-0.30266 0.79296 0.64881-0.58603 0.69817-0.16665
  -4  -1  1324883.11 1279.99   1-0.83916 0.34800 0.49746-0.56026-0.21986 0.75166
  -4   1  1331007.19 1599.58   1-0.83974 0.34858 0.43115-0.36835-0.33005 0.86185
   4  -1  14 5493.91  706.78   1-0.21795 0.70825 0.61933-0.68212 0.75426-0.18186
   4   1  14 5256.12  695.05   1-0.30939 0.79969 0.65089-0.58811 0.69326-0.12086
  -4  -1  14 5737.31  723.23   1-0.83262 0.34146 0.53160-0.59440-0.15536 0.72806
  -4   1  14 6319.56  807.86   1-0.84116 0.35001 0.46726-0.40446-0.27221 0.84492
   4  -1  1550625.28 2628.32   1-0.22538 0.71569 0.62217-0.68496 0.74973-0.13644
   4   1  1552650.80 2740.19   1-0.31384 0.80414 0.65224-0.58946 0.68998-0.07670
  -4  -1  1544441.64 2274.70   1-0.82298 0.33201 0.56010-0.62287-0.09476 0.70836
  -4   1  1552055.95 2683.87   1-0.83889 0.34773 0.49959-0.43679-0.21601 0.82962
   4  -1  16 7922.93  503.79   1-0.23054 0.72085 0.62411-0.68690 0.74654-0.09236
   4   1  16 8127.50  491.44   1-0.31624 0.80654 0.65296-0.59018 0.68820-0.03403
  -4   1  1610545.21  607.36   1-0.83343 0.34228 0.52846-0.46566-0.16155 0.81608
   4  -1  17 2925.19  500.39   1-0.23365 0.72395 0.62527-0.68806 0.74460-0.04954
   4   1  17 1792.46  384.05   1-0.31680 0.80711 0.65313-0.59035 0.68778 0.00727
  -4   1  17 3175.89  555.25   1-0.82569 0.33472 0.55348-0.49070-0.10904 0.80446
   4  -1  18  962.35  256.77   1-0.23487 0.72517 0.62572-0.68851 0.74384-0.00789
   4   1  18 1966.52  438.64   1-0.31569 0.80599 0.65280-0.59002 0.68861 0.04732
  -4   1  18 1750.33  403.30   1-0.81510 0.32413 0.57639-0.51362-0.05810 0.79443
   4  -1  1911452.50  798.48   1-0.23435 0.72466 0.62553-0.68832 0.74416 0.03267
   4   1  1912482.82  901.53   1-0.31304 0.80335 0.65200-0.58922 0.69057 0.08625
  -4   1  1913161.56  887.87   1-0.80240 0.31143 0.59671-0.53394-0.00883 0.78607
   4  -2   0119267.8 2999.75   1 0.33527 0.15478 0.28950-0.41504 0.89653-0.89653
   4   2   0124296.2 3121.96   1 0.15239 0.33785 0.42480-0.29922 0.89236-0.89236
   4  -2  -119731.64  615.14   1 0.39761 0.09271 0.23715-0.36273 0.88637-0.92726
   4   2  -123880.00  731.77   1 0.24592 0.24412 0.35888-0.23334 0.90040-0.94125
   4  -2   123525.56  704.22   1 0.27425 0.21580 0.33764-0.46318 0.90043-0.85958
   4   2   120801.74  615.92   1 0.06733 0.42291 0.47849-0.35291 0.87550-0.83461
   4  -2  -244958.25 1369.86   1 0.45938 0.03094 0.18062-0.30620 0.86967-0.95146
   4   2  -244578.51 1161.37   1 0.34509 0.14496 0.28143-0.15589 0.89538-0.97707
   4  -2   245372.84 1234.92   1 0.21559 0.27446 0.38088-0.50642 0.89913-0.81743
   4   2   248632.31 1337.30   1-0.00786 0.49811 0.52149-0.39591 0.85322-0.77144
   4  -2  -310305.81  887.14   1 0.51929-0.02896 0.12124-0.24682 0.84594-0.96862
   4   2  -311652.57 1089.09   1 0.44570 0.04463 0.19353-0.06795 0.87401-0.99668
   4  -2   312284.30 1298.20   1 0.16030 0.32975 0.41908-0.54462 0.89368-0.77113
   4   2   3 9890.88  845.18   1-0.07289 0.56320 0.55535-0.42977 0.82841-0.70575
   4  -2   4 3880.61  577.01   1 0.10924 0.38101 0.45272-0.57829 0.88493-0.72139
   4   2   4 3938.14  376.79   1-0.12838 0.61869 0.58173-0.45615 0.80318-0.63963
  -4   2   4 4634.17  465.59   1-0.57586 0.08525-0.05992 0.18553-0.81534 0.97893
   4  -2   527914.69  709.38   1 0.06255 0.42769 0.48134-0.60692 0.87429-0.66986
   4   2   527042.42  682.30   1-0.17513 0.66544 0.60214-0.47657 0.77893-0.57450
  -4  -2   527921.71  658.74   1-0.62880 0.13819 0.00284-0.12845-0.77755 0.98203
  -4   2   527287.88  730.17   1-0.62792 0.13731 0.00174 0.12385-0.77827 0.98275
   4  -2   662582.34 1402.19   1 0.02056 0.46968 0.50572-0.63130 0.86245-0.61713
   4   2   664161.95 1402.00   1-0.21416 0.70447 0.61787-0.49230 0.75654-0.51122
  -4  -2   666419.29 1383.46   1-0.70154 0.21081 0.10055-0.22615-0.70549 0.95100
  -4   2   659854.43 1332.09   1-0.67456 0.18395 0.06275 0.06285-0.73554 0.98092
   4  -2   716244.05  513.33   1-0.01674 0.50699 0.52629-0.65187 0.85013-0.56393
   4   2   715408.16  485.76   1-0.24647 0.73677 0.62996-0.50439 0.73647-0.45026
  -4  -2   714634.02  421.07   1-0.75805 0.26732 0.19312-0.31872-0.62293 0.90936
  -4   2   715783.42  525.86   1-0.71545 0.22472 0.12164 0.00395-0.68798 0.97441
   4  -2   831403.68 1442.12   1-0.04951 0.53976 0.54352-0.66909 0.83793-0.51084
   4   2   832789.23 1431.87   1-0.27298 0.76329 0.63924-0.51366 0.71892-0.39183
  -4  -2   832031.86 1364.30   1-0.79815 0.30709 0.27607-0.40168-0.53547 0.86275
  -4   2   831337.38 1394.58   1-0.74989 0.25915 0.17844-0.05284-0.63703 0.96438
   4  -2   913820.41  692.88   1-0.07793 0.56824 0.55784-0.68341 0.82627-0.45830
   4   2   911205.26  559.49   1-0.29453 0.78483 0.64624-0.52068 0.70400-0.33603
  -4  -2   910657.98 1162.16   1-0.82377 0.33272 0.34925-0.47485-0.44655 0.81474
  -4   2   912190.94  682.19   1-0.77817 0.28743 0.23210-0.10650-0.58359 0.95186
   4  -2  10  251.55  193.39   1-0.10240 0.59271 0.56966-0.69524 0.81547-0.40660
   4   2  10  479.50  187.73   1-0.31179 0.80210 0.65162-0.52606 0.69149-0.28263
  -4  -2  10  528.84  110.96   1-0.83717 0.34611 0.41183-0.53743-0.35990 0.76900
  -4   2  10  783.06  381.11   1-0.80052 0.30946 0.28185-0.15625-0.52888 0.93798
   4  -2  1129238.50 1234.39   1-0.12317 0.61348 0.57935-0.70492 0.80571-0.35596
   4   2  1129459.46 1243.19   1-0.32538 0.81568 0.65566-0.53011 0.68134-0.23159
  -4  -2  1128466.68 1148.64   1-0.84120 0.35004 0.46367-0.58927-0.27817 0.72816
  -4   2  1129723.63 1267.17   1-0.81746 0.32640 0.32834-0.20274-0.47321 0.92322
   4  -2  12 5372.98  459.45   1-0.14055 0.63086 0.58720-0.71278 0.79713-0.30650
   4   2  12 7092.11  583.41   1-0.33578 0.82608 0.65864-0.53308 0.67337-0.18274
  -4  -2  12 7451.43  539.95   1-0.83770 0.34655 0.50778-0.63338-0.20101 0.69190
  -4   2  12 5485.26  495.97   1-0.82943 0.33838 0.37112-0.24551-0.41749 0.90841
   4  -2  1327057.29 1414.79   1-0.15485 0.64515 0.59349-0.71906 0.78980-0.25828
   4   2  1332928.28 1709.63   1-0.34340 0.83371 0.66076-0.53520 0.66742-0.13591
  -4  -2  1330524.47 1527.97   1-0.82874 0.33759 0.54448-0.67008-0.12927 0.66107
  -4   2  1327073.33 1430.46   1-0.83694 0.34589 0.41025-0.28465-0.36222 0.89405
   4  -2  14 9453.33  611.46   1-0.16632 0.65663 0.59842-0.72400 0.78372-0.21131
   4   2  1410370.09  673.90   1-0.34860 0.83891 0.66218-0.53662 0.66331-0.09091
  -4   2  14 9930.84  701.19   1-0.84075 0.34959 0.44530-0.31971-0.30795 0.88066
   4  -2  15 4267.75  621.64   1-0.17523 0.66553 0.60218-0.72775 0.77888-0.16559
   4   2  15 3829.63  575.74   1-0.35165 0.84195 0.66299-0.53743 0.66088-0.04760
  -4   2  15 4323.06  668.33   1-0.84083 0.34967 0.47770-0.35210-0.25457 0.86818
   4  -2  16 1734.12  344.31   1-0.18179 0.67210 0.60491-0.73048 0.77526-0.12108
   4   2  16 2117.69  387.28   1-0.35278 0.84309 0.66329-0.53773 0.65998-0.00581
  -4   2  16 2313.98  414.81   1-0.83782 0.34667 0.50703-0.38143-0.20240 0.85692
   4  -2  17 3938.46  636.70   1-0.18621 0.67652 0.60673-0.73230 0.77278-0.07772
   4   2  17 5731.22  556.96   1-0.35219 0.84250 0.66314-0.53758 0.66045 0.03459
  -4   2  17 4010.46  627.67   1-0.83209 0.34094 0.53352-0.40793-0.15153 0.84696
   4  -2  18 2645.23  525.37   1-0.18866 0.67897 0.60773-0.73330 0.77140-0.03545
   4   2  18 3767.73  454.96   1-0.35004 0.84034 0.66256-0.53700 0.66217 0.07376
   4  -3   0  715.18  151.71   1 0.37875 0.11157 0.25355-0.44193 0.89008-0.89008
   4   3   0  786.53  124.89   1 0.10677 0.38348 0.45427-0.26591 0.88443-0.88443
   4  -3  -166150.24 1853.86   1 0.43454 0.05578 0.20388-0.39225 0.87726-0.91816
   4  -3   173450.51 2018.90   1 0.32311 0.16694 0.29936-0.48767 0.89776-0.85691
   4   3  -173448.59 1897.28   1 0.20992 0.28013 0.38491-0.19660 0.89876-0.93961
   4   3   166786.47 1711.05   1 0.01589 0.47436 0.50835-0.31999 0.86100-0.82011
   4  -3  -2  465.07  118.39   1 0.48954 0.00078 0.15134-0.33971 0.85874-0.94052
   4   3  -2  241.69   85.09   1 0.32246 0.16759 0.29989-0.11158 0.89782-0.97952
   4  -3   2  280.43  120.34   1 0.26913 0.22092 0.34153-0.52984 0.90051-0.81881
   4   3   2  266.80  129.71   1-0.06201 0.55232 0.54991-0.36155 0.83291-0.75114
   4   3  -3 9434.96  529.64   1 0.43916 0.05116 0.19961-0.01124 0.87594-0.99862
   4  -3   3 9411.02  743.09   1 0.21749 0.27256 0.37952-0.56783 0.89925-0.77670
   4   3   311755.01  396.26   1-0.12770 0.61800 0.58142-0.39305 0.80351-0.68086
  -4  -3   310953.97  284.96   1-0.40093-0.08936 0.67489-0.86323 0.61948-0.49682
   4  -3   4 5824.05  581.57   1 0.16891 0.32114 0.41329-0.60160 0.89479-0.73139
   4   3   4 8542.36  316.68   1-0.18235 0.67266 0.60514-0.41678 0.77494-0.61140
  -4  -3   4 7641.18  226.09   1-0.33769-0.15260 0.65918-0.84752 0.67188-0.50834
  -4   3   4 5101.01  328.52   1-0.59261 0.10201-0.04070 0.22911-0.80445 0.96803
  -4  -3   4 7969.79  260.68   1-0.55214 0.06153-0.08623-0.10217-0.82927 0.99286
   4  -3   5 2402.46  366.45   1 0.12407 0.36618 0.44328-0.63165 0.88775-0.68332
   4   3   5 4940.11  244.21   1-0.22743 0.71774 0.62294-0.43458 0.74847-0.54404
  -4  -3   5 5177.35  172.71   1-0.26752-0.22277 0.63738-0.82574 0.72261-0.51818
  -4  -3   5 4918.81  208.03   1-0.65232 0.16171 0.03287-0.22128-0.75722 0.96170
   4  -3   6 8853.21  763.56   1 0.08293 0.40732 0.46905-0.65741 0.87926-0.63395
  -4  -3   6 6919.29  204.10   1-0.19144-0.29886 0.60886-0.79722 0.76982-0.52450
   4   3   6 7270.06  346.23   1-0.26435 0.75465 0.63628-0.44792 0.72474-0.47942
  -4  -3   6 7237.90  254.87   1-0.73243 0.24169 0.14871-0.33711-0.66439 0.90990
  -4   3   6 8885.67  428.85   1-0.68042 0.18981 0.07089 0.11751-0.72938 0.97476
   4  -3   765811.31 2745.76   1 0.04580 0.44445 0.49123-0.67959 0.86982-0.58362
  -4  -3   771843.07 2926.33   1-0.11206-0.37824 0.57421-0.76257 0.81099-0.52479
   4   3   775495.67 3140.58   1-0.29436 0.78467 0.64619-0.45785 0.70411-0.41791
  -4  -3   776111.55 3116.91   1-0.78919 0.29846 0.25567-0.44407-0.55838 0.84481
  -4   3   775590.13 3170.71   1-0.71737 0.22663 0.12461 0.06378-0.68545 0.97188
   4  -3   8 9182.38 1258.38   1 0.01267 0.47758 0.51016-0.69852 0.85998-0.53289
   4   3   8 7108.88  809.46   1-0.31859 0.80890 0.65367-0.46533 0.68644-0.35936
  -4  -3   8 6943.59  761.26   1-0.82325 0.33219 0.34739-0.53579-0.44897 0.77625
  -4   3   8 8167.66  943.24   1-0.74891 0.25817 0.17670 0.01169-0.63867 0.96602
   4  -3   910221.77  984.69   1-0.01656 0.50681 0.52619-0.71456 0.85020-0.48222
   4   3   9 9391.81  493.93   1-0.33793 0.82824 0.65925-0.47091 0.67170-0.30373
  -4  -3   9 8869.95  400.91   1-0.83870 0.34764 0.42387-0.61227-0.34192 0.71011
  -4   3   910222.79  643.74   1-0.77532 0.28458 0.22630-0.03790-0.58963 0.95790
   4  -3  1034330.27 2374.73   1-0.04206 0.53232 0.53967-0.72804 0.84081-0.43195
   4   3  1032989.97 1376.81   1-0.35314 0.84344 0.66339-0.47505 0.65969-0.25084
  -4  -3  1033039.79 1297.97   1-0.84043 0.34927 0.48423-0.67263-0.24327 0.65235
  -4   3  1030675.59 1313.23   1-0.79674 0.30568 0.27270-0.08429-0.53929 0.94839
   4  -3  11 3220.82  363.00   1-0.06401 0.55432 0.55091-0.73927 0.83210-0.38235
   4   3  11 2956.77  332.48   1-0.36482 0.85512 0.66641-0.47808 0.65022-0.20048
  -4  -3  11 2254.65  216.55   1-0.83228 0.34112 0.53286-0.72125-0.15285 0.60284
  -4   3  11 2926.52  343.55   1-0.81352 0.32246 0.31650-0.12809-0.48786 0.93787
   4  -3  12 1087.07  222.64   1-0.08273 0.57304 0.56019-0.74856 0.82421-0.33358
   4   3  12  921.47  214.49   1-0.37348 0.86379 0.66857-0.48023 0.64304-0.15242
  -4   3  12 1035.43  366.98   1-0.82595 0.33490 0.35724-0.16883-0.43608 0.92700
   4  -3  13 5119.38  664.27   1-0.09841 0.58872 0.56777-0.75613 0.81728-0.28576
   4   3  13 5869.87  762.25   1-0.37954 0.86984 0.67003-0.48170 0.63796-0.10645
  -4   3  13 4457.82  614.76   1-0.83443 0.34337 0.39494-0.20653-0.38437 0.91620
   4  -3  14 6374.12  465.56   1-0.11129 0.60160 0.57385-0.76221 0.81135-0.23895
   4   3  14 5321.14  747.37   1-0.38331 0.87362 0.67093-0.48259 0.63475-0.06236
  -4   3  14 5091.19  797.67   1-0.83954 0.34839 0.42910-0.24071-0.33320 0.90591
   4  -3  1524241.99 1068.14   1-0.12158 0.61189 0.57862-0.76698 0.80648-0.19319
   4   3  1527673.19 1247.71   1-0.38508 0.87538 0.67134-0.48300 0.63325-0.01996
  -4   3  1524503.42 1106.93   1-0.84119 0.35004 0.46102-0.27262-0.28256 0.89618
   4  -3  1615386.35 1170.47   1-0.12948 0.61979 0.58223-0.77059 0.80264-0.14846
   4   3  1612997.34 1028.84   1-0.38506 0.87537 0.67133-0.48300 0.63326 0.02090
  -4   3  1617117.87 1336.69   1-0.83993 0.34877 0.49024-0.30185-0.23273 0.88726
   4  -3  17  174.31  306.30   1-0.13518 0.62548 0.58480-0.77316 0.79983-0.10476
   4   3  17  132.13  223.19   1-0.38343 0.87374 0.67095-0.48262 0.63465 0.06039
  -4   3  17  190.18  321.38   1-0.83604 0.34489 0.51694-0.32855-0.18383 0.87926
   4  -3  18 3117.81  356.66   1-0.13884 0.62914 0.58644-0.77480 0.79800-0.06205
   4   3  18 4446.55  544.20   1-0.38035 0.87065 0.67023-0.48189 0.63727 0.09866
  -4   3  18 2503.16  369.84   1-0.82979 0.33864 0.54126-0.35287-0.13590 0.87223
   4  -4   033990.95  830.92   1 0.42050 0.06983 0.21671-0.46787 0.88102-0.88102
   4   4   033458.33  743.99   1 0.06300 0.42724 0.48108-0.22992 0.87440-0.87440
   4  -4  -1 3033.50  432.23   1 0.47048 0.01984 0.16999-0.42115 0.86587-0.90677
   4  -4   1 7048.50  609.96   1 0.37039 0.11994 0.26072-0.51188 0.89153-0.85064
   4   4   1 3311.47  421.75   1-0.03338 0.52363 0.53514-0.28399 0.84410-0.80321
  -4  -4   1 2586.10  122.98   1-0.63418 0.14388 0.68821-0.93929 0.35236-0.31147
   4  -4  -247861.21 1108.90   1 0.51943-0.02910 0.12110-0.37226 0.84588-0.92767
   4   4  -244004.30  910.39   1 0.30546 0.18459 0.31343-0.06235 0.89913-0.98083
   4  -4   244224.87 1031.13   1 0.32079 0.16926 0.30123-0.55231 0.89797-0.81627
   4   4   245729.37  997.20   1-0.11328 0.60359 0.57478-0.32363 0.81042-0.72865
  -4  -4   242519.59  873.16   1-0.60465 0.11435 0.69175-0.94283 0.39479-0.31301
   4   4  -3145766.715378.63   1 0.44348 0.04684 0.19560 0.05555 0.87467-0.99735
   4  -4   3132182.0 2665.49   1 0.27298 0.21707 0.33861-0.58969 0.90045-0.77790
   4   4   3136372.8 2708.42   1-0.17875 0.66906 0.60365-0.35250 0.77694-0.65428
  -4  -4   3134918.1 2600.81   1-0.56955 0.07925 0.69351-0.94459 0.44118-0.31852
  -4   4   3132913.9 2718.12   1-0.56641 0.07580-0.07052 0.32174-0.82109 0.94378
   4  -4   419147.96  588.23   1 0.22739 0.26266 0.37241-0.62349 0.89977-0.73637
   4   4   420327.91  559.86   1-0.23192 0.72223 0.62463-0.37348 0.74568-0.58213
  -4  -4   420182.21  441.73   1-0.52724 0.03694 0.69265-0.94373 0.49218-0.32863
  -4   4   417391.65  584.09   1-0.61071 0.12011-0.01928 0.27050-0.79161 0.95519
  -4  -4   420315.02  467.71   1-0.57937 0.08876-0.05594-0.19527-0.81313 0.97672
   4  -4   515407.13 1211.53   1 0.18453 0.30552 0.40263-0.65372 0.89656-0.69231
   4   4   517287.12  508.26   1-0.27488 0.76518 0.63988-0.38873 0.71762-0.51319
  -4  -4   515875.78  350.97   1-0.47580-0.01449 0.68790-0.93898 0.54808-0.34365
  -4  -4   516806.61  400.44   1-0.69692 0.20631 0.09452-0.34573-0.71088 0.91536
  -4   4   515534.66  556.63   1-0.65168 0.16107 0.03203 0.21918-0.75781 0.96229
   4  -4   6 8667.07  971.25   1 0.14498 0.34526 0.42969-0.68084 0.89125-0.64594
   4   4   6 7784.00  870.67   1-0.30939 0.79970 0.65089-0.39977 0.69326-0.44794
  -4  -4   6 7661.26  827.53   1-0.78173 0.29100 0.23953-0.49072-0.57576 0.82128
  -4   4   6 7591.04  889.91   1-0.68880 0.19820 0.08277 0.16844-0.72020 0.96557
   4  -4   7  717.04  180.35   1 0.10859 0.38165 0.45312-0.70428 0.88480-0.59860
   4   4   7 1008.32  199.90   1-0.33702 0.82732 0.65899-0.40788 0.67241-0.38621
  -4  -4   7  882.92  127.33   1-0.82811 0.33705 0.36565-0.61685-0.42488 0.71125
  -4   4   7 1252.06  293.58   1-0.72206 0.23133 0.13199 0.11920-0.67911 0.96554
   4  -4   8 2860.33  319.28   1 0.07564 0.41460 0.47348-0.72463 0.87754-0.55045
   4   4   8 1099.78  195.72   1-0.35895 0.84925 0.66491-0.41379 0.65501-0.32792
  -4  -4   8 1460.43  112.52   1-0.84119 0.35004 0.46390-0.71509-0.27780 0.60506
  -4   4   8 2994.69  290.50   1-0.75073 0.26000 0.17993 0.07126-0.63562 0.96297
   4  -4   921494.08 1675.11   1 0.04615 0.44409 0.49102-0.74217 0.86992-0.50194
   4   4   917824.93  810.02   1-0.37614 0.86645 0.66922-0.41810 0.64082-0.27285
  -4   4   920269.06  966.17   1-0.77508 0.28435 0.22583 0.02536-0.59011 0.95838
   4  -4  1026645.93 1158.94   1 0.02004 0.47020 0.50601-0.75717 0.86228-0.45342
   4   4  1023796.42 1059.25   1-0.38939 0.87969 0.67233-0.42121 0.62955-0.22069
  -4   4  1024108.10 1113.14   1-0.79520 0.30415 0.26908-0.01787-0.54335 0.95245
   4  -4  1130354.80 1311.88   1-0.00280 0.49305 0.51872-0.76988 0.85493-0.40518
   4   4  1133280.63 1442.23   1-0.39930 0.88960 0.67454-0.42342 0.62092-0.17117
  -4   4  1128144.23 1273.43   1-0.81132 0.32027 0.31024-0.05903-0.49547 0.94548
   4  -4  12 4179.91  741.66   1-0.02255 0.51280 0.52940-0.78055 0.84806-0.35743
   4   4  12 3877.06  552.55   1-0.40637 0.89668 0.67605-0.42494 0.61465-0.12402
  -4   4  12 3349.09  496.51   1-0.82366 0.33260 0.34885-0.09764-0.44707 0.93799
   4  -4  13  763.84  194.01   1-0.03936 0.52962 0.53827-0.78942 0.84184-0.31032
   4   4  13  490.94  241.80   1-0.41101 0.90131 0.67701-0.42590 0.61050-0.07899
  -4   4  13  715.17  274.75   1-0.83248 0.34142 0.38490-0.13370-0.39852 0.93035
   4  -4  14  633.08  213.95   1-0.05344 0.54369 0.54553-0.79668 0.83638-0.26397
   4   4  14 1042.35  389.67   1-0.41351 0.90381 0.67752-0.42641 0.60824-0.03584
  -4   4  14  868.90  278.95   1-0.83805 0.34700 0.41843-0.16723-0.35009 0.92283
   4  -4  15 4940.75  701.57   1-0.06489 0.55520 0.55136-0.80251 0.83173-0.21844
   4   4  15 4184.95  631.64   1-0.41414 0.90445 0.67765-0.42653 0.60767 0.00561
  -4   4  15 4896.00  723.68   1-0.84092 0.34976 0.44897-0.19778-0.30210 0.91571
   4  -4  16 3787.64  587.52   1-0.07401 0.56432 0.55590-0.80705 0.82794-0.17376
   4   4  16 2764.89  505.00   1-0.41311 0.90341 0.67744-0.42633 0.60860 0.04556
  -4   4  16 4792.75  615.40   1-0.84083 0.34967 0.47771-0.22652-0.25454 0.90907
   4  -4  1712945.83 1105.00   1-0.08090 0.57121 0.55930-0.81045 0.82500-0.12994
   4   4  1711603.06 1030.31   1-0.41058 0.90088 0.67693-0.42581 0.61088 0.08416
  -4   4  1712775.52 1123.24   1-0.83825 0.34710 0.50419-0.25300-0.20762 0.90305
   4  -4  18  234.92  189.33   1-0.08570 0.57601 0.56164-0.81279 0.82292-0.08697
   4   4  18  678.75  343.98   1-0.40668 0.89699 0.67612-0.42500 0.61438 0.12155
  -4   4  18  485.89  257.39   1-0.83341 0.34226 0.52855-0.27736-0.16139 0.89773
   4  -5   019511.17 1564.83   1 0.46059 0.02974 0.17948-0.49343 0.86927-0.86927
   4   5   018961.09  458.97   1 0.02249 0.46775 0.50463-0.19069 0.86304-0.86304
  -4  -5   019067.27  442.95   1-0.75643 0.26547 0.64232-0.95618 0.12339-0.12339
   4  -5  -1 5643.20  948.03   1 0.50527-0.01493 0.13559-0.44954 0.85224-0.89313
   4  -5   1 5219.53  455.68   1 0.41546 0.07486 0.22126-0.53521 0.88228-0.84139
   4   5  -1 5303.78  433.93   1 0.14769 0.34256 0.42791-0.11397 0.89167-0.93255
   4   5   1 5622.71  226.52   1-0.07902 0.56932 0.55837-0.24444 0.82581-0.78492
  -4  -5   1 5189.70  176.08   1-0.74959 0.25894 0.64681-0.96074 0.14047-0.09957
   4  -5   242579.89 1941.22   1 0.37061 0.11972 0.26053-0.57448 0.89149-0.80971
   4   5  -246566.19  948.56   1 0.29763 0.19242 0.31959-0.00574 0.89959-0.98129
   4   5   242483.00  933.50   1-0.16027 0.65058 0.59583-0.28190 0.78694-0.70517
  -4  -5   237863.83 1555.76   1-0.74315 0.25250 0.65088-0.96481 0.15517-0.07336
  -4   5   243185.56 1863.34   1-0.54874 0.05813-0.08992 0.40394-0.83114 0.91293
   4   5  -3 3137.14  482.00   1 0.46694 0.02338 0.17339 0.14055 0.86711-0.98979
   4  -5   3 3285.85  581.65   1 0.32643 0.16362 0.29668-0.61053 0.89745-0.77490
   4   5   3 4744.44  554.90   1-0.22488 0.71518 0.62198-0.30804 0.75004-0.62738
  -4   5   3 4088.13  564.42   1-0.59039 0.09978-0.04328 0.35730-0.80595 0.92864
   4  -5   460493.07 2578.04   1 0.28405 0.20599 0.33013-0.64398 0.90017-0.73678
   4   5   465539.35 2721.23   1-0.27612 0.76643 0.64029-0.32636 0.71677-0.55323
  -4  -5   464576.42 2628.32   1-0.64013 0.14952 0.01711-0.33113-0.76807 0.93165
  -4   5   465011.16 2758.53   1-0.62963 0.13902 0.00387 0.31014-0.77688 0.94046
   4  -5   530422.77 1335.99   1 0.24372 0.24633 0.36050-0.67435 0.90035-0.69610
   4   5   528526.92 1243.21   1-0.31667 0.80697 0.65309-0.33920 0.68788-0.48345
  -4  -5   528874.58 1182.85   1-0.78181 0.29107 0.23968-0.55368-0.57560 0.78019
  -4   5   530566.09 1389.35   1-0.66595 0.17535 0.05100 0.26301-0.74424 0.94872
   4  -5   620418.17 1637.80   1 0.20583 0.28422 0.38780-0.70165 0.89846-0.65337
   4   5   620364.86  936.81   1-0.34877 0.83907 0.66222-0.34832 0.66318-0.41787
  -4   5   621056.41 1018.81   1-0.69930 0.20857 0.09724 0.21675-0.70817 0.95368
   4  -5   7 5528.50  559.58   1 0.17065 0.31940 0.41211-0.72596 0.89500-0.60906
   4   5   7 6330.11  409.31   1-0.37404 0.86434 0.66871-0.35481 0.64258-0.35638
  -4   5   7 5255.40  450.14   1-0.72884 0.23810 0.14285 0.17114-0.66960 0.95604
   4  -5   8 6588.77  834.48   1 0.13862 0.35162 0.43386-0.74780 0.89024-0.56315
   4   5   8 7943.57  462.23   1-0.39378 0.88408 0.67332-0.35943 0.62575-0.29866
  -4   5   8 5711.10  448.87   1-0.75473 0.26400 0.18708 0.12691-0.62878 0.95613
   4  -5   922175.20  990.70   1 0.10936 0.38088 0.45264-0.76658 0.88495-0.51698
   4   5   920851.14  952.54   1-0.40899 0.89929 0.67660-0.36270 0.61231-0.24434
  -4   5   920989.54 1005.28   1-0.77696 0.28622 0.22963 0.08436-0.58617 0.95444
   4  -5  10 6786.45  780.42   1 0.08310 0.40714 0.46894-0.78288 0.87930-0.47044
   4   5  10 6824.02  569.56   1-0.42046 0.91076 0.67890-0.36501 0.60191-0.19305
  -4   5  10 7079.40  647.47   1-0.79557 0.30452 0.26995 0.04405-0.54238 0.95148
   4  -5  11 7577.76 1049.79   1 0.05981 0.43044 0.48298-0.79692 0.87358-0.42383
   4   5  11 9171.85  590.82   1-0.42879 0.91909 0.68048-0.36659 0.59419-0.14445
  -4   5  11 7309.48  957.59   1-0.81072 0.31967 0.30855 0.00544-0.49750 0.94751
   4  -5  12 9359.69  947.36   1 0.03939 0.45085 0.49495-0.80889 0.86802-0.37739
   4   5  1211013.82  708.74   1-0.43446 0.92477 0.68151-0.36762 0.58887-0.09824
  -4   5  12 9971.00  710.68   1-0.82257 0.33151 0.34503-0.03102-0.45201 0.94293
   4  -5  1315626.94 1326.44   1 0.02175 0.46850 0.50505-0.81899 0.86281-0.33129
   4   5  1319386.26 1127.01   1-0.43785 0.92816 0.68211-0.36822 0.58566-0.05414
  -4   5  1315429.74  952.31   1-0.83130 0.34024 0.37934-0.06534-0.40623 0.93806
   4  -5  14 1891.14  459.24   1 0.00673 0.48351 0.51346-0.82740 0.85808-0.28567
   4   5  14 2304.29  453.45   1-0.43926 0.92956 0.68235-0.36846 0.58432-0.01192
  -4   5  14  991.48  309.97   1-0.83712 0.34607 0.41150-0.09749-0.36038 0.93312
   4  -5  1526542.25 2450.22   1-0.00577 0.49603 0.52035-0.83429 0.85393-0.24063
   4   5  1527307.26 4431.87   1-0.43892 0.92922 0.68230-0.36840 0.58464 0.02863
  -4   5  1525782.23 1908.54   1-0.84050 0.34935 0.44101-0.12703-0.31472 0.92834
   4  -5  16 2419.43  668.02   1-0.01593 0.50618 0.52586-0.83980 0.85042-0.19624
   4   5  16 1676.32  413.94   1-0.43702 0.92732 0.68197-0.36807 0.58645 0.06771
  -4   5  16 1255.23  411.34   1-0.84113 0.34998 0.46899-0.15500-0.26931 0.92384
   4  -5  17 3093.28  533.90   1-0.02386 0.51411 0.53010-0.84404 0.84759-0.15252
   4   5  17 2902.13  410.15   1-0.43372 0.92402 0.68138-0.36748 0.58957 0.10547
  -4   5  17 4461.95  586.29   1-0.83944 0.34829 0.49498-0.18099-0.22431 0.91974
   4  -6   019887.23  946.36   1 0.49896-0.00863 0.14195-0.51869 0.85491-0.85491
   4   6   018932.43  816.36   1-0.01300 0.50325 0.52427-0.14755 0.85144-0.85144
   4  -6   113957.96 1181.32   1 0.45848 0.03184 0.18148-0.55822 0.86997-0.82907
   4   6  -112104.18  532.21   1 0.12591 0.36433 0.44210-0.06537 0.88808-0.92896
   4   6   1 7474.76  819.68   1-0.11963 0.60994 0.57772-0.20100 0.80741-0.76652
   4  -6   210320.69 1661.45   1 0.41794 0.07238 0.21902-0.59576 0.88167-0.79988
   4   6  -2 9673.46 1035.41   1 0.30572 0.18433 0.31323 0.06338 0.89911-0.98081
   4   6   2 8134.24  887.38   1-0.20168 0.69199 0.61297-0.23625 0.76392-0.68215
  -4   6   2 8925.65 1037.73   1-0.57734 0.08674-0.05824 0.43506-0.81441 0.89621
   4  -6   311082.74  959.12   1 0.37789 0.11243 0.25429-0.63104 0.89023-0.76755
   4   6   313943.47  650.35   1-0.26503 0.75534 0.63652-0.25979 0.72428-0.60162
  -4   6   310819.22 1233.70   1-0.61422 0.12362-0.01505 0.39187-0.78898 0.91167
   4  -6   411491.25 1174.54   1 0.33858 0.15146 0.28678-0.66340 0.89616-0.73276
   4   6   410043.13 1101.99   1-0.31411 0.80441 0.65232-0.27565 0.68978-0.52624
  -4   6   4 9922.61 1133.74   1-0.64894 0.15833 0.02846 0.34836-0.76030 0.92389
   4  -6   5 1155.84  203.15   1 0.30102 0.18903 0.31693-0.69355 0.89940-0.69516
   4   6   5 3309.44  289.09   1-0.35234 0.84265 0.66318-0.28650 0.66033-0.45590
  -4   6   5 1375.38  255.88   1-0.68111 0.19051 0.07187 0.30495-0.72863 0.93311
   4  -6   639186.99 1590.59   1 0.26533 0.22472 0.34440-0.72102 0.90054-0.65544
   4   6   641647.05 1677.67   1-0.38211 0.87241 0.67064-0.29397 0.63578-0.39047
  -4   6   640107.60 1685.02   1-0.71078 0.22004 0.11445 0.26234-0.69403 0.93955
   4  -6   718175.99 1455.86   1 0.23180 0.25825 0.36922-0.74584 0.89996-0.61402
   4   6   714545.96  701.43   1-0.40521 0.89551 0.67581-0.29913 0.61569-0.32949
  -4   6   714959.68  779.36   1-0.73713 0.24639 0.15651 0.22028-0.65737 0.94380
   4  -6   8 6840.27 1155.61   1 0.20066 0.28938 0.39143-0.76805 0.89805-0.57126
   4   6   8 5733.35  478.68   1-0.42298 0.91329 0.67939-0.30271 0.59958-0.27250
  -4   6   8 6470.49  630.58   1-0.76037 0.26964 0.19740 0.17938-0.61875 0.94610
   4  -6   9  682.40  121.28   1 0.17207 0.31798 0.41115-0.78777 0.89517-0.52753
  -4   6   9 1346.35  301.48   1-0.78048 0.28974 0.23689 0.13989-0.57855 0.94682
   4  -6  10 2225.92  358.15   1 0.14638 0.34387 0.42877-0.80550 0.89147-0.48260
   4   6  10 3295.86  471.51   1-0.44638 0.93668 0.68356-0.30688 0.57748-0.16862
  -4   6  10 1347.57  332.07   1-0.79748 0.30643 0.27448 0.10232-0.53727 0.94637
   4  -6  1122950.26 1252.61   1 0.12306 0.36719 0.44393-0.82066 0.88756-0.43782
   4   6  1121594.71 1222.24   1-0.45336 0.94366 0.68467-0.30800 0.57068-0.12094
  -4   6  1119811.06 1163.02   1-0.81148 0.32042 0.31067 0.06613-0.49495 0.94496
   4  -6  1224415.38 2157.09   1 0.10236 0.38788 0.45704-0.83376 0.88353-0.39290
   4   6  1224776.14 1394.22   1-0.45784 0.94815 0.68536-0.30868 0.56626-0.07563
  -4   6  1223043.06 1336.69   1-0.82257 0.33152 0.34505 0.03175-0.45199 0.94291
   4  -6  13 7066.10  750.77   1 0.08422 0.40602 0.46826-0.84498 0.87956-0.34804
   4   6  13 8456.64  560.97   1-0.46019 0.95049 0.68571-0.30903 0.56393-0.03241
  -4   6  13 7488.88  656.28   1-0.83092 0.33986 0.37759-0.00078-0.40864 0.94047
   4  -6  1415431.23 1688.25   1 0.06857 0.42167 0.47774-0.85447 0.87581-0.30340
   4   6  1418385.59 1406.59   1-0.46068 0.95098 0.68578-0.30911 0.56344 0.00895
  -4   6  1417959.38 1427.43   1-0.83665 0.34559 0.40828-0.03147-0.36511 0.93785
   4  -6  15  836.30  194.69   1 0.05531 0.43494 0.48564-0.86237 0.87240-0.25910
   4   6  15  374.49  246.90   1-0.45953 0.94983 0.68561-0.30894 0.56459 0.04869
  -4   6  15  807.73  296.23   1-0.84020 0.34904 0.43663-0.05985-0.32157 0.93519
   4  -6  16  427.84  119.85   1 0.04433 0.44591 0.49208-0.86881 0.86941-0.21523
   4   6  16  853.55  381.90   1-0.45691 0.94722 0.68522-0.30854 0.56718 0.08698
  -4   6  16  891.91  391.01   1-0.84120 0.35004 0.46368-0.08689-0.27816 0.93269
   4  -7   0  727.88  197.11   1 0.53557-0.04524 0.10421-0.54374 0.83803-0.83803
   4   7   0  771.67  132.07   1-0.04135 0.53160 0.53930-0.09979 0.84109-0.84109
   4  -7   155244.78 2205.40   1 0.49942-0.00908 0.14149-0.58102 0.85472-0.81383
   4   7  -154299.71 2067.84   1 0.11534 0.37491 0.44886-0.00934 0.88612-0.92701
   4   7   153483.63 2061.21   1-0.15358 0.64388 0.59294-0.15343 0.79046-0.74957
  -4   7   150219.92 2037.43   1-0.57090 0.08029-0.06551 0.50513-0.81839 0.85929
   4  -7   237075.19 1521.17   1 0.46297 0.02736 0.17720-0.61673 0.86847-0.78669
   4   7   237119.66 1460.50   1-0.23632 0.72663 0.62626-0.18675 0.74292-0.66115
  -4   7   234246.10 1457.93   1-0.60508 0.11447-0.02603 0.46565-0.79573 0.87752
   4  -7   3 2625.64  364.78   1 0.42669 0.06363 0.21108-0.65061 0.87941-0.75673
   4   7   3 3374.35  228.48   1-0.29830 0.78860 0.64744-0.20798 0.70130-0.57865
  -4   7   3 2556.04  329.77   1-0.63767 0.14706 0.01399 0.42562-0.77017 0.89286
   4  -7   413657.94 1159.17   1 0.39104 0.09928 0.24290-0.68244 0.88773-0.72416
   4   7   414594.95  656.51   1-0.34545 0.83576 0.66132-0.22187 0.66581-0.50226
  -4   7   414064.98  826.72   1-0.66833 0.17772 0.05421 0.38540-0.74188 0.90546
   4  -7   5 9440.87 1438.45   1 0.35612 0.13393 0.27225-0.71164 0.89389-0.68965
   4   7   5 8063.54  598.93   1-0.38155 0.87185 0.67051-0.23106 0.63626-0.43183
  -4   7   5 9638.69 1199.77   1-0.69707 0.20634 0.09396 0.34562-0.71080 0.91540
   4  -7   6 8039.97  928.72   1 0.32287 0.16718 0.29955-0.73894 0.89778-0.65268
   4   7   6 7483.51  577.06   1-0.40926 0.89956 0.67665-0.23720 0.61207-0.36676
  -4   7   6 7584.45  632.01   1-0.72307 0.23233 0.13358 0.30600-0.67773 0.92324
   4  -7   731893.97 1384.81   1 0.29131 0.19874 0.32451-0.76391 0.89990-0.61395
   4   7   733271.34 1428.02   1-0.43049 0.92079 0.68079-0.24134 0.59261-0.30641
  -4   7   733992.68 1507.23   1-0.74648 0.25574 0.17245 0.26713-0.64267 0.92910
   4  -7   812904.43 1134.87   1 0.26169 0.22836 0.34714-0.78653 0.90055-0.57376
   4   7   814607.13  835.12   1-0.44660 0.93691 0.68359-0.24414 0.57726-0.25018
  -4   7   814322.89  883.34   1-0.76721 0.27648 0.21033 0.22926-0.60592 0.93327
   4  -7   9 2895.07  537.18   1 0.23418 0.25587 0.36749-0.80688 0.90006-0.53241
   4   7   9 2909.90  440.53   1-0.45861 0.94892 0.68547-0.24602 0.56549-0.19752
  -4   7   9 2201.64  365.16   1-0.78524 0.29451 0.24701 0.19258-0.56777 0.93604
   4  -7  1019250.44 1077.63   1 0.20891 0.28114 0.38563-0.82502 0.89869-0.49019
   4   7  1019395.58 1105.75   1-0.46727 0.95758 0.68672-0.24727 0.55683-0.14797
  -4   7  1020914.16 1304.24   1-0.80060 0.30955 0.28206 0.15754-0.52864 0.93774
   4  -7  11  926.26  193.82   1 0.18594 0.30411 0.40166-0.84105 0.89670-0.44736
   4   7  11 1073.27  279.22   1-0.47314 0.96345 0.68751-0.24806 0.55086-0.10112
  -4   7  11  364.89  398.05   1-0.81333 0.32227 0.31596 0.12365-0.48852 0.93853
   4  -7  12  188.37  102.03   1 0.16532 0.32473 0.41571-0.85510 0.89434-0.40415
   4   7  12  704.63  377.33   1-0.47664 0.96694 0.68801-0.24862 0.54721-0.05658
  -4   7  12  475.98  273.59   1-0.82351 0.33245 0.34831 0.09129-0.44777 0.93868
   4  -7  13  422.10  161.35   1 0.14739 0.34285 0.42810-0.86762 0.89162-0.36010
   4   7  13  755.81  280.51   1-0.47814 0.96844 0.68820-0.24881 0.54566-0.01414
  -4   7  13   41.44  255.39   1-0.83125 0.34019 0.37910 0.06051-0.40657 0.93840
   4  -7  1410363.64 1600.71   1 0.13143 0.35882 0.43854-0.87805 0.88904-0.31664
   4   7  14 9438.31  896.26   1-0.47789 0.96819 0.68817-0.24878 0.54592 0.02648
  -4   7  1411263.38 1107.77   1-0.83665 0.34559 0.40828 0.03132-0.36511 0.93785
   4  -7  15  686.15  155.22   1 0.11771 0.37253 0.44734-0.88686 0.88657-0.27328
   4   7  15 1073.62  378.94   1-0.47609 0.96639 0.68794-0.24855 0.54778 0.06551
  -4   7  15  973.59  289.12   1-0.84010 0.34894 0.43538 0.00419-0.32351 0.93713
  -4   8   0  435.56  234.51   1-0.57032 0.07971-0.06615 0.56858-0.81874 0.81874
   4   8   1 2642.20  231.56   1-0.17924 0.66954 0.60385-0.10155 0.77667-0.73579
  -4   8   1 2394.74  308.28   1-0.60164 0.11104-0.03010 0.53253-0.79819 0.83908
   4  -8   227760.23 1220.69   1 0.50566-0.01533 0.13519-0.63751 0.85207-0.77028
   4   8   227785.03 1137.21   1-0.26316 0.75347 0.63587-0.13357 0.72553-0.64376
  -4   8   226773.51 1202.22   1-0.63182 0.14122 0.00662 0.49580-0.77508 0.85687
   4  -8   3 8027.64  890.96   1 0.47302 0.01730 0.16753-0.66985 0.86497-0.74229
   4   8   3 8805.72  630.76   1-0.32422 0.81452 0.65532-0.15309 0.68222-0.55956
  -4   8   3 8870.83  733.84   1-0.66054 0.16994 0.04374 0.45868-0.74950 0.87219
   4  -8   425159.34 1786.61   1 0.44071 0.04961 0.19818-0.70050 0.87549-0.71192
   4   8   422848.71  978.14   1-0.36977 0.86007 0.66766-0.16542 0.64614-0.48259
  -4   8   423128.42 1100.59   1-0.68754 0.19693 0.08096 0.42146-0.72161 0.88520
   4  -8   5  833.92  222.12   1 0.40908 0.08124 0.22698-0.72930 0.88381-0.67934
   4   8   5  432.89  110.16   1-0.40413 0.89443 0.67558-0.17335 0.61665-0.41222
  -4   8   5 1262.97  415.27   1-0.71290 0.22216 0.11770 0.38469-0.69131 0.89590
   4  -8   6 5324.63  915.70   1 0.37846 0.11187 0.25381-0.75613 0.89013-0.64477
   4   8   6 6507.60  829.20   1-0.43019 0.92050 0.68074-0.17851 0.59288-0.34757
  -4   8   6 5292.25  748.35   1-0.73582 0.24508 0.15432 0.34806-0.65935 0.90486
   4  -8   7 2552.47  487.34   1 0.34880 0.14125 0.27836-0.78052 0.89490-0.60895
   4   8   7 2581.62  418.03   1-0.44994 0.94024 0.68413-0.18190 0.57402-0.28782
  -4   8   7 2490.05  398.26   1-0.75650 0.26577 0.19029 0.31209-0.62568 0.91211
   4  -8   816608.54 1479.26   1 0.32098 0.16907 0.30107-0.80323 0.89795-0.57116
   4   8   814725.24  865.36   1-0.46475 0.95505 0.68637-0.18413 0.55937-0.23228
  -4   8   817443.51 1059.58   1-0.77488 0.28414 0.22541 0.27698-0.59055 0.91790
   4  -8   913744.16 1542.12   1 0.29490 0.19515 0.32172-0.82388 0.89973-0.53209
   4   8   913297.60  832.84   1-0.47561 0.96591 0.68788-0.18572 0.54827-0.18029
  -4   8   913519.00  884.53   1-0.79091 0.30017 0.25951 0.24288-0.55417 0.92244
   4  -8  10 7729.33  987.09   1 0.27070 0.21935 0.34034-0.84250 0.90049-0.49199
   4   8  1010390.44  628.10   1-0.48328 0.97358 0.68882-0.18666 0.54032-0.13146
  -4   8  10 8954.42  646.56   1-0.80462 0.31356 0.29220 0.21020-0.51690 0.92600
   4  -8  1113327.70 1456.22   1 0.24848 0.24157 0.35699-0.85915 0.90045-0.45110
   4   8  1117410.44 1355.86   1-0.48829 0.97860 0.68939-0.18724 0.53506-0.08531
  -4   8  1114025.17 1123.65   1-0.81602 0.32496 0.32392 0.17848-0.47872 0.92872
   4  -8  12  525.60  138.57   1 0.22833 0.26172 0.37173-0.87390 0.89981-0.40962
   4   8  12  245.50  235.28   1-0.49107 0.98137 0.68970-0.18754 0.53212-0.04148
  -4   8  12  716.57  293.28   1-0.82518 0.33412 0.35434 0.14807-0.43990 0.93082
   4  -8  13 6053.91  572.36   1 0.21026 0.27979 0.38467-0.88683 0.89878-0.36774
   4   8  13 4851.25  587.06   1-0.49193 0.98223 0.68979-0.18763 0.53120 0.00031
  -4   8  13 4283.60  573.88   1-0.83216 0.34111 0.38339 0.11901-0.40062 0.93245
   4  -8  14   45.37  165.84   1 0.19429 0.29576 0.39588-0.89804 0.89750-0.32562
   4   8  14  260.07  241.76   1-0.49112 0.98142 0.68970-0.18754 0.53207 0.04033
  -4   8  14  415.63  268.31   1-0.83706 0.34600 0.41106 0.09134-0.36103 0.93377
  -4   9   0 6684.80  870.79   1-0.60331 0.11271-0.02813 0.59336-0.79700 0.79700
  -4   9   1 2641.23  497.58   1-0.63093 0.14033 0.00550 0.55972-0.77581 0.81670
  -4   9  -1 1989.04  366.18   1-0.57489 0.08429-0.06101 0.62625-0.81594 0.77505
  -4   9   239484.00 2053.89   1-0.65747 0.16687 0.03966 0.52557-0.75242 0.83422
  -4   9  -236669.44 1902.55   1-0.54596 0.05536-0.09292 0.65815-0.83263 0.75084
   4  -9   3 3427.40  489.70   1 0.51685-0.02652 0.12375-0.68887 0.84707-0.72439
   4   9   3 2065.19  293.82   1-0.34222 0.83253 0.66044-0.09543 0.66835-0.54569
  -4   9   3 1247.54  309.33   1-0.68269 0.19208 0.07408 0.49115-0.72694 0.84963
   4  -9   413950.75 1465.48   1 0.48780 0.00252 0.15306-0.71817 0.85942-0.69585
   4   9   412120.70  692.31   1-0.38684 0.87715 0.67175-0.10673 0.63174-0.46819
  -4   9   412863.42  890.42   1-0.70668 0.21594 0.10823 0.45695-0.69920 0.86287
   4  -9   514708.14 1442.58   1 0.45917 0.03115 0.18083-0.74594 0.86974-0.66528
   4   9   513015.47  741.53   1-0.42005 0.91036 0.67882-0.11381 0.60228-0.39785
  -4   9   516408.99 1011.48   1-0.72863 0.23790 0.14252 0.42267-0.66990 0.87449
   4  -9   6 4230.36 1014.71   1 0.43124 0.05908 0.20692-0.77203 0.87818-0.63282
   4   9   6 6517.65  457.66   1-0.44498 0.93528 0.68332-0.11831 0.57883-0.33352
  -4   9   6 4172.25  715.37   1-0.74874 0.25800 0.17641 0.38878-0.63895 0.88446
   4  -9   7 1260.98  299.46   1 0.40428 0.08604 0.23125-0.79636 0.88491-0.59866
   4   9   7 2372.34  425.54   1-0.46368 0.95399 0.68622-0.12120 0.56044-0.27424
  -4   9   7 1224.42  371.94   1-0.76690 0.27616 0.20972 0.35546-0.60652 0.89295
   4  -9   811188.19 1213.70   1 0.37852 0.11180 0.25376-0.81887 0.89012-0.56298
   4   9   812374.02  688.27   1-0.47757 0.96787 0.68813-0.12320 0.54625-0.21916
  -4   9   810760.03  706.00   1-0.78305 0.29231 0.24230 0.32288-0.57281 0.90016
   4  -9   9 1278.87  286.48   1 0.35379 0.13626 0.27420-0.83913 0.89422-0.52658
   4   9   9 1598.00  380.60   1-0.48764 0.97794 0.68932-0.12439 0.53575-0.16777
  -4   9   9 1892.49  480.49   1-0.79718 0.30613 0.27376 0.29144-0.53808 0.90627
   4  -9  10 9907.14 1097.03   1 0.33097 0.15908 0.29300-0.85793 0.89699-0.48850
   4   9  1010050.50  899.15   1-0.49461 0.98491 0.69007-0.12514 0.52835-0.11948
  -4   9  1010477.82  933.01   1-0.80926 0.31820 0.30450 0.26071-0.50237 0.91146
   4  -9  11 5555.75  723.15   1 0.30983 0.18022 0.30998-0.87491 0.89884-0.44949
   4   9  11 7024.30  760.02   1-0.49902 0.98932 0.69051-0.12558 0.52360-0.07385
  -4   9  11 5717.94  650.39   1-0.81931 0.32825 0.33417 0.23103-0.46588 0.91589
   4  -9  12 1167.53  357.47   1 0.29048 0.19957 0.32516-0.89009 0.89993-0.40974
   4   9  12 1426.89  383.77   1-0.50128 0.99158 0.69072-0.12579 0.52116-0.03052
  -4   9  12 1188.52  353.17   1-0.82738 0.33632 0.36272 0.20248-0.42879 0.91971
   4  -9  13 2984.35  580.63   1 0.27297 0.21708 0.33861-0.90355 0.90045-0.36941
   4   9  13 1035.67  415.97   1-0.50168 0.99199 0.69076-0.12583 0.52072 0.01080
  -4   9  13 2604.82  465.30   1-0.83351 0.34246 0.39010 0.17511-0.39123 0.92306
  -4  10   0 2953.28  491.38   1-0.63450 0.14389 0.00998 0.61805-0.77285 0.77285
  -4  10   1 6253.69  537.96   1-0.65872 0.16811 0.04131 0.58672-0.75124 0.79214
  -4  10  -1 2914.83  495.73   1-0.60949 0.11889-0.02075 0.64879-0.79251 0.75161
  -4  10   2 1228.26  306.23   1-0.68194 0.19133 0.07303 0.55500-0.72774 0.80954
  -4  10  -2 1080.12  271.40   1-0.58395 0.09334-0.05071 0.67875-0.81020 0.72841
  -4  10   3 2195.27  461.21   1-0.70428 0.21355 0.10463 0.52335-0.70216 0.82491
  -4  10  -3 3333.18  542.28   1-0.55811 0.06751-0.07970 0.70774-0.82592 0.70323
   4 -10   4 1222.87  277.76   1 0.53228-0.04194 0.10769-0.73559 0.83968-0.67611
  -4  10   4 1363.00  416.89   1-0.72492 0.23419 0.13654 0.49144-0.67515 0.83882
   4 -10   5 1596.08  456.19   1 0.50660-0.01626 0.13424-0.76214 0.85166-0.64719
   4 -10   620996.51 1540.36   1 0.48139 0.00893 0.15937-0.78727 0.86189-0.61653
  -4  10   623650.22 1778.85   1-0.76157 0.27084 0.19964 0.42834-0.61655 0.86206
   4 -10   7 5297.32  960.12   1 0.45690 0.03343 0.18298-0.81089 0.87049-0.58424
   4  10   7 6179.08  558.99   1-0.47182 0.96212 0.68734-0.05955 0.55221-0.26601
  -4  10   7 5600.83  653.90   1-0.77739 0.28665 0.23051 0.39748-0.58525 0.87168
   4 -10   8 1831.28  350.44   1 0.43332 0.05700 0.20500-0.83291 0.87760-0.55046
   4  10   8 1321.25  334.42   1-0.48520 0.97550 0.68904-0.06135 0.53831-0.21122
  -4  10   8 1835.81  400.79   1-0.79145 0.30072 0.26074 0.36724-0.55281 0.88016
   4 -10   9  -42.08  169.34   1 0.41087 0.07945 0.22538-0.85328 0.88339-0.51535
   4  10   9  308.08  211.59   1-0.49481 0.98511 0.69009-0.06239 0.52813-0.16015
  -4  10   9 -201.95  296.46   1-0.80376 0.31270 0.28999 0.33801-0.51948 0.88766
   4 -10  10 1982.16  407.30   1 0.38969 0.10063 0.24408-0.87198 0.88800-0.47907
   4  10  10  718.19  302.08   1-0.50138 0.99168 0.69073-0.06303 0.52105-0.11219
  -4  10  10 1696.29  505.17   1-0.81425 0.32319 0.31864 0.30936-0.48523 0.89433
   4 -10  11 5072.99  703.80   1 0.36994 0.12038 0.26110-0.88900 0.89160-0.44178
   4  10  11 5565.79  543.14   1-0.50544 0.99574 0.69110-0.06340 0.51663-0.06688
  -4  10  11 8544.48  777.05   1-0.82296 0.33190 0.34638 0.28163-0.45028 0.90028
  -4  11   0 7871.34  750.81   1-0.66386 0.17325 0.04817 0.64266-0.74630 0.74630
  -4  11   1 3471.64  621.68   1-0.68496 0.19435 0.07729 0.61355-0.72446 0.76536
  -4  11  -1 2793.80  496.29   1-0.64201 0.15141 0.01953 0.67131-0.76644 0.72554
  -4  11   218550.50 1430.44   1-0.70546 0.21473 0.10640 0.58438-0.70071 0.78254
  -4  11  -220862.57 1563.50   1-0.61962 0.12901-0.00848 0.69932-0.78485 0.70305
  -4  11   3 1568.02  414.48   1-0.72456 0.23382 0.13595 0.55483-0.67566 0.79842
  -4  11  -3 1217.76  292.13   1-0.59689 0.10628-0.03571 0.72655-0.80152 0.67883
  -4  11   410807.00  934.98   1-0.74243 0.25170 0.16548 0.52531-0.64915 0.81283
  -4  11  -4 9580.49  809.75   1-0.57403 0.08342-0.06199 0.75283-0.81648 0.65289
  -4  11   5 3801.53  536.49   1-0.75898 0.26824 0.19483 0.49596-0.62127 0.82587
  -4  11  -5 1551.24  412.59   1-0.55126 0.06065-0.08719 0.77803-0.82976 0.62528
   4 -11   612018.60 1029.57   1 0.52881-0.03848 0.11133-0.80202 0.84140-0.59604
  -4  11   611257.19 1038.91   1-0.77410 0.28337 0.22386 0.46692-0.59214 0.83766
   4 -11   7 2572.39  672.74   1 0.50682-0.01649 0.13401-0.82470 0.85156-0.56531
  -4  11   7 2484.00  607.58   1-0.78774 0.29701 0.25246 0.43833-0.56188 0.84832
   4 -11   8 3828.78  637.67   1 0.48553 0.00479 0.15530-0.84599 0.86030-0.53316
  -4  11   8 3272.59  492.49   1-0.79988 0.30882 0.28029 0.41052-0.53067 0.85795
  -4  12   0 1834.82  355.07   1-0.69136 0.20076 0.08644 0.66720-0.71731 0.71731
  -4  12   1 6327.50  638.71   1-0.70992 0.21918 0.11313 0.64045-0.69513 0.73605
  -4  12  -1 7709.31  711.11   1-0.67244 0.18184 0.05983 0.69380-0.73772 0.69682
  -4  12   211792.59  897.27   1-0.72730 0.23656 0.14036 0.61323-0.67180 0.75364
  -4  12  -211588.92  840.71   1-0.65299 0.16238 0.03374 0.71989-0.75661 0.67481
  -4  12   3 1457.62  300.46   1-0.74372 0.25298 0.16768 0.58591-0.64711 0.76987
  -4  12  -3 1303.25  268.67   1-0.63317 0.14257 0.00831 0.74532-0.77396 0.65127
  -4  12   4 2702.84  411.82   1-0.75905 0.26832 0.19496 0.55862-0.62114 0.78481
  -4  12  -4 3324.19  414.02   1-0.61317 0.12257-0.01632 0.76997-0.78977 0.62619
  -4  12   5 1022.75  297.39   1-0.77322 0.28248 0.22209 0.53150-0.59397 0.79856
  -4  12  -5 1440.68  309.03   1-0.59317 0.10256-0.04005 0.79370-0.80407 0.59959
   5   0   0  337.23  104.81   1 0.30628 0.30628 0.31279-0.31279 0.89908-0.89908
   5   0  -1  184.62   95.04   1 0.36733 0.24557 0.26332-0.26332 0.89203-0.93292
   5   0   1  427.37  187.04   1 0.24760 0.36496 0.35764-0.35764 0.90043-0.85958
   5   0  -246918.75 1978.44   1 0.42917 0.18374 0.20882-0.20882 0.87875-0.96053
   5   0   248487.81 2054.55   1 0.19206 0.42051 0.39743-0.39743 0.89730-0.81560
   5   0  -3  475.63  157.66   1 0.49053 0.12237 0.15036-0.15036 0.85834-0.98102
   5   0   3  343.39  160.00   1 0.14043 0.47237 0.43268-0.43268 0.89054-0.76788
   5   0   4106732.7 4167.58   1 0.09297 0.51984 0.46288-0.46288 0.88153-0.71798
  -5   0   497303.49 4010.29   1-0.54997-0.06328-0.08859 0.08859-0.83047 0.99405
   5   0   529555.79 1234.87   1 0.04995 0.56285 0.48879-0.48879 0.87096-0.66653
  -5   0   529400.66 1224.14   1-0.60585-0.00739-0.02511 0.02511-0.79517 0.99965
   5   0   6 8859.02 1228.06   1 0.01140 0.60140 0.51086-0.51086 0.85958-0.61426
  -5   0   6 8750.92  478.81   1-0.65697 0.04371 0.03899-0.03899-0.75290 0.99828
   5   0   7 2869.37  533.13   1-0.02279 0.63560 0.52953-0.52953 0.84798-0.56177
  -5   0   7 3220.55  302.60   1-0.70248 0.08906 0.10194-0.10194-0.70436 0.99079
   5   0   8 4850.84  885.02   1-0.05284 0.66566 0.54523-0.54523 0.83661-0.50952
  -5   0   8 4125.53  392.71   1-0.74137 0.12795 0.16366-0.16366-0.65083 0.97818
   5   0   910667.26  617.42   1-0.07893 0.69181 0.55833-0.55833 0.82585-0.45787
  -5   0   9 9754.01  523.46   1-0.77350 0.16008 0.22265-0.22265-0.59339 0.96166
   5   0  1030304.99 1577.18   1-0.10147 0.71435 0.56922-0.56922 0.81589-0.40703
  -5   0  1031124.24 1607.92   1-0.79884 0.18502 0.27776-0.27776-0.53356 0.94266
   5   0  11 9152.72  579.96   1-0.12067 0.73355 0.57820-0.57820 0.80691-0.35717
  -5   0  1110430.81  641.38   1-0.81781 0.20399 0.32942-0.32942-0.47187 0.92188
   5   0  1231354.87 1686.01   1-0.13681 0.74969 0.58553-0.58553 0.79901-0.30838
  -5   0  1230485.99 1617.98   1-0.83077 0.21695 0.37693-0.37693-0.40955 0.90047
   5   0  13  307.57  214.33   1-0.15014 0.76303 0.59144-0.59144 0.79224-0.26072
  -5   0  13  225.98  190.09   1-0.83828 0.22446 0.42025-0.42025-0.34737 0.87920
   5   0  14 1763.47  383.44   1-0.16091 0.77379 0.59611-0.59611 0.78660-0.21420
  -5   0  14 1576.42  339.75   1-0.84118 0.22723 0.45873-0.45873-0.28631 0.85902
   5   0  1523358.00 1897.62   1-0.16933 0.78221 0.59970-0.59970 0.78210-0.16881
   5   0  16  510.43  241.47   1-0.17558 0.78847 0.60233-0.60233 0.77869-0.12451
   5  -1   025093.35 1140.16   1 0.33886 0.27370 0.28655-0.34932 0.89613-0.89613
   5   1   025632.19 1688.31   1 0.27495 0.33761 0.33710-0.27433 0.90041-0.90041
   5  -1  -1 2876.25  523.23   1 0.39476 0.21814 0.23965-0.30244 0.88697-0.92786
   5   1  -1 3048.83  572.04   1 0.34145 0.27111 0.28443-0.22165 0.89582-0.93667
   5  -1   1 2806.42  544.59   1 0.28462 0.32795 0.32969-0.39246 0.90016-0.85931
   5   1   1 3143.33  439.37   1 0.21160 0.40097 0.38372-0.32095 0.89887-0.85802
   5  -1  -220209.95  922.27   1 0.45087 0.16204 0.18868-0.25147 0.87241-0.95420
   5   1  -220389.26  908.85   1 0.40985 0.20305 0.22629-0.16350 0.88363-0.96541
   5  -1   221331.80 1470.14   1 0.23268 0.37988 0.36858-0.43135 0.90000-0.81830
   5   1   220038.20  911.10   1 0.15248 0.46033 0.42474-0.36195 0.89237-0.81060
   5  -1  -341518.87 1769.88   1 0.50624 0.10667 0.13461-0.19740 0.85182-0.97450
   5   1  -336233.72 1541.56   1 0.47805 0.13486 0.16264-0.09985 0.86314-0.98581
   5  -1   336369.60 1576.96   1 0.18373 0.42884 0.40319-0.46596 0.89648-0.77393
   5   1   338682.83 1671.87   1 0.09813 0.51468 0.45967-0.39689 0.88264-0.75998
   5  -1   4 4224.77  796.93   1 0.13834 0.47446 0.43404-0.49683 0.89020-0.72665
   5   1   4 2436.31  484.44   1 0.04894 0.56387 0.48939-0.42660 0.87068-0.70714
  -5  -1   4 1452.91  221.62   1-0.54430-0.06895-0.09471 0.03191-0.83352 0.99710
  -5   1   4 3374.01  467.72   1-0.55971-0.05354-0.07794 0.14075-0.82501 0.98859
   5  -1   5 2092.56  275.02   1 0.09658 0.51623 0.46064-0.52343 0.88231-0.67788
   5   1   5 1111.09  202.80   1 0.00495 0.60786 0.51445-0.45166 0.85750-0.65307
  -5  -1   5  817.98  153.16   1-0.60643-0.00682-0.02442-0.03837-0.79475 0.99923
  -5   1   5 1369.35  195.45   1-0.61009-0.00316-0.02004 0.08284-0.79207 0.99655
   5  -1   6 8602.65  971.71   1 0.05869 0.55412 0.48364-0.54643 0.87329-0.62797
   5   1   610678.73 1043.28   1-0.03395 0.64676 0.53544-0.47265 0.84388-0.59857
  -5  -1   6 9266.38  475.31   1-0.66275 0.04949 0.04669-0.10949-0.74737 0.99275
  -5   1   6 7634.09  448.64   1-0.65645 0.04320 0.03831 0.02449-0.75338 0.99876
   5  -1   7 2361.22  350.65   1 0.02466 0.58815 0.50340-0.56619 0.86369-0.57749
   5   1   7  651.02  166.72   1-0.06796 0.68085 0.55290-0.49011 0.83047-0.54426
  -5   1   7 1344.63  247.72   1-0.69825 0.08483 0.09570-0.03290-0.70941 0.99585
   5  -1   811313.86 1125.45   1-0.00559 0.61841 0.52025-0.58304 0.85399-0.52690
   5   1   810175.77  553.21   1-0.09756 0.71044 0.56736-0.50457 0.81766-0.49057
  -5  -1   810246.68  521.38   1-0.75314 0.13972 0.18422-0.24702-0.63153 0.95888
  -5   1   810540.53  559.20   1-0.73455 0.12114 0.15222-0.08942-0.66124 0.98859
   5  -1   9 2505.48  429.42   1-0.03223 0.64505 0.53454-0.59732 0.84452-0.47655
   5   1   9 3335.43  359.59   1-0.12301 0.73590 0.57928-0.51649 0.80579-0.43781
  -5  -1   9 3419.69  356.16   1-0.78588 0.17246 0.24838-0.31118-0.56630 0.93457
  -5   1   9 1528.86  268.46   1-0.76529 0.15187 0.20665-0.14385-0.60960 0.97787
   5  -1  1015533.31  877.43   1-0.05546 0.66828 0.54656-0.60935 0.83557-0.42671
   5   1  1017140.10  950.59   1-0.14469 0.75757 0.58904-0.52625 0.79504-0.38618
  -5  -1  1016665.33  904.90   1-0.81034 0.19652 0.30749-0.37029-0.49878 0.90788
  -5   1  1015045.44  860.41   1-0.79042 0.17700 0.25841-0.19561-0.55538 0.96457
   5  -1  1131237.12 1672.67   1-0.07542 0.68831 0.55660-0.61939 0.82734-0.37759
   5   1  1130191.42 1621.24   1-0.16292 0.77581 0.59697-0.53418 0.78553-0.33579
  -5  -1  1131171.53 1638.36   1-0.82719 0.21337 0.36199-0.42479-0.42977 0.87978
  -5   1  1131622.72 1678.74   1-0.81006 0.19624 0.30671-0.24390-0.49972 0.94973
   5  -1  1210979.35  746.08   1-0.09247 0.70535 0.56492-0.62771 0.81994-0.32931
   5   1  12 9747.98  630.83   1-0.17805 0.79093 0.60336-0.54057 0.77733-0.28670
  -5  -1  12 9621.82  580.05   1-0.83708 0.22326 0.41120-0.47401-0.36082 0.85174
  -5   1  12 9556.63  630.53   1-0.82457 0.21075 0.35211-0.28931-0.44282 0.93374
   5  -1  13  711.47  236.56   1-0.10676 0.71964 0.57172-0.63451 0.81346-0.28194
   5   1  13 1390.16  302.41   1-0.19035 0.80324 0.60842-0.54563 0.77044-0.23892
  -5   1  13  743.96  325.13   1-0.83427 0.22045 0.39409-0.33129-0.38558 0.91741
   5  -1  1411688.96  923.04   1-0.11850 0.73138 0.57720-0.63999 0.80795-0.23555
   5   1  1413146.86 1018.75   1-0.20010 0.81298 0.61234-0.54956 0.76484-0.19243
  -5   1  1412872.03  994.84   1-0.83981 0.22587 0.43198-0.36918-0.32877 0.90148
   5   1  15  993.84  254.91   1-0.20752 0.82041 0.61528-0.55249 0.76049-0.14720
  -5   1  15 1314.25  324.61   1-0.84116 0.22722 0.46723-0.40443-0.27227 0.88589
   5  -1  16 7521.50  709.36   1-0.13508 0.74796 0.58475-0.64754 0.79988-0.14570
   5   1  16 8031.78  755.16   1-0.21283 0.82571 0.61735-0.55457 0.75734-0.10316
   5  -2   0 1228.35  242.22   1 0.37239 0.24052 0.25901-0.38459 0.89119-0.89119
   5   2   0 1412.53  284.91   1 0.24554 0.36703 0.35916-0.23362 0.90039-0.90039
   5  -2  -184671.05 3507.72   1 0.42330 0.18961 0.21417-0.33975 0.88030-0.92120
   5   2  -177961.50 3210.05   1 0.31825 0.29431 0.30326-0.17772 0.89818-0.93903
   5  -2   177180.25 3271.50   1 0.32215 0.29042 0.30014-0.42568 0.89784-0.85700
   5   2   185178.12 3513.44   1 0.17723 0.43533 0.40764-0.28210 0.89577-0.85492
   5  -2  -2 4874.55  846.39   1 0.47422 0.13868 0.16636-0.29194 0.86453-0.94632
   5   2  -2 3436.19  624.69   1 0.39390 0.21901 0.24041-0.11482 0.88715-0.96894
   5  -2   2 4050.23  601.53   1 0.27377 0.33879 0.33800-0.46354 0.90044-0.81874
   5   2   2 4128.13  814.78   1 0.11441 0.49840 0.44945-0.32387 0.88594-0.80417
   5  -2  -3 5062.71  601.25   1 0.52424 0.08867 0.11611-0.24169 0.84361-0.96629
   5   2  -3 4874.31  830.68   1 0.47002 0.14289 0.17043-0.04485 0.86604-0.98872
   5  -2   3 4430.85  637.11   1 0.22768 0.38489 0.37220-0.49774 0.89979-0.77724
   5   2   3 5497.47  779.76   1 0.05757 0.55524 0.48431-0.35873 0.87299-0.75034
   5  -2   4 1958.54  284.93   1 0.18434 0.42822 0.40277-0.52831 0.89654-0.73314
   5   2   4  495.46  154.77   1 0.00688 0.60593 0.51338-0.38781 0.85813-0.69458
  -5   2   4  765.25  194.07   1-0.57243-0.04082-0.06379 0.18940-0.81746 0.98105
   5  -2   5 8991.40  983.41   1 0.14424 0.46857 0.43018-0.55575 0.89114-0.68671
   5   2   5 7007.55 1042.03   1-0.03779 0.65061 0.53745-0.41187 0.84244-0.63801
  -5  -2   5 5686.11  315.02   1-0.61357 0.00031-0.01584-0.10976-0.78947 0.99395
  -5   2   5 8361.80  492.21   1-0.61789 0.00463-0.01059 0.13620-0.78618 0.99066
   5  -2   6 5477.58  756.37   1 0.10730 0.50551 0.45394-0.57951 0.88454-0.63922
   5   2   6 2498.96  241.17   1-0.07671 0.68959 0.55724-0.43166 0.82680-0.58148
  -5   2   6 5166.50  448.16   1-0.65992 0.04666 0.04291 0.08269-0.75010 0.99548
  -5  -2   6 3214.63  262.72   1-0.67560 0.06234 0.06418-0.18979-0.73446 0.97984
   5  -2   754393.35 2220.63   1 0.07374 0.53907 0.47463-0.60021 0.87708-0.59088
   5   2   756499.18 2311.01   1-0.11043 0.72332 0.57345-0.44787 0.81176-0.52555
  -5  -2   758274.05 2331.86   1-0.72848 0.11506 0.14226-0.26786-0.67012 0.95656
  -5   2   754639.43 2243.75   1-0.69817 0.08475 0.09557 0.03002-0.70951 0.99594
   5  -2   8 3620.75  600.40   1 0.04356 0.56925 0.49253-0.61811 0.86920-0.54211
   5   2   8 2846.87  320.77   1-0.13936 0.75224 0.58667-0.46109 0.79774-0.47065
  -5  -2   8 2427.49  239.49   1-0.77091 0.15749 0.21752-0.34312-0.59864 0.92599
  -5   2   8 2600.35  327.41   1-0.73176 0.11834 0.14761-0.02202-0.66537 0.99272
   5  -2   9 1716.73  323.22   1 0.01668 0.59613 0.50791-0.63348 0.86124-0.49327
   5   2   9 1041.85  251.23   1-0.16394 0.77682 0.59741-0.47183 0.78499-0.41702
  -5  -2   9 1694.89  278.88   1-0.80259 0.18877 0.28702-0.41262-0.52293 0.89112
  -5   2   9  875.28  202.59   1-0.76069 0.14727 0.19800-0.07240-0.61817 0.98644
   5  -2  10 1494.02  284.32   1-0.00701 0.61983 0.52102-0.64660 0.85350-0.44464
   5   2  10  667.16  221.11   1-0.18462 0.79750 0.60608-0.48050 0.77367-0.36481
  -5  -2  10  774.33  178.98   1-0.82419 0.21037 0.35073-0.47633-0.44462 0.85372
  -5   2  10  856.73  232.41   1-0.78490 0.17148 0.24626-0.12066-0.56858 0.97777
   5  -2  11 4629.83  804.27   1-0.02768 0.64049 0.53213-0.65771 0.84620-0.39645
   5   2  11 2673.56  509.44   1-0.20181 0.81469 0.61302-0.48745 0.76385-0.31410
  -5   2  11 3350.78  570.20   1-0.80442 0.19060 0.29169-0.16609-0.51750 0.96751
   5  -2  12 8870.14 1471.76   1-0.04548 0.65830 0.54145-0.66702 0.83950-0.34886
   5   2  12 7992.92  535.39   1-0.21586 0.82874 0.61853-0.49295 0.75552-0.26489
  -5   2  12 8320.03  531.74   1-0.81951 0.20569 0.33482-0.20922-0.46507 0.95599
   5  -2  13 2959.84  560.14   1-0.06061 0.67343 0.54918-0.67475 0.83350-0.30197
   5   2  13 1398.95  295.59   1-0.22710 0.83999 0.62282-0.49724 0.74867-0.21715
  -5   2  13 3191.25  507.83   1-0.83036 0.21654 0.37514-0.24954-0.41201 0.94384
   5  -2  14 3652.48  588.97   1-0.07317 0.68605 0.55548-0.68106 0.82829-0.25589
   5   2  14 2211.45  406.95   1-0.23582 0.84871 0.62607-0.50050 0.74324-0.17083
  -5   2  14 3498.38  592.82   1-0.83728 0.22346 0.41260-0.28700-0.35876 0.93150
   5  -2  15 3478.94  414.05   1-0.08344 0.69633 0.56054-0.68612 0.82390-0.21061
   5   2  15 4400.97  486.14   1-0.24226 0.85514 0.62844-0.50286 0.73916-0.12587
  -5   2  15 2564.19  517.80   1-0.84081 0.22687 0.44661-0.32101-0.30588 0.91949
   5  -2  16 2552.60  374.31   1-0.09154 0.70442 0.56447-0.69004 0.82035-0.16618
   5   2  16 2985.84  360.29   1-0.24663 0.85951 0.63002-0.50445 0.73636-0.08218
  -5   2  16 1785.19  283.91   1-0.84079 0.22684 0.47848-0.35288-0.25322 0.90774
   5  -3   087609.63 3413.90   1 0.40600 0.20690 0.22972-0.41809 0.88452-0.88452
   5   3   089727.14 5779.89   1 0.21886 0.39371 0.37855-0.19024 0.89933-0.89933
   5  -3  -114245.84 1417.07   1 0.45246 0.16044 0.18718-0.37555 0.87191-0.91280
   5  -3   113246.48  633.37   1 0.35977 0.25280 0.26919-0.45750 0.89336-0.85251
   5   3  -111760.72  553.95   1 0.29855 0.31401 0.31887-0.13056 0.89954-0.94039
   5   3   113988.05 1040.68   1 0.14522 0.46759 0.42953-0.24117 0.89129-0.85040
   5  -3  -213051.99  643.78   1 0.49867 0.11424 0.14224-0.33061 0.85503-0.93682
   5   3  -210731.25  625.34   1 0.38263 0.23027 0.25021-0.06184 0.88937-0.97115
   5  -3   211156.34  949.55   1 0.31490 0.29767 0.30594-0.49425 0.89846-0.81676
   5   3   212214.88  971.53   1 0.07864 0.53417 0.47166-0.28330 0.87826-0.79648
   5   3  -312754.69  594.29   1 0.46824 0.14467 0.17215 0.01621 0.86666-0.98934
   5  -3   313211.99  640.91   1 0.27173 0.34084 0.33956-0.52787 0.90047-0.77792
   5   3   312128.50  563.42   1 0.01943 0.59338 0.50636-0.31799 0.86210-0.73944
  -5   3   312816.08  637.46   1-0.54388-0.06937-0.09516 0.28357-0.83374 0.95643
   5  -3   410201.61  971.57   1 0.23072 0.38185 0.37000-0.55831 0.89992-0.73652
   5   3   410905.20  944.87   1-0.03252 0.64534 0.53469-0.34632 0.84442-0.68087
  -5   3   4 8806.83  507.41   1-0.58731-0.02594-0.04684 0.23526-0.80800 0.97158
  -5  -3   410287.00  477.58   1-0.55209-0.06116-0.08629-0.10212-0.82930 0.99288
   5  -3   5 9437.63  827.75   1 0.19223 0.42034 0.39731-0.58562 0.89732-0.69307
   5   3   5 8306.43  467.50   1-0.07757 0.69045 0.55766-0.36930 0.82643-0.62200
  -5   3   5 8480.61  507.68   1-0.62834 0.01509 0.00227 0.18613-0.77792 0.98240
  -5  -3   5 8197.54  401.49   1-0.62992 0.01666 0.00424-0.19265-0.77664 0.98112
   5  -3   620242.07  951.96   1 0.15651 0.45606 0.42161-0.60992 0.89316-0.64806
   5   3   619638.30  882.73   1-0.11641 0.72929 0.57623-0.38787 0.80895-0.56363
  -5  -3   620974.20  888.37   1-0.69810 0.08468 0.09547-0.28387-0.70960 0.95511
  -5   3   619280.00  906.28   1-0.66641 0.05315 0.05161 0.13679-0.74379 0.98917
   5  -3   7  256.81  119.11   1 0.12388 0.48892 0.44340-0.63176 0.88771-0.60151
   5   3   7 1691.79  262.42   1-0.14958 0.76246 0.59119-0.40283 0.79253-0.50633
  -5  -3   7 1136.51  185.46   1-0.75381 0.14039 0.18542-0.37382-0.63038 0.91681
  -5   3   7  554.16  351.49   1-0.70130 0.08788 0.10019 0.08820-0.70578 0.99221
   5  -3   854335.12 2227.10   1 0.09407 0.51874 0.46220-0.65056 0.88177-0.55468
   5   3   854949.98 2258.91   1-0.17768 0.79056 0.60320-0.41484 0.77754-0.45045
  -5   3   852979.03 2193.59   1-0.73218 0.11876 0.14830 0.04009-0.66476 0.99211
   5  -3   920289.76 1885.00   1 0.06723 0.54558 0.47855-0.66691 0.87548-0.50750
   5   3   917958.21  990.62   1-0.20128 0.81417 0.61282-0.42445 0.76415-0.39618
  -5   3   919144.97 1080.79   1-0.75911 0.14569 0.19507-0.00667-0.62103 0.98930
   5  -3  10 7960.17 1289.84   1 0.04331 0.56950 0.49267-0.68104 0.86913-0.46026
   5   3  10 9157.87  602.66   1-0.22091 0.83379 0.62047-0.43211 0.75247-0.34360
  -5   3  10 8551.50  604.37   1-0.78202 0.16860 0.24012-0.05172-0.57513 0.98432
   5  -3  1124555.77 2098.41   1 0.02222 0.59059 0.50478-0.69314 0.86295-0.41320
   5   3  1123391.63 1301.07   1-0.23700 0.84989 0.62651-0.43815 0.74249-0.29275
  -5   3  1122960.24 1321.24   1-0.80091 0.18708 0.28281-0.09441-0.52778 0.97779
   5  -3  12 1189.75  263.85   1 0.00383 0.60897 0.51507-0.70343 0.85713-0.36650
   5   3  12  937.60  256.73   1-0.24998 0.86286 0.63123-0.44286 0.73420-0.24357
  -5   3  12 1224.34  402.58   1-0.81593 0.20211 0.32365-0.13525-0.47905 0.96997
   5  -3  13 4392.45  710.22   1-0.01196 0.62478 0.52371-0.71208 0.85180-0.32028
   5   3  13 3389.48  552.85   1-0.26018 0.87306 0.63483-0.44647 0.72752-0.19600
  -5   3  13 4817.17  553.27   1-0.82723 0.21341 0.36215-0.17375-0.42955 0.96138
   5  -3  14 6084.44 1097.78   1-0.02533 0.63815 0.53088-0.71925 0.84706-0.27465
   5   3  14 4857.77  484.35   1-0.26789 0.88078 0.63750-0.44914 0.72236-0.14996
  -5   3  14 6084.22  616.00   1-0.83502 0.22120 0.39825-0.20985-0.37964 0.95238
   5  -3  15 4887.38  691.16   1-0.03640 0.64922 0.53672-0.72509 0.84296-0.22967
   5   3  15 5913.37  605.12   1-0.27339 0.88627 0.63937-0.45101 0.71864-0.10535
  -5   3  15 6148.67  688.37   1-0.83975 0.22581 0.43134-0.24294-0.32977 0.94338
   5  -3  16 5182.77  918.25   1-0.04531 0.65812 0.54136-0.72972 0.83956-0.18538
   5   3  16 5606.33  518.27   1-0.27687 0.88975 0.64055-0.45218 0.71626-0.06208
  -5   3  16 5754.73  533.96   1-0.84120 0.22726 0.46264-0.27424-0.27989 0.93442
   5  -4   0 4668.60  589.01   1 0.43956 0.17335 0.19924-0.45040 0.87583-0.87583
   5   4   0 3870.53  528.10   1 0.19595 0.41662 0.39473-0.14365 0.89765-0.89765
   5  -4  -1  549.64  146.35   1 0.48188 0.13102 0.15889-0.41005 0.86170-0.90259
   5  -4   1  126.23  134.55   1 0.39739 0.21551 0.23733-0.48850 0.88642-0.84552
   5   4  -1  149.74   44.70   1 0.28370 0.32886 0.33040-0.07932 0.90019-0.94103
   5   4   1  511.48  135.29   1 0.11642 0.49638 0.44816-0.19701 0.88633-0.84544
   5  -4  -231484.43 1319.60   1 0.52376 0.08915 0.11661-0.36777 0.84384-0.92563
   5  -4   222992.44  995.43   1 0.35570 0.25687 0.27261-0.52369 0.89395-0.81225
   5   4  -222290.03  903.12   1 0.37798 0.23492 0.25422-0.00306 0.89022-0.97200
   5   4   230884.19 1259.99   1 0.04597 0.56684 0.49112-0.23997 0.86987-0.78810
   5   4  -3 5076.82  375.52   1 0.47546 0.13744 0.16516 0.08599 0.86408-0.98676
   5  -4   3 5647.57  660.58   1 0.31548 0.29709 0.30548-0.55656 0.89841-0.77586
   5   4   3 7906.04  652.16   1-0.01552 0.62833 0.52563-0.27448 0.85056-0.72790
  -5   4   3 4117.21  420.73   1-0.56457-0.04868-0.07257 0.32379-0.82218 0.94487
   5  -4   445569.53 2005.77   1 0.27692 0.33564 0.33560-0.58668 0.90037-0.73698
   5   4   444756.25 1827.60   1-0.06850 0.68138 0.55316-0.30201 0.83024-0.66670
  -5   4   442656.44 1799.53   1-0.60373-0.00951-0.02763 0.27884-0.79670 0.96028
  -5  -4   448043.59 1920.11   1-0.57156-0.04169-0.06476-0.18644-0.81799 0.98157
   5  -4   518017.16 1653.48   1 0.24039 0.37218 0.36295-0.61403 0.90026-0.69601
   5   4   513733.77  668.07   1-0.11388 0.72676 0.57506-0.32391 0.81014-0.60571
  -5   4   516624.15  875.74   1-0.64075 0.02749 0.01791 0.23329-0.76753 0.97201
   5  -4   616574.84 1444.97   1 0.20614 0.40642 0.38758-0.63866 0.89848-0.65339
   5   4   612958.37  670.24   1-0.15241 0.76529 0.59243-0.34128 0.79107-0.54575
  -5   4   613273.24  715.52   1-0.67517 0.06191 0.06359 0.18761-0.73491 0.98028
   5  -4   7 5714.84  861.95   1 0.17437 0.43819 0.40959-0.66067 0.89544-0.60950
   5   4   7 6540.61  524.22   1-0.18490 0.79778 0.60619-0.35504 0.77352-0.48732
  -5   4   7 5478.83  598.31   1-0.70690 0.09349 0.10857 0.14262-0.69892 0.98535
   5  -4   8 1319.69  251.68   1 0.14541 0.46740 0.42941-0.68056 0.89132-0.56423
   5   4   8 1533.59  269.98   1-0.21210 0.82498 0.61707-0.36592 0.75777-0.43068
  -5   4   8  376.66  265.16   1-0.73515 0.12173 0.15320 0.09799-0.66036 0.98771
   5  -4   911943.06 1106.17   1 0.11889 0.49392 0.44660-0.69775 0.88679-0.51882
   5   4   912628.64  748.43   1-0.23468 0.84757 0.62565-0.37450 0.74395-0.37598
  -5   4   912863.48  833.46   1-0.76000 0.14658 0.19672 0.05447-0.61942 0.98769
   5  -4  1020616.38 1833.00   1 0.09501 0.51780 0.46161-0.71277 0.88197-0.47311
   5   4  1020188.00 1134.51   1-0.25324 0.86612 0.63239-0.38124 0.73208-0.32322
  -5   4  1019385.86 1139.11   1-0.78139 0.16798 0.23881 0.01238-0.57652 0.98571
   5  -4  11 5666.26  756.28   1 0.07373 0.53908 0.47464-0.72579 0.87708-0.42733
   5   4  11 5416.53  801.93   1-0.26827 0.88116 0.63763-0.38648 0.72211-0.27236
  -5   4  11 4331.79  635.08   1-0.79932 0.18550 0.27892-0.02771-0.53224 0.98225
   5  -4  1216062.37 1764.39   1 0.05499 0.55782 0.48583-0.73698 0.87231-0.38168
   5   4  1214362.93  741.48   1-0.28021 0.89309 0.64157-0.39046 0.71403-0.22341
  -5   4  1215226.83  806.52   1-0.81386 0.20004 0.31751-0.06631-0.48661 0.97753
   5  -4  13  351.77  184.26   1 0.03869 0.57412 0.49536-0.74651 0.86782-0.33630
   5   4  13  214.67  236.33   1-0.28942 0.90230 0.64460-0.39348 0.70761-0.17610
  -5   4  13   51.29  240.24   1-0.82513 0.21131 0.35415-0.10294-0.44015 0.97198
   5  -4  14 1712.98  387.89   1 0.02473 0.58808 0.50336-0.75451 0.86372-0.29131
   5   4  14 1937.98  418.73   1-0.29621 0.90909 0.64677-0.39566 0.70280-0.13040
  -5   4  14  935.49  300.89   1-0.83325 0.21943 0.38874-0.13754-0.39314 0.96588
   5  -4  1512353.08 1404.34   1 0.01300 0.59981 0.50997-0.76112 0.86009-0.24679
   5   4  1512297.05  864.76   1-0.30082 0.91370 0.64823-0.39712 0.69949-0.08620
  -5   4  1512731.99  881.97   1-0.83840 0.22458 0.42126-0.17006-0.34585 0.95950
   5  -5   0 1498.55  234.79   1 0.47279 0.14012 0.16775-0.48170 0.86505-0.86505
   5   5   0  888.94  148.23   1 0.17815 0.43441 0.40701-0.09316 0.89587-0.89587
   5  -5  -110831.38  580.63   1 0.51125 0.10166 0.12950-0.44346 0.84961-0.89050
   5  -5   112992.66 1329.24   1 0.43426 0.17865 0.20414-0.51809 0.87734-0.83645
   5   5  -112583.79  774.22   1 0.27564 0.33693 0.33658-0.02273 0.90040-0.94125
   5   5   1 9421.77 1151.59   1 0.09192 0.52089 0.46352-0.14958 0.88130-0.84041
   5   5  -2  612.54  106.44   1 0.38297 0.22994 0.24992 0.06402 0.88930-0.97109
   5  -5   2  942.63  145.21   1 0.39614 0.21677 0.23844-0.55239 0.88668-0.80490
   5   5   2  296.75  105.91   1 0.01731 0.59550 0.50755-0.19361 0.86144-0.77967
  -5   5   2  681.17  257.46   1-0.54913-0.06412-0.08950 0.40352-0.83092 0.91272
   5   5  -349156.97 1947.36   1 0.49647 0.11643 0.14444 0.16950 0.85594-0.97862
   5  -5   343247.38 1845.49   1 0.35861 0.25396 0.27017-0.58402 0.89353-0.77098
   5   5   345926.09 1933.91   1-0.04650 0.65931 0.54197-0.22803 0.83910-0.71644
  -5   5   341767.90 1765.70   1-0.58593-0.02732-0.04844 0.36245-0.80891 0.93159
   5  -5   4  241.26  117.97   1 0.32259 0.28998 0.29978-0.61363 0.89781-0.73441
   5   5   4  694.72  244.91   1-0.10050 0.71339 0.56876-0.25482 0.81633-0.65279
   5  -5   523961.65 1865.08   1 0.28816 0.32440 0.32696-0.64081 0.90003-0.69578
   5   5   521313.51  942.19   1-0.14605 0.75893 0.58964-0.27570 0.79434-0.58991
  -5   5   520335.83  998.91   1-0.65456 0.04131 0.03581 0.27820-0.75515 0.95963
   5  -5   6 8172.41 1334.99   1 0.25560 0.35697 0.35170-0.66555 0.90053-0.65544
   5   5   6 5818.41  722.84   1-0.18419 0.79707 0.60590-0.29196 0.77392-0.52860
  -5   5   6 7508.33  983.18   1-0.68563 0.07237 0.07824 0.23577-0.72373 0.96910
   5  -5   711469.69 1173.62   1 0.22511 0.38745 0.37405-0.68791 0.89966-0.61372
   5   5   714402.28  821.26   1-0.21596 0.82884 0.61857-0.30463 0.75546-0.46926
  -5   5   710806.00  797.05   1-0.71440 0.10098 0.12001 0.19398-0.68936 0.97579
   5  -5   8  844.40  193.51   1 0.19685 0.41572 0.39410-0.70795 0.89773-0.57094
   5   5   8 1463.94  332.22   1-0.24226 0.85514 0.62844-0.31450 0.73916-0.41207
  -5   5   8 1384.45  450.86   1-0.74010 0.12668 0.16151 0.15247-0.65280 0.98015
   5  -5   9 1151.64  212.22   1 0.17090 0.44167 0.41194-0.72579 0.89503-0.52739
   5   5   9 1956.16  408.71   1-0.26385 0.87674 0.63611-0.32217 0.72507-0.35709
  -5   5   9 1556.86  450.08   1-0.76288 0.14946 0.20208 0.11191-0.61414 0.98241
   5  -5  10 4097.44  709.93   1 0.14757 0.46524 0.42799-0.74193 0.89165-0.48279
   5   5  10 3622.02  541.78   1-0.28139 0.89427 0.64196-0.32807 0.71322-0.30437
  -5   5  10 3623.85  599.69   1-0.78265 0.16923 0.24146 0.07253-0.57371 0.98290
   5  -5  11 8729.25  872.04   1 0.12636 0.48644 0.44181-0.75575 0.88816-0.43841
   5   5  1110027.46  590.08   1-0.29543 0.90831 0.64653-0.33263 0.70336-0.25362
  -5   5  11 9696.37  613.15   1-0.79941 0.18559 0.27913 0.03487-0.53199 0.98200
   5  -5  12 8152.27 1379.03   1 0.10749 0.50531 0.45381-0.76775 0.88458-0.39395
   5   5  12 7363.63  664.43   1-0.30641 0.91929 0.64997-0.33607 0.69544-0.20481
  -5   5  12 7039.69  720.11   1-0.81319 0.19937 0.31557-0.00156-0.48900 0.97992
   5  -5  13 3156.54  628.34   1 0.09091 0.52190 0.46415-0.77809 0.88107-0.34955
   5   5  13 3808.75  452.30   1-0.31471 0.92759 0.65250-0.33861 0.68933-0.15782
   5  -5  14 5812.03  673.58   1 0.07655 0.53626 0.47293-0.78687 0.87776-0.30535
   5   5  14 6895.79  704.35   1-0.32065 0.93353 0.65427-0.34038 0.68490-0.11251
  -5   5  14 5369.80  671.55   1-0.83216 0.21834 0.38336-0.06936-0.40066 0.97340
   5  -5  15 1721.13  367.24   1 0.06432 0.54848 0.48029-0.79423 0.87474-0.26145
   5   5  15  961.12  244.49   1-0.32448 0.93736 0.65540-0.34150 0.68202-0.06873
   5  -6   014475.80 1343.64   1 0.50546 0.10744 0.13539-0.51213 0.85215-0.85215
   5   6   011667.54  609.70   1 0.16728 0.44528 0.41439-0.03777 0.89459-0.89459
   5  -6   1 9940.78 1181.73   1 0.47038 0.14253 0.17008-0.54682 0.86591-0.82502
   5   6   1 9052.70  859.73   1 0.07300 0.53980 0.47508-0.09835 0.87690-0.83602
   5  -6   2 5329.25  831.70   1 0.43547 0.17744 0.20303-0.57977 0.87700-0.79522
   5   6   2 6163.39  851.76   1-0.00633 0.61915 0.52065-0.14393 0.85374-0.77196
  -5   6   2 4389.87  631.35   1-0.57448-0.03876-0.06147 0.43830-0.81620 0.89799
   5  -6   3 1365.82  312.48   1 0.40112 0.21179 0.23405-0.61079 0.88561-0.76293
   5   6   3 1412.16  236.35   1-0.07258 0.68547 0.55520-0.17847 0.82854-0.70588
  -5   6   3 1223.43  301.26   1-0.60762-0.00562-0.02299 0.39981-0.79388 0.91657
   5  -6   4 2940.03  646.57   1 0.36769 0.24522 0.26301-0.63975 0.89197-0.72840
   5   6   4 3720.48  491.64   1-0.12776 0.74064 0.58144-0.20472 0.80348-0.63994
  -5   6   4 3342.49  526.99   1-0.63936 0.02610 0.01613 0.36068-0.76873 0.93232
   5  -6   514514.69 1445.92   1 0.33520 0.27736 0.28955-0.66617 0.89654-0.69229
   5   6   510815.79  640.29   1-0.17350 0.78638 0.60145-0.22473 0.77983-0.57540
  -5   6   512000.80  764.47   1-0.66935 0.05609 0.05560 0.32121-0.74086 0.94534
   5  -6   620423.32 1878.49   1 0.30449 0.30807 0.31420-0.69082 0.89919-0.65410
   5   6   620109.13 1079.53   1-0.21129 0.82417 0.61676-0.24003 0.75826-0.51294
  -5   6   620577.47 1169.45   1-0.69760 0.08419 0.09474 0.28204-0.71018 0.95569
   5  -6   724838.51 2211.59   1 0.27550 0.33707 0.33669-0.71331 0.90040-0.61446
   5   6   725701.69 1384.71   1-0.24240 0.85528 0.62849-0.25176 0.73907-0.45287
  -5   6   725494.03 1436.78   1-0.72331 0.10989 0.13397 0.24282-0.67739 0.96382
   5  -6   8 2526.83  416.20   1 0.24839 0.36418 0.35706-0.73368 0.90044-0.57365
   5   6   8 2508.01  428.71   1-0.26787 0.88076 0.63750-0.26077 0.72238-0.39529
  -5   6   8 1443.35  316.70   1-0.74659 0.13317 0.17265 0.20414-0.64248 0.96983
   5  -6   9  469.46  187.29   1 0.22328 0.38928 0.37537-0.75199 0.89957-0.53193
   5   6   9  905.52  341.85   1-0.28855 0.90143 0.64431-0.26764 0.70822-0.34025
  -5   6   9  529.66  314.10   1-0.76731 0.15389 0.21052 0.16627-0.60572 0.97399
   5  -6  10  766.40  157.54   1 0.20025 0.41231 0.39172-0.76834 0.89802-0.48953
   5   6  10 1143.26  346.96   1-0.30520 0.91808 0.64960-0.27292 0.69632-0.28747
  -5   6  10 1298.13  328.12   1-0.78542 0.17200 0.24738 0.12940-0.56737 0.97655
   5  -6  11 7081.36 1197.54   1 0.17935 0.43322 0.40619-0.78281 0.89601-0.44667
   5   6  11 6960.77  617.90   1-0.31835 0.93123 0.65359-0.27692 0.68662-0.23688
  -5   6  11 6153.00  624.30   1-0.80089 0.18707 0.28278 0.09402-0.52782 0.97783
   5  -6  12 7372.23  984.97   1 0.16057 0.45199 0.41890-0.79552 0.89372-0.40352
   5   6  12 6778.05  690.37   1-0.32849 0.94137 0.65657-0.27989 0.67897-0.18834
  -5   6  12 5777.29  620.86   1-0.81374 0.19992 0.31714 0.05966-0.48707 0.97799
   5  -6  1319506.45 1598.47   1 0.14424 0.46857 0.43018-0.80691 0.89114-0.35962
   5   6  1313861.31 1190.34   1-0.33600 0.94888 0.65871-0.28203 0.67320-0.14169
  -5   6  1319731.72 1675.55   1-0.82401 0.21019 0.35009 0.02671-0.44546 0.97729
   5  -6  14  842.77  204.18   1 0.12968 0.48313 0.43967-0.81640 0.88874-0.31633
   5   6  14  335.22  247.51   1-0.34120 0.95408 0.66016-0.28348 0.66915-0.09675
  -5   6  14  975.76  377.88   1-0.83177 0.21795 0.38153-0.00472-0.40320 0.97594
   5  -7   118356.96 1021.50   1 0.50558 0.10733 0.13528-0.57481 0.85210-0.81121
  -5   7   116301.56  954.57   1-0.56884-0.04441-0.06781 0.50744-0.81964 0.86054
   5  -7   211042.22 1283.91   1 0.47375 0.13915 0.16682-0.60635 0.86470-0.78292
   5   7   2 8444.18  745.24   1-0.02379 0.63661 0.53007-0.09055 0.84761-0.76584
  -5   7   2 9698.86  667.00   1-0.59961-0.01364-0.03250 0.47213-0.79962 0.88141
   5  -7   3 4397.61  738.27   1 0.44227 0.17064 0.19673-0.63626 0.87503-0.75235
   5   7   3 2734.13  435.59   1-0.09305 0.70594 0.56520-0.12569 0.81968-0.69702
  -5   7   3 4144.82  687.69   1-0.62938 0.01612 0.00356 0.43605-0.77708 0.89977
   5  -7   4 1334.71  340.49   1 0.41142 0.20148 0.22488-0.66441 0.88326-0.71968
   5   7   4 2031.62  339.78   1-0.14958 0.76247 0.59119-0.15168 0.79253-0.62898
  -5   7   4 2153.35  505.58   1-0.65785 0.04459 0.04015 0.39947-0.75207 0.91566
   5  -7   5  531.12  120.97   1 0.38152 0.23139 0.25117-0.69070 0.88957-0.68511
   5   7   5  838.48  208.22   1-0.19570 0.80858 0.61058-0.17107 0.76738-0.56295
  -5   7   5 1055.45  421.19   1-0.68474 0.07149 0.07698 0.36263-0.72470 0.92918
   5  -7   614056.65 1778.15   1 0.35250 0.26007 0.27528-0.71467 0.89440-0.64931
   5   7   613885.94  799.68   1-0.23330 0.84618 0.62514-0.18563 0.74482-0.49950
  -5   7   613720.01  874.08   1-0.71014 0.09672 0.11347 0.32612-0.69485 0.94036
   5  -7   7 8783.65 1144.02   1 0.32517 0.28740 0.29770-0.73709 0.89757-0.61162
   5   7   711812.80  619.79   1-0.26390 0.87678 0.63613-0.19662 0.72504-0.43884
  -5   7   7 9908.66  799.44   1-0.73324 0.11982 0.15005 0.28954-0.66320 0.94963
   5  -7   818249.31  846.54   1 0.29941 0.31315 0.31819-0.75758 0.89949-0.57270
   5   7   818241.20  856.37   1-0.28867 0.90155 0.64435-0.20490 0.70814-0.38105
  -5   7   817525.81  892.72   1-0.75421 0.14079 0.18613 0.25345-0.62969 0.95704
   5  -7   918842.11 1974.41   1 0.27537 0.33719 0.33678-0.77618 0.90041-0.53276
   5   7   919289.80 1439.34   1-0.30865 0.92153 0.65066-0.21121 0.69380-0.32583
  -5   7   922998.75 1729.05   1-0.77294 0.15952 0.22153 0.21805-0.59454 0.96280
   5  -7  10 3775.81  681.88   1 0.25315 0.35942 0.35353-0.79292 0.90051-0.49202
   5   7  10 4269.62  658.16   1-0.32454 0.93742 0.65542-0.21596 0.68197-0.27312
  -5   7  10 2824.57  541.94   1-0.78937 0.17595 0.25607 0.18352-0.55795 0.96713
   5  -7  11 6655.99  766.67   1 0.23280 0.37976 0.36849-0.80788 0.90000-0.45066
   5   7  1110400.47  933.58   1-0.33696 0.94984 0.65898-0.21952 0.67245-0.22271
  -5   7  11 8116.74  840.49   1-0.80350 0.18968 0.28932 0.15028-0.52026 0.97027
   5  -7  12 1127.17  268.99   1 0.21438 0.39819 0.38174-0.82113 0.89906-0.40886
   5   7  12 2445.89  452.62   1-0.34640 0.95928 0.66158-0.22213 0.66506-0.17443
  -5   7  12 1349.23  327.26   1-0.81529 0.20146 0.32171 0.11789-0.48145 0.97237
   5  -7  13 1325.87  230.87   1 0.19789 0.41468 0.39337-0.83276 0.89782-0.36678
   5   7  13 1242.30  299.95   1-0.35326 0.96614 0.66342-0.22396 0.65960-0.12808
  -5   8   0 1028.63  377.13   1-0.56840-0.04485-0.06830 0.57073-0.81990 0.81990
   5  -8   2 3308.55  506.10   1 0.51084 0.10207 0.12992-0.63224 0.84979-0.76801
  -5   8   2 2122.59  437.71   1-0.62431 0.01105-0.00272 0.50515-0.78116 0.86295
   5  -8   312063.25 1092.65   1 0.48214 0.13077 0.15864-0.66096 0.86160-0.73893
  -5   8   3 9768.06  623.15   1-0.65097 0.03771 0.03110 0.47132-0.75846 0.88115
   5  -8   4 2650.54  518.44   1 0.45387 0.15904 0.18585-0.68817 0.87146-0.70789
  -5   8   4 2451.65  478.08   1-0.67642 0.06316 0.06532 0.43710-0.73360 0.89719
   5  -8   5 6971.03 1092.45   1 0.42629 0.18661 0.21145-0.71377 0.87952-0.67505
   5   8   5 4168.81  570.53   1-0.21212 0.82501 0.61708-0.11478 0.75776-0.55333
  -5   8   5 6868.29  525.17   1-0.70076 0.08734 0.09940 0.40299-0.70643 0.91102
   5  -8   6 1913.96  352.79   1 0.39964 0.21326 0.23535-0.73768 0.88593-0.64058
   5   8   6 1601.56  304.86   1-0.24983 0.86272 0.63117-0.12887 0.73429-0.48898
  -5   8   6 1432.19  344.90   1-0.72319 0.10977 0.13378 0.36861-0.67756 0.92307
   5  -8   7 4848.90  932.30   1 0.37412 0.23878 0.25753-0.75985 0.89090-0.60464
   5   8   7 6632.82  580.83   1-0.28014 0.89302 0.64155-0.13932 0.71408-0.42788
  -5   8   7 5946.83  574.88   1-0.74385 0.13043 0.16791 0.33447-0.64690 0.93333
   5  -8   8 2465.14  461.95   1 0.34958 0.26299 0.27771-0.77987 0.89480-0.56800
   5   8   8 2449.82  435.79   1-0.30453 0.91741 0.64939-0.14715 0.69681-0.36972
  -5   8   8 3109.96  532.99   1-0.76263 0.14921 0.20162 0.30077-0.61460 0.94195
   5  -8   9 2583.88  558.51   1 0.32680 0.28576 0.29638-0.79854 0.89741-0.52977
   5   8   9 2754.67  517.88   1-0.32398 0.93686 0.65526-0.15302 0.68239-0.31442
  -5   8   9  762.59  310.64   1-0.77944 0.16602 0.23473 0.26766-0.58083 0.94910
   5  -8  1020545.58 1669.90   1 0.30559 0.30698 0.31333-0.81549 0.89912-0.49063
   5   8  1019428.22 1616.74   1-0.33932 0.95220 0.65964-0.15740 0.67061-0.26176
  -5   8  1022076.56 1848.48   1-0.79424 0.18042 0.26684 0.23557-0.54586 0.95496
   5  -8  11 1574.55  235.36   1 0.28603 0.32653 0.32860-0.83077 0.90011-0.45076
   5   8  11 1469.41  299.94   1-0.35120 0.96408 0.66287-0.16064 0.66124-0.21150
  -5   8  11 1770.02  429.04   1-0.80696 0.19314 0.29833 0.20407-0.50970 0.95971
  -5   9   0 3059.54  520.35   1-0.59839-0.01485-0.03394 0.59917-0.80047 0.80047
  -5   9   1 3076.82  557.19   1-0.62375 0.01049-0.00341 0.56865-0.78161 0.82251
  -5   9  -1 2173.59  410.65   1-0.57259-0.04065-0.06360 0.62884-0.81736 0.77646
  -5   9   211637.65  972.63   1-0.64842 0.03516 0.02778 0.53744-0.76077 0.84256
  -5   9  -2 8476.61  769.35   1-0.54659-0.06666-0.09225 0.65748-0.83230 0.75051
   5  -9   326904.46 4354.09   1 0.52059 0.09231 0.11989-0.68500 0.84534-0.72266
  -5   9   323797.71 1768.88   1-0.67219 0.05893 0.05949 0.50574-0.73798 0.86066
   5  -9   4 1443.59  311.33   1 0.49486 0.11805 0.14605-0.71117 0.85660-0.69303
  -5   9   4 1156.71  342.91   1-0.69517 0.08175 0.09118 0.47401-0.71303 0.87671
   5  -9   5 3653.64  915.21   1 0.46962 0.14329 0.17082-0.73593 0.86618-0.66171
   5  -9   6 7794.83 1596.96   1 0.44509 0.16781 0.19410-0.75921 0.87419-0.62883
  -5   9   6 9601.91  956.65   1-0.73649 0.12307 0.15544 0.40975-0.65834 0.90385
   5  -9   7 5092.53  684.41   1 0.42147 0.19144 0.21583-0.78095 0.88078-0.59452
  -5   9   7 4153.58  574.34   1-0.75486 0.14144 0.18732 0.37787-0.62855 0.91498
   5  -9   8 3433.82  584.64   1 0.39892 0.21399 0.23599-0.80111 0.88609-0.55895
  -5   9   8 2733.31  592.52   1-0.77157 0.15815 0.21882 0.34637-0.59731 0.92466
   5  -9   9 6161.74  726.82   1 0.37758 0.23532 0.25456-0.81967 0.89029-0.52225
   5   9   9 3811.36  396.30   1-0.33442 0.94730 0.65826-0.09325 0.67442-0.30645
  -5   9   9 7248.74  710.97   1-0.78653 0.17311 0.24980 0.31539-0.56476 0.93303
  -5  10   0 4772.53  584.83   1-0.62726 0.01400 0.00092 0.62710-0.77880 0.77880
  -5  10   1 1084.03  334.98   1-0.64985 0.03660 0.02965 0.59838-0.75947 0.80037
  -5  10  -1  757.37  360.11   1-0.60420-0.00905-0.02707 0.65511-0.79636 0.75547
  -5  10   2 2793.88  555.51   1-0.67179 0.05853 0.05894 0.56909-0.73839 0.82018
  -5  10  -2 2581.75  531.98   1-0.58088-0.03237-0.05422 0.68226-0.81218 0.73038
  -5  10   3 7489.54  751.06   1-0.69288 0.07962 0.08863 0.53940-0.71558 0.83827
  -5  10  -3 8693.63  836.46   1-0.55750-0.05575-0.08038 0.70841-0.82627 0.70358
   5 -10   4 5103.10  522.99   1 0.53426 0.07864 0.10560-0.73350 0.83869-0.67512
  -5  10   4 3371.97  446.55   1-0.71326 0.09984 0.11826 0.50973-0.69084 0.85451
   5 -10   513913.52  929.96   1 0.51135 0.10156 0.12940-0.75731 0.84957-0.64510
  -5  10   513202.29  964.60   1-0.73218 0.11876 0.14830 0.47969-0.66476 0.86936
   5 -10   6 4926.12  831.89   1 0.48896 0.12394 0.15191-0.77981 0.85896-0.61361
  -5  10   6 4943.39  502.66   1-0.74980 0.13638 0.17828 0.44971-0.63718 0.88269
   6   0   0 2100.98  481.17   1 0.36774 0.36774 0.26297-0.26297 0.89196-0.89196
   6   0  -1  522.54  199.50   1 0.41790 0.31759 0.21906-0.21906 0.88168-0.92257
   6   0   1  564.26  187.47   1 0.31876 0.41631 0.30285-0.30285 0.89814-0.85729
   6   0  -2 2821.99  559.98   1 0.46865 0.26684 0.17175-0.17175 0.86652-0.94831
   6   0   2 2566.72  612.73   1 0.27200 0.46308 0.33935-0.33935 0.90047-0.81877
   6   0  -329726.58 1527.44   1 0.51909 0.21640 0.12144-0.12144 0.84604-0.96872
   6   0   324916.99 1390.15   1 0.22775 0.50733 0.37215-0.37215 0.89979-0.77724
   6   0   4  471.50  177.22   1 0.18637 0.54871 0.40137-0.40137 0.89675-0.73335
  -6   0   4  -67.92  208.64   1-0.56839-0.16751-0.06831 0.06831-0.81991 0.98349
   6   0   5 9358.34  895.53   1 0.14820 0.58717 0.42757-0.42757 0.89174-0.68731
  -6   0   5 9126.32  592.84   1-0.61535-0.12055-0.01369 0.01369-0.78813 0.99261
   6   0   6 1766.64  351.69   1 0.11314 0.62223 0.45025-0.45025 0.88570-0.64038
  -6   0   6  889.16  202.96   1-0.65920-0.07670 0.04194-0.04194-0.75079 0.99617
   6   0   722388.31 1842.95   1 0.08132 0.65405 0.47003-0.47003 0.87889-0.59268
  -6   0   720639.98 1164.25   1-0.69933-0.03677 0.09728-0.09728-0.70814 0.99457
   6   0   8 1106.87  202.54   1 0.05270 0.68267 0.48718-0.48718 0.87170-0.54461
  -6   0   8 1311.55  351.77   1-0.73476-0.00133 0.15256-0.15256-0.66094 0.98829
   6   0   9 1332.39  332.45   1 0.02718 0.70819 0.50196-0.50196 0.86446-0.49648
  -6   0   9  640.02  206.95   1-0.76522 0.02912 0.20651-0.20651-0.60974 0.97800
   6   0  10  746.37  290.74   1 0.00464 0.73073 0.51462-0.51462 0.85740-0.44853
  -6   0  10  242.19  191.64   1-0.79046 0.05435 0.25849-0.25849-0.55529 0.96448
   6   0  1110869.50 1553.14   1-0.01507 0.75045 0.52539-0.52539 0.85072-0.40097
   6   0  12 2169.87  465.87   1-0.03212 0.76750 0.53448-0.53448 0.84457-0.35393
   6   0  13 5757.63 1072.20   1-0.04666 0.78204 0.54206-0.54206 0.83904-0.30752
   6  -1   016287.61 1325.91   1 0.39115 0.34434 0.24281-0.30560 0.88771-0.88771
   6   1   013643.73  755.60   1 0.34627 0.38881 0.28045-0.21768 0.89523-0.89523
   6  -1  -1  400.40  165.16   1 0.43747 0.29802 0.20118-0.26397 0.87643-0.91733
   6   1  -1  293.85  101.91   1 0.40080 0.33469 0.23433-0.17154 0.88568-0.92658
   6  -1   1  390.68  139.59   1 0.34560 0.38948 0.28101-0.34378 0.89531-0.85446
   6   1   1  266.22  148.23   1 0.29381 0.44127 0.32257-0.25980 0.89978-0.85893
   6  -1  -2 5629.91  841.92   1 0.48408 0.25141 0.15673-0.21952 0.86086-0.94265
   6   1  -2 5877.85 1177.67   1 0.45611 0.27938 0.18373-0.12094 0.87074-0.95253
   6  -1   2 6943.52 1010.39   1 0.30181 0.43326 0.31631-0.37908 0.89936-0.81766
   6   1   2 5171.45 1041.15   1 0.24392 0.49116 0.36035-0.29758 0.90035-0.81865
   6   1  -3  278.20  148.25   1 0.51131 0.22418 0.12944-0.06665 0.84958-0.97226
   6  -1  -3  -43.40  175.09   1 0.53026 0.20523 0.10982-0.17261 0.84069-0.96337
   6  -1   3    9.47  193.43   1 0.26005 0.47503 0.34837-0.41114 0.90055-0.77801
   6   1   3  193.66  106.51   1 0.19713 0.53795 0.39390-0.33113 0.89776-0.77521
   6  -1   437862.40 2040.01   1 0.22067 0.51441 0.37725-0.44002 0.89943-0.73603
   6   1   439886.55 2125.06   1 0.15386 0.58151 0.42382-0.36103 0.89257-0.72903
  -6  -1   438677.41 1955.92   1-0.56535-0.17055-0.07170 0.00890-0.82172 0.98530
  -6   1   436924.77 1887.90   1-0.57530-0.16060-0.06055 0.12336-0.81569 0.97927
   6  -1   5 7800.46  942.54   1 0.18392 0.55116 0.40306-0.46583 0.89650-0.69225
   6   1   5 7472.60 1312.78   1 0.11412 0.62125 0.44963-0.38684 0.88589-0.68146
  -6  -1   5 6219.30  474.65   1-0.61671-0.11919-0.01203-0.05077-0.78709 0.99157
  -6   1   5 7408.52  547.99   1-0.61827-0.11763-0.01013 0.07293-0.78589 0.99037
   6  -1   6 9676.46 1511.15   1 0.15011 0.58526 0.42631-0.48910 0.89203-0.64671
   6   1   610130.16 1021.00   1 0.07805 0.65732 0.47202-0.40923 0.87812-0.63280
  -6   1   6 8784.86  602.52   1-0.65857-0.07733 0.04111 0.02169-0.75139 0.99676
  -6  -1   611070.12  691.61   1-0.66438-0.07152 0.04888-0.11168-0.74578 0.99116
   6  -1   7 7994.26  707.84   1 0.11904 0.61633 0.44650-0.50929 0.88682-0.60062
   6   1   7 9009.59  781.78   1 0.04560 0.68977 0.49134-0.42855 0.86977-0.58356
  -6   1   7 6751.92  509.11   1-0.69578-0.04032 0.09207-0.02927-0.71232 0.99875
  -6  -1   7 8361.66  600.01   1-0.70748-0.02862 0.10943-0.17223-0.69820 0.98463
   6  -1   8 2689.62  527.03   1 0.09085 0.64452 0.46418-0.52697 0.88106-0.55397
   6   1   8 2675.35  431.32   1 0.01667 0.71870 0.50791-0.44512 0.86124-0.53415
  -6   1   8 3272.69  589.42   1-0.72899-0.00710 0.14309-0.08029-0.66939 0.99674
  -6  -1   8 2617.97  403.80   1-0.74492 0.00881 0.16975-0.23255-0.64519 0.97254
   6  -1   9 1441.16  302.11   1 0.06551 0.66986 0.47958-0.54236 0.87504-0.50707
   6   1   9  850.60  217.17   1-0.00890 0.74428 0.52205-0.45926 0.85286-0.48488
  -6   1   9 1902.46  399.71   1-0.75804 0.02194 0.19310-0.13030-0.62296 0.99123
   6  -1  1014880.20 1633.99   1 0.04294 0.69243 0.49289-0.55568 0.86902-0.46016
   6   1  1014442.70 1114.60   1-0.03130 0.76668 0.53404-0.47126 0.84487-0.43601
  -6   1  1015131.34 1161.16   1-0.78270 0.04660 0.24157-0.17877-0.57359 0.98278
   6  -1  11 1064.04  239.38   1 0.02303 0.71234 0.50432-0.56711 0.86320-0.41345
   6   1  11 1034.54  315.72   1-0.05073 0.78611 0.54415-0.48136 0.83745-0.38770
  -6   1  11 1183.38  342.31   1-0.80287 0.06629 0.28773-0.22493-0.52210 0.97211
   6  -1  1222361.51 1826.44   1 0.00566 0.72971 0.51406-0.57684 0.85773-0.36709
   6   1  1222686.13 1854.41   1-0.06730 0.80276 0.55256-0.48978 0.83074-0.34011
  -6   1  1220710.71 1694.12   1-0.81862 0.08203 0.33197-0.26916-0.46867 0.95959
   6  -1  13 7420.02 1363.56   1-0.00929 0.74467 0.52226-0.58505 0.85273-0.32120
   6   1  13 6719.14  552.35   1-0.08137 0.81683 0.55953-0.49674 0.82480-0.29328
   6  -2   061765.86 3063.55   1 0.41614 0.31935 0.22065-0.34623 0.88212-0.88212
   6   2   056250.95 2812.44   1 0.32778 0.40730 0.29559-0.17005 0.89731-0.89731
   6  -2  -1 7419.71 1074.75   1 0.45889 0.27660 0.18110-0.30668 0.86984-0.91073
   6  -2   1 9031.17  929.17   1 0.37405 0.36144 0.25759-0.38317 0.89091-0.85002
   6   2  -1 8981.97  803.17   1 0.38692 0.34857 0.24650-0.12092 0.88855-0.92944
   6   2   1 7280.79 1334.18   1 0.27131 0.46377 0.33988-0.21434 0.90048-0.85963
   6  -2  -211848.52 1051.37   1 0.50171 0.23378 0.13918-0.26476 0.85376-0.93554
   6   2  -213239.79 1180.47   1 0.44737 0.28812 0.19197-0.06639 0.87350-0.95528
   6  -2   214731.37 1354.78   1 0.33290 0.40218 0.29143-0.41697 0.89679-0.81509
   6   2   211814.21  897.59   1 0.21811 0.51697 0.37908-0.25354 0.89928-0.81759
   6   2  -3 8856.82 1028.75   1 0.50797 0.22752 0.13285-0.00727 0.85106-0.97374
   6  -2   311602.09 1121.37   1 0.29359 0.44149 0.32274-0.44828 0.89979-0.77725
   6   2   3 7837.38 1239.14   1 0.16870 0.56638 0.41343-0.28789 0.89476-0.77222
  -6   2   3 9443.35  607.25   1-0.54408-0.19182-0.09494 0.22055-0.83363 0.95632
   6  -2   4 2609.66  436.41   1 0.25623 0.47885 0.35123-0.47677 0.90054-0.73714
   6   2   4 2509.51  549.38   1 0.12342 0.61195 0.44370-0.31812 0.88763-0.72408
  -6   2   4 2751.31  490.50   1-0.58518-0.15071-0.04929 0.17490-0.80939 0.97298
  -6  -2   4 2447.29  395.62   1-0.56739-0.16851-0.06943-0.05617-0.82051 0.98409
   6  -2   5  926.56  310.04   1 0.22109 0.51398 0.37694-0.50248 0.89945-0.69521
   6   2   5 1069.44  238.62   1 0.08227 0.65310 0.46945-0.34388 0.87911-0.67468
  -6  -2   5 1221.82  248.53   1-0.62368-0.11222-0.00350-0.12210-0.78167 0.98615
  -6   2   5  785.98  335.94   1-0.62451-0.11139-0.00247 0.12808-0.78100 0.98548
   6  -2   616662.55 1597.34   1 0.18837 0.54671 0.39999-0.52553 0.89695-0.65185
   6   2   618320.39 1291.99   1 0.04527 0.69010 0.49153-0.36596 0.86967-0.62436
  -6   2   614554.15  864.06   1-0.66150-0.07440 0.04501 0.08059-0.74858 0.99396
   6  -2   7  529.08  218.51   1 0.15817 0.57691 0.42050-0.54605 0.89339-0.60745
   6   2   7 1019.25  213.86   1 0.01230 0.72307 0.51036-0.38479 0.85986-0.57366
  -6   2   7  300.94  220.91   1-0.69588-0.04021 0.09222 0.03336-0.71220 0.99863
   6  -2   848344.26 1966.35   1 0.13073 0.60464 0.43899-0.56457 0.88892-0.56183
   6   2   850646.03 6763.58   1-0.01684 0.75222 0.52634-0.40077 0.85010-0.52301
  -6   2   851661.30 6901.59   1-0.72681-0.00929 0.13956-0.01396-0.67250 0.99985
   6  -2   9 7185.26  947.14   1 0.10570 0.62967 0.45494-0.58051 0.88422-0.51624
   6   2   9 7226.21  812.00   1-0.04238 0.77776 0.53984-0.41426 0.84069-0.47272
  -6   2   9 6667.88  602.51   1-0.75418 0.01808 0.18609-0.06049-0.62973 0.99800
   6  -2  10 5131.78  672.90   1 0.08323 0.65214 0.46886-0.59444 0.87933-0.47047
   6   2  10 4569.22  542.50   1-0.06448 0.79994 0.55115-0.42557 0.83190-0.42304
  -6   2  10 4303.58  717.78   1-0.77782 0.04172 0.23140-0.10580-0.58432 0.99351
   6  -2  11 4232.62  816.72   1 0.06325 0.67212 0.48093-0.60651 0.87447-0.42472
   6   2  11 3767.36  427.99   1-0.08355 0.81901 0.56060-0.43502 0.82386-0.37411
  -6   2  11 2290.47  453.37   1-0.79762 0.06103 0.27481-0.14920-0.53691 0.98691
   6  -2  12  317.73  147.38   1 0.04567 0.68970 0.49130-0.61688 0.86978-0.37915
   6   2  12  395.97  236.00   1-0.09975 0.83522 0.56841-0.44283 0.81667-0.32604
  -6   2  12  184.56  225.69   1-0.81358 0.07700 0.31669-0.19109-0.48762 0.97854
   6  -2  13  389.18  123.85   1 0.03039 0.70498 0.50013-0.62570 0.86541-0.33389
   6   2  13 1486.63  280.93   1-0.11331 0.84877 0.57479-0.44922 0.81041-0.27889
  -6   2  13  983.97  318.44   1-0.82576 0.08917 0.35650-0.23090-0.43705 0.96888
   6  -3   0  663.93  197.27   1 0.44226 0.29323 0.19674-0.38511 0.87504-0.87504
   6   3   0  408.96  165.22   1 0.31287 0.42221 0.30756-0.11925 0.89861-0.89861
   6  -3  -1 9185.42  952.09   1 0.48167 0.25382 0.15910-0.34747 0.86178-0.90268
   6  -3   110749.37  973.75   1 0.40325 0.33224 0.23216-0.42053 0.88514-0.84425
   6   3  -1 8437.13  954.68   1 0.37723 0.35826 0.25486-0.06649 0.89035-0.93124
   6   3   1 9400.61  897.38   1 0.25196 0.48312 0.35441-0.16610 0.90050-0.85965
   6  -3  -2 2929.82  491.04   1 0.52099 0.21450 0.11948-0.30785 0.84515-0.92693
   6   3  -2 1880.97  411.61   1 0.44361 0.29188 0.19548-0.00711 0.87463-0.95642
   6  -3   2 2212.13  445.97   1 0.36511 0.37038 0.26520-0.45357 0.89238-0.81060
   6   3   2 2564.75  631.21   1 0.19518 0.53989 0.39526-0.20695 0.89759-0.81589
   6   3  -3 3579.56  730.71   1 0.51050 0.22499 0.13026 0.05810 0.84994-0.97262
   6  -3   3 3915.10  857.68   1 0.32797 0.40711 0.29543-0.48374 0.89730-0.77475
   6   3   3 5816.94  857.24   1 0.14304 0.59233 0.43097-0.24260 0.89095-0.76829
  -6   3   3 4008.76  666.41   1-0.55977-0.17613-0.07787 0.26628-0.82497 0.94766
   6  -3   413478.89  804.80   1 0.29267 0.44241 0.32346-0.51177 0.89984-0.73644
   6   3   418936.24 1343.64   1 0.09568 0.63969 0.46120-0.27283 0.88212-0.71857
  -6   3   414495.34  880.23   1-0.59735-0.13855-0.03516 0.22357-0.80120 0.96478
   6  -3   5 1442.44  353.93   1 0.25922 0.47586 0.34900-0.53731 0.90055-0.69631
   6   3   5  475.42  139.22   1 0.05314 0.68223 0.48692-0.29856 0.87182-0.66739
   6  -3   6 5601.19  715.65   1 0.22783 0.50725 0.37209-0.56040 0.89979-0.65470
   6   3   6 7437.67  939.49   1 0.01527 0.72010 0.50870-0.32034 0.86080-0.61548
  -6   3   6 5322.32  793.79   1-0.66722-0.06868 0.05271 0.13569-0.74299 0.98836
   6  -3   710326.46  948.91   1 0.19864 0.53644 0.39285-0.58116 0.89789-0.61194
   6   3   712511.21 1670.50   1-0.01816 0.75354 0.52706-0.33869 0.84963-0.56342
  -6   3   710048.80  675.32   1-0.69890-0.03719 0.09664 0.09174-0.70865 0.99508
   6  -3   8  240.78  159.60   1 0.17174 0.56334 0.41137-0.59968 0.89513-0.56834
   6   3   8  230.50  171.22   1-0.04745 0.78283 0.54246-0.35410 0.83873-0.51164
  -6   3   8  538.92  273.86   1-0.72753-0.00856 0.14074 0.04765-0.67147 0.99882
   6  -3   9 1312.52  302.46   1 0.14738 0.58799 0.42811-0.61648 0.89162-0.52364
   6   3   9 1396.30  316.51   1-0.07281 0.80827 0.55531-0.36695 0.82844-0.46047
   6  -3  10 9910.54 1072.43   1 0.12515 0.61022 0.44259-0.63095 0.88794-0.47908
   6   3  1012037.73  955.97   1-0.09473 0.83019 0.56600-0.37764 0.81893-0.41007
  -6   3  10 8719.87  804.76   1-0.77547 0.03937 0.22661-0.03821-0.58930 0.99849
   6  -3  11  643.72  215.38   1 0.10523 0.63014 0.45524-0.64360 0.88412-0.43437
   6   3  11  221.87  229.83   1-0.11341 0.84887 0.57484-0.38647 0.81036-0.36061
  -6   3  11  101.24  264.13   1-0.79451 0.05792 0.26745-0.07905-0.54517 0.99518
   6  -3  12 3484.22  510.68   1 0.08756 0.64781 0.46621-0.65457 0.88032-0.38969
   6   3  12 3610.21  445.43   1-0.12913 0.86460 0.58207-0.39371 0.80281-0.31218
  -6   3  12 2500.25  345.26   1-0.81019 0.07361 0.30708-0.11867-0.49928 0.99020
   6  -4   0 2491.26  655.99   1 0.46912 0.26637 0.17129-0.42245 0.86635-0.86635
   6   4   0 2069.58  389.14   1 0.30259 0.43249 0.31570-0.06462 0.89931-0.89931
   6  -4  -1 3633.24  702.44   1 0.50540 0.23009 0.13545-0.38661 0.85218-0.89307
   6  -4   1 3842.50  794.33   1 0.43306 0.30243 0.20525-0.45641 0.87768-0.83678
   6   4  -1 3079.16  672.98   1 0.37305 0.36244 0.25844-0.00728 0.89108-0.93197
   6   4   1 2212.12  489.56   1 0.23662 0.49846 0.36571-0.11463 0.90014-0.85929
   6  -4   2 3765.69  733.41   1 0.39760 0.33789 0.23715-0.48832 0.88637-0.80459
   6   4   2 2691.29  519.94   1 0.17587 0.55921 0.40857-0.15749 0.89562-0.81392
   6  -4   318369.84 1584.27   1 0.36284 0.37224 0.26660-0.51768 0.89289-0.77034
   6   4   316520.44 1012.51   1 0.12070 0.61467 0.44544-0.19429 0.88713-0.76447
  -6   4   318596.92 1085.44   1-0.57692-0.15898-0.05872 0.30993-0.81468 0.93737
   6  -4   4  721.27  206.14   1 0.32962 0.40546 0.29410-0.54518 0.89713-0.73373
   6   4   4  430.75  134.02   1 0.07121 0.66416 0.47615-0.22500 0.87647-0.71292
  -6   4   4 1229.16  414.43   1-0.61125-0.12465-0.01864 0.26985-0.79121 0.95479
   6  -4   5 2616.49  436.12   1 0.29793 0.43715 0.31936-0.57044 0.89958-0.69533
   6   4   5 2408.91  513.05   1 0.02725 0.70812 0.50192-0.25077 0.86447-0.66004
   6  -4   6 3322.21  555.86   1 0.26798 0.46710 0.34240-0.59348 0.90052-0.65542
   6   4   6 2056.33  405.74   1-0.01149 0.74687 0.52346-0.27231 0.85197-0.60665
  -6   4   6 3259.40  522.57   1-0.67512-0.06078 0.06352 0.18769-0.73496 0.98034
   6  -4   7 4084.36  706.99   1 0.23993 0.49515 0.36328-0.61437 0.90025-0.61430
   6   4   7 3185.48  628.38   1-0.04537 0.78075 0.54139-0.29023 0.83954-0.55334
  -6   4   7 3824.71  594.23   1-0.70422-0.03188 0.10454 0.14665-0.70224 0.98867
   6  -4   8 9130.73 1407.82   1 0.21389 0.52118 0.38209-0.63317 0.89902-0.57223
   6   4   8 8244.35  686.44   1-0.07469 0.81015 0.55624-0.30509 0.82765-0.50056
  -6   4   8 7686.77  689.60   1-0.73061-0.00548 0.14573 0.10546-0.66705 0.99440
   6  -4   9 7662.40  918.20   1 0.18994 0.54514 0.39890-0.64998 0.89710-0.52946
   6   4   9 6340.82  620.84   1-0.10002 0.83548 0.56853-0.31738 0.81655-0.44857
  -6   4   9 7570.20  692.90   1-0.75434 0.01824 0.18638 0.06481-0.62946 0.99773
   6  -4  10 1712.54  376.91   1 0.16809 0.56699 0.41384-0.66492 0.89469-0.48620
   6   4  10 1381.19  354.30   1-0.12166 0.85712 0.57866-0.32751 0.80644-0.39758
  -6   4  10 1918.16  452.72   1-0.77527 0.03916 0.22620 0.02499-0.58973 0.99891
   6  -4  11 4321.29  555.84   1 0.14862 0.58675 0.42730-0.67845 0.89181-0.44206
   6   4  11 6767.41  659.17   1-0.13995 0.87541 0.58693-0.33578 0.79744-0.34769
  -6   4  11 4160.53  570.18   1-0.79329 0.05719 0.26495-0.01375-0.54816 0.99826
   6  -4  12 3219.32  607.24   1 0.13100 0.60437 0.43881-0.68996 0.88897-0.39833
   6   4  12 3663.95  403.41   1-0.15521 0.89067 0.59365-0.34250 0.78961-0.29897
  -6   4  12 2414.71  362.20   1-0.80838 0.07180 0.30213-0.05092-0.50519 0.99611
   6  -5   0 3195.32  523.31   1 0.49643 0.23906 0.14449-0.45844 0.85596-0.85596
   6  -5  -1 5196.65  773.97   1 0.52975 0.20574 0.11035-0.42430 0.84094-0.88183
   6  -5   1 5686.94  892.74   1 0.46317 0.27232 0.17701-0.49097 0.86841-0.82751
   6   5   1 3202.75  635.54   1 0.22635 0.50873 0.37316-0.05931 0.89972-0.85887
   6  -5   2 7520.04  997.10   1 0.43031 0.30518 0.20777-0.52173 0.87844-0.79665
   6   5   2 7642.52  611.38   1 0.16102 0.57406 0.41860-0.10475 0.89378-0.81208
  -6   5   2 7609.99  529.75   1-0.56280-0.17310-0.07453 0.38855-0.82322 0.90501
   6  -5   310208.03 1371.03   1 0.39817 0.33732 0.23665-0.55060 0.88625-0.76357
   6   5   312257.77  941.61   1 0.10247 0.63290 0.45697-0.14303 0.88355-0.76089
  -6   5   310082.03  620.25   1-0.59512-0.14078-0.03777 0.35179-0.80274 0.92543
   6  -5   436977.44 1547.01   1 0.36705 0.36844 0.26356-0.57751 0.89208-0.72850
   6   5   437658.10 1570.60   1 0.05064 0.68473 0.48839-0.17445 0.87115-0.70760
  -6   5   434056.23 1465.70   1-0.62644-0.10946-0.00009 0.31411-0.77946 0.94305
   6  -5   516227.65 1363.63   1 0.33690 0.39818 0.28816-0.60202 0.89635-0.69211
   6   5   515335.66  717.74   1 0.00513 0.73024 0.51435-0.20041 0.85756-0.65313
  -6   5   514657.73  786.87   1-0.65639-0.07950 0.03823 0.27578-0.75344 0.95792
   6  -5   6 6233.36  833.66   1 0.30848 0.42660 0.31105-0.62490 0.89893-0.65383
   6   5   6 6032.09  859.57   1-0.03453 0.76991 0.53574-0.22180 0.84367-0.59835
  -6   5   6 6783.28  645.75   1-0.68469-0.05121 0.07691 0.23710-0.72475 0.97013
   6  -5   7 4835.98  680.56   1 0.28169 0.45339 0.33195-0.64580 0.90025-0.61430
   6   5   7 6654.09  583.82   1-0.06880 0.80426 0.55331-0.23938 0.83012-0.54392
  -6   5   7 4491.97  850.70   1-0.71134-0.02475 0.11531 0.19868-0.69331 0.97975
   6  -5   8  530.79  173.55   1 0.25666 0.47842 0.35091-0.66476 0.90054-0.57375
   6   5   8  447.45  301.96   1-0.09836 0.83382 0.56774-0.25381 0.81730-0.49021
  -6   5   8  421.35  270.70   1-0.73556-0.00054 0.15388 0.16010-0.65974 0.98709
   6  -5   9  725.66  268.35   1 0.23346 0.50162 0.36801-0.68186 0.90003-0.53239
   6   5   9  196.78  197.24   1-0.12361 0.85907 0.57955-0.26561 0.80550-0.43752
  -6   5   9 1563.11  471.24   1-0.75744 0.02133 0.19200 0.12199-0.62403 0.99230
   6  -5  10 9684.04 1128.94   1 0.21217 0.52291 0.38331-0.69716 0.89891-0.49042
   6   5  1010172.07  924.66   1-0.14500 0.88047 0.58918-0.27524 0.79488-0.38601
  -6   5  10 9461.68  884.90   1-0.77685 0.04075 0.22941 0.08457-0.58639 0.99558
   6  -5  11 4380.95  769.74   1 0.19280 0.54228 0.39692-0.71077 0.89737-0.44803
   6   5  11 5714.81  517.57   1-0.16294 0.89840 0.59698-0.28304 0.78553-0.33578
  -6   5  11 4661.94  574.42   1-0.79372 0.05761 0.26592 0.04806-0.54707 0.99718
   6  -6   012774.18  691.57   1 0.52389 0.21160 0.11647-0.49321 0.84378-0.84378
   6  -6   1 5425.96 1202.53   1 0.49331 0.24218 0.14759-0.52434 0.85723-0.81634
  -6   6   1 5582.34  514.86   1-0.55444-0.18145-0.08372 0.46054-0.82799 0.86889
   6  -6   2 6422.47 1127.39   1 0.46297 0.27252 0.17720-0.55394 0.86847-0.78668
  -6   6   2 7968.04  629.20   1-0.58458-0.15132-0.04999 0.42681-0.80979 0.89158
   6  -6   3  114.29  135.00   1 0.43316 0.30233 0.20515-0.58190 0.87765-0.75497
  -6   6   3   97.98  264.44   1-0.61404-0.12186-0.01528 0.39210-0.78912 0.91181
   6  -6   4 3976.39  719.38   1 0.40413 0.33136 0.23138-0.60812 0.88494-0.72137
   6   6   4 2878.97  611.25   1 0.03467 0.70070 0.49767-0.12095 0.86666-0.70312
  -6   6   4 2521.73  481.26   1-0.64253-0.09336 0.02019 0.35662-0.76598 0.92957
   6  -6   5 1747.69  357.07   1 0.37612 0.35937 0.25582-0.63256 0.89055-0.68608
   6   6   5 3196.35  599.25   1-0.01260 0.74798 0.52406-0.14733 0.85158-0.64715
  -6   6   5 1894.40  434.77   1-0.66979-0.06611 0.05620 0.32061-0.74041 0.94489
   6  -6   6 7575.37 1120.70   1 0.34903 0.38605 0.27816-0.65478 0.89487-0.64977
   6   6   6 9393.14 1155.08   1-0.05337 0.78874 0.54550-0.16877 0.83640-0.59109
  -6   6   6 8133.15  745.82   1-0.69582-0.04027 0.09214 0.28465-0.71227 0.95778
   6  -6   7 3682.59  530.21   1 0.32360 0.41147 0.29896-0.67558 0.89771-0.61177
   6   6   7 3961.97  418.03   1-0.08822 0.82368 0.56287-0.18614 0.82182-0.53561
  -6   6   7 2857.36  576.32   1-0.71986-0.01624 0.12851 0.24828-0.68211 0.96855
   6  -6   814152.88 1187.50   1 0.29970 0.43538 0.31797-0.69459 0.89948-0.57269
   6   6   813287.79 1128.20   1-0.11802 0.85349 0.57698-0.20025 0.80818-0.48109
  -6   6   816277.93 1395.70   1-0.74197 0.00587 0.16469 0.21209-0.64988 0.97723
   6  -6   9 5613.45  850.24   1 0.27741 0.45767 0.33523-0.71185 0.90036-0.53272
   6   6   9 3486.13  448.15   1-0.14327 0.87874 0.58841-0.21169 0.79576-0.42778
  -6   6   9 6551.93  595.12   1-0.76202 0.02592 0.20048 0.17630-0.61572 0.98399
   6  -6  10 1214.13  201.13   1 0.25681 0.47827 0.35079-0.72741 0.90054-0.49205
   6   6  10  511.06  280.86   1-0.16450 0.89996 0.59765-0.22092 0.78469-0.37583
  -6   6  10 1109.92  411.30   1-0.77990 0.04379 0.23568 0.14111-0.57983 0.98902
   6  -7   112576.95 1021.02   1 0.52327 0.21222 0.11711-0.55664 0.84407-0.80318
  -6   7   111632.93  971.22   1-0.57916-0.15674-0.05618 0.49580-0.81327 0.85416
   6  -7   2 1299.19  255.19   1 0.49537 0.24012 0.14554-0.58507 0.85639-0.77461
  -6   7   2 1212.17  415.64   1-0.60660-0.12930-0.02422 0.46384-0.79463 0.87642
   6  -7   3 8289.03 1210.82   1 0.46784 0.26765 0.17253-0.61207 0.86680-0.74412
  -6   7   3 8920.12  863.50   1-0.63338-0.10252 0.00857 0.43105-0.77379 0.89648
   6  -7   4  913.60  235.32   1 0.44090 0.29459 0.19800-0.63753 0.87544-0.71186
  -6   7   4  349.94  286.91   1-0.65924-0.07666 0.04200 0.39762-0.75075 0.91434
   6  -7   5 6381.04 1041.56   1 0.41477 0.32072 0.22188-0.66141 0.88245-0.67799
  -6   7   5 6885.71  710.98   1-0.68395-0.05194 0.07587 0.36375-0.72556 0.93004
   6  -7   6  992.57  291.39   1 0.38965 0.34584 0.24412-0.68365 0.88801-0.64265
  -6   7   6  445.75  295.62   1-0.70760-0.02849 0.10963 0.32996-0.69804 0.94356
   6  -7   7 9764.55 1396.97   1 0.36569 0.36980 0.26471-0.70424 0.89229-0.60604
  -6   7   711474.64  890.24   1-0.72941-0.00668 0.14378 0.29581-0.66879 0.95522
   6  -7   8 1391.51  283.95   1 0.34271 0.39237 0.28339-0.72278 0.89567-0.56888
   6   7   8  938.56  210.35   1-0.13331 0.86877 0.58396-0.14445 0.80075-0.47366
  -6   7   8 1685.06  443.05   1-0.74951 0.01341 0.17777 0.26182-0.63767 0.96502
  -6   8   0 5119.19  570.81   1-0.57841-0.15749-0.05703 0.55946-0.81374 0.81374
  -6   8   1 5669.68  627.97   1-0.60374-0.13216-0.02762 0.53005-0.79670 0.83759
  -6   8  -1 6013.94  669.42   1-0.55287-0.18303-0.08543 0.58786-0.82887 0.78797
   6  -8   2 3289.71  459.36   1 0.52730 0.20819 0.11291-0.61523 0.84213-0.76035
  -6   8   2 2828.76  575.40   1-0.62864-0.10726 0.00264 0.49978-0.77768 0.85948
   6  -8   3 3876.39  546.27   1 0.50199 0.23350 0.13890-0.64122 0.85364-0.73096
  -6   8   3 4267.89  484.58   1-0.65289-0.08301 0.03362 0.46880-0.75670 0.87939
  -6   8   4 1398.26  404.33   1-0.67628-0.05962 0.06513 0.43729-0.73375 0.89733
   6  -8   5 1379.99  388.51   1 0.45290 0.28258 0.18676-0.68908 0.87177-0.66730
  -6   8   5 1467.14  335.91   1-0.69891-0.03718 0.09666 0.40573-0.70864 0.91323
   7   0   0  335.65  200.65   1 0.42904 0.42904 0.20894-0.20894 0.87878-0.87878
   7   0  -1 8876.53 1097.94   1 0.47126 0.38681 0.16923-0.16923 0.86560-0.90649
   7   0   1 7754.51 1253.57   1 0.38767 0.47040 0.24584-0.24584 0.88840-0.84751
   7   0  -211678.43  921.17   1 0.51380 0.34427 0.12689-0.12689 0.84846-0.93025
   7   0   211466.59 1262.41   1 0.34742 0.51017 0.27950-0.27950 0.89508-0.81338
   7   0   3 2340.52  448.18   1 0.30911 0.54849 0.31055-0.31055 0.89889-0.77634
  -7   0   3 1905.56  384.21   1-0.55622-0.30233-0.08177 0.08178-0.82699 0.94968
   7   0   434174.11 2030.71   1 0.27280 0.58479 0.33874-0.33874 0.90045-0.73706
  -7   0   429969.62 2385.84   1-0.59750-0.26105-0.03499 0.03499-0.80110 0.96468
   7   0   5 5128.93  784.28   1 0.23872 0.61887 0.36417-0.36417 0.90021-0.69596
  -7   0   5 5031.28  545.57   1-0.63716-0.22139 0.01334-0.01334-0.77061 0.97509
   7   0   6 2489.29  512.28   1 0.20702 0.65057 0.38696-0.38696 0.89855-0.65345
   7   0   7 7542.53  884.31   1 0.17777 0.67982 0.40727-0.40727 0.89583-0.60989
   7   0   8  867.24  163.88   1 0.15117 0.70676 0.42561-0.42561 0.89218-0.56509
   7  -1   012328.09 1245.91   1 0.44551 0.41256 0.19371-0.25650 0.87406-0.87406
   7   1   0 9274.64 1185.42   1 0.41512 0.44295 0.22156-0.15877 0.88237-0.88237
   7  -1  -1 3322.00  583.16   1 0.48474 0.37333 0.15608-0.21887 0.86061-0.90150
   7   1  -1 3886.22  714.31   1 0.46060 0.39747 0.17946-0.11667 0.86927-0.91016
   7  -1   1 3479.55  798.59   1 0.40692 0.45116 0.22891-0.29170 0.88431-0.84342
   7   1   1 2585.25  494.20   1 0.37077 0.48730 0.26039-0.19760 0.89147-0.85057
   7   1  -2 3591.02  703.49   1 0.50658 0.35149 0.13426-0.07146 0.85167-0.93345
   7  -1  -2 5546.51  508.23   1 0.52415 0.33393 0.11620-0.17899 0.84365-0.92544
   7  -1   2 3441.92  627.52   1 0.36938 0.48869 0.26157-0.32436 0.89170-0.80991
   7   1   2 5065.65  854.69   1 0.32787 0.52972 0.29551-0.23274 0.89731-0.81561
   7  -1   3  667.11  175.41   1 0.33303 0.52457 0.29132-0.35409 0.89678-0.77423
   7   1   3  652.84  202.86   1 0.28725 0.57034 0.32766-0.26489 0.90006-0.77751
  -7  -1   3  850.62  234.83   1-0.55253-0.30602-0.08580 0.02300-0.82905 0.95174
  -7   1   3  372.63  211.11   1-0.56334-0.29521-0.07393 0.13674-0.82290 0.94559
   7  -1   4 2595.91  563.82   1 0.29861 0.55899 0.31882-0.38159 0.89954-0.73614
   7   1   4 1781.42  353.31   1 0.24900 0.60860 0.35661-0.29384 0.90045-0.73706
  -7   1   4 2066.42  460.10   1-0.60148-0.25707-0.03030 0.09310-0.79831 0.96189
   7  -1   5 2749.47  639.76   1 0.26611 0.59148 0.34381-0.40658 0.90053-0.69629
   7   1   5 3505.38  436.49   1 0.21332 0.64428 0.38250-0.31973 0.89899-0.69474
  -7   1   5 1696.52  369.50   1-0.63818-0.22037 0.01464 0.04816-0.76974 0.97422
   7  -1   6 4383.10  838.35   1 0.23569 0.62190 0.36639-0.42916 0.90011-0.65501
   7   1   6 6126.75 1033.72   1 0.18033 0.67726 0.40552-0.34275 0.89611-0.65102
  -7   1   6 3669.66  497.86   1-0.67291-0.18564 0.06048 0.00231-0.73723 0.98261
   7  -1   7  227.63   96.40   1 0.20746 0.65014 0.38665-0.44942 0.89858-0.61264
   7   1   7  591.23  117.21   1 0.15023 0.70771 0.42623-0.36344 0.89204-0.60584
  -7   1   7  110.85  198.35   1-0.70541-0.15337 0.10632-0.04352-0.70077 0.98720
   7  -1   818821.31 1681.64   1 0.18146 0.67613 0.40474-0.46751 0.89624-0.56944
   7   1   817509.09 1824.91   1 0.12275 0.73518 0.44413-0.38134 0.88751-0.56042
   7  -2   0  153.11  126.87   1 0.46401 0.39406 0.17620-0.30178 0.86812-0.86812
   7   2   0  302.29  112.42   1 0.40440 0.45368 0.23115-0.10556 0.88488-0.88488
   7  -2  -1 2243.13  451.61   1 0.50047 0.35761 0.14043-0.26601 0.85428-0.89517
   7   2  -1 2197.41  460.86   1 0.45348 0.40459 0.18621-0.06063 0.87159-0.91248
   7  -2   1 2473.35  549.41   1 0.42802 0.43005 0.20987-0.33545 0.87906-0.83816
   7   2   1 2010.46  389.26   1 0.35659 0.50101 0.27186-0.14632 0.89382-0.85298
   7   2  -2  206.26  172.80   1 0.50330 0.35477 0.13758-0.01200 0.85308-0.93487
   7  -2   2  497.97  182.99   1 0.39286 0.46521 0.24131-0.36689 0.88736-0.80558
   7   2   2  423.13  126.58   1 0.31102 0.54657 0.30903-0.18349 0.89875-0.81705
   7  -2   3 3204.56  847.79   1 0.35861 0.49899 0.27017-0.39571 0.89353-0.77098
   7   2   3 3459.94  570.81   1 0.26793 0.58966 0.34244-0.21690 0.90052-0.77797
  -7   2   3 3599.89  428.79   1-0.57319-0.28536-0.06293 0.18854-0.81700 0.93968
   7  -2   4 4657.22  723.18   1 0.32603 0.53156 0.29700-0.42254 0.89748-0.73409
   7   2   4 2582.41  538.00   1 0.22763 0.62997 0.37224-0.24670 0.89978-0.73639
  -7   2   4 4236.58  476.63   1-0.60842-0.25013-0.02204 0.14764-0.79330 0.95688
   7  -2   5 1907.99  372.50   1 0.29510 0.56249 0.32156-0.44710 0.89972-0.69547
   7   2   5  920.98  244.01   1 0.19029 0.66731 0.39866-0.27312 0.89713-0.69289
  -7   2   5 1548.61  361.26   1-0.64236-0.21619 0.01997 0.10563-0.76613 0.97061
   7  -2   6  254.59  115.51   1 0.26599 0.59161 0.34391-0.46945 0.90054-0.65544
   7   2   6  410.68  156.71   1 0.15610 0.70183 0.42233-0.29676 0.89289-0.64757
  -7   2   6  180.71  238.06   1-0.67456-0.18399 0.06275 0.06284-0.73553 0.98091
   7  -2   7 2172.75  547.20   1 0.23880 0.61879 0.36411-0.48965 0.90021-0.61427
   7   2   7 2719.84  367.33   1 0.12489 0.73304 0.44275-0.31718 0.88790-0.60169
  -7   2   7 3192.08  383.15   1-0.70486-0.15391 0.10550 0.02009-0.70144 0.98787
   7  -3   018364.55 2332.78   1 0.48411 0.37396 0.15670-0.34507 0.86085-0.86085
   7  -3  -1 5607.36  561.57   1 0.51795 0.34012 0.12262-0.31099 0.84657-0.88746
   7  -3   1 4779.45  996.60   1 0.45059 0.40749 0.18895-0.37732 0.87250-0.83161
   7   3   1 3785.15  797.86   1 0.34621 0.51138 0.28050-0.09219 0.89523-0.85438
   7  -3   2 2985.76  706.83   1 0.41770 0.44037 0.21924-0.40761 0.88173-0.79994
   7   3   2 3057.75  651.08   1 0.29746 0.56014 0.31972-0.13141 0.89960-0.81790
  -7   3   2 2730.86  554.45   1-0.55185-0.30670-0.08654 0.27495-0.82943 0.91122
   7  -3   3 2031.39  418.19   1 0.38575 0.47232 0.24751-0.43588 0.88877-0.76610
   7   3   3 1785.98  442.74   1 0.25168 0.60591 0.35461-0.16630 0.90049-0.77795
   7  -3   4  187.74  152.11   1 0.35473 0.50287 0.27342-0.46173 0.89409-0.73069
   7   3   4  283.00  128.80   1 0.20917 0.64842 0.38544-0.19713 0.89870-0.73531
  -7   3   4  275.27  258.17   1-0.61772-0.24083-0.01080 0.19921-0.78631 0.94990
   7  -3   5 4415.30  886.64   1 0.32537 0.53223 0.29754-0.48585 0.89755-0.69330
   7   3   5 3647.78  434.41   1 0.17008 0.68751 0.41250-0.22419 0.89493-0.69069
  -7   3   5 4053.25  438.80   1-0.64907-0.20948 0.02863 0.15978-0.76018 0.96466
   7  -3   6 5609.42  756.86   1 0.29758 0.56001 0.31963-0.50794 0.89959-0.65450
   7   3   6 4844.47  709.29   1 0.13451 0.72342 0.43654-0.24817 0.88957-0.64425
  -7   3   6 5858.41  554.86   1-0.67886-0.17969 0.06872 0.11968-0.73103 0.97641
   7  -4   010147.84 1758.78   1 0.50543 0.35264 0.13542-0.38658 0.85216-0.85216
   7  -4   1 8304.61 1494.87   1 0.47425 0.38382 0.16633-0.41749 0.86452-0.82363
   7  -4   2 1848.12  403.06   1 0.44356 0.41452 0.19553-0.44669 0.87465-0.79286
  -7   4   2 1117.79  430.67   1-0.56813-0.29042-0.06861 0.31982-0.82007 0.90186
   7  -4   3 1023.28  207.30   1 0.41361 0.44446 0.22292-0.47408 0.88273-0.76005
  -7   4   3  955.50  378.40   1-0.59889-0.25966-0.03335 0.28457-0.80013 0.92281
   7  -4   418844.49 1824.31   1 0.38465 0.47343 0.24847-0.49963 0.88899-0.72541
   7   4   421120.37 1281.41   1 0.19420 0.66340 0.39595-0.14487 0.89750-0.73410
  -7   4   422693.80 1449.86   1-0.62889-0.22966 0.00295 0.24826-0.77748 0.94107
   7  -4   5 4631.27  564.93   1 0.35659 0.50100 0.27186-0.52294 0.89382-0.68958
   7   4   5 2902.18  546.82   1 0.15323 0.70471 0.42424-0.17309 0.89248-0.68805
  -7   4   5 5986.90  579.34   1-0.65779-0.20076 0.04007 0.21114-0.75213 0.95661
   7  -5   0 1988.17  370.69   1 0.52765 0.33042 0.11255-0.42650 0.84196-0.84196
   7  -5   1 1681.34  287.88   1 0.49872 0.35935 0.14219-0.45614 0.85501-0.81412
  -7   5   1 1887.60  332.86   1-0.55675-0.30180-0.08119 0.39521-0.82669 0.86759
   7  -5   2 1421.90  248.41   1 0.47014 0.38793 0.17031-0.48426 0.86599-0.78421
  -7   5   2 1151.22  398.93   1-0.58556-0.27299-0.04886 0.36288-0.80915 0.89094
   7  -5   3 3857.21  551.06   1 0.44215 0.41592 0.19684-0.51079 0.87507-0.75239
  -7   5   3 3935.33  432.38   1-0.61390-0.24465-0.01544 0.32946-0.78922 0.91191
;
_shelx_hkl_checksum              23591
loop_
_space_group_symop_operation_xyz
'x, y, z'
'-x+1/2, -y, z+1/2'
'-x, y+1/2, -z+1/2'
'x+1/2, -y+1/2, -z'
loop_
_atom_site_label
_atom_site_type_symbol
_atom_site_fract_x
_atom_site_fract_y
_atom_site_fract_z
_atom_site_U_iso_or_equiv
_atom_site_adp_type
_atom_site_occupancy
_atom_site_site_symmetry_order
_atom_site_calc_flag
_atom_site_refinement_flags_posn
_atom_site_refinement_flags_adp
_atom_site_refinement_flags_occupancy
_atom_site_disorder_assembly
_atom_site_disorder_group
Br1 Br 0.67021(9) 0.02452(4) 0.81236(3) 0.02711(13) Uani 1 1 d . . . . .
Br2 Br 1.28148(10) 0.72074(5) 0.34055(3) 0.03341(15) Uani 1 1 d . . . . .
S1 S 0.7627(2) 0.22072(10) 0.69184(6) 0.0216(2) Uani 1 1 d . . . . .
S2 S 1.1943(2) 0.51160(10) 0.45312(7) 0.0226(3) Uani 1 1 d . . . . .
O1 O 1.2303(6) 0.3011(3) 0.53411(19) 0.0264(8) Uani 1 1 d . . . . .
O2 O 0.7131(6) 0.4136(3) 0.60140(19) 0.0304(8) Uani 1 1 d . . . . .
C1 C 0.8586(9) 0.0961(4) 0.7379(2) 0.0232(10) Uani 1 1 d . . . . .
C2 C 1.0678(9) 0.0573(4) 0.7127(3) 0.0236(10) Uani 1 1 d . . . . .
H2 H 1.1435 -0.0090 0.7316 0.028 Uiso 1 1 calc R . . . .
C3 C 1.1540(8) 0.1307(4) 0.6545(3) 0.0227(10) Uani 1 1 d . . . . .
H3 H 1.2959 0.1183 0.6308 0.027 Uiso 1 1 calc R . . . .
C4 C 1.0114(8) 0.2219(4) 0.6357(2) 0.0192(9) Uani 1 1 d . . . . .
C5 C 1.0600(9) 0.3080(4) 0.5750(3) 0.0220(10) Uani 1 1 d . . . . .
C6 C 0.8891(8) 0.4110(4) 0.5633(3) 0.0212(10) Uani 1 1 d . . . . .
C7 C 0.9440(8) 0.5021(4) 0.5066(2) 0.0192(10) Uani 1 1 d . . . . .
C8 C 0.7984(9) 0.5940(4) 0.4911(3) 0.0250(10) Uani 1 1 d . . . . .
H8 H 0.6554 0.6030 0.5147 0.030 Uiso 1 1 calc R . . . .
C9 C 0.8843(9) 0.6732(5) 0.4365(3) 0.0267(11) Uani 1 1 d . . . . .
H9 H 0.8066 0.7401 0.4195 0.032 Uiso 1 1 calc R . . . .
C10 C 1.0973(9) 0.6392(4) 0.4115(3) 0.0251(11) Uani 1 1 d . . . . .
loop_
_atom_site_aniso_label
_atom_site_aniso_U_11
_atom_site_aniso_U_22
_atom_site_aniso_U_33
_atom_site_aniso_U_23
_atom_site_aniso_U_13
_atom_site_aniso_U_12
Br1 0.0282(3) 0.0279(2) 0.0253(2) 0.0054(2) 0.0054(2) -0.0009(2)
Br2 0.0411(3) 0.0291(3) 0.0300(2) 0.0065(2) 0.0117(2) -0.0008(3)
S1 0.0209(6) 0.0221(5) 0.0219(5) -0.0001(5) 0.0036(5) -0.0009(5)
S2 0.0225(6) 0.0221(6) 0.0233(5) 0.0014(4) 0.0047(5) 0.0001(5)
O1 0.0249(19) 0.0261(17) 0.0281(16) 0.0011(14) 0.0079(15) -0.0006(16)
O2 0.0246(19) 0.0302(18) 0.0363(18) 0.0047(16) 0.0159(17) 0.0045(17)
C1 0.026(3) 0.025(2) 0.018(2) 0.0000(19) -0.001(2) -0.003(2)
C2 0.022(2) 0.022(3) 0.027(2) -0.001(2) -0.005(2) 0.002(2)
C3 0.021(2) 0.025(2) 0.023(2) -0.0039(19) -0.002(2) -0.003(2)
C4 0.018(2) 0.023(2) 0.016(2) -0.0071(19) 0.0000(17) -0.001(2)
C5 0.021(2) 0.024(2) 0.021(2) -0.005(2) -0.0016(19) -0.004(2)
C6 0.021(3) 0.018(2) 0.025(2) -0.0065(19) 0.0004(19) -0.0015(19)
C7 0.021(2) 0.018(2) 0.019(2) -0.0025(18) 0.0019(18) -0.0034(19)
C8 0.019(3) 0.028(2) 0.028(2) 0.000(2) 0.004(2) 0.001(2)
C9 0.028(3) 0.024(3) 0.028(2) -0.002(2) -0.001(2) 0.002(2)
C10 0.031(3) 0.023(2) 0.021(2) -0.0002(19) 0.004(2) 0.000(2)
loop_
_atom_type_symbol
_atom_type_description
_atom_type_scat_dispersion_real
_atom_type_scat_dispersion_imag
_atom_type_scat_source
C C 0.0033 0.0016 'International Tables Vol C Tables 4.2.6.8 and 6.1.1.4'
H H 0.0000 0.0000 'International Tables Vol C Tables 4.2.6.8 and 6.1.1.4'
Br Br -0.2901 2.4595 'International Tables Vol C Tables 4.2.6.8 and 6.1.1.4'
O O 0.0106 0.0060 'International Tables Vol C Tables 4.2.6.8 and 6.1.1.4'
S S 0.1246 0.1234 'International Tables Vol C Tables 4.2.6.8 and 6.1.1.4'
loop_
_geom_angle_atom_site_label_1
_geom_angle_atom_site_label_2
_geom_angle_atom_site_label_3
_geom_angle
_geom_angle_site_symmetry_1
_geom_angle_site_symmetry_3
C1 S1 C4 90.0(2) . .
C10 S2 C7 90.3(2) . .
S1 C1 Br1 119.3(3) . .
C2 C1 Br1 126.9(4) . .
C2 C1 S1 113.8(4) . .
C1 C2 C3 111.0(5) . .
C4 C3 C2 114.1(5) . .
C3 C4 S1 111.1(4) . .
C3 C4 C5 124.2(4) . .
C5 C4 S1 124.7(4) . .
O1 C5 C4 122.2(5) . .
O1 C5 C6 119.4(4) . .
C4 C5 C6 118.4(4) . .
O2 C6 C5 119.0(4) . .
O2 C6 C7 122.2(4) . .
C7 C6 C5 118.9(4) . .
C6 C7 S2 126.1(4) . .
C8 C7 S2 111.4(4) . .
C8 C7 C6 122.5(4) . .
C7 C8 C9 113.8(5) . .
C10 C9 C8 110.9(5) . .
S2 C10 Br2 120.5(3) . .
C9 C10 Br2 125.8(4) . .
C9 C10 S2 113.6(4) . .
loop_
_geom_bond_atom_site_label_1
_geom_bond_atom_site_label_2
_geom_bond_distance
_geom_bond_site_symmetry_2
Br1 C1 1.877(5) .
Br2 C10 1.874(5) .
S1 C1 1.716(5) .
S1 C4 1.740(4) .
S2 C7 1.725(5) .
S2 C10 1.712(5) .
O1 C5 1.218(6) .
O2 C6 1.216(5) .
C1 C2 1.361(7) .
C2 C3 1.402(7) .
C3 C4 1.363(7) .
C4 C5 1.465(6) .
C5 C6 1.543(7) .
C6 C7 1.463(6) .
C7 C8 1.367(6) .
C8 C9 1.398(7) .
C9 C10 1.363(7) .
loop_
_geom_torsion_atom_site_label_1
_geom_torsion_atom_site_label_2
_geom_torsion_atom_site_label_3
_geom_torsion_atom_site_label_4
_geom_torsion
_geom_torsion_site_symmetry_1
_geom_torsion_site_symmetry_2
_geom_torsion_site_symmetry_3
_geom_torsion_site_symmetry_4
Br1 C1 C2 C3 177.6(3) . . . .
S1 C1 C2 C3 0.2(5) . . . .
S1 C4 C5 O1 -175.6(4) . . . .
S1 C4 C5 C6 4.8(6) . . . .
S2 C7 C8 C9 0.0(5) . . . .
O1 C5 C6 O2 176.0(4) . . . .
O1 C5 C6 C7 -3.9(6) . . . .
O2 C6 C7 S2 176.3(4) . . . .
O2 C6 C7 C8 -2.0(7) . . . .
C1 S1 C4 C3 -0.7(4) . . . .
C1 S1 C4 C5 178.2(4) . . . .
C1 C2 C3 C4 -0.7(6) . . . .
C2 C3 C4 S1 0.9(5) . . . .
C2 C3 C4 C5 -177.9(4) . . . .
C3 C4 C5 O1 3.1(7) . . . .
C3 C4 C5 C6 -176.5(4) . . . .
C4 S1 C1 Br1 -177.4(3) . . . .
C4 S1 C1 C2 0.3(4) . . . .
C4 C5 C6 O2 -4.4(6) . . . .
C4 C5 C6 C7 175.7(4) . . . .
C5 C6 C7 S2 -3.7(6) . . . .
C5 C6 C7 C8 177.9(4) . . . .
C6 C7 C8 C9 178.6(4) . . . .
C7 S2 C10 Br2 178.3(3) . . . .
C7 S2 C10 C9 -0.3(4) . . . .
C7 C8 C9 C10 -0.2(6) . . . .
C8 C9 C10 Br2 -178.2(4) . . . .
C8 C9 C10 S2 0.3(6) . . . .
C10 S2 C7 C6 -178.4(4) . . . .
C10 S2 C7 C8 0.2(4) . . . .
