#------------------------------------------------------------------------------
#$Date: 2019-11-23 22:19:22 +0200 (Sat, 23 Nov 2019) $
#$Revision: 235336 $
#$URL: file:///home/coder/svn-repositories/cod/cif/7/23/62/7236271.cif $
#------------------------------------------------------------------------------
#
# This file is available in the Crystallography Open Database (COD),
# http://www.crystallography.net/
#
# All data on this site have been placed in the public domain by the
# contributors.
#
data_7236271
loop_
_publ_author_name
'\'Switlicka, Anna'
'Klemens, Tomasz'
'Machura, Barbara'
'Schab-Balcerzak, Ewa'
'Laba, Katarzyna'
'Lapkowski, Mieczyslaw'
'Grucela, Marzena'
'Nycz, Jacek'
'Szala, Marcin'
'Kania, Magdalena'
_publ_section_title
;
 Rhenium(i) complexes with phenanthrolines bearing electron-withdrawing Cl
 and electron-donating CH3 substituents -- synthesis, photophysical,
 thermal, and electrochemical properties with electroluminescence ability
;
_journal_issue                   114
_journal_name_full               'RSC Advances'
_journal_page_first              112908
_journal_paper_doi               10.1039/C6RA23935H
_journal_volume                  6
_journal_year                    2016
_chemical_formula_moiety         'C17 H10 Cl2 N3 O3 Re'
_chemical_formula_sum            'C17 H10 Cl2 N3 O3 Re'
_chemical_formula_weight         561.38
_space_group_crystal_system      triclinic
_space_group_IT_number           2
_space_group_name_Hall           '-P 1'
_space_group_name_H-M_alt        'P -1'
_atom_sites_solution_hydrogens   geom
_audit_creation_method           SHELXL-2014/6
_audit_update_record
;
2016-08-31 deposited with the CCDC.
2016-11-30 downloaded from the CCDC.
;
_cell_angle_alpha                84.319(3)
_cell_angle_beta                 85.261(3)
_cell_angle_gamma                67.529(4)
_cell_formula_units_Z            2
_cell_length_a                   8.3105(3)
_cell_length_b                   9.7851(4)
_cell_length_c                   12.3202(5)
_cell_measurement_reflns_used    3961
_cell_measurement_temperature    295(2)
_cell_measurement_theta_max      27.7720
_cell_measurement_theta_min      4.0820
_cell_volume                     920.16(7)
_computing_cell_refinement       'CrysAlis RED v. 1.163 (UNIL IC & KUMA 2000)'
_computing_data_collection       'CrysAlis CCD v. 1.163 (UNIL IC & KUMA 2000)'
_computing_data_reduction        'CrysAlis RED v. 1.163 (UNIL IC & KUMA 2000)'
_computing_molecular_graphics
'Mercury (Macrae, J.Appl.Cryst. 41 (2008) 466-470'
_computing_publication_material  'Olex2 (Dolomanov et al., 2009)'
_computing_structure_refinement  'SHELXL-2014/6 (Sheldrick, 2014)'
_computing_structure_solution    'SHELXS-97 (Sheldrick, 1990)'
_diffrn_ambient_temperature      295(2)
_diffrn_measured_fraction_theta_full 0.980
_diffrn_measured_fraction_theta_max 0.997
_diffrn_measurement_device_type  'Oxford Diffraction Gemini A Ultra'
_diffrn_radiation_type           MoK\a
_diffrn_radiation_wavelength     0.71073
_diffrn_reflns_av_R_equivalents  0.0479
_diffrn_reflns_av_unetI/netI     0.0606
_diffrn_reflns_Laue_measured_fraction_full 0.980
_diffrn_reflns_Laue_measured_fraction_max 0.997
_diffrn_reflns_limit_h_max       9
_diffrn_reflns_limit_h_min       -9
_diffrn_reflns_limit_k_max       11
_diffrn_reflns_limit_k_min       -11
_diffrn_reflns_limit_l_max       14
_diffrn_reflns_limit_l_min       -13
_diffrn_reflns_number            7649
_diffrn_reflns_point_group_measured_fraction_full 0.980
_diffrn_reflns_point_group_measured_fraction_max 0.997
_diffrn_reflns_theta_full        25.242
_diffrn_reflns_theta_max         25.048
_diffrn_reflns_theta_min         3.883
_exptl_absorpt_coefficient_mu    6.915
_exptl_absorpt_correction_T_max  1.00000
_exptl_absorpt_correction_T_min  0.36218
_exptl_absorpt_correction_type   multi-scan
_exptl_absorpt_process_details   'Blessing, Acta Cryst. A51 (1995) 33-38'
_exptl_crystal_colour            orange
_exptl_crystal_density_diffrn    2.026
_exptl_crystal_description       plate
_exptl_crystal_F_000             532
_exptl_crystal_size_max          0.24
_exptl_crystal_size_mid          0.11
_exptl_crystal_size_min          0.04
_refine_diff_density_max         0.762
_refine_diff_density_min         -1.000
_refine_diff_density_rms         0.139
_refine_ls_extinction_method     none
_refine_ls_goodness_of_fit_ref   0.971
_refine_ls_hydrogen_treatment    constr
_refine_ls_matrix_type           full
_refine_ls_number_parameters     236
_refine_ls_number_reflns         3248
_refine_ls_number_restraints     0
_refine_ls_restrained_S_all      0.971
_refine_ls_R_factor_all          0.0404
_refine_ls_R_factor_gt           0.0298
_refine_ls_shift/su_max          0.001
_refine_ls_shift/su_mean         0.000
_refine_ls_structure_factor_coef Fsqd
_refine_ls_weighting_details
'w=1/[\s^2^(Fo^2^)+(0.0119P)^2^] where P=(Fo^2^+2Fc^2^)/3'
_refine_ls_weighting_scheme      calc
_refine_ls_wR_factor_gt          0.0484
_refine_ls_wR_factor_ref         0.0512
_reflns_Friedel_coverage         0.000
_reflns_number_gt                2795
_reflns_number_total             3248
_reflns_threshold_expression     'I > 2\s(I)'
_cod_data_source_file            c6ra23935h2.cif
_cod_data_source_block           ren4120
_cod_database_code               7236271
_shelx_space_group_comment
;
The symmetry employed for this shelxl refinement is uniquely defined
by the following loop, which should always be used as a source of
symmetry information in preference to the above space-group names.
They are only intended as comments.
;
_shelxl_version_number           2014/6
_shelx_res_file
;
TITL Ren4120 in P-1 #2
CELL 0.71073 8.3105 9.7851 12.3202 84.319 85.261 67.529
ZERR 2 0.0003 0.0004 0.0005 0.003 0.003 0.004
LATT 1
SFAC C H N O Cl Re
UNIT 34 20 6 6 4 2
L.S. 10
PLAN  20
REM reset to P-1 #2
BOND
fmap 2
acta
OMIT 0 50.1
EQIV $1 -1+x,y,z
EQIV $2 1+x,y,z
EQIV $3 1-x,2-y,1-z
HTAB C4 N3_$1
HTAB C12 Cl1_$2
HTAB C16 O2_$3
HTAB C6 Cl2
REM <HKL>D:/Nix/Ren4120.hkl</HKL>
WGHT    0.011900
FVAR       3.56986
RE1   6    0.640137    0.710415    0.699075    11.00000    0.03105    0.04469 =
         0.02758    0.00511   -0.00707   -0.01508
N1    3    0.540349    0.790432    0.857637    11.00000    0.03025    0.03385 =
         0.03200    0.00594   -0.00817   -0.01537
N2    3    0.872633    0.671674    0.788561    11.00000    0.02347    0.03590 =
         0.03637    0.00190   -0.00482   -0.01380
N3    3    0.964268    0.998004    0.789987    11.00000    0.05909    0.08944 =
         0.06772    0.01221    0.00031   -0.01888
O3    4    0.639140    1.004123    0.588244    11.00000    0.09159    0.07080 =
         0.07367    0.02663   -0.01399   -0.04412
O1    4    0.804000    0.564813    0.488263    11.00000    0.08672    0.11604 =
         0.04862   -0.02421    0.00084   -0.01686
O2    4    0.286728    0.776901    0.603904    11.00000    0.05115    0.12520 =
         0.05350    0.02410   -0.02968   -0.04155
CL1   5    0.651764    0.470827    0.793920    11.00000    0.04004    0.04287 =
         0.05193    0.00717   -0.01381   -0.01796
CL2   5    0.706191    0.796976    1.250090    11.00000    0.07947    0.07216 =
         0.03477   -0.00542   -0.01159   -0.02710
C3    1    0.638501    0.893561    0.631714    11.00000    0.03925    0.06513 =
         0.03881    0.00555   -0.01169   -0.02022
C1    1    0.744937    0.619547    0.569643    11.00000    0.04686    0.06226 =
         0.04762   -0.00292   -0.00785   -0.01598
C2    1    0.419565    0.749035    0.639306    11.00000    0.04836    0.05716 =
         0.02816    0.01140   -0.00622   -0.02422
C4    1    0.371042    0.846303    0.892744    11.00000    0.03097    0.03803 =
         0.03984    0.00810   -0.00472   -0.01065
AFIX  43
H4    2    0.286137    0.864410    0.842650    11.00000   -1.20000
AFIX   0
C5    1    0.318442    0.877760    0.999950    11.00000    0.03303    0.03531 =
         0.04209   -0.00212    0.00275   -0.00911
AFIX  43
H5    2    0.200216    0.917773    1.020053    11.00000   -1.20000
AFIX   0
C6    1    0.439165    0.850414    1.076650    11.00000    0.04979    0.03829 =
         0.03425   -0.00415    0.00724   -0.01659
AFIX  43
H6    2    0.404162    0.869345    1.149127    11.00000   -1.20000
AFIX   0
C7    1    0.617692    0.792977    1.043740    11.00000    0.03863    0.02920 =
         0.03141    0.00461   -0.00452   -0.01618
C8    1    0.758422    0.764873    1.114290    11.00000    0.05262    0.03350 =
         0.03006    0.00234   -0.01074   -0.01765
C9    1    0.926458    0.712286    1.077366    11.00000    0.04558    0.03605 =
         0.04108    0.00241   -0.01724   -0.01624
AFIX  43
H9    2    1.013984    0.696700    1.125008    11.00000   -1.20000
AFIX   0
C10   1    0.971361    0.680359    0.966238    11.00000    0.03551    0.02732 =
         0.03956    0.00696   -0.01335   -0.01626
C11   1    1.145066    0.619147    0.923451    11.00000    0.03296    0.03376 =
         0.05504    0.01022   -0.01309   -0.01664
AFIX  43
H11   2    1.237427    0.600072    0.967990    11.00000   -1.20000
AFIX   0
C12   1    1.176200    0.588455    0.817284    11.00000    0.02800    0.04420 =
         0.05826    0.00344    0.00030   -0.01873
AFIX  43
H12   2    1.290194    0.549689    0.788324    11.00000   -1.20000
AFIX   0
C13   1    1.037416    0.614942    0.751317    11.00000    0.03663    0.04776 =
         0.04061    0.00402   -0.00145   -0.01985
AFIX  43
H13   2    1.061139    0.592072    0.678756    11.00000   -1.20000
AFIX   0
C14   1    0.838845    0.703382    0.894470    11.00000    0.02937    0.02713 =
         0.03719    0.00202   -0.00645   -0.01357
C15   1    0.661364    0.762877    0.934704    11.00000    0.03121    0.02696 =
         0.03073    0.00132   -0.00757   -0.00951
C16   1    0.933107    1.167144    0.615287    11.00000    0.11750    0.10360 =
         0.05510    0.01154   -0.03358   -0.05135
AFIX 137
H16A  2    1.035128    1.127713    0.567878    11.00000   -1.50000
H16B  2    0.920012    1.264184    0.633318    11.00000   -1.50000
H16C  2    0.832289    1.173548    0.579032    11.00000   -1.50000
AFIX   0
C17   1    0.950848    1.071649    0.713200    11.00000    0.04744    0.06566 =
         0.06278   -0.01134   -0.00979   -0.01539
HKLF 4

REM  Ren4120 in P-1 #2
REM R1 =  0.0298 for    2795 Fo > 4sig(Fo)  and  0.0404 for all    3248 data
REM    236 parameters refined using      0 restraints

END

WGHT      0.0119      0.0000

REM Highest difference peak  0.762,  deepest hole -1.000,  1-sigma level  0.139
Q1    1   0.7301  0.7736  0.7598  11.00000  0.05    0.76
Q2    1   0.0798  0.8717  0.9029  11.00000  0.05    0.76
Q3    1   0.5558  0.6476  0.6401  11.00000  0.05    0.68
Q4    1   0.6607  0.6745  0.5795  11.00000  0.05    0.67
Q5    1   0.5703  0.8212  0.6969  11.00000  0.05    0.64
Q6    1   0.7428  0.6445  0.8053  11.00000  0.05    0.62
Q7    1   0.7411  0.7372  0.6120  11.00000  0.05    0.61
Q8    1   0.7425  0.6022  0.6599  11.00000  0.05    0.56
Q9    1   0.7904  0.5813  0.6116  11.00000  0.05    0.55
Q10   1   0.4520  0.7063  0.7168  11.00000  0.05    0.55
Q11   1   0.5581  0.7271  0.6764  11.00000  0.05    0.53
Q12   1   0.3375  0.5711  0.5986  11.00000  0.05    0.50
Q13   1   0.5980  0.7920  0.7752  11.00000  0.05    0.50
Q14   1   0.7639  0.7210  0.4547  11.00000  0.05    0.49
Q15   1   0.6024  0.7798  0.5846  11.00000  0.05    0.49
Q16   1   0.9289  0.6577  1.2750  11.00000  0.05    0.48
Q17   1   0.4489  0.8191  0.5440  11.00000  0.05    0.47
Q18   1   0.5295  0.6958  0.7899  11.00000  0.05    0.47
Q19   1   0.9182  0.6941  0.4773  11.00000  0.05    0.46
Q20   1   0.6526  0.6013  0.5608  11.00000  0.05    0.46
;
_shelx_res_checksum              10821
_shelx_hkl_file
;
 -11  -3  -3 7858.39 2657.73   1
 -11  -3  -2 9271.69 3193.80   1
 -11  -3  -1 4991.86 3263.98   1
 -11  -3   0 2221.04 2775.05   1
 -11  -2  -4 7648.03 2490.76   1
 -11  -2  -3 16085.1 3621.80   1
 -11  -2  -2 8448.09 3142.83   1
 -11  -2  -1 6260.47 2973.51   1
 -11  -2   0 10648.5 3199.94   1
 -11  -2   1-2133.31 2003.54   1
 -10  -7  -4 24.1732 1020.22   1
 -10  -7  -3 17265.3 2752.79   1
 -10  -7  -2 2001.77 1533.94   1
 -10  -7  -1 8082.76 2661.41   1
 -10  -7   0 3919.77 2478.29   1
 -10  -7   1 110.188 1991.78   1
 -10  -6  -6 4859.36 1446.06   1
 -10  -6  -5 765.167 883.194   1
 -10  -6  -4 16465.1 2510.31   1
 -10  -6  -3-219.845 1048.89   1
 -10  -6  -2 19453.8 3065.39   1
 -10  -6  -1 8492.85 2558.40   1
 -10  -6   0 1677.01 2264.71   1
 -10  -6   1 11143.7 3547.64   1
 -10  -6   2 3347.15 2543.97   1
 -10  -5  -6 1444.62 883.085   1
 -10  -5  -5 8544.93 1866.02   1
 -10  -5  -4-794.004 1188.14   1
 -10  -5  -3 18205.0 2736.67   1
 -10  -5  -2 12713.2 2519.43   1
 -10  -5  -1 12761.6 2992.25   1
 -10  -5   0 16741.4 3768.08   1
 -10  -5   1 3204.98 2751.07   1
 -10  -5   2 12639.9 3529.52   1
 -10  -5   3 8256.29 2812.63   1
 -10  -4  -7 225.225 1422.45   1
 -10  -4  -6 10641.0 1991.43   1
 -10  -4  -5 1520.21 873.250   1
 -10  -4  -4 6350.57 1690.81   1
 -10  -4  -3 3597.22 1534.66   1
 -10  -4  -2 5855.84 2139.59   1
 -10  -4  -1 18323.0 3520.92   1
 -10  -4   0 1060.79 2225.08   1
 -10  -4   1 17694.3 4012.13   1
 -10  -4   2 7322.28 2981.75   1
 -10  -4   3 4129.28 2212.84   1
 -10  -4   4 9956.05 2595.99   1
 -10  -3  -8 528.430 959.077   1
 -10  -3  -7 11300.8 2014.89   1
 -10  -3  -6-1381.85 1402.47   1
 -10  -3  -5 13641.6 2224.39   1
 -10  -3  -4 3431.82 1455.49   1
 -10  -3  -3 5625.64 1777.67   1
 -10  -3  -2 13313.3 2831.46   1
 -10  -3  -1 5724.05 2596.72   1
 -10  -3   0 11259.8 3292.54   1
 -10  -3   1 7590.57 2891.00   1
 -10  -3   2 7994.49 2895.01   1
 -10  -3   3 12141.2 2836.27   1
 -10  -3   4-4645.60 2127.35   1
 -10  -3   5 4369.20 1630.94   1
 -10  -2  -8 4327.17 1325.58   1
 -10  -2  -7-3332.51 1554.55   1
 -10  -2  -6 18455.3 2451.46   1
 -10  -2  -5 319.110 1102.57   1
 -10  -2  -4 8625.99 2036.39   1
 -10  -2  -3 8940.04 2190.75   1
 -10  -2  -2 5529.64 2401.29   1
 -10  -2  -1 7787.49 2980.93   1
 -10  -2   0 6968.23 2691.15   1
 -10  -2   1 10507.5 2901.94   1
 -10  -2   2 5863.54 2210.10   1
 -10  -2   3-1584.22 1876.51   1
 -10  -2   4 2105.96 1307.88   1
 -10  -2   5-1664.20 1733.36   1
 -10  -1  -7 6053.05 1473.96   1
 -10  -1  -6-100.658 1103.49   1
 -10  -1  -5 4427.20 1574.99   1
 -10  -1  -4 12647.3 2501.16   1
 -10  -1  -3 6485.67 2490.60   1
 -10  -1  -2 10502.8 2834.81   1
 -10  -1  -1 4175.71 2577.78   1
 -10  -1   0 13125.8 3143.96   1
 -10  -1   1 8669.40 2667.93   1
 -10  -1   2-1770.98 1946.73   1
 -10  -1   3 3280.42 1321.10   1
 -10  -1   4-1594.85 1488.04   1
 -10  -1   5-1074.20 1581.74   1
 -10   0  -1 4607.01 2454.29   1
 -10   0   0 11539.7 2851.02   1
 -10   0   1-334.787 1472.36   1
 -10   0   2 8047.02 1882.54   1
 -10   0   3-3710.49 1791.20   1
 -10   0   4-1400.08 1393.28   1
  -9 -10  -3 9933.13 2170.62   1
  -9 -10  -2 2783.82 1527.03   1
  -9 -10  -1 22809.3 3780.70   1
  -9 -10   0-837.226 2221.07   1
  -9  -9  -5 980.786 1015.20   1
  -9  -9  -4 5100.63 1490.25   1
  -9  -9  -3 734.581 1107.14   1
  -9  -9  -2 9117.17 2056.07   1
  -9  -9  -1 5198.03 2171.02   1
  -9  -9   0 10237.1 2686.72   1
  -9  -9   1 4938.68 2508.55   1
  -9  -9   2-2017.83 2276.54   1
  -9  -8  -7 4858.11 1513.53   1
  -9  -8  -6 6120.54 1517.38   1
  -9  -8  -5 12112.2 2045.39   1
  -9  -8  -4-965.375 1145.09   1
  -9  -8  -3 9047.49 1906.35   1
  -9  -8  -2 11047.5 2254.17   1
  -9  -8  -1 12792.2 2627.96   1
  -9  -8   0 9944.31 2618.47   1
  -9  -8   1 2274.65 2196.49   1
  -9  -8   2 6972.14 2902.22   1
  -9  -8   3 2112.75 2104.68   1
  -9  -8   4 7452.44 2488.31   1
  -9  -7  -8 1950.12 1110.04   1
  -9  -7  -7 4909.17 1499.33   1
  -9  -7  -6 9996.06 1955.73   1
  -9  -7  -5-313.807 1082.21   1
  -9  -7  -4 15141.3 2323.41   1
  -9  -7  -3 3699.39 1380.91   1
  -9  -7  -2 7467.31 1762.01   1
  -9  -7  -1 19827.0 2970.14   1
  -9  -7   0 8307.16 2563.58   1
  -9  -7   1 5709.55 2563.72   1
  -9  -7   2 7413.02 2790.43   1
  -9  -7   3 5247.50 2556.60   1
  -9  -7   4 14229.8 3318.56   1
  -9  -7   5 2677.92 1657.44   1
  -9  -6  -8 5951.37 1627.47   1
  -9  -6  -7 11118.4 2010.34   1
  -9  -6  -6 233.504 743.777   1
  -9  -6  -5 20104.7 2572.10   1
  -9  -6  -4 7531.33 1621.00   1
  -9  -6  -3 18701.0 2481.88   1
  -9  -6  -2 31666.8 3345.10   1
  -9  -6  -1 4516.45 1724.47   1
  -9  -6   0 22833.6 3559.83   1
  -9  -6   1 2022.25 1939.15   1
  -9  -6   2 2375.84 2085.77   1
  -9  -6   3 8971.11 2742.74   1
  -9  -6   4 2198.60 1746.41   1
  -9  -6   5 7266.67 2161.44   1
  -9  -6   6 1372.94 1401.90   1
  -9  -5  -9 12020.3 2208.05   1
  -9  -5  -8 5620.23 1552.28   1
  -9  -5  -7 636.499 720.147   1
  -9  -5  -6 8594.32 1714.50   1
  -9  -5  -5 815.374 927.827   1
  -9  -5  -4 9086.50 1688.04   1
  -9  -5  -3 20130.1 2478.74   1
  -9  -5  -2 40.6922 878.353   1
  -9  -5  -1 27684.8 3387.27   1
  -9  -5   0 11752.5 2906.54   1
  -9  -5   1 15060.9 3342.52   1
  -9  -5   2 15470.0 3477.38   1
  -9  -5   3 1100.49 538.316   2
  -9  -5   3 2385.84 2328.78   1
  -9  -5   4 9850.41 1358.95   2
  -9  -5   4 11114.5 2668.51   1
  -9  -5   5 2363.81 843.533   2
  -9  -5   5-1483.97 1618.54   1
  -9  -5   6 1395.91 1202.77   1
  -9  -5   6 3126.79 1044.24   2
  -9  -5   7 8623.54 1725.69   2
  -9  -5   8-392.613 911.414   2
  -9  -5   9 8252.98 2057.54   2
  -9  -4  -9 12230.8 2191.06   1
  -9  -4  -8 1872.76 1041.03   1
  -9  -4  -7 15250.9 2194.64   1
  -9  -4  -6-18.8370 1055.46   1
  -9  -4  -5 10297.3 1698.19   1
  -9  -4  -4 15602.3 2221.06   1
  -9  -4  -3 1326.09 997.968   1
  -9  -4  -2 25508.8 2982.48   1
  -9  -4  -1 9523.22 2373.50   1
  -9  -4   0 23554.6 3695.79   1
  -9  -4   1 25246.9 4012.44   1
  -9  -4   2 3400.56 2312.17   1
  -9  -4   3 24727.8 3945.84   1
  -9  -4   4-79.0570 507.858   2
  -9  -4   4 819.857 1534.25   1
  -9  -4   5 4543.78 1616.05   1
  -9  -4   5 7154.68 1331.03   2
  -9  -4   6 3215.21 1393.49   1
  -9  -4   6 6139.53 1407.26   2
  -9  -4   7-4844.86 1758.06   1
  -9  -4   7-1247.15 906.995   2
  -9  -4   8 4498.80 1538.17   2
  -9  -4   9 2801.31 1533.46   2
  -9  -3 -10 3781.09 1340.34   1
  -9  -3  -9 1342.86 978.005   1
  -9  -3  -8 15409.1 2247.60   1
  -9  -3  -7 1263.74 905.558   1
  -9  -3  -6 15684.8 2141.95   1
  -9  -3  -5 8753.46 1574.53   1
  -9  -3  -4 4311.50 1216.33   1
  -9  -3  -3 17856.5 2361.85   1
  -9  -3  -2 1741.60 1319.34   1
  -9  -3  -1 15842.8 2792.09   1
  -9  -3   0 14234.8 3081.27   1
  -9  -3   1 3980.54 2352.57   1
  -9  -3   2 23046.0 3818.58   1
  -9  -3   3 3584.64 2051.31   1
  -9  -3   4 11749.0 1594.55   2
  -9  -3   4 9698.67 2324.78   1
  -9  -3   5 8611.36 1496.00   2
  -9  -3   5 8109.90 1970.82   1
  -9  -3   6 2701.82 975.497   2
  -9  -3   6 1457.97 1036.04   1
  -9  -3   7 4976.34 1416.48   1
  -9  -3   7 8938.70 1797.53   2
  -9  -3   8 1135.97 974.484   2
  -9  -3   9 5506.95 1801.18   2
  -9  -2 -10 3085.78 1266.14   1
  -9  -2  -9 7286.71 1636.51   1
  -9  -2  -8 1452.89 875.505   1
  -9  -2  -7 11460.6 1858.06   1
  -9  -2  -6 10141.4 1733.10   1
  -9  -2  -5-781.296 1219.63   1
  -9  -2  -4 28748.9 2868.79   1
  -9  -2  -3 334.557 829.515   1
  -9  -2  -2 24511.7 3033.70   1
  -9  -2  -1 14316.0 2873.87   1
  -9  -2   0 4139.71 2250.12   1
  -9  -2   1 17840.5 3402.83   1
  -9  -2   2 1456.19 1752.37   1
  -9  -2   3 6375.26 2126.46   1
  -9  -2   4 9294.79 1969.29   1
  -9  -2   5-1105.68 1371.80   1
  -9  -2   6 9642.02 1717.34   2
  -9  -2   6 4111.96 1443.43   1
  -9  -2   7 517.255 688.898   2
  -9  -2   8 7330.56 1801.45   2
  -9  -1 -10 9547.09 1885.35   1
  -9  -1  -9 938.054 725.087   1
  -9  -1  -8 10160.5 1788.93   1
  -9  -1  -7 2590.49 807.394   1
  -9  -1  -6 3184.61 991.822   1
  -9  -1  -5 7973.14 1510.23   1
  -9  -1  -4 710.696 807.193   1
  -9  -1  -3 17759.3 2428.79   1
  -9  -1  -2 16466.8 2897.71   1
  -9  -1  -1 7244.06 2467.21   1
  -9  -1   0 21656.3 3600.28   1
  -9  -1   1 1984.01 1979.39   1
  -9  -1   2 8450.59 2302.61   1
  -9  -1   3 7048.90 1906.57   1
  -9  -1   4-1626.54 1545.88   1
  -9  -1   5 3607.02 1099.48   1
  -9  -1   7 4879.02 1453.53   2
  -9  -1   8 5269.22 1570.32   2
  -9   0  -8 2844.68 985.996   1
  -9   0  -7 4089.49 999.218   1
  -9   0  -6 10017.4 1622.38   1
  -9   0  -5-578.457 965.856   1
  -9   0  -4 8818.04 1716.02   1
  -9   0  -3 10294.3 2269.43   1
  -9   0  -2 5844.77 2151.17   1
  -9   0  -1 27786.6 3783.36   1
  -9   0   0 2630.48 1853.83   1
  -9   0   1 23278.3 3233.09   1
  -9   0   2 5233.76 1648.13   1
  -9   0   3 2859.96 1289.70   1
  -9   0   4 3113.46 1106.74   1
  -9   1  -3 6582.43 2285.76   1
  -9   1  -2 9263.26 2663.56   1
  -9   1  -1 2991.01 1904.93   1
  -9   1   0 14190.7 2539.00   1
  -9   1   1 2896.62 1219.84   1
  -9   1   2 147.740 1007.84   1
  -9   1   3 6810.42 1570.70   1
  -8 -12  -2 2226.57 1747.84   1
  -8 -12  -1 1139.60 1766.15   1
  -8 -11  -5 3188.45 1349.66   1
  -8 -11  -4 32.0098 909.021   1
  -8 -11  -3 8787.27 1978.30   1
  -8 -11  -2 2054.83 1406.56   1
  -8 -11  -1 2200.56 1621.61   1
  -8 -11   0-326.135 1904.54   1
  -8 -11   1 1387.05 2128.58   1
  -8 -11   2 1983.07 2251.26   1
  -8 -11   3 6781.47 2552.99   1
  -8 -10  -7 2669.83 1258.00   1
  -8 -10  -6 7393.26 1651.58   1
  -8 -10  -5-394.400 883.748   1
  -8 -10  -4 8116.47 1771.21   1
  -8 -10  -3 2171.02 1164.08   1
  -8 -10  -2 6738.63 1785.44   1
  -8 -10  -1 6624.07 2020.88   1
  -8 -10   0 327.479 1517.43   1
  -8 -10   1 9298.61 3035.57   1
  -8 -10   2 3214.01 2154.07   1
  -8 -10   3 438.784 1702.44   1
  -8 -10   4 6620.76 2364.30   1
  -8  -9  -8 6232.90 1679.29   1
  -8  -9  -7 11771.1 2102.61   1
  -8  -9  -6 2446.14 1022.88   1
  -8  -9  -5 6667.64 1511.71   1
  -8  -9  -4 1970.00 967.227   1
  -8  -9  -3 4023.75 1400.29   1
  -8  -9  -2 10862.8 2083.50   1
  -8  -9  -1 1868.29 1328.60   1
  -8  -9   0 13423.5 2817.74   1
  -8  -9   1-398.180 1596.48   1
  -8  -9   2 10966.3 3016.74   1
  -8  -9   3 4495.31 2399.84   1
  -8  -9   4 2851.82 2080.56   1
  -8  -9   5 11268.0 2593.29   1
  -8  -8  -9 10267.1 2084.30   1
  -8  -8  -8 10153.3 2010.25   1
  -8  -8  -7 3118.71 1268.61   1
  -8  -8  -6 12806.1 2107.46   1
  -8  -8  -5-66.4993 1056.05   1
  -8  -8  -4 4916.70 1280.01   1
  -8  -8  -3 5466.12 1333.70   1
  -8  -8  -2 696.677 930.281   1
  -8  -8  -1 18450.1 2650.09   1
  -8  -8   0 6367.16 2097.58   1
  -8  -8   1 5100.35 2303.94   1
  -8  -8   2 12459.5 3218.48   1
  -8  -8   3 2762.31 2230.92   1
  -8  -8   4 18738.4 2121.18   2
  -8  -8   4 18713.2 3359.01   1
  -8  -8   5 700.750 722.703   2
  -8  -8   5 2460.34 1778.86   1
  -8  -8   6 10774.6 2344.03   1
  -8  -8   6 11881.7 2159.18   2
  -8  -8   7 4563.24 1546.30   2
  -8  -8   8-1073.82 1171.54   2
  -8  -7 -10 6386.16 1813.82   1
  -8  -7  -9 10135.1 2022.32   1
  -8  -7  -8-392.152 807.014   1
  -8  -7  -7 43489.0 3758.77   1
  -8  -7  -6 1614.66 946.743   1
  -8  -7  -5 24163.6 2649.62   1
  -8  -7  -4 8250.04 1566.41   1
  -8  -7  -3 1606.98 916.942   1
  -8  -7  -2 31834.9 3088.29   1
  -8  -7  -1 2564.30 1278.28   1
  -8  -7   0 4323.05 1613.29   1
  -8  -7   1 13332.4 980.494   2
  -8  -7   1 12054.7 2909.92   1
  -8  -7   2 2127.67 2313.57   1
  -8  -7   2 422.159 356.452   2
  -8  -7   3 19566.0 1767.27   2
  -8  -7   3 19018.2 3592.41   1
  -8  -7   4 2946.33 1960.49   1
  -8  -7   4 1591.63 733.170   2
  -8  -7   5 10979.7 1780.85   2
  -8  -7   5 12149.1 2649.35   1
  -8  -7   6 13841.7 2526.39   1
  -8  -7   6 10352.8 1926.27   2
  -8  -7   7 2352.45 1233.60   1
  -8  -7   7 3451.38 1418.74   2
  -8  -7   8 10699.1 2318.83   2
  -8  -7   9-87.0249 1186.11   2
  -8  -6 -10 5141.93 1566.59   1
  -8  -6  -9 1535.47 903.875   1
  -8  -6  -8 12395.9 2107.35   1
  -8  -6  -7 2274.32 1115.92   1
  -8  -6  -6 17816.7 2282.12   1
  -8  -6  -5 19265.2 2313.73   1
  -8  -6  -4 1559.62 859.039   1
  -8  -6  -3 34175.3 3020.49   1
  -8  -6  -2-661.384 1095.12   1
  -8  -6  -2-193.012 448.683   4
  -8  -6  -1 29234.5 3017.12   1
  -8  -6  -1 26714.7 2043.90   4
  -8  -6   0 7435.80 2076.60   1
  -8  -6   1 2989.59 2009.55   1
  -8  -6   1 1350.21 371.348   2
  -8  -6   2 15423.4 1336.34   2
  -8  -6   2 13302.8 3201.33   1
  -8  -6   3 6801.30 2656.36   1
  -8  -6   3 2907.35 725.411   2
  -8  -6   4 13529.2 2867.62   1
  -8  -6   4 15738.8 1797.48   2
  -8  -6   5 14944.1 1982.95   2
  -8  -6   5 15546.9 2852.21   1
  -8  -6   6 2959.66 1160.48   2
  -8  -6   6 2271.43 1336.30   1
  -8  -6   7 16851.0 2578.87   2
  -8  -6   7 14801.5 2552.33   1
  -8  -6   8 1481.60 1143.82   2
  -8  -6   8-3065.60 1762.88   1
  -8  -6   9 8058.23 2046.22   2
  -8  -6  10 4257.88 1745.75   2
  -8  -5 -11 5180.21 1629.15   1
  -8  -5 -10 3927.64 1454.87   1
  -8  -5  -9 16078.8 2407.56   1
  -8  -5  -8-261.381 775.074   1
  -8  -5  -7 23165.8 2644.85   1
  -8  -5  -6 11421.5 1827.25   1
  -8  -5  -5 3547.61 1138.85   1
  -8  -5  -4 27927.5 2659.52   1
  -8  -5  -3 10938.1 1412.32   4
  -8  -5  -3 8102.42 1514.46   1
  -8  -5  -2 66183.9 4248.86   1
  -8  -5  -2 65080.9 3281.51   4
  -8  -5  -1 4442.96 1396.26   1
  -8  -5  -1 5232.66 859.793   4
  -8  -5   0 10489.7 2301.16   1
  -8  -5   1 20682.0 3559.41   1
  -8  -5   2 1916.33 2070.34   1
  -8  -5   2 188.775 345.310   2
  -8  -5   3 18946.8 1702.09   2
  -8  -5   3 22496.6 3761.75   1
  -8  -5   4 6884.51 2365.96   1
  -8  -5   4 4497.39 977.625   2
  -8  -5   5-185.652 1211.58   1
  -8  -5   5-98.7539 637.897   2
  -8  -5   6 19468.1 2431.87   2
  -8  -5   6 13973.9 2462.71   1
  -8  -5   7 2109.01 1147.82   1
  -8  -5   7 2994.79 1234.13   2
  -8  -5   8 9668.86 2059.86   2
  -8  -5   9 9765.52 2252.68   2
  -8  -5  10 1725.34 1283.67   2
  -8  -4 -11 2896.12 1340.14   1
  -8  -4 -10 24702.5 3034.25   1
  -8  -4  -9-772.060 946.357   1
  -8  -4  -8 21665.0 2583.95   1
  -8  -4  -7 7027.94 1530.51   1
  -8  -4  -6 9848.86 1692.50   1
  -8  -4  -5 19758.0 2253.92   1
  -8  -4  -4 1177.95 225.867   3
  -8  -4  -4-2333.38 1347.25   1
  -8  -4  -3 25065.5 2463.97   1
  -8  -4  -3 29353.6 2257.86   4
  -8  -4  -2 27080.7 2657.14   1
  -8  -4  -2 27231.5 2003.23   4
  -8  -4  -1 8756.45 1014.78   4
  -8  -4  -1 9026.26 1723.87   1
  -8  -4   0 33260.2 3486.33   1
  -8  -4   0 29727.9 1702.86   4
  -8  -4   1-1076.54 1866.34   1
  -8  -4   2 30129.6 4301.62   1
  -8  -4   2 27944.0 1946.35   2
  -8  -4   3 10658.1 2798.78   1
  -8  -4   3 9863.74 1280.81   2
  -8  -4   4 12191.9 1552.85   2
  -8  -4   4 12703.6 2680.63   1
  -8  -4   5 15104.5 2602.04   1
  -8  -4   5 16109.4 1959.81   2
  -8  -4   6-282.195 753.634   2
  -8  -4   6-149.126 1181.98   1
  -8  -4   7 12086.3 2214.22   1
  -8  -4   7 13951.8 2203.89   2
  -8  -4   8 7035.14 1745.54   2
  -8  -4   9 3722.82 1527.56   2
  -8  -4  10 12126.8 2651.09   2
  -8  -3 -11 8767.15 1929.82   1
  -8  -3 -10 2067.72 1064.23   1
  -8  -3  -9 23630.0 2772.47   1
  -8  -3  -8 11505.8 1913.55   1
  -8  -3  -7 12317.1 1883.29   1
  -8  -3  -6 37211.2 3095.98   1
  -8  -3  -5-22.8101 550.673   1
  -8  -3  -4 43146.3 1955.05   3
  -8  -3  -4 39857.3 3107.86   1
  -8  -3  -3 13883.7 989.213   3
  -8  -3  -3 12802.9 1711.90   1
  -8  -3  -2 16857.6 1515.82   4
  -8  -3  -2 17117.9 2130.91   1
  -8  -3  -1 16655.1 1330.55   4
  -8  -3  -1 18324.0 2405.48   1
  -8  -3   0-28.0585 234.646   4
  -8  -3   0 3889.28 1850.25   1
  -8  -3   1 19817.5 3299.93   1
  -8  -3   2 11871.1 3019.66   1
  -8  -3   3 14267.6 2856.13   1
  -8  -3   3 13286.3 1510.52   2
  -8  -3   4 14239.3 2624.29   1
  -8  -3   4 17027.5 1861.50   2
  -8  -3   5-115.848 549.125   2
  -8  -3   5-3184.49 1798.97   1
  -8  -3   6 17648.0 2258.25   2
  -8  -3   6 13014.5 2177.00   1
  -8  -3   7-1712.20 1479.38   1
  -8  -3   7 4050.47 1205.56   2
  -8  -3   8 2377.48 1213.96   2
  -8  -3   9 9640.82 2123.92   2
  -8  -3  10-2070.66 1343.59   2
  -8  -2 -11 986.338 769.319   1
  -8  -2 -10 11411.3 2034.59   1
  -8  -2  -9 286.741 670.956   1
  -8  -2  -8 7225.42 1553.09   1
  -8  -2  -7 16586.2 2120.95   1
  -8  -2  -6-298.251 523.566   1
  -8  -2  -5 41426.6 2347.22   3
  -8  -2  -5 37889.8 2978.87   1
  -8  -2  -4 20780.7 1539.76   3
  -8  -2  -4 15848.5 1970.86   1
  -8  -2  -3 10947.9 1680.90   1
  -8  -2  -3 13976.8 1218.19   3
  -8  -2  -2 36730.8 1986.36   3
  -8  -2  -2 41800.6 3274.33   1
  -8  -2  -1 44.7515 278.717   4
  -8  -2  -1 3945.65 1602.34   1
  -8  -2   0 34539.8 3862.05   1
  -8  -2   0 25551.6 1312.55   4
  -8  -2   1 7443.70 2675.05   1
  -8  -2   2 5059.57 2268.26   1
  -8  -2   3 21571.9 3195.39   1
  -8  -2   4 245.469 492.810   2
  -8  -2   4-1668.51 1756.84   1
  -8  -2   5 16154.4 2024.35   2
  -8  -2   5 14548.5 2270.47   1
  -8  -2   6 5222.04 1425.27   1
  -8  -2   6 6310.09 1417.54   2
  -8  -2   7 7709.53 1689.32   2
  -8  -2   8 13452.4 2322.74   2
  -8  -2   9 42.0424 986.052   2
  -8  -2  10 9918.31 2288.44   2
  -8  -1 -12-1132.53 1159.57   1
  -8  -1 -11 14048.0 2296.85   1
  -8  -1 -10 4500.89 1289.29   1
  -8  -1  -9 9458.66 1645.02   1
  -8  -1  -8 10804.4 1727.64   1
  -8  -1  -7 538.754 730.353   1
  -8  -1  -6 19972.4 2167.88   1
  -8  -1  -5 10227.1 1466.18   1
  -8  -1  -4 20571.3 1734.08   3
  -8  -1  -4 19457.4 2071.32   1
  -8  -1  -3 34393.3 2812.28   1
  -8  -1  -3 36375.8 2257.99   3
  -8  -1  -2 2060.70 1139.64   1
  -8  -1  -2 111.125 332.565   3
  -8  -1  -1 47401.6 2613.35   3
  -8  -1  -1 53302.7 4270.71   1
  -8  -1   0 9715.24 2496.05   1
  -8  -1   1 17242.1 3261.87   1
  -8  -1   2 16031.6 2832.34   1
  -8  -1   3-122.169 1424.72   1
  -8  -1   4 5676.42 1446.74   1
  -8  -1   5 3141.90 1030.83   2
  -8  -1   5 1507.93 1011.51   1
  -8  -1   6 3341.56 1156.05   2
  -8  -1   6-1531.59 1574.68   1
  -8  -1   7 11984.5 2073.18   2
  -8  -1   8-219.745 705.036   2
  -8  -1   9 17284.9 2782.37   2
  -8   0 -11 525.200 905.952   1
  -8   0 -10 6348.52 1437.95   1
  -8   0  -9 5626.99 1360.55   1
  -8   0  -8 766.735 708.308   1
  -8   0  -7 16150.7 1940.67   1
  -8   0  -6 393.854 581.286   1
  -8   0  -5 8946.31 1348.40   1
  -8   0  -4 10975.7 1572.55   1
  -8   0  -3 1744.00 1126.54   1
  -8   0  -2 22856.3 1975.38   3
  -8   0  -2 27070.8 2862.29   1
  -8   0  -1 11970.2 1425.20   3
  -8   0  -1 11596.9 2643.06   1
  -8   0   0 15211.7 2933.63   1
  -8   0   1 25292.7 3479.24   1
  -8   0   2 1090.63 1312.63   1
  -8   0   3 17285.7 2409.06   1
  -8   0   4 511.109 1078.24   1
  -8   0   5 4304.45 1196.56   1
  -8   0   6 6170.28 1430.83   2
  -8   0   7-182.896 769.192   2
  -8   0   8 10186.6 2059.76   2
  -8   0   9 1671.51 1133.16   2
  -8   1  -9 453.606 538.424   1
  -8   1  -8 20358.1 2229.87   1
  -8   1  -7 4367.08 1054.97   1
  -8   1  -6 12020.7 1590.13   1
  -8   1  -5 13529.4 1664.38   1
  -8   1  -4 4073.67 1143.17   1
  -8   1  -3 20760.6 2461.70   1
  -8   1  -2 6793.80 2014.89   1
  -8   1  -1 10936.6 2661.63   1
  -8   1   0 17625.3 2807.31   1
  -8   1   1-963.838 1490.87   1
  -8   1   2 22306.0 2618.82   1
  -8   1   3 2946.36 1077.53   1
  -8   1   4 6327.92 1293.92   1
  -8   1   8 1546.73 956.240   2
  -8   2  -3 2271.66 1557.09   1
  -8   2  -2 14148.6 2590.45   1
  -8   2  -1 8288.11 1955.98   1
  -8   2   0 365.818 1143.75   1
  -8   2   1 9330.38 1670.61   1
  -8   2   2 848.880 887.755   1
  -7 -13  -2 2281.19 1433.27   1
  -7 -12  -6 876.102 883.282   1
  -7 -12  -5 3863.04 1429.69   1
  -7 -12  -4 56.5966 809.177   1
  -7 -12  -3 3663.16 1392.44   1
  -7 -12  -2 2908.68 1501.72   1
  -7 -12  -1-1165.27 1709.93   1
  -7 -12   0 3045.49 2011.68   1
  -7 -12   1 2141.84 1754.46   1
  -7 -12   2 4530.75 2174.09   1
  -7 -12   3 3736.31 1851.21   1
  -7 -12   4 1583.02 1356.51   1
  -7 -11  -8 4202.36 1487.62   1
  -7 -11  -7 497.251 791.345   1
  -7 -11  -6 8244.65 1735.63   1
  -7 -11  -5-600.722 940.427   1
  -7 -11  -4 8146.80 1700.00   1
  -7 -11  -3 1865.44 1081.10   1
  -7 -11  -2 763.026 1160.74   1
  -7 -11  -1 6031.04 2008.14   1
  -7 -11   0-321.337 1594.41   1
  -7 -11   1 1947.20 1889.96   1
  -7 -11   2 7304.70 2510.24   1
  -7 -11   3 2074.18 1923.12   1
  -7 -11   4 5680.85 2078.08   1
  -7 -11   5-222.153 1169.71   1
  -7 -10  -9 4305.44 1451.18   1
  -7 -10  -8 1552.96 962.837   1
  -7 -10  -7 8473.73 1769.18   1
  -7 -10  -6 797.735 899.604   1
  -7 -10  -5 8790.99 1706.48   1
  -7 -10  -4 6139.18 1493.89   1
  -7 -10  -3 1481.00 941.289   1
  -7 -10  -2 12571.3 2102.11   1
  -7 -10  -1 776.418 1100.74   1
  -7 -10   0 10952.5 2530.17   1
  -7 -10   1 4380.94 2019.09   1
  -7 -10   2 795.230 1526.59   1
  -7 -10   3 9074.94 2594.74   1
  -7 -10   4 1117.95 1572.71   1
  -7 -10   5 4736.10 1884.30   1
  -7 -10   6 4859.32 1817.47   1
  -7  -9 -10 3408.92 1372.19   1
  -7  -9  -9 4130.90 1387.40   1
  -7  -9  -8 7005.37 1674.32   1
  -7  -9  -7 641.748 756.956   1
  -7  -9  -6 6303.35 1433.64   1
  -7  -9  -5 6364.18 1460.40   1
  -7  -9  -4 130.168 879.041   1
  -7  -9  -3 18508.9 2316.23   1
  -7  -9  -2 86.3685 958.585   1
  -7  -9  -1 22982.5 2764.86   1
  -7  -9   0 12920.0 2632.30   1
  -7  -9   1 8527.77 1287.65   2
  -7  -9   1 6029.73 2502.23   1
  -7  -9   2 15724.8 3333.19   1
  -7  -9   2 20096.9 2271.12   2
  -7  -9   3 950.532 1440.15   1
  -7  -9   3 123.335 662.498   2
  -7  -9   4 10582.4 2676.76   1
  -7  -9   4 9727.51 1917.57   2
  -7  -9   5 5648.70 1725.37   2
  -7  -9   5 6057.64 1924.12   1
  -7  -9   6-564.943 1307.92   1
  -7  -9   6 1619.16 1106.83   2
  -7  -9   7 8458.36 2053.86   1
  -7  -9   7 14280.6 2734.55   2
  -7  -9   8-324.850 1125.80   2
  -7  -9   9 3959.26 1827.79   2
  -7  -8 -10 2619.07 1133.32   1
  -7  -8  -9 20240.6 2711.62   1
  -7  -8  -8-140.856 852.649   1
  -7  -8  -7 22831.8 2683.53   1
  -7  -8  -6 2160.62 991.645   1
  -7  -8  -5 9030.05 1647.00   1
  -7  -8  -4 10301.9 1657.49   1
  -7  -8  -3-1052.29 1099.81   1
  -7  -8  -2 12017.3 1844.98   1
  -7  -8  -1 15103.1 2189.77   1
  -7  -8   0 3356.47 479.034   2
  -7  -8   0 8539.85 2029.71   1
  -7  -8   1 29565.2 1966.62   2
  -7  -8   1 29816.8 3763.27   1
  -7  -8   2 257.061 1814.34   1
  -7  -8   2-273.357 524.959   2
  -7  -8   3 22146.8 2408.23   2
  -7  -8   3 18154.2 3446.66   1
  -7  -8   4 8166.32 2531.71   1
  -7  -8   4 6607.28 1633.01   2
  -7  -8   5 4406.95 1491.22   2
  -7  -8   5 6266.70 1887.42   1
  -7  -8   6 10774.8 2266.51   1
  -7  -8   6 15976.8 2718.76   2
  -7  -8   7 1408.96 1186.41   2
  -7  -8   7 363.584 1130.43   1
  -7  -8   8 9056.59 2294.47   2
  -7  -8   9 992.610 965.778   2
  -7  -8  10 2252.45 1429.18   2
  -7  -7 -11 2216.03 1186.55   1
  -7  -7 -10 10124.8 2016.28   1
  -7  -7  -9 135.223 341.395   3
  -7  -7  -9-357.387 787.735   1
  -7  -7  -8 14034.0 1341.29   3
  -7  -7  -8 16404.0 2327.83   1
  -7  -7  -7 15129.0 2138.80   1
  -7  -7  -7 10773.9 1066.59   3
  -7  -7  -6 8709.69 770.854   3
  -7  -7  -6 11091.8 1851.86   1
  -7  -7  -5 22651.2 2381.88   1
  -7  -7  -5 15457.1 679.497   3
  -7  -7  -4 1528.49 828.067   1
  -7  -7  -3 19496.4 2163.54   1
  -7  -7  -2 7088.38 1364.62   1
  -7  -7  -1 9711.52 1684.21   1
  -7  -7   0 35577.3 1382.51   2
  -7  -7   0 40050.7 3514.13   1
  -7  -7   1 977.359 377.246   2
  -7  -7   1 3984.94 1918.68   1
  -7  -7   2 22853.1 1866.82   2
  -7  -7   2 19497.6 3509.83   1
  -7  -7   3 14399.5 3133.68   1
  -7  -7   3 16991.4 1912.97   2
  -7  -7   4 12162.2 1898.14   2
  -7  -7   4 10975.9 2643.23   1
  -7  -7   5 20829.7 3152.08   1
  -7  -7   5 24251.7 2921.84   2
  -7  -7   6 399.682 831.794   2
  -7  -7   6-465.621 1426.04   1
  -7  -7   7 21560.6 3050.44   2
  -7  -7   7 19609.2 2783.67   1
  -7  -7   8 1228.14 1233.94   2
  -7  -7   9 3074.36 1569.70   2
  -7  -7  10 8382.57 2262.23   2
  -7  -6 -11 13817.6 2388.14   1
  -7  -6 -10 356.000 882.619   1
  -7  -6  -9 16312.1 2379.96   1
  -7  -6  -8 12721.7 2025.47   1
  -7  -6  -7 11373.0 1866.96   1
  -7  -6  -6 21774.7 1352.10   3
  -7  -6  -6 20296.6 1254.53   3
  -7  -6  -6 22534.0 2433.47   1
  -7  -6  -5 228.089 136.117   3
  -7  -6  -5-376.230 657.742   1
  -7  -6  -4 35052.8 2853.75   1
  -7  -6  -3 5149.13 1042.88   4
  -7  -6  -3 3358.20 950.246   1
  -7  -6  -2 24574.3 2413.27   1
  -7  -6  -2 24468.0 2036.47   4
  -7  -6  -1 22508.1 2371.75   1
  -7  -6  -1 21755.5 1810.70   4
  -7  -6   0 120.910 163.608   2
  -7  -6   0 1417.16 1221.48   1
  -7  -6   1 28465.0 1579.31   2
  -7  -6   1 34272.1 3645.41   1
  -7  -6   2 10893.4 1192.44   2
  -7  -6   2 7705.95 2202.08   1
  -7  -6   3 3088.79 786.777   2
  -7  -6   3 4238.75 2031.82   1
  -7  -6   4 37514.0 4286.00   1
  -7  -6   4 35368.7 2907.61   2
  -7  -6   5-322.141 1346.75   1
  -7  -6   5 1083.68 882.632   2
  -7  -6   6 24595.0 3004.04   2
  -7  -6   6 21797.1 2827.76   1
  -7  -6   7 6568.83 1742.33   2
  -7  -6   7 4419.23 1525.22   1
  -7  -6   8 7062.98 1925.10   2
  -7  -6   9 13897.5 2695.39   2
  -7  -6  10 2137.42 1591.47   2
  -7  -6  11 5811.50 1923.10   2
  -7  -5 -12 9598.81 2207.23   1
  -7  -5 -11 906.789 909.818   1
  -7  -5 -10 19867.4 2687.45   1
  -7  -5  -9 3764.67 1196.28   1
  -7  -5  -8 9974.55 1726.92   1
  -7  -5  -8 12155.9 1474.37   3
  -7  -5  -7 21690.2 2462.92   1
  -7  -5  -7 20375.8 1635.10   3
  -7  -5  -6-115.216 776.009   1
  -7  -5  -6 332.882 267.946   3
  -7  -5  -5 23256.2 1118.83   3
  -7  -5  -5 22417.4 2318.97   1
  -7  -5  -4 13311.6 1625.26   4
  -7  -5  -4 16386.7 1913.53   1
  -7  -5  -3 9538.06 1404.11   1
  -7  -5  -3 12019.7 1450.09   4
  -7  -5  -2 62966.0 3197.01   4
  -7  -5  -2 67174.7 3883.24   1
  -7  -5  -1 1220.64 884.969   1
  -7  -5  -1 1095.80 501.701   4
  -7  -5   0 56114.5 3911.04   1
  -7  -5   0 54161.9 2614.66   4
  -7  -5   1 6643.60 771.248   2
  -7  -5   1 11191.2 2359.43   1
  -7  -5   2 22584.3 1646.68   2
  -7  -5   2 26161.1 3538.17   1
  -7  -5   3 34596.6 2367.93   2
  -7  -5   3 30435.2 3904.59   1
  -7  -5   4 495.178 576.501   2
  -7  -5   4 3185.06 1927.59   1
  -7  -5   5 29626.2 3449.80   1
  -7  -5   5 32732.3 2952.16   2
  -7  -5   6 2649.71 1255.85   1
  -7  -5   6 8690.86 1769.62   2
  -7  -5   7 3805.37 1262.98   1
  -7  -5   7 4903.16 1462.86   2
  -7  -5   8 16580.8 2710.64   2
  -7  -5   9-233.774 998.668   2
  -7  -5  10 14871.4 2839.96   2
  -7  -5  11 1424.70 1272.72   2
  -7  -4 -12 2967.61 1221.16   1
  -7  -4 -11 29046.7 3327.91   1
  -7  -4 -10 5497.50 1491.55   1
  -7  -4  -9 22976.9 2676.72   1
  -7  -4  -8 57126.9 3216.14   3
  -7  -4  -8 48446.3 3781.34   1
  -7  -4  -7 8928.49 1559.11   1
  -7  -4  -7 9711.06 1194.81   3
  -7  -4  -6 33566.8 1907.92   3
  -7  -4  -6 35905.7 2921.75   1
  -7  -4  -5 1051.87 687.129   1
  -7  -4  -5 1066.42 316.009   3
  -7  -4  -4 14095.0 804.422   3
  -7  -4  -4 15063.0 1830.52   1
  -7  -4  -3 28471.7 2443.41   1
  -7  -4  -3 26844.6 2099.10   4
  -7  -4  -2 6318.08 1196.67   1
  -7  -4  -2 10235.9 1214.22   4
  -7  -4  -1 16656.4 1935.14   1
  -7  -4  -1 14101.7 1269.27   4
  -7  -4   0 17449.1 2213.47   1
  -7  -4   0 15639.8 1226.33   4
  -7  -4   1 24633.3 1561.16   2
  -7  -4   1 27977.4 3226.30   1
  -7  -4   2 41445.9 4270.50   1
  -7  -4   2 41120.0 2287.76   2
  -7  -4   3 3392.20 2044.06   1
  -7  -4   3 1932.06 671.489   2
  -7  -4   4 38902.4 3962.36   1
  -7  -4   4 35933.6 2666.52   2
  -7  -4   5 7586.62 1385.71   2
  -7  -4   5 5182.06 1842.06   1
  -7  -4   6 13279.4 2033.34   2
  -7  -4   6 9836.00 1943.19   1
  -7  -4   7 12549.5 2138.14   1
  -7  -4   7 12697.1 2189.25   2
  -7  -4   8 752.569 1013.22   2
  -7  -4   9 16182.7 2657.85   2
  -7  -4  10 5225.27 1699.31   2
  -7  -4  11 4136.40 1581.07   2
  -7  -3 -12 9020.59 1993.23   1
  -7  -3 -11 797.704 913.450   1
  -7  -3 -10 8301.49 1717.72   1
  -7  -3  -9 22448.7 2634.23   1
  -7  -3  -8 593.970 625.835   1
  -7  -3  -8 552.528 566.750   3
  -7  -3  -7 55965.5 3807.92   1
  -7  -3  -7 59908.8 3092.27   3
  -7  -3  -6 7899.05 1388.52   1
  -7  -3  -6 8872.54 1053.56   3
  -7  -3  -5 25602.0 2362.96   1
  -7  -3  -5 27950.2 1661.41   3
  -7  -3  -4 33722.1 1640.25   3
  -7  -3  -4 33588.4 2629.76   1
  -7  -3  -3-1123.95 984.518   1
  -7  -3  -3 1019.04 267.386   3
  -7  -3  -2 34615.1 1369.15   3
  -7  -3  -2 33411.2 2621.42   1
  -7  -3  -1 1897.75 481.892   4
  -7  -3  -1 1324.82 926.134   1
  -7  -3   0 8663.22 812.151   4
  -7  -3   0 10795.4 1847.88   1
  -7  -3   1 49417.5 4091.47   1
  -7  -3   2 1555.85 1576.26   1
  -7  -3   2 407.511 370.843   2
  -7  -3   3 68429.9 3407.80   2
  -7  -3   3 66494.2 5282.56   1
  -7  -3   4 7417.81 2018.00   1
  -7  -3   4 6806.03 1197.14   2
  -7  -3   5 31728.1 3269.82   1
  -7  -3   5 32948.8 2768.32   2
  -7  -3   6 17211.8 2270.50   2
  -7  -3   6 16997.8 2399.50   1
  -7  -3   7 2862.96 1220.44   2
  -7  -3   7-3001.25 1792.09   1
  -7  -3   8 17465.1 2595.37   2
  -7  -3   9 617.204 990.308   2
  -7  -3  10 2674.02 1247.69   2
  -7  -3  11 9615.65 2354.38   2
  -7  -2 -13 16208.9 2654.24   1
  -7  -2 -12 28.4599 918.021   1
  -7  -2 -11 13726.8 2253.53   1
  -7  -2 -10 12517.1 2035.04   1
  -7  -2  -9 2588.42 1019.65   1
  -7  -2  -8 40631.4 3275.07   1
  -7  -2  -8 45434.1 3031.25   3
  -7  -2  -7 3913.45 1059.32   1
  -7  -2  -7 5051.64 946.096   3
  -7  -2  -6 36294.2 2254.88   3
  -7  -2  -6 35192.8 2790.66   1
  -7  -2  -5 50175.4 2526.59   3
  -7  -2  -5 46823.8 3146.66   1
  -7  -2  -4 1794.20 454.015   3
  -7  -2  -4 2626.91 818.077   1
  -7  -2  -3 111795. 3582.59   3
  -7  -2  -3 110325. 4857.10   1
  -7  -2  -2 5012.72 655.663   3
  -7  -2  -2 5229.86 1084.77   1
  -7  -2  -1 12381.8 1007.52   3
  -7  -2  -1 12064.4 1673.79   1
  -7  -2   0 10834.2 860.516   4
  -7  -2   0 12336.3 2023.32   1
  -7  -2   1 4930.94 1942.41   1
  -7  -2   1 2657.55 309.693   4
  -7  -2   2 28938.3 3630.11   1
  -7  -2   2 30617.9 2121.21   2
  -7  -2   3 5756.92 1998.98   1
  -7  -2   3 2778.08 763.519   2
  -7  -2   4 13201.0 2159.51   1
  -7  -2   4 11975.2 1584.13   2
  -7  -2   5 35844.3 3292.08   1
  -7  -2   5 34379.2 2845.16   2
  -7  -2   6-1731.64 1650.63   1
  -7  -2   6 511.288 732.736   2
  -7  -2   7 31398.5 3114.84   2
  -7  -2   8 2528.83 1214.76   2
  -7  -2   9 11802.7 2258.74   2
  -7  -2  10 10023.1 2275.22   2
  -7  -2  11 773.091 909.398   2
  -7  -1 -13-27.2208 803.610   1
  -7  -1 -12 12742.6 2287.55   1
  -7  -1 -11 5889.48 1522.02   1
  -7  -1 -10 6363.36 1457.81   1
  -7  -1  -9 13753.5 1978.37   1
  -7  -1  -8 175.826 641.784   1
  -7  -1  -7 18712.7 1841.38   3
  -7  -1  -7 14662.8 1841.19   1
  -7  -1  -6 23360.9 1941.26   3
  -7  -1  -6 22014.3 2162.71   1
  -7  -1  -5 702.026 482.169   3
  -7  -1  -5 289.028 571.397   1
  -7  -1  -4 72135.5 3766.63   1
  -7  -1  -4 69623.0 3139.98   3
  -7  -1  -3 9158.74 1284.06   1
  -7  -1  -3 11122.9 1157.01   3
  -7  -1  -2 45291.3 2321.72   3
  -7  -1  -2 51012.8 3134.36   1
  -7  -1  -1 16789.8 1379.57   3
  -7  -1  -1 20398.4 2163.63   1
  -7  -1   0 12432.1 2308.53   1
  -7  -1   1 31490.5 3593.49   1
  -7  -1   2 2965.49 1964.42   1
  -7  -1   3 30619.4 3223.79   1
  -7  -1   3 23114.4 2049.77   2
  -7  -1   4 12850.0 2038.15   1
  -7  -1   4 12780.2 1632.21   2
  -7  -1   5-1387.35 1568.35   1
  -7  -1   5 266.045 488.279   2
  -7  -1   6 27705.6 2731.48   2
  -7  -1   6 20646.6 2500.09   1
  -7  -1   7 2703.75 1114.08   2
  -7  -1   8 13556.3 2252.68   2
  -7  -1   9 4511.19 1484.18   2
  -7  -1  10 3583.67 1527.65   2
  -7  -1  11 5738.17 1851.01   2
  -7   0 -13 6233.77 1837.14   1
  -7   0 -12 9826.09 2009.84   1
  -7   0 -11 1512.66 917.129   1
  -7   0 -10 29044.8 2920.51   1
  -7   0  -9 69.8616 665.753   1
  -7   0  -8 30822.8 2712.83   1
  -7   0  -7 13294.1 1719.24   1
  -7   0  -6 9327.67 1367.33   1
  -7   0  -5 35440.9 2573.31   1
  -7   0  -5 35488.9 2484.64   3
  -7   0  -4 4345.08 808.946   3
  -7   0  -4 1631.81 659.125   1
  -7   0  -3 36222.7 2340.64   3
  -7   0  -3 38323.9 2621.73   1
  -7   0  -2 12716.6 1649.37   1
  -7   0  -2 11903.4 1292.77   3
  -7   0  -1 4655.04 817.940   3
  -7   0  -1 6495.19 1700.70   1
  -7   0   0 40709.4 2454.62   3
  -7   0   0 42558.4 3760.93   1
  -7   0   1 4063.29 1834.69   1
  -7   0   2 40185.9 3634.42   1
  -7   0   3 6691.20 1508.72   1
  -7   0   4-2074.06 1624.23   1
  -7   0   5 14919.0 2061.90   1
  -7   0   5 18448.9 2156.86   2
  -7   0   6 1824.42 858.178   2
  -7   0   7 10446.1 1834.59   2
  -7   0   8 10585.8 1972.35   2
  -7   0   9 1213.87 991.233   2
  -7   0  10 11488.7 2341.02   2
  -7   1 -12 2979.14 1258.96   1
  -7   1 -11 8884.84 1695.09   1
  -7   1 -10 212.425 623.419   1
  -7   1  -9 15403.3 1995.48   1
  -7   1  -8 10190.5 1537.05   1
  -7   1  -7 7676.05 1272.57   1
  -7   1  -6 38349.2 2677.36   1
  -7   1  -5-889.287 915.549   1
  -7   1  -4 22710.5 1968.01   1
  -7   1  -3 13010.7 1535.80   3
  -7   1  -3 16990.8 1775.74   1
  -7   1  -2 8649.88 1536.48   1
  -7   1  -2 4203.96 880.166   3
  -7   1  -1 29184.4 2237.78   3
  -7   1  -1 31742.7 3150.31   1
  -7   1   0 1373.19 522.627   3
  -7   1   0 1054.31 1477.10   1
  -7   1   1 30929.8 1308.62   4
  -7   1   1 31243.2 3329.47   1
  -7   1   1 30584.3 2343.58   3
  -7   1   2 14131.7 2104.06   1
  -7   1   3 8580.80 1570.04   1
  -7   1   4 21303.3 2335.30   1
  -7   1   6 17221.4 2261.41   2
  -7   1   7 4407.32 1275.06   2
  -7   1   8 3556.71 1232.63   2
  -7   1   9 9634.61 2091.02   2
  -7   1  10-284.305 816.928   2
  -7   2  -9 3780.50 1014.16   1
  -7   2  -8 2238.65 757.578   1
  -7   2  -7 23938.7 2119.06   1
  -7   2  -6 395.478 537.283   1
  -7   2  -5 34735.0 2389.46   1
  -7   2  -4 10663.0 1362.10   1
  -7   2  -3 14498.2 1845.74   1
  -7   2  -2 25449.3 2798.28   1
  -7   2  -1 2016.42 1713.03   1
  -7   2   0 14308.1 2192.05   1
  -7   2   1 3108.07 1092.30   1
  -7   2   1 5568.46 636.832   4
  -7   2   2 2552.39 982.629   1
  -7   2   3 5512.59 915.103   1
  -7   2   8 18406.9 2616.21   2
  -7   2   9-222.304 822.160   2
  -7   3   1 8505.24 906.532   4
  -7   3   1 4963.43 911.079   1
  -6 -12  -8 1316.52 952.660   1
  -6 -12  -7-658.434 708.289   1
  -6 -12  -6 2305.20 1050.68   1
  -6 -12  -5 852.317 724.278   1
  -6 -12  -4 1409.73 932.797   1
  -6 -12  -3 3577.29 1326.19   1
  -6 -12  -2 1511.68 1228.59   1
  -6 -12  -1 2910.23 1580.42   1
  -6 -12   0 2705.59 1847.05   1
  -6 -12   1 3100.52 1976.04   1
  -6 -12   2 8722.51 2337.65   1
  -6 -12   3 1098.72 1471.10   1
  -6 -12   4 2817.88 1375.03   1
  -6 -12   5 1713.82 1236.32   1
  -6 -11  -9 4075.33 1356.58   1
  -6 -11  -8 440.100 703.672   1
  -6 -11  -7 4170.65 1268.19   1
  -6 -11  -6 2352.50 949.515   1
  -6 -11  -5 2054.79 1015.91   1
  -6 -11  -4 8260.21 1622.12   1
  -6 -11  -3 1081.26 810.167   1
  -6 -11  -2 3385.90 1267.33   1
  -6 -11  -1 4301.74 1572.35   1
  -6 -11   0 1670.39 1628.64   1
  -6 -11   1 5795.80 2245.69   1
  -6 -11   2 764.622 819.645   2
  -6 -11   2-1122.27 1645.20   1
  -6 -11   3 9421.56 1966.79   2
  -6 -11   3 6636.87 2039.83   1
  -6 -11   4 2354.93 1247.21   2
  -6 -11   4 2263.22 1311.29   1
  -6 -11   5 2132.02 1258.71   2
  -6 -11   5 300.196 1007.15   1
  -6 -11   6 5594.48 1648.19   1
  -6 -11   6 7175.48 1961.64   2
  -6 -11   7-931.473 1129.36   2
  -6 -10 -10 4736.61 1492.08   1
  -6 -10  -9-529.963 758.488   1
  -6 -10  -8 4276.57 1266.79   1
  -6 -10  -7 3598.89 1193.50   1
  -6 -10  -6 4441.69 1303.20   1
  -6 -10  -5 14109.4 1343.71   3
  -6 -10  -5 15923.4 2078.96   1
  -6 -10  -4-1182.93 906.544   1
  -6 -10  -4 231.944 348.131   3
  -6 -10  -3 13515.6 1926.01   1
  -6 -10  -3 11036.4 1128.30   3
  -6 -10  -2 4606.28 773.499   3
  -6 -10  -2 4557.61 1262.16   1
  -6 -10  -1 10469.8 1142.45   3
  -6 -10  -1 9501.61 1936.93   1
  -6 -10  -1 12387.5 1621.23   2
  -6 -10   0 13546.2 2647.30   1
  -6 -10   0 13167.3 1861.54   2
  -6 -10   0 9833.99 1161.47   3
  -6 -10   1-1028.08 1593.59   1
  -6 -10   1-408.866 741.988   2
  -6 -10   2 16062.0 2353.58   2
  -6 -10   2 9114.78 2519.13   1
  -6 -10   3 2018.99 1157.71   2
  -6 -10   3 2446.67 1793.73   1
  -6 -10   4-150.633 1071.59   1
  -6 -10   4 870.063 910.878   2
  -6 -10   5 10154.9 2173.32   2
  -6 -10   5 7410.83 1827.94   1
  -6 -10   6 585.044 940.873   2
  -6 -10   6-2050.49 1383.19   1
  -6 -10   7 7487.89 2041.61   2
  -6 -10   8 4286.05 1536.66   2
  -6  -9 -11 8912.04 1924.73   1
  -6  -9 -10 680.280 543.204   3
  -6  -9 -10 1024.23 797.120   1
  -6  -9  -9 10929.4 1981.94   1
  -6  -9  -9 11857.5 1507.68   3
  -6  -9  -8 456.423 382.277   3
  -6  -9  -8 719.602 880.091   1
  -6  -9  -7 7341.53 1076.66   3
  -6  -9  -7 7837.77 1602.60   1
  -6  -9  -6 8018.38 1547.95   1
  -6  -9  -6 6669.00 938.509   3
  -6  -9  -5-710.934 693.890   1
  -6  -9  -5 386.315 327.982   3
  -6  -9  -4 9168.55 1534.25   1
  -6  -9  -4 11329.8 1019.32   3
  -6  -9  -3 3921.90 567.520   2
  -6  -9  -3 4461.84 638.191   3
  -6  -9  -3 3073.56 948.731   1
  -6  -9  -2 3869.46 754.348   2
  -6  -9  -2 2348.10 881.046   1
  -6  -9  -2 3514.13 552.905   3
  -6  -9  -1 23536.3 2086.86   2
  -6  -9  -1 22725.1 2560.91   1
  -6  -9  -1 22030.8 1395.04   3
  -6  -9   0 151.802 314.662   3
  -6  -9   0 549.215 642.864   2
  -6  -9   1 28702.5 2751.00   2
  -6  -9   1 16348.3 2955.10   1
  -6  -9   2 6003.17 2287.13   1
  -6  -9   2 4610.25 1298.70   2
  -6  -9   3 11867.1 2165.21   2
  -6  -9   3 12448.3 2783.69   1
  -6  -9   4 9383.52 2307.18   1
  -6  -9   4 11944.6 2084.17   2
  -6  -9   5 985.498 1090.09   1
  -6  -9   5 694.378 907.581   2
  -6  -9   6 11592.6 2130.92   1
  -6  -9   6 8302.64 2070.61   2
  -6  -9   7 4535.63 1463.26   1
  -6  -9   7 9079.81 2177.12   2
  -6  -9   8 5396.83 1798.82   2
  -6  -9   9 8890.87 2357.05   2
  -6  -8 -12 3828.37 956.660   3
  -6  -8 -11-994.967 1106.60   1
  -6  -8 -11-725.791 582.684   3
  -6  -8 -10 7761.77 1232.64   3
  -6  -8 -10 11488.8 2050.73   1
  -6  -8  -9 3854.59 897.797   3
  -6  -8  -9 4751.14 1341.11   1
  -6  -8  -8 17759.8 2342.40   1
  -6  -8  -8 14047.8 1487.11   3
  -6  -8  -7 16840.8 2191.51   1
  -6  -8  -7 14794.2 1435.98   3
  -6  -8  -6 1755.71 847.493   1
  -6  -8  -6 2707.42 585.639   3
  -6  -8  -5 27743.5 2605.72   1
  -6  -8  -5 26407.3 1540.27   3
  -6  -8  -4 2229.77 852.941   1
  -6  -8  -4 1983.53 393.266   3
  -6  -8  -3 8363.39 686.740   3
  -6  -8  -3 7626.16 1333.21   1
  -6  -8  -2 20996.0 1036.78   3
  -6  -8  -2 22732.6 821.389   2
  -6  -8  -2 19944.1 902.783   2
  -6  -8  -1 255.278 811.681   1
  -6  -8  -1 264.695 330.893   2
  -6  -8   0 36631.5 2536.45   2
  -6  -8   0 32133.0 3092.56   1
  -6  -8   1 12211.2 2413.39   1
  -6  -8   1 12524.4 1733.79   2
  -6  -8   2 26242.5 3730.97   1
  -6  -8   2 35918.1 3096.06   2
  -6  -8   3 11709.0 2007.86   2
  -6  -8   3 10419.9 2715.18   1
  -6  -8   4 3501.96 1362.47   2
  -6  -8   4 3806.80 1875.74   1
  -6  -8   5 17836.5 2678.82   1
  -6  -8   5 19928.7 2751.09   2
  -6  -8   6 1254.56 1034.08   2
  -6  -8   6 1120.32 1098.61   1
  -6  -8   7 2165.97 1045.75   1
  -6  -8   7 5923.16 1810.84   2
  -6  -8   8 11395.4 2399.14   2
  -6  -8   9 368.747 974.395   2
  -6  -8  10 9214.18 2242.04   2
  -6  -7 -12-395.223 887.846   1
  -6  -7 -11 12628.6 2287.43   1
  -6  -7 -10 1248.23 886.868   1
  -6  -7  -9 12545.5 2009.02   1
  -6  -7  -9 8503.51 1185.57   3
  -6  -7  -8 15418.2 1510.51   3
  -6  -7  -8 15484.8 2206.43   1
  -6  -7  -7 3110.88 675.262   3
  -6  -7  -7 3636.82 1092.18   1
  -6  -7  -6 37683.1 3038.61   1
  -6  -7  -6 33075.9 1870.68   3
  -6  -7  -5-382.517 661.669   1
  -6  -7  -5 445.081 288.846   3
  -6  -7  -4 25764.0 2349.78   1
  -6  -7  -4 22324.7 1074.97   3
  -6  -7  -3 9178.02 526.851   3
  -6  -7  -3 8464.62 433.895   3
  -6  -7  -2 3877.56 957.234   1
  -6  -7  -2 2715.45 772.922   4
  -6  -7  -1 22032.9 982.463   2
  -6  -7  -1 23771.1 2269.34   1
  -6  -7   0 15019.5 1262.23   2
  -6  -7   0 16691.8 2152.73   1
  -6  -7   1 9448.76 1320.05   2
  -6  -7   1 10076.4 2240.68   1
  -6  -7   2 50374.4 3383.81   2
  -6  -7   2 35326.3 4170.92   1
  -6  -7   3-2060.24 1591.86   1
  -6  -7   3 358.241 732.028   2
  -6  -7   4 23681.4 2845.92   2
  -6  -7   4 21722.0 3141.10   1
  -6  -7   5 4736.06 1434.20   2
  -6  -7   5 4065.41 1616.94   1
  -6  -7   6 18809.8 2745.24   2
  -6  -7   6 13476.6 2227.46   1
  -6  -7   7 14182.5 2292.34   1
  -6  -7   7 26289.9 3292.62   2
  -6  -7   8 4386.03 1597.90   2
  -6  -7   9 6462.43 1845.64   2
  -6  -7  10 9443.06 2265.31   2
  -6  -7  11 5830.63 2016.90   2
  -6  -6 -12 7046.89 1745.22   1
  -6  -6 -11-411.461 883.526   1
  -6  -6 -10 6737.36 1579.07   1
  -6  -6  -9 13543.2 2134.66   1
  -6  -6  -9 13847.8 1985.98   3
  -6  -6  -8-62.4298 567.280   3
  -6  -6  -8-252.886 836.967   1
  -6  -6  -7 38127.2 3145.79   1
  -6  -6  -7 38193.0 2774.55   3
  -6  -6  -6 10380.2 1258.07   3
  -6  -6  -6 9123.04 1511.59   1
  -6  -6  -6 8872.41 925.149   3
  -6  -6  -5 35949.4 1914.35   3
  -6  -6  -5 32325.7 1559.55   3
  -6  -6  -5 31764.5 2669.39   1
  -6  -6  -4 50399.4 1709.65   3
  -6  -6  -4 47885.5 1502.14   3
  -6  -6  -4 49126.8 3221.73   1
  -6  -6  -3 14657.5 1625.89   4
  -6  -6  -3 12706.2 1635.82   1
  -6  -6  -2 76707.0 3650.76   4
  -6  -6  -2 74148.8 3922.25   1
  -6  -6  -1 363.546 751.964   1
  -6  -6  -1 2359.39 733.355   4
  -6  -6   0 44981.0 3186.46   1
  -6  -6   0 43730.5 1763.44   2
  -6  -6   1 30053.8 1893.95   2
  -6  -6   1 29998.0 3060.23   1
  -6  -6   2 4706.37 1715.36   1
  -6  -6   2 5584.91 1062.80   2
  -6  -6   3 27510.4 3657.15   1
  -6  -6   3 30187.3 2647.20   2
  -6  -6   4 11801.4 2510.86   1
  -6  -6   4 7224.31 1573.72   2
  -6  -6   5 17835.8 2401.85   2
  -6  -6   5 16670.7 2469.77   1
  -6  -6   6 24834.1 2915.10   1
  -6  -6   6 28580.1 3264.24   2
  -6  -6   7 7820.57 1828.09   2
  -6  -6   7 3433.80 1267.45   1
  -6  -6   8 9208.14 2162.40   2
  -6  -6   9 3734.52 1486.66   2
  -6  -6  10 5907.54 1917.02   2
  -6  -6  11 7386.48 1984.66   2
  -6  -5 -13 16305.6 2612.48   1
  -6  -5 -12 2401.97 1196.62   1
  -6  -5 -11 29093.7 3252.16   1
  -6  -5 -10 17683.3 2419.30   1
  -6  -5  -9 6881.85 1564.97   1
  -6  -5  -9 7935.31 1518.11   3
  -6  -5  -8 26583.9 2415.20   3
  -6  -5  -8 25293.7 2650.29   1
  -6  -5  -7 411.712 646.532   1
  -6  -5  -7-280.924 549.905   3
  -6  -5  -6 23847.3 2344.25   1
  -6  -5  -6 22043.4 1707.45   3
  -6  -5  -5 13430.1 1050.74   3
  -6  -5  -5 14623.0 1674.59   4
  -6  -5  -5 14414.7 1747.30   1
  -6  -5  -4 7831.52 1331.28   1
  -6  -5  -4 7879.90 566.169   3
  -6  -5  -4 7458.10 1170.40   4
  -6  -5  -4 6916.96 531.635   3
  -6  -5  -3 62876.8 3455.49   1
  -6  -5  -3 58418.9 3200.77   4
  -6  -5  -2 5374.37 905.902   4
  -6  -5  -2 4504.47 996.476   1
  -6  -5  -1 60822.1 3429.90   1
  -6  -5  -1 60203.1 2856.79   4
  -6  -5   0 42171.9 1609.60   2
  -6  -5   0 46931.5 3136.19   1
  -6  -5   0 40968.9 2229.54   4
  -6  -5   1 7494.44 831.807   2
  -6  -5   1 10698.5 1931.12   1
  -6  -5   2 47012.7 2581.02   2
  -6  -5   2 45488.1 4151.09   1
  -6  -5   3 3652.90 1764.78   1
  -6  -5   3 2494.89 813.271   2
  -6  -5   4 27145.2 2566.05   2
  -6  -5   4 29487.1 3469.94   1
  -6  -5   5 33671.8 3118.22   2
  -6  -5   5 30582.2 3233.56   1
  -6  -5   6 91.5119 824.811   2
  -6  -5   6-425.293 1114.65   1
  -6  -5   7 33609.0 3241.60   1
  -6  -5   7 42895.8 3956.24   2
  -6  -5   8 881.941 1069.47   2
  -6  -5   9 5867.39 1805.71   2
  -6  -5  10 12497.7 2434.57   2
  -6  -5  11 2066.05 1167.59   2
  -6  -4 -13 546.285 822.306   1
  -6  -4 -12 7996.36 1822.12   1
  -6  -4 -11 20085.3 2711.71   1
  -6  -4 -10 5244.61 1433.06   1
  -6  -4  -9 38996.3 3423.26   1
  -6  -4  -9 48345.6 3520.57   3
  -6  -4  -8 2128.61 934.746   1
  -6  -4  -8 3486.51 973.278   3
  -6  -4  -7 35254.9 2910.37   1
  -6  -4  -7 34221.1 2362.18   3
  -6  -4  -6 16024.7 1894.86   1
  -6  -4  -6 15066.4 1359.64   3
  -6  -4  -5 5361.61 683.909   3
  -6  -4  -5 4523.24 1041.49   1
  -6  -4  -4 37484.8 1492.53   3
  -6  -4  -4 37613.6 2677.88   1
  -6  -4  -3 4523.18 869.756   4
  -6  -4  -3 5895.30 1067.80   1
  -6  -4  -2 58422.3 2885.72   4
  -6  -4  -2 56577.9 3200.88   1
  -6  -4  -1 90576.8 3439.13   4
  -6  -4  -1 86695.6 4102.83   1
  -6  -4   0 15497.1 1217.47   4
  -6  -4   0 15435.1 963.101   2
  -6  -4   0 17081.4 1885.90   1
  -6  -4   1 85176.7 4801.74   1
  -6  -4   1 82761.5 2934.41   2
  -6  -4   2 968.511 1226.70   1
  -6  -4   2 1284.86 521.203   2
  -6  -4   3 61263.6 4878.19   1
  -6  -4   3 62988.7 3257.00   2
  -6  -4   4 19349.3 2041.10   2
  -6  -4   4 18472.0 2747.85   1
  -6  -4   5 14335.7 1950.87   2
  -6  -4   5 15176.9 2296.20   1
  -6  -4   6 32667.2 3140.61   2
  -6  -4   6 34788.9 3201.21   1
  -6  -4   7-610.127 1052.92   2
  -6  -4   7-3814.58 1838.61   1
  -6  -4   8 5612.86 1708.40   2
  -6  -4   9 15411.4 2642.06   2
  -6  -4  10-21.4697 946.002   2
  -6  -4  11 14584.2 2777.13   2
  -6  -4  12 56.7838 1173.22   2
  -6  -3 -13 10715.4 2154.71   1
  -6  -3 -12 11406.1 2094.94   1
  -6  -3 -11 5918.82 1554.27   1
  -6  -3 -10 39824.0 3587.08   1
  -6  -3  -9 3000.16 940.304   3
  -6  -3  -9 2361.58 927.905   1
  -6  -3  -8 59164.7 3967.32   1
  -6  -3  -8 63615.4 3606.17   3
  -6  -3  -7 19502.1 2133.44   1
  -6  -3  -7 20820.0 1805.55   3
  -6  -3  -6 16021.2 1413.73   3
  -6  -3  -6 14346.5 1755.52   1
  -6  -3  -5 47853.0 3020.93   1
  -6  -3  -5 42994.4 2109.02   3
  -6  -3  -4 2840.78 929.632   1
  -6  -3  -4 2184.24 441.024   3
  -6  -3  -3 45049.0 2806.81   1
  -6  -3  -3 46863.2 1666.54   3
  -6  -3  -2 23144.0 942.927   3
  -6  -3  -2 22742.3 1910.90   1
  -6  -3  -1 4175.16 970.531   1
  -6  -3  -1 6977.33 854.626   4
  -6  -3   0 70497.1 2543.11   4
  -6  -3   0 72778.7 3816.83   1
  -6  -3   1 5887.92 768.712   2
  -6  -3   1 11136.3 2008.48   1
  -6  -3   2 47082.3 2433.33   2
  -6  -3   2 48494.5 4054.59   1
  -6  -3   3 55975.8 2983.86   2
  -6  -3   3 57717.7 4560.49   1
  -6  -3   4 13431.2 2366.89   1
  -6  -3   4 12212.6 1560.59   2
  -6  -3   5 68213.2 4039.57   2
  -6  -3   5 65016.3 4393.07   1
  -6  -3   6-950.413 1287.74   1
  -6  -3   6 54.0667 762.555   2
  -6  -3   7 33962.3 3298.72   2
  -6  -3   7 28070.9 2842.68   1
  -6  -3   8 13465.6 2211.59   2
  -6  -3   9 3807.52 1381.93   2
  -6  -3  10 15364.2 2639.72   2
  -6  -3  11 1053.95 1021.99   2
  -6  -3  12 11138.9 2400.31   2
  -6  -2 -13 3714.22 1341.29   1
  -6  -2 -12 9701.39 1996.56   1
  -6  -2 -11 16081.8 2380.89   1
  -6  -2 -10 787.478 873.571   1
  -6  -2  -9 22639.4 2560.75   1
  -6  -2  -8 25480.4 2503.71   1
  -6  -2  -8 22376.9 2094.13   3
  -6  -2  -7 7528.25 1137.16   3
  -6  -2  -7 6978.29 1273.28   1
  -6  -2  -6 61294.4 3559.89   1
  -6  -2  -6 61456.7 3008.12   3
  -6  -2  -5 594.812 584.581   1
  -6  -2  -5 342.361 349.704   3
  -6  -2  -4 76397.0 2876.83   3
  -6  -2  -4 79156.5 3794.62   1
  -6  -2  -3 40736.4 2584.26   1
  -6  -2  -3 40751.1 1832.87   3
  -6  -2  -2 33853.2 2331.39   1
  -6  -2  -2 35652.1 1577.28   3
  -6  -2  -1 49507.6 1897.60   3
  -6  -2  -1 50501.1 2909.77   1
  -6  -2   0 3088.39 1116.26   1
  -6  -2   0 364.491 251.798   4
  -6  -2   1 42990.9 2199.76   2
  -6  -2   1 48262.1 3596.94   1
  -6  -2   1 43087.2 1464.88   4
  -6  -2   2 27843.4 3180.26   1
  -6  -2   2 30895.4 1998.20   2
  -6  -2   3 12346.3 1395.95   2
  -6  -2   3 14493.8 2505.86   1
  -6  -2   4 63619.0 3502.46   2
  -6  -2   4 72777.9 4630.67   1
  -6  -2   5 338.293 617.160   2
  -6  -2   5-206.414 1226.98   1
  -6  -2   6 37804.0 3151.10   2
  -6  -2   6 38955.3 3235.52   1
  -6  -2   7 12122.4 1939.74   2
  -6  -2   8 9501.45 1878.90   2
  -6  -2   9 15317.8 2454.60   2
  -6  -2  10-113.746 757.707   2
  -6  -2  11 7797.66 2004.62   2
  -6  -2  12 4125.70 1705.54   2
  -6  -1 -13 7352.08 1734.56   1
  -6  -1 -12 24853.1 3054.37   1
  -6  -1 -11-16.2048 810.934   1
  -6  -1 -10 34885.7 3252.39   1
  -6  -1  -9 14311.2 1953.25   1
  -6  -1  -8 25099.0 2464.13   1
  -6  -1  -8 28831.3 2448.67   3
  -6  -1  -7 17037.8 1729.77   3
  -6  -1  -7 16785.5 1870.07   1
  -6  -1  -6 237.642 463.558   3
  -6  -1  -6 97.3054 528.363   1
  -6  -1  -5 36494.2 2206.75   3
  -6  -1  -5 37309.1 2548.61   1
  -6  -1  -4 27814.1 1792.81   3
  -6  -1  -4 25999.4 2080.69   1
  -6  -1  -3 36149.8 2370.17   1
  -6  -1  -3 33197.7 1856.84   3
  -6  -1  -2 39365.0 2446.39   1
  -6  -1  -2 37905.8 1913.95   3
  -6  -1  -1 3641.35 858.091   1
  -6  -1  -1 3590.79 587.896   3
  -6  -1   0 65335.3 3716.99   1
  -6  -1   0 72172.0 2760.46   3
  -6  -1   1 26335.2 2831.09   1
  -6  -1   1 27889.3 1026.31   4
  -6  -1   2 12254.9 1315.33   2
  -6  -1   2 13163.9 2398.29   1
  -6  -1   3 45148.4 3741.23   1
  -6  -1   3 45058.8 2730.02   2
  -6  -1   4-337.953 1194.79   1
  -6  -1   4 417.469 568.321   2
  -6  -1   5 38512.3 2930.22   2
  -6  -1   5 41628.6 3275.49   1
  -6  -1   6 16772.2 2035.88   1
  -6  -1   6 18995.5 2187.79   2
  -6  -1   7 4776.21 1259.79   2
  -6  -1   8 37385.2 3487.09   2
  -6  -1   9 109.176 764.737   2
  -6  -1  10 20898.4 2957.08   2
  -6  -1  11 5041.05 1723.70   2
  -6  -1  12 4107.40 1692.85   2
  -6   0 -14 5928.81 1801.02   1
  -6   0 -13 7754.35 1879.64   1
  -6   0 -12-209.143 717.177   1
  -6   0 -11 24508.5 2836.35   1
  -6   0 -10 13426.8 1989.20   1
  -6   0  -9 17636.9 2111.42   1
  -6   0  -8 43261.9 3116.02   1
  -6   0  -7 291.239 541.205   1
  -6   0  -6 34042.9 2473.29   1
  -6   0  -6 33764.5 2424.97   3
  -6   0  -5 11290.9 1371.18   1
  -6   0  -5 13379.5 1437.69   3
  -6   0  -4 10866.7 1231.22   3
  -6   0  -4 13507.3 1441.57   1
  -6   0  -3 48523.7 2693.26   1
  -6   0  -3 52206.8 2627.58   3
  -6   0  -2 1952.20 537.127   3
  -6   0  -2 1461.32 615.067   1
  -6   0  -1 55141.9 2623.06   3
  -6   0  -1 60034.4 3162.08   1
  -6   0   0 33382.1 2013.10   3
  -6   0   0 37435.1 3040.85   1
  -6   0   1 43481.8 3760.57   1
  -6   0   1 45847.1 2444.76   3
  -6   0   2 72996.3 4706.14   1
  -6   0   3 4214.49 943.163   2
  -6   0   3 1575.68 1123.29   1
  -6   0   4 43521.8 3239.78   1
  -6   0   4 46039.6 3039.14   2
  -6   0   5-1103.17 1520.67   1
  -6   0   5 3574.61 1032.40   2
  -6   0   6 4430.87 1170.53   2
  -6   0   7 16261.9 2205.64   2
  -6   0   8-96.2068 768.074   2
  -6   0   9 14706.3 2355.07   2
  -6   0  10 6710.75 1783.43   2
  -6   0  11 3570.07 1471.91   2
  -6   1 -13 283.166 838.466   1
  -6   1 -12 16591.6 2451.21   1
  -6   1 -11 4497.42 1249.19   1
  -6   1 -10 13349.7 1935.22   1
  -6   1  -9 37199.3 3027.23   1
  -6   1  -8 2514.81 796.311   1
  -6   1  -7 49680.5 3104.43   1
  -6   1  -6 6478.99 1101.76   1
  -6   1  -5 22218.9 2007.30   3
  -6   1  -5 23618.7 1907.07   1
  -6   1  -4 46623.7 2787.81   3
  -6   1  -4 42398.8 2500.89   1
  -6   1  -3 24229.6 1919.77   3
  -6   1  -3 22110.0 1724.63   1
  -6   1  -2 2686.13 672.987   3
  -6   1  -1 8970.38 1118.74   3
  -6   1   0 11828.6 1319.72   3
  -6   1   1 45683.5 2661.56   3
  -6   1   1 46472.7 3638.66   1
  -6   1   2-5.28157 88.4370   4
  -6   1   2-660.081 1019.14   1
  -6   1   3 49607.1 3326.87   1
  -6   1   4 17030.6 1906.14   1
  -6   1   5 16157.5 1989.00   2
  -6   1   6 25196.3 2588.42   2
  -6   1   7 287.139 712.289   2
  -6   1   8 17393.2 2415.18   2
  -6   1   9 5390.69 1458.15   2
  -6   1  10 2846.20 1305.85   2
  -6   1  11 7852.22 2018.32   2
  -6   2 -12 590.892 768.958   1
  -6   2 -11 8833.99 1707.62   1
  -6   2 -10 10857.4 1733.71   1
  -6   2  -9 584.774 607.350   1
  -6   2  -8 25971.8 2280.03   1
  -6   2  -7 14531.2 1600.01   1
  -6   2  -6 16412.0 1608.88   1
  -6   2  -5 61424.6 3017.67   1
  -6   2  -2-315.467 441.339   3
  -6   2  -1 13976.8 1556.63   3
  -6   2   0 18876.1 1792.54   3
  -6   2   1 171.738 383.041   3
  -6   2   2 41082.0 2809.49   1
  -6   2   2 42312.6 2806.98   3
  -6   2   2 37784.2 1530.68   4
  -6   2   3 6710.07 1154.58   1
  -6   2   6 2049.62 962.981   2
  -6   2   7 25405.5 2783.41   2
  -6   2   8 1801.23 892.551   2
  -6   2   9 7247.64 1676.94   2
  -6   2  10 5136.52 1634.22   2
  -6   3  -9 18506.1 1985.43   1
  -6   3  -8 553.489 472.169   1
  -6   3  -7 15797.3 1580.34   1
  -6   3  -6 24141.5 1831.87   1
  -6   3  -3-125.397 178.008   1
  -6   3  -2 12026.8 1512.97   1
  -6   3  -1 16858.5 1796.44   1
  -6   3   0-23.6383 221.771   1
  -6   3   1 25701.5 1592.53   4
  -6   3   2 15.8260 287.633   4
  -6   3   3 4698.19 582.203   4
  -6   3   8 8170.09 1754.34   2
  -6   3   9 8178.00 1819.68   2
  -6   4  -2 22193.7 1692.97   1
  -6   4  -1 957.182 490.343   1
  -6   4   1 1311.94 488.713   4
  -6   4   2 18807.9 1438.95   4
  -6   4   3 6063.94 794.602   4
  -6   5   0 2456.24 714.888   4
  -6   5   1 10149.3 1224.19   4
  -6   5   2 7088.93 1021.13   4
  -6   6   0 7709.51 1255.47   4
  -6   6   1 5507.70 1038.67   4
  -6   7  -1 7510.45 1394.32   4
  -5 -12  -9 4316.56 1305.92   1
  -5 -12  -8 758.902 805.535   1
  -5 -12  -7 1618.65 923.860   1
  -5 -12  -6 2450.61 944.816   1
  -5 -12  -5-420.323 661.696   1
  -5 -12  -4 2770.25 1039.59   1
  -5 -12  -3 1555.09 851.799   1
  -5 -12  -2 2890.40 1319.55   1
  -5 -12  -1 3963.75 1756.25   1
  -5 -12   0 884.267 1368.21   1
  -5 -12   1 8857.81 2277.73   1
  -5 -12   1 9024.22 1784.68   2
  -5 -12   2 2396.61 1121.67   2
  -5 -12   2 2967.85 1439.82   1
  -5 -12   3 7207.90 1747.21   2
  -5 -12   4 3977.23 1438.19   2
  -5 -12   5 223.212 835.627   2
  -5 -11 -10 2512.91 1097.66   1
  -5 -11  -9-92.4149 614.596   1
  -5 -11  -9 156.841 543.244   3
  -5 -11  -8 2065.47 999.790   1
  -5 -11  -8 960.131 606.261   3
  -5 -11  -7 8389.94 1398.25   3
  -5 -11  -7 10333.3 1787.71   1
  -5 -11  -6 1282.71 703.947   1
  -5 -11  -6 1153.27 591.651   3
  -5 -11  -5 10161.5 1629.13   1
  -5 -11  -5 11495.0 1483.96   3
  -5 -11  -4-730.867 570.684   3
  -5 -11  -4-709.676 800.902   1
  -5 -11  -3 9558.40 1620.26   1
  -5 -11  -3 8505.66 1269.64   3
  -5 -11  -2 5233.29 1434.32   1
  -5 -11  -2 5032.77 981.454   3
  -5 -11  -1 689.438 531.436   3
  -5 -11  -1 1863.56 1335.94   1
  -5 -11   0 3197.54 1528.75   1
  -5 -11   0 4648.79 1203.77   2
  -5 -11   0 4307.51 968.277   3
  -5 -11   1 2382.83 854.923   3
  -5 -11   1 2733.38 975.283   2
  -5 -11   1 3243.18 1521.76   1
  -5 -11   2 4076.58 1050.60   3
  -5 -11   2 3281.49 1563.18   1
  -5 -11   2 2759.78 1207.78   2
  -5 -11   3 6473.87 1604.51   2
  -5 -11   3 7005.89 1351.45   3
  -5 -11   3 5594.43 1609.44   1
  -5 -11   4 463.838 818.190   1
  -5 -11   4 382.011 914.284   2
  -5 -11   5 5050.90 1438.29   1
  -5 -11   5 7304.75 1881.54   2
  -5 -11   6-1106.43 1123.37   2
  -5 -11   7 2291.12 1221.98   2
  -5 -10 -12 1675.84 748.101   3
  -5 -10 -11 2801.73 1215.33   1
  -5 -10 -11 3445.83 979.276   3
  -5 -10 -10-317.952 468.071   3
  -5 -10 -10 278.385 727.805   1
  -5 -10  -9 3404.72 959.177   3
  -5 -10  -9 5226.29 1366.31   1
  -5 -10  -8 678.310 644.819   1
  -5 -10  -8 1256.83 621.511   3
  -5 -10  -7 1226.74 664.996   1
  -5 -10  -7 382.106 505.543   3
  -5 -10  -6 13309.5 1833.60   1
  -5 -10  -6 11602.0 1436.59   3
  -5 -10  -5 3603.40 845.515   3
  -5 -10  -5 4992.43 1179.07   1
  -5 -10  -4 8897.59 1176.27   3
  -5 -10  -4 9439.16 1521.83   1
  -5 -10  -3 7907.48 1077.32   3
  -5 -10  -3 8301.00 1474.98   1
  -5 -10  -2 1772.65 585.877   3
  -5 -10  -2 2226.30 980.104   1
  -5 -10  -1 17436.3 2367.21   1
  -5 -10  -1 17750.2 1643.13   3
  -5 -10   0 637.834 669.080   2
  -5 -10   0 771.987 548.717   3
  -5 -10   1 8878.21 1523.96   2
  -5 -10   1 5987.47 2091.56   1
  -5 -10   1 9358.32 1305.51   3
  -5 -10   2 11991.8 1879.52   2
  -5 -10   2 7146.30 2260.21   1
  -5 -10   2 11485.1 1506.06   3
  -5 -10   3 477.656 711.391   2
  -5 -10   3-729.619 659.020   3
  -5 -10   3 38.1562 1063.19   1
  -5 -10   4 10286.1 2037.91   2
  -5 -10   4 13038.2 2191.79   1
  -5 -10   5 3434.91 1269.44   2
  -5 -10   5 1753.42 1026.90   1
  -5 -10   6 5082.43 1668.47   2
  -5 -10   7 7746.79 2106.79   2
  -5 -10   8 3052.65 1591.07   2
  -5 -10   9 7334.33 2056.06   2
  -5  -9 -13 359.678 510.008   3
  -5  -9 -12 6959.27 1377.47   3
  -5  -9 -12 8564.02 1931.35   1
  -5  -9 -11 203.649 810.380   1
  -5  -9 -11 672.459 491.822   3
  -5  -9 -10 14085.7 2186.47   1
  -5  -9 -10 11144.9 1610.47   3
  -5  -9  -9 611.156 500.130   3
  -5  -9  -9-201.547 812.011   1
  -5  -9  -8 1078.24 798.285   1
  -5  -9  -8 422.106 421.774   3
  -5  -9  -7 18774.6 1814.16   3
  -5  -9  -7 18784.1 2245.60   1
  -5  -9  -6 2986.48 728.238   3
  -5  -9  -6 1915.46 928.515   1
  -5  -9  -5 12436.8 1724.73   1
  -5  -9  -5 10864.0 1020.82   2
  -5  -9  -5 12607.5 1338.29   3
  -5  -9  -4 13781.7 1324.46   3
  -5  -9  -4 17035.1 1277.16   2
  -5  -9  -4 16034.1 1871.74   1
  -5  -9  -3-958.552 941.786   1
  -5  -9  -3-100.729 392.146   3
  -5  -9  -3 242.341 275.983   2
  -5  -9  -2 35299.8 2079.46   3
  -5  -9  -2 39974.2 2179.96   2
  -5  -9  -2 35941.7 2774.22   1
  -5  -9  -1 54.7453 428.375   2
  -5  -9  -1 201.525 350.311   3
  -5  -9  -1-234.759 723.078   1
  -5  -9   0 24392.0 1795.60   3
  -5  -9   0 27853.9 2313.76   2
  -5  -9   0 26968.6 2918.74   1
  -5  -9   1 7438.77 1325.54   2
  -5  -9   1 7164.52 1036.98   3
  -5  -9   1 5973.99 2023.26   1
  -5  -9   2 8317.12 1513.14   2
  -5  -9   2 8141.89 1182.03   3
  -5  -9   2 6637.38 2122.68   1
  -5  -9   3 17512.6 2325.00   2
  -5  -9   3 14615.1 2642.44   1
  -5  -9   4 965.228 1196.98   1
  -5  -9   4 1036.96 847.759   2
  -5  -9   5 3228.96 1305.11   1
  -5  -9   5 5690.21 1589.37   2
  -5  -9   6 6268.40 1528.12   1
  -5  -9   6 12194.6 2278.41   2
  -5  -9   7-3.34594 970.237   2
  -5  -9   8 12762.0 2496.69   2
  -5  -9   9 2319.05 1340.68   2
  -5  -9  10 5198.02 1780.73   2
  -5  -8 -14 595.698 642.405   3
  -5  -8 -13 3221.89 924.059   3
  -5  -8 -12 536.074 491.846   3
  -5  -8 -12 377.177 803.311   1
  -5  -8 -11 7567.61 1322.93   3
  -5  -8 -11 9695.45 1885.45   1
  -5  -8 -10 5406.61 1089.90   3
  -5  -8 -10 6477.46 1517.42   1
  -5  -8  -9 10069.3 1428.52   3
  -5  -8  -9 11004.7 1893.97   1
  -5  -8  -8 8033.20 1542.06   1
  -5  -8  -8 7571.79 1187.39   3
  -5  -8  -7-296.246 748.087   1
  -5  -8  -7 134.716 253.479   2
  -5  -8  -7 104.576 386.591   3
  -5  -8  -6 14760.0 1420.16   3
  -5  -8  -6 13656.1 1797.62   1
  -5  -8  -6 12947.4 1086.02   2
  -5  -8  -5 10031.7 1112.27   3
  -5  -8  -5 10020.2 1498.23   1
  -5  -8  -5 9138.21 805.018   2
  -5  -8  -4 3700.52 646.487   3
  -5  -8  -4 3369.89 476.801   2
  -5  -8  -4 3367.81 876.849   1
  -5  -8  -3 12149.7 1584.68   1
  -5  -8  -3 15090.3 1024.06   2
  -5  -8  -3 13634.6 1117.36   3
  -5  -8  -2 16088.2 1209.82   3
  -5  -8  -2 17299.8 1396.57   2
  -5  -8  -2 18839.6 1226.02   2
  -5  -8  -1 27107.4 2367.79   1
  -5  -8  -1 26473.7 1949.05   2
  -5  -8  -1 25166.2 1544.48   3
  -5  -8   0 27331.3 1700.10   3
  -5  -8   0 30857.6 2336.86   2
  -5  -8   0 31293.0 2803.16   1
  -5  -8   1 3300.58 945.438   2
  -5  -8   1 4069.38 740.618   3
  -5  -8   1 5769.24 1844.16   1
  -5  -8   2 44497.0 2483.42   3
  -5  -8   2 43810.5 3384.10   2
  -5  -8   2 40000.3 4126.19   1
  -5  -8   3 367.510 778.292   2
  -5  -8   3-320.955 1261.73   1
  -5  -8   4 19922.5 2784.11   1
  -5  -8   4 21383.2 2560.79   2
  -5  -8   5 12267.7 2145.80   2
  -5  -8   5 8133.75 1826.90   1
  -5  -8   6 6141.79 1640.15   2
  -5  -8   6 3985.32 1319.69   1
  -5  -8   7 18066.6 2734.94   2
  -5  -8   8 1069.43 1110.15   2
  -5  -8   9 10486.0 2229.62   2
  -5  -8  10 6597.16 1845.36   2
  -5  -7 -13 620.929 673.521   1
  -5  -7 -12 5248.42 1456.75   1
  -5  -7 -11 5159.13 1446.93   1
  -5  -7 -10 2744.81 1114.01   1
  -5  -7 -10 2730.36 795.270   3
  -5  -7  -9 19686.9 2462.78   1
  -5  -7  -9 15277.0 1659.20   3
  -5  -7  -8 2384.24 601.845   2
  -5  -7  -8 2639.74 746.828   3
  -5  -7  -8 3100.38 1150.38   1
  -5  -7  -7 37389.4 2368.29   3
  -5  -7  -7 40514.4 3154.48   1
  -5  -7  -7 37359.2 1962.80   2
  -5  -7  -6 28636.4 2577.44   1
  -5  -7  -6 27623.5 1869.16   3
  -5  -7  -6 26028.0 1393.10   2
  -5  -7  -5 21299.7 1473.44   3
  -5  -7  -5 17322.4 914.435   2
  -5  -7  -5 22777.7 2168.82   1
  -5  -7  -4 34559.1 2608.39   1
  -5  -7  -4 32762.5 1682.99   3
  -5  -7  -3 535.871 236.685   2
  -5  -7  -3 669.155 576.646   1
  -5  -7  -3 1162.82 352.308   3
  -5  -7  -3 1123.61 641.145   4
  -5  -7  -3 824.387 193.518   2
  -5  -7  -2 46148.5 2906.02   4
  -5  -7  -2 38981.1 1671.35   3
  -5  -7  -2 46319.0 2117.92   2
  -5  -7  -2 42306.8 2787.35   1
  -5  -7  -2 44702.7 1597.49   2
  -5  -7  -1 18102.4 1516.43   2
  -5  -7  -1 16138.3 1754.50   1
  -5  -7  -1 15671.5 993.042   3
  -5  -7   0 11891.0 1455.76   2
  -5  -7   0 9532.33 827.203   3
  -5  -7   0 12820.7 1720.81   1
  -5  -7   1 49248.3 3139.62   2
  -5  -7   1 42081.4 3528.66   1
  -5  -7   2 1592.69 1442.77   1
  -5  -7   2 3627.11 1074.80   2
  -5  -7   3 18222.0 2873.28   1
  -5  -7   3 23342.0 2494.26   2
  -5  -7   4 25321.4 3103.41   1
  -5  -7   4 26146.5 2773.20   2
  -5  -7   5 8950.84 1808.10   2
  -5  -7   5 6995.95 1634.83   1
  -5  -7   6 24927.0 2987.49   2
  -5  -7   6 23206.5 2686.41   1
  -5  -7   7 698.079 943.398   2
  -5  -7   8 18661.4 2841.54   2
  -5  -7   9 10036.6 2175.36   2
  -5  -7  10 4250.07 1576.61   2
  -5  -7  11 11024.3 2469.29   2
  -5  -6 -13 13668.9 2378.12   1
  -5  -6 -12 4064.95 1415.58   1
  -5  -6 -11 8372.08 1800.79   1
  -5  -6 -10 15154.7 2239.09   1
  -5  -6  -9 1706.62 928.488   1
  -5  -6  -8 21898.3 2451.67   1
  -5  -6  -7 10217.6 1613.98   1
  -5  -6  -6 11428.6 1632.18   1
  -5  -6  -6 10444.2 1109.58   3
  -5  -6  -5 52777.2 2322.84   3
  -5  -6  -5 56731.3 3389.16   1
  -5  -6  -4 74.3328 553.335   1
  -5  -6  -4 139.740 483.748   4
  -5  -6  -4 97.5020 243.765   3
  -5  -6  -3 33512.1 1326.43   3
  -5  -6  -3 34339.2 2466.34   1
  -5  -6  -3 37523.0 2510.24   4
  -5  -6  -2 26148.4 2077.16   1
  -5  -6  -2 24501.7 962.309   3
  -5  -6  -2 27060.8 2051.76   4
  -5  -6  -1 17648.5 745.260   3
  -5  -6  -1 19234.2 1671.52   4
  -5  -6   0 61199.8 2932.56   2
  -5  -6   0 62505.3 3432.27   1
  -5  -6   1 2414.89 799.350   2
  -5  -6   1 4242.26 1366.22   1
  -5  -6   2 40607.3 3813.74   1
  -5  -6   2 50106.3 3292.42   2
  -5  -6   3 23308.7 2484.79   2
  -5  -6   3 22610.3 3123.14   1
  -5  -6   4 1051.66 1048.02   2
  -5  -6   4 2108.05 1530.42   1
  -5  -6   5 59675.9 4384.59   2
  -5  -6   5 61825.5 4338.15   1
  -5  -6   6 1525.13 1036.57   2
  -5  -6   6 1839.62 1004.06   1
  -5  -6   7 39644.9 3837.25   2
  -5  -6   7 28165.6 2842.85   1
  -5  -6   8 6532.28 1737.32   2
  -5  -6   9 9828.32 2059.32   2
  -5  -6  10 18353.5 2921.02   2
  -5  -6  11-105.377 861.102   2
  -5  -6  12 11711.3 2486.59   2
  -5  -5 -13 6707.57 1725.73   1
  -5  -5 -12 4811.69 1465.03   1
  -5  -5 -11 17893.0 2506.45   1
  -5  -5 -10-445.371 956.380   1
  -5  -5  -9 39513.3 3407.34   1
  -5  -5  -8 10349.3 1678.79   1
  -5  -5  -7 18320.7 2110.65   1
  -5  -5  -6 51289.2 3267.76   1
  -5  -5  -5-203.080 522.171   1
  -5  -5  -5 11.6564 482.319   4
  -5  -5  -4 47683.6 1836.44   3
  -5  -5  -4 48841.0 2925.55   1
  -5  -5  -4 48421.8 2929.15   4
  -5  -5  -3 40863.5 1292.51   3
  -5  -5  -3 44772.2 2752.70   1
  -5  -5  -3 41965.7 1533.56   3
  -5  -5  -3 38288.5 2492.75   4
  -5  -5  -2 27263.3 1958.30   4
  -5  -5  -2 35613.4 2354.09   1
  -5  -5  -1 101809. 3732.22   4
  -5  -5  -1 95844.2 4007.89   1
  -5  -5   0 901.921 325.594   2
  -5  -5   0 1650.01 537.075   4
  -5  -5   0 278.275 712.667   1
  -5  -5   1 101829. 4888.86   1
  -5  -5   1 110123. 3999.24   2
  -5  -5   2 391.334 1498.29   1
  -5  -5   2 943.598 654.116   2
  -5  -5   3 13944.0 1783.32   2
  -5  -5   3 11487.6 2277.90   1
  -5  -5   4 42338.0 3735.52   1
  -5  -5   4 35196.1 3076.19   2
  -5  -5   5 3716.51 1194.78   2
  -5  -5   5 3291.93 1422.91   1
  -5  -5   6 21727.5 2667.48   2
  -5  -5   6 21466.6 2505.39   1
  -5  -5   7 22442.0 2480.48   1
  -5  -5   7 28239.6 3172.99   2
  -5  -5   8 1556.99 1201.99   2
  -5  -5   9 41659.9 4105.61   2
  -5  -5  10-523.197 877.978   2
  -5  -5  11 12636.3 2389.09   2
  -5  -5  12 3254.66 1526.27   2
  -5  -4 -14 3667.89 1308.16   1
  -5  -4 -13 5662.22 1554.41   1
  -5  -4 -12 19978.2 2689.41   1
  -5  -4 -11-565.102 867.810   1
  -5  -4 -10 43337.2 3663.48   1
  -5  -4  -9 6377.66 1421.13   3
  -5  -4  -9 7845.14 1563.48   1
  -5  -4  -8 35710.0 3054.61   1
  -5  -4  -8 33984.3 2848.59   3
  -5  -4  -7 33899.8 2770.02   1
  -5  -4  -7 36207.6 2636.33   3
  -5  -4  -6 5067.87 919.130   3
  -5  -4  -6 6132.58 1219.23   1
  -5  -4  -5 38858.8 2653.23   1
  -5  -4  -5 41205.1 2190.75   3
  -5  -4  -4 14030.8 1017.86   3
  -5  -4  -3 14931.5 1438.99   4
  -5  -4  -3 15012.1 743.442   3
  -5  -4  -2 97961.7 3767.24   4
  -5  -4  -1 7494.99 897.804   4
  -5  -4   0 107770. 2919.77   2
  -5  -4   0 106739. 3539.81   4
  -5  -4   1 55153.3 2330.97   2
  -5  -4   2 69551.7 3162.77   2
  -5  -4   3 38268.4 3755.70   1
  -5  -4   3 46328.5 2887.06   2
  -5  -4   4 1651.25 835.564   2
  -5  -4   4 1216.32 1310.17   1
  -5  -4   5 59061.2 3955.70   2
  -5  -4   5 56863.8 3946.72   1
  -5  -4   6 24642.2 2718.39   2
  -5  -4   6 20058.2 2335.58   1
  -5  -4   7 14472.9 2044.72   1
  -5  -4   7 25282.2 2879.36   2
  -5  -4   8 21694.6 2820.61   2
  -5  -4   9 4520.45 1540.11   2
  -5  -4  10 33287.1 3731.47   2
  -5  -4  11 3804.07 1487.57   2
  -5  -4  12 12097.3 2482.36   2
  -5  -3 -14 5656.29 1580.13   1
  -5  -3 -13 7654.04 1748.40   1
  -5  -3 -12 641.261 900.145   1
  -5  -3 -11 17892.9 2491.99   1
  -5  -3 -10 18336.9 2427.15   1
  -5  -3  -9 21501.2 2385.18   3
  -5  -3  -9 17941.4 2252.42   1
  -5  -3  -8 81722.0 4347.56   3
  -5  -3  -8 85619.6 4672.21   1
  -5  -3  -7 2236.91 895.471   1
  -5  -3  -7 2198.17 727.155   3
  -5  -3  -6 118900. 4486.75   3
  -5  -3  -6 127086. 5182.11   1
  -5  -3  -5 13310.7 1525.34   1
  -5  -3  -5 15653.3 1251.25   3
  -5  -3  -4 82199.1 3717.10   1
  -5  -3  -4 79674.8 2702.23   3
  -5  -3  -3 47982.7 1653.40   3
  -5  -3  -2 7343.29 417.474   3
  -5  -3  -1 68657.7 2717.10   4
  -5  -3   0 20921.0 1254.29   4
  -5  -3   0 20745.0 1102.84   2
  -5  -3   1 46866.6 1799.98   4
  -5  -3   1 46278.0 2020.00   2
  -5  -3   2 51891.8 2503.71   2
  -5  -3   3 2513.83 1792.51   1
  -5  -3   3 595.427 507.496   2
  -5  -3   4 82020.8 4122.58   2
  -5  -3   4 87492.9 5037.33   1
  -5  -3   5 14090.8 1912.85   1
  -5  -3   5 13425.4 1795.32   2
  -5  -3   6 34955.2 2990.30   1
  -5  -3   6 35224.3 3100.59   2
  -5  -3   7 12985.7 2071.89   2
  -5  -3   8 2012.88 1150.47   2
  -5  -3   9 18890.6 2720.12   2
  -5  -3  10 11178.9 2214.33   2
  -5  -3  11 5214.10 1616.40   2
  -5  -3  12 18813.0 2934.57   2
  -5  -2 -14 6166.20 1668.89   1
  -5  -2 -13 1422.68 1007.77   1
  -5  -2 -12 25921.3 3071.66   1
  -5  -2 -11 1096.32 900.426   1
  -5  -2 -10 16834.0 2283.18   1
  -5  -2  -9 17173.2 2062.61   3
  -5  -2  -9 15355.6 2041.79   1
  -5  -2  -8 4000.89 946.223   3
  -5  -2  -8 3738.51 1123.12   1
  -5  -2  -7 55595.7 3132.54   3
  -5  -2  -7 56896.3 3493.71   1
  -5  -2  -6 10946.2 1448.01   1
  -5  -2  -6 10605.2 1232.29   3
  -5  -2  -5 56268.8 2582.64   3
  -5  -2  -5 57494.3 3110.71   1
  -5  -2  -4 91253.7 3115.15   3
  -5  -2  -4 91354.9 3864.40   1
  -5  -2  -3 2633.29 645.274   1
  -5  -2  -3 2325.25 420.367   3
  -5  -2  -2 104059. 2819.60   3
  -5  -2  -1 32473.3 1269.79   3
  -5  -2   0 15665.2 997.493   4
  -5  -2   1 59451.5 2417.18   2
  -5  -2   1 57040.9 1764.52   4
  -5  -2   1 57524.0 3412.96   1
  -5  -2   2 967.457 1419.57   1
  -5  -2   2 653.143 423.739   2
  -5  -2   3 83081.6 5024.07   1
  -5  -2   3 87263.9 3689.49   2
  -5  -2   4 28230.6 2235.70   2
  -5  -2   4 29340.1 2816.78   1
  -5  -2   5 47550.1 3207.59   2
  -5  -2   5 48874.7 3388.82   1
  -5  -2   6 74684.0 4416.61   2
  -5  -2   6 81165.9 4485.77   1
  -5  -2   7 9314.56 1740.49   2
  -5  -2   8 17160.7 2395.88   2
  -5  -2   9 11551.6 2069.95   2
  -5  -2  10 15816.1 2486.74   2
  -5  -2  11 15475.5 2601.76   2
  -5  -2  12 1952.03 1363.36   2
  -5  -2  13 7951.93 2084.78   2
  -5  -1 -14 1243.05 840.073   1
  -5  -1 -13 16735.6 2489.42   1
  -5  -1 -12 6895.87 1559.55   1
  -5  -1 -11 21920.7 2645.02   1
  -5  -1 -10 28624.4 2875.91   1
  -5  -1  -9 1117.74 837.866   1
  -5  -1  -8 40012.1 3038.90   1
  -5  -1  -8 41167.0 2931.83   3
  -5  -1  -7 5260.23 1095.55   1
  -5  -1  -7 4098.89 904.817   3
  -5  -1  -6 25501.0 1950.92   3
  -5  -1  -6 29878.9 2253.24   1
  -5  -1  -5 69392.5 3356.08   1
  -5  -1  -5 67375.7 3015.90   3
  -5  -1  -4 9191.38 976.113   3
  -5  -1  -4 11316.7 1262.94   1
  -5  -1  -3 224889. 5743.72   3
  -5  -1  -2 38015.3 1739.47   3
  -5  -1  -1 132964. 3718.42   3
  -5  -1   0 62025.1 2295.76   3
  -5  -1   1 19628.9 828.626   4
  -5  -1   1 20162.4 1430.80   2
  -5  -1   2 58513.3 4186.07   1
  -5  -1   2 64778.6 2913.70   2
  -5  -1   3 1745.12 579.560   2
  -5  -1   3 3561.68 1643.40   1
  -5  -1   4 28245.5 2618.24   1
  -5  -1   4 28471.4 2203.54   2
  -5  -1   5 30669.8 2501.34   2
  -5  -1   5 31984.0 2703.75   1
  -5  -1   6 2554.47 908.413   2
  -5  -1   7 22317.8 2470.68   2
  -5  -1   8 17942.3 2348.25   2
  -5  -1   9 16442.1 2400.00   2
  -5  -1  10 19778.1 2783.19   2
  -5  -1  11-84.2703 891.864   2
  -5  -1  12 13991.5 2564.10   2
  -5  -1  13 4466.65 1724.14   2
  -5   0 -14 8378.00 1835.23   1
  -5   0 -13 2707.88 1135.83   1
  -5   0 -12 19816.0 2668.93   1
  -5   0 -11 22004.5 2715.53   1
  -5   0 -10 4377.83 1233.34   1
  -5   0  -9 53164.8 3688.42   1
  -5   0  -8 690.233 635.284   1
  -5   0  -7 28897.1 2332.94   1
  -5   0  -7 26576.6 2208.03   3
  -5   0  -6 11884.4 1412.11   1
  -5   0  -6 10829.2 1349.02   3
  -5   0  -5 13333.3 1367.83   3
  -5   0  -5 11223.0 1280.97   1
  -5   0  -4 48395.5 2482.60   3
  -5   0  -3 18639.5 1426.36   3
  -5   0  -2 43596.3 2130.01   3
  -5   0  -1 88666.6 3159.87   3
  -5   0   0 6171.84 754.201   3
  -5   0   1 110884. 3781.86   3
  -5   0   2 19595.0 1619.60   2
  -5   0   3 62484.5 3757.28   1
  -5   0   3 53496.3 2932.27   2
  -5   0   4 40170.2 2685.69   2
  -5   0   4 44236.8 3011.76   1
  -5   0   5 4861.38 979.707   1
  -5   0   5 8882.40 1369.77   2
  -5   0   6 39074.4 3012.22   2
  -5   0   7 2678.60 956.208   2
  -5   0   8 14135.7 2096.79   2
  -5   0   9 18238.4 2510.93   2
  -5   0  10 1198.64 940.655   2
  -5   0  11 18442.7 2731.70   2
  -5   0  12 111.379 836.635   2
  -5   1 -14-586.138 895.427   1
  -5   1 -13 8358.77 1859.51   1
  -5   1 -12 15522.9 2353.01   1
  -5   1 -11 280.256 667.461   1
  -5   1 -10 35918.5 3173.63   1
  -5   1  -9 12489.6 1759.34   1
  -5   1  -8 33887.6 2664.55   1
  -5   1  -7 34110.5 2477.44   1
  -5   1  -6 18381.1 1784.21   3
  -5   1  -6 15857.9 1566.57   1
  -5   1  -5 64006.2 3291.31   3
  -5   1  -4 1967.31 610.883   3
  -5   1  -3 57089.0 2822.31   3
  -5   1  -2 29653.0 1849.39   3
  -5   1  -2 93.9071 179.817   1
  -5   1  -1 9736.03 1060.97   3
  -5   1  -1-127.572 215.209   1
  -5   1   0 82708.7 3035.63   3
  -5   1   0 370.398 421.575   1
  -5   1   1 15718.3 1411.17   3
  -5   1   2 65271.8 1745.21   4
  -5   1   3 59106.0 3195.91   2
  -5   1   4 14999.9 1642.45   1
  -5   1   4 17157.9 1788.74   2
  -5   1   5 47113.5 3170.65   2
  -5   1   6 130.242 575.993   2
  -5   1   7 10829.5 1749.74   2
  -5   1   8 11224.9 1851.86   2
  -5   1   9 2838.88 1123.35   2
  -5   1  10 14439.0 2303.38   2
  -5   1  11 2762.56 1210.07   2
  -5   1  12 3279.23 1229.48   2
  -5   2 -14 12416.3 2313.63   1
  -5   2 -13 5931.54 1615.89   1
  -5   2 -12 8123.07 1768.50   1
  -5   2 -11 20959.6 2534.66   1
  -5   2 -10 1510.26 779.404   1
  -5   2  -9 32333.3 2724.94   1
  -5   2  -8 9265.09 1374.11   1
  -5   2  -7 3816.78 851.055   1
  -5   2  -6 50344.6 2735.21   1
  -5   2  -5 1799.73 676.865   3
  -5   2  -4 60279.6 3261.10   3
  -5   2  -3 12049.8 1373.40   3
  -5   2  -3 9773.20 989.859   1
  -5   2  -2 3237.84 594.437   1
  -5   2  -2 3848.74 801.331   3
  -5   2  -1 54994.9 2938.25   1
  -5   2  -1 56158.7 2924.91   3
  -5   2   0 2711.08 667.046   3
  -5   2   0 1951.61 764.707   1
  -5   2   1 35118.3 2282.80   3
  -5   2   1 15945.6 1682.33   1
  -5   2   2 39671.3 2532.82   3
  -5   2   2 39363.9 1566.53   4
  -5   2   5 2538.35 964.838   2
  -5   2   6 29002.3 2688.64   2
  -5   2   7 16914.0 2187.81   2
  -5   2   8 10709.0 1878.72   2
  -5   2   9 17230.1 2441.30   2
  -5   2  10-47.4596 744.409   2
  -5   2  11 5300.64 1569.75   2
  -5   2  12 3428.55 1399.19   2
  -5   3 -12 14272.4 2220.02   1
  -5   3 -11-165.645 762.275   1
  -5   3 -10 23986.1 2458.38   1
  -5   3  -9 9221.10 1436.13   1
  -5   3  -8 7055.03 1163.09   1
  -5   3  -7 22973.0 1863.31   1
  -5   3  -4 31236.3 1749.84   1
  -5   3  -3 24264.0 1515.52   1
  -5   3  -2 45544.1 2526.63   1
  -5   3  -1 354.238 411.814   3
  -5   3  -1 458.690 1057.40   1
  -5   3   0 60736.7 2990.82   1
  -5   3   0 52800.4 3113.18   3
  -5   3   1 14184.5 1348.76   1
  -5   3   1 13652.3 1574.21   3
  -5   3   2 12930.5 1021.03   4
  -5   3   3 23595.8 1347.64   4
  -5   3   6 14968.4 1989.54   2
  -5   3   7 5097.42 1327.47   2
  -5   3   8 22825.8 2681.05   2
  -5   3   9 1003.99 940.902   2
  -5   3  10 7880.32 1824.21   2
  -5   3  11 3923.33 1472.49   2
  -5   4  -8 17152.8 1619.16   1
  -5   4  -5 12744.3 1053.09   1
  -5   4  -4 16021.9 1144.07   1
  -5   4  -3 5066.75 888.937   1
  -5   4  -2 8979.94 1074.81   1
  -5   4  -1 30754.6 1533.44   1
  -5   4   1 12900.9 1244.70   4
  -5   4   2 35785.0 1988.61   4
  -5   4   3 628.632 389.613   4
  -5   4   8 254.836 717.800   2
  -5   4   9 10105.9 1939.46   2
  -5   4  10 4561.34 1536.85   2
  -5   5   1 29722.8 2069.86   4
  -5   5   2 691.565 462.922   4
  -5   5   3 18567.9 1555.31   4
  -5   6   0 8656.96 1285.61   4
  -5   6   1 958.299 586.787   4
  -5   6   2 6341.37 1049.62   4
  -5   6   3 10585.6 1296.92   4
  -5   6   4 4105.41 864.054   4
  -5   7  -1 7199.24 1314.27   4
  -5   7   0 971.341 676.809   4
  -5   7   1 9594.18 1410.47   4
  -5   7   2 626.534 595.712   4
  -5   7   3 1704.50 692.167   4
  -5   8  -2 5312.57 1307.56   4
  -5   8  -1 143.909 612.606   4
  -5   8   0 6483.12 1323.28   4
  -5   8   1-150.702 541.599   4
  -4 -13   2 712.046 828.497   2
  -4 -12  -9 816.033 650.369   3
  -4 -12  -8 1049.43 760.103   3
  -4 -12  -7 4203.22 1162.22   3
  -4 -12  -6 14.9697 558.076   3
  -4 -12  -5 3170.71 984.317   3
  -4 -12  -4-209.324 660.838   3
  -4 -12  -3 173.086 630.105   3
  -4 -12  -2 3933.43 1106.39   3
  -4 -12  -1 339.861 603.585   3
  -4 -12   0 4115.60 1116.06   3
  -4 -12   1 1445.72 811.179   3
  -4 -12   2 575.677 686.394   3
  -4 -12   2-426.907 763.452   2
  -4 -12   3 10342.9 2035.23   2
  -4 -12   3 10769.0 1827.89   3
  -4 -12   4-461.027 1002.75   2
  -4 -12   4 453.398 822.280   3
  -4 -12   5 3371.32 1374.64   2
  -4 -12   5 2732.81 1144.86   3
  -4 -11 -11-615.141 720.680   1
  -4 -11 -11-61.2422 494.709   3
  -4 -11 -10 1888.19 861.851   1
  -4 -11 -10 2807.97 1015.67   3
  -4 -11  -9 228.434 501.494   3
  -4 -11  -9-211.330 584.950   1
  -4 -11  -8 3629.86 967.328   3
  -4 -11  -8 4745.19 1215.93   1
  -4 -11  -7 128.417 504.987   1
  -4 -11  -7-107.286 476.153   3
  -4 -11  -6 4667.42 1075.70   3
  -4 -11  -6 5181.37 1189.59   1
  -4 -11  -5 5066.55 1087.29   3
  -4 -11  -5 3946.59 1041.05   1
  -4 -11  -4 4670.58 1055.81   3
  -4 -11  -4 2890.34 914.841   1
  -4 -11  -3 8149.66 1344.57   3
  -4 -11  -3 9657.24 1487.44   1
  -4 -11  -2 1232.01 929.685   1
  -4 -11  -2-267.020 661.358   3
  -4 -11  -1 5241.29 1106.98   3
  -4 -11  -1 4367.76 1428.13   1
  -4 -11   0 5097.85 1785.41   1
  -4 -11   0 3928.12 1023.91   3
  -4 -11   1 783.230 1113.75   1
  -4 -11   1 370.559 553.223   3
  -4 -11   2 11048.5 1844.50   2
  -4 -11   2 11546.7 2005.07   1
  -4 -11   2 10904.3 1707.23   3
  -4 -11   3 1005.53 761.970   3
  -4 -11   3 737.124 787.119   1
  -4 -11   3 818.989 780.998   2
  -4 -11   4 10144.0 1793.70   3
  -4 -11   4 8506.56 1823.37   2
  -4 -11   4 7469.03 1543.31   1
  -4 -11   5 5543.67 1720.56   2
  -4 -11   5 6169.70 1530.39   3
  -4 -11   6 2357.37 1414.69   2
  -4 -11   7 6818.47 1900.21   2
  -4 -10 -12 5474.27 1443.04   1
  -4 -10 -12 4915.99 1285.80   3
  -4 -10 -11 1677.62 966.150   1
  -4 -10 -11 1951.95 905.818   3
  -4 -10 -10 1567.08 730.320   3
  -4 -10 -10 2145.31 928.315   1
  -4 -10  -9 5524.69 1219.03   3
  -4 -10  -9 7474.88 1496.44   1
  -4 -10  -8 575.225 549.139   1
  -4 -10  -8 792.851 569.615   3
  -4 -10  -7 10238.5 1509.70   3
  -4 -10  -7 8539.93 1497.75   1
  -4 -10  -6 5113.61 1172.70   1
  -4 -10  -6 4777.72 1037.63   3
  -4 -10  -5 3955.22 940.977   3
  -4 -10  -5 3508.10 881.273   1
  -4 -10  -4 20616.8 1883.02   2
  -4 -10  -4 15875.9 1811.28   1
  -4 -10  -4 15301.3 1673.71   3
  -4 -10  -3 271.600 356.081   2
  -4 -10  -3-151.407 403.160   3
  -4 -10  -3-624.193 694.549   1
  -4 -10  -2 19416.4 2034.91   1
  -4 -10  -2 16633.1 1721.30   3
  -4 -10  -2 19351.2 1811.74   2
  -4 -10  -1 2758.56 1043.02   1
  -4 -10  -1 1549.83 644.204   3
  -4 -10   0 4458.67 1696.21   1
  -4 -10   0 6898.34 1173.52   3
  -4 -10   1 6333.96 1917.92   1
  -4 -10   1 8036.52 1312.57   3
  -4 -10   2 545.454 560.467   3
  -4 -10   2-549.427 1058.77   1
  -4 -10   2 460.988 691.476   2
  -4 -10   3 6811.76 1453.78   2
  -4 -10   3 8742.97 1432.26   3
  -4 -10   3 5282.28 1400.01   1
  -4 -10   4 9425.56 1728.47   1
  -4 -10   4 10518.8 1697.33   3
  -4 -10   4 7268.04 1601.45   2
  -4 -10   5 1244.02 713.191   3
  -4 -10   5 857.826 805.560   1
  -4 -10   5 2772.06 1234.79   2
  -4 -10   6 13577.8 2451.27   2
  -4 -10   7 1600.44 1051.71   2
  -4 -10   8 10245.3 2348.84   2
  -4  -9 -13 3097.71 1035.96   3
  -4  -9 -12 724.104 693.370   1
  -4  -9 -12 411.592 466.376   3
  -4  -9 -11 2457.06 1034.29   1
  -4  -9 -11 3800.06 1073.12   3
  -4  -9 -10 7726.32 1388.57   3
  -4  -9 -10 7103.86 1555.79   1
  -4  -9  -9 1160.39 633.399   3
  -4  -9  -9 819.487 723.316   1
  -4  -9  -8 4465.94 1139.10   1
  -4  -9  -8 3454.44 928.261   3
  -4  -9  -7 4991.19 1066.32   3
  -4  -9  -7 4066.95 1044.09   1
  -4  -9  -6 2470.62 843.243   1
  -4  -9  -6 3371.42 742.411   2
  -4  -9  -6 2606.99 760.518   3
  -4  -9  -5 17207.4 1702.91   3
  -4  -9  -5 20542.9 2046.92   1
  -4  -9  -5 21609.5 1748.08   2
  -4  -9  -4 1684.13 565.371   2
  -4  -9  -4 1519.09 634.421   1
  -4  -9  -4 1501.84 593.152   3
  -4  -9  -3 22445.2 1727.83   2
  -4  -9  -3 21578.0 1761.96   3
  -4  -9  -3 20860.5 1936.49   1
  -4  -9  -2 13704.7 1391.86   3
  -4  -9  -2 14098.9 1621.00   1
  -4  -9  -2 14760.4 1410.31   2
  -4  -9  -1 7798.52 1346.74   1
  -4  -9  -1 8132.83 1124.54   3
  -4  -9   0 27808.1 2050.85   3
  -4  -9   0 28731.6 2830.79   1
  -4  -9   1-442.505 1135.77   1
  -4  -9   1 2270.10 754.290   3
  -4  -9   2 26680.4 2219.89   3
  -4  -9   2 27660.7 2467.76   2
  -4  -9   2 19966.5 2887.35   1
  -4  -9   3 2976.35 999.693   2
  -4  -9   3 2298.56 802.303   3
  -4  -9   3 3174.53 1440.64   1
  -4  -9   4 4575.26 1064.66   3
  -4  -9   4 4892.65 1338.66   2
  -4  -9   4 6026.47 1422.30   1
  -4  -9   5 7695.05 1585.53   1
  -4  -9   5 15867.5 2276.54   2
  -4  -9   6 2050.84 964.503   2
  -4  -9   7 9194.78 1997.89   2
  -4  -9   8 6784.26 1860.01   2
  -4  -9   9 2332.67 1315.55   2
  -4  -9  10 9529.93 2266.27   2
  -4  -8 -14 772.965 659.573   3
  -4  -8 -13 902.613 578.618   3
  -4  -8 -13 2884.62 1190.12   1
  -4  -8 -12 2206.03 949.856   1
  -4  -8 -12 3042.25 952.190   3
  -4  -8 -11 10626.4 1630.64   3
  -4  -8 -11 12692.1 2078.17   1
  -4  -8 -10-417.490 544.531   3
  -4  -8 -10 138.313 550.956   1
  -4  -8  -9 15234.2 2111.52   1
  -4  -8  -9 13679.3 1732.54   3
  -4  -8  -8 11295.0 1512.06   3
  -4  -8  -8 10833.8 1711.57   1
  -4  -8  -8 11569.7 1378.66   2
  -4  -8  -7 19768.2 2156.41   1
  -4  -8  -7 19706.0 1682.45   2
  -4  -8  -7 23471.7 2037.29   3
  -4  -8  -6 21454.0 2146.55   1
  -4  -8  -6 20673.9 1814.16   3
  -4  -8  -6 19935.6 1562.15   2
  -4  -8  -5 672.380 518.131   1
  -4  -8  -5 1109.03 516.259   3
  -4  -8  -5 1101.16 439.849   2
  -4  -8  -4 27067.6 2226.59   1
  -4  -8  -4 27608.9 1898.91   3
  -4  -8  -4 27693.3 1731.67   2
  -4  -8  -3 7177.27 938.634   3
  -4  -8  -3 8214.43 1214.17   1
  -4  -8  -3 8575.93 958.621   2
  -4  -8  -2 10242.9 1081.22   3
  -4  -8  -2 8303.52 1206.78   1
  -4  -8  -2 11750.2 1126.24   2
  -4  -8  -1 23312.3 2052.02   1
  -4  -8  -1 22513.0 1635.83   3
  -4  -8   0 1898.50 951.097   1
  -4  -8   0 1400.47 581.129   3
  -4  -8   1 39562.7 2331.80   3
  -4  -8   1 31910.5 3156.66   1
  -4  -8   1 39881.4 2644.73   2
  -4  -8   2 8140.71 2043.76   1
  -4  -8   2 6385.84 1071.28   3
  -4  -8   2 4940.61 1146.23   2
  -4  -8   3 15697.7 1679.02   3
  -4  -8   3 14590.8 2383.64   1
  -4  -8   3 14550.0 1897.41   2
  -4  -8   4 18914.9 1931.41   3
  -4  -8   4 21999.8 2454.84   1
  -4  -8   4 22828.0 2491.22   2
  -4  -8   5 715.056 843.853   2
  -4  -8   5 37.3214 971.447   1
  -4  -8   6 11926.5 1859.56   1
  -4  -8   6 15603.0 2316.70   2
  -4  -8   7 10779.9 2141.45   2
  -4  -8   8 3989.27 1453.66   2
  -4  -8   9 14103.7 2556.26   2
  -4  -8  10-86.0534 891.673   2
  -4  -8  11 9123.50 2238.08   2
  -4  -7 -13 4835.88 1478.06   1
  -4  -7 -12 4867.00 1450.64   1
  -4  -7 -11 1051.03 818.915   1
  -4  -7 -11-50.6752 494.826   3
  -4  -7 -10 14602.5 2150.50   1
  -4  -7 -10 11745.4 1581.84   3
  -4  -7  -9 1097.98 563.216   2
  -4  -7  -9 622.566 477.984   3
  -4  -7  -9 703.456 726.174   1
  -4  -7  -8 2389.35 689.121   2
  -4  -7  -8 3284.66 1025.64   1
  -4  -7  -8 3086.43 826.954   3
  -4  -7  -7 47936.5 2842.81   3
  -4  -7  -7 54727.1 3561.17   1
  -4  -7  -7 46662.1 2570.06   2
  -4  -7  -6 682.891 392.015   2
  -4  -7  -6 475.522 441.675   3
  -4  -7  -5 58044.6 3321.09   1
  -4  -7  -5 56376.2 2738.04   3
  -4  -7  -5 56186.8 2367.38   2
  -4  -7  -4 5127.82 779.181   3
  -4  -7  -4 5168.59 965.122   1
  -4  -7  -4 4568.06 601.714   2
  -4  -7  -3 22527.6 1883.02   1
  -4  -7  -3 25425.2 2157.93   4
  -4  -7  -3 22855.4 1326.70   2
  -4  -7  -3 20952.6 1419.87   3
  -4  -7  -2 39005.3 2464.43   1
  -4  -7  -2 42095.9 2750.88   4
  -4  -7  -2 42356.3 1881.76   2
  -4  -7  -2 38574.0 1894.00   3
  -4  -7  -1-88.7367 337.054   3
  -4  -7  -1-314.416 558.535   1
  -4  -7   0 52364.3 2348.25   3
  -4  -7   0 54255.9 3158.26   1
  -4  -7   1 30191.6 1834.66   3
  -4  -7   1 26551.9 2111.84   2
  -4  -7   1 28790.4 2719.31   1
  -4  -7   2 15820.7 2539.62   1
  -4  -7   2 20360.4 1937.78   2
  -4  -7   2 17330.3 1467.53   3
  -4  -7   3 52523.2 2805.61   3
  -4  -7   3 54031.6 3444.34   2
  -4  -7   4 2357.48 987.139   2
  -4  -7   4 3214.30 1265.05   1
  -4  -7   5 38927.0 3165.50   1
  -4  -7   5 42373.7 3569.30   2
  -4  -7   6 312.969 836.436   1
  -4  -7   6 957.418 806.363   2
  -4  -7   7 26616.2 3078.67   2
  -4  -7   8 12569.8 2288.95   2
  -4  -7   9-240.980 880.121   2
  -4  -7  10 9186.35 2057.04   2
  -4  -7  11 5772.46 1834.14   2
  -4  -6 -14 7108.87 1702.35   1
  -4  -6 -13 11732.7 2013.99   1
  -4  -6 -12 492.311 683.065   1
  -4  -6 -11 23777.1 2722.47   1
  -4  -6 -10 487.804 671.411   1
  -4  -6 -10 163.475 531.979   2
  -4  -6  -9 6444.03 1187.45   2
  -4  -6  -9 5780.33 1340.82   1
  -4  -6  -8 49940.5 3545.77   1
  -4  -6  -8 51901.0 3045.60   2
  -4  -6  -7 992.717 454.286   2
  -4  -6  -7-92.5797 685.433   1
  -4  -6  -7 924.204 527.679   3
  -4  -6  -6 65037.8 3625.24   1
  -4  -6  -6 63022.2 2761.96   2
  -4  -6  -6 56192.2 2812.63   3
  -4  -6  -5 11692.7 1146.36   3
  -4  -6  -5 12541.6 1556.09   4
  -4  -6  -5 11344.5 959.111   2
  -4  -6  -5 13254.6 1554.15   1
  -4  -6  -4 43104.9 2028.48   3
  -4  -6  -4 46679.0 2746.09   1
  -4  -6  -4 40057.2 1620.24   2
  -4  -6  -4 44057.7 2805.89   4
  -4  -6  -3 57350.1 2204.37   3
  -4  -6  -3 61939.0 3247.10   4
  -4  -6  -3 60720.3 3097.41   1
  -4  -6  -3 60799.6 1928.80   2
  -4  -6  -2 19334.4 1668.37   1
  -4  -6  -2 19983.0 1136.07   3
  -4  -6  -2 20885.2 1028.65   2
  -4  -6  -2 19371.5 1738.74   4
  -4  -6  -1 55968.6 2044.18   3
  -4  -6  -1 60982.3 3040.70   4
  -4  -6  -1 59860.1 2433.01   2
  -4  -6  -1 60409.7 2985.60   1
  -4  -6   0 1984.21 440.340   3
  -4  -6   0 2269.43 787.625   1
  -4  -6   0 1779.78 541.659   2
  -4  -6   1 24643.8 1471.72   3
  -4  -6   1 27373.5 2011.36   2
  -4  -6   1 27277.8 2464.36   1
  -4  -6   2 50864.9 2374.29   3
  -4  -6   2 53197.4 3199.29   2
  -4  -6   3 2483.87 892.958   2
  -4  -6   3 1925.29 1469.15   1
  -4  -6   4 30795.4 2947.18   1
  -4  -6   4 34848.0 2910.60   2
  -4  -6   5 20656.4 2253.08   1
  -4  -6   5 21055.9 2505.21   2
  -4  -6   6 15654.4 1991.45   1
  -4  -6   6 18091.2 2408.94   2
  -4  -6   7 28221.2 3151.73   2
  -4  -6   8 1901.36 1076.90   2
  -4  -6   9 34776.1 3699.11   2
  -4  -6  10 3733.92 1427.86   2
  -4  -6  11 10999.3 2204.94   2
  -4  -6  12 10390.1 2363.71   2
  -4  -5 -14 7206.31 1650.35   1
  -4  -5 -13 1382.30 893.927   1
  -4  -5 -12 22319.0 2706.41   1
  -4  -5 -11-228.130 726.303   1
  -4  -5 -11 297.166 518.419   2
  -4  -5 -10 32888.8 3096.86   1
  -4  -5 -10 34670.7 2770.38   2
  -4  -5  -9 4156.74 1025.48   2
  -4  -5  -9 3470.15 1181.81   1
  -4  -5  -8-105.758 787.188   1
  -4  -5  -8 342.910 527.829   2
  -4  -5  -7 35385.8 2788.71   1
  -4  -5  -7 34024.0 2181.82   2
  -4  -5  -6 20803.5 2037.79   1
  -4  -5  -6 19980.9 1474.93   2
  -4  -5  -5 27756.9 1476.59   2
  -4  -5  -5 27885.4 2213.18   4
  -4  -5  -5 28270.2 2241.28   1
  -4  -5  -4 79558.7 3686.07   4
  -4  -5  -4 82624.1 3611.94   1
  -4  -5  -4 76668.2 2644.90   3
  -4  -5  -3 4964.63 539.545   3
  -4  -5  -3 5175.56 906.747   4
  -4  -5  -3 4825.41 894.725   1
  -4  -5  -2 182875. 4043.64   3
  -4  -5  -2 196537. 5743.61   1
  -4  -5  -2 182141. 3646.39   2
  -4  -5  -2 202833. 5857.87   4
  -4  -5  -1 11254.0 641.025   3
  -4  -5  -1 12605.3 1262.32   1
  -4  -5  -1 12173.0 1220.03   4
  -4  -5  -1 12571.0 981.615   2
  -4  -5   0 113607. 3869.69   2
  -4  -5   0 111504. 4131.91   1
  -4  -5   1 78784.6 3544.70   2
  -4  -5   1 70287.2 3669.73   1
  -4  -5   2 11230.9 1450.75   2
  -4  -5   2 6567.98 1722.65   1
  -4  -5   3 58164.6 4254.10   1
  -4  -5   3 64109.4 3688.83   2
  -4  -5   4 13676.9 1847.69   2
  -4  -5   4 14824.6 2197.53   1
  -4  -5   5 34377.3 2870.89   1
  -4  -5   5 36523.0 3117.91   2
  -4  -5   6 50600.0 3895.23   2
  -4  -5   6 47391.7 3383.29   1
  -4  -5   7 1162.34 883.708   2
  -4  -5   8 48051.6 4091.26   2
  -4  -5   9 2219.48 1035.52   2
  -4  -5  10 20101.3 2891.01   2
  -4  -5  11 12399.0 2352.31   2
  -4  -5  12 1643.23 1318.98   2
  -4  -4 -14 798.916 886.351   1
  -4  -4 -13 17870.1 2459.52   1
  -4  -4 -12 2595.06 1007.68   1
  -4  -4 -11 32316.6 3179.75   1
  -4  -4 -10 27015.0 2793.69   1
  -4  -4  -9 5818.55 1310.27   1
  -4  -4  -8 92439.3 4886.40   1
  -4  -4  -7 778.397 700.506   1
  -4  -4  -6 75038.6 3835.06   1
  -4  -4  -3 91057.2 3685.36   4
  -4  -4  -2 847.235 152.336   3
  -4  -4  -2 1471.96 510.880   4
  -4  -4  -1 103886. 2337.22   2
  -4  -4  -1 113074. 3713.80   4
  -4  -4   0 94651.7 2934.08   2
  -4  -4   0 88907.3 3161.94   4
  -4  -4   1 6180.09 888.202   2
  -4  -4   2 71741.2 3423.49   2
  -4  -4   3 9956.71 1419.18   2
  -4  -4   4 45029.3 3374.05   1
  -4  -4   4 45200.2 3174.23   2
  -4  -4   5 35214.1 2776.11   1
  -4  -4   5 35603.5 3045.56   2
  -4  -4   6-550.682 1154.09   1
  -4  -4   6 2192.36 1025.79   2
  -4  -4   7 47737.5 3840.87   2
  -4  -4   8 10776.7 1986.80   2
  -4  -4   9 24460.7 2965.49   2
  -4  -4  10 26824.0 3233.43   2
  -4  -4  11 1595.53 1039.19   2
  -4  -4  12 26997.7 3448.31   2
  -4  -4  13-337.204 998.785   2
  -4  -3 -14 11718.6 2033.45   1
  -4  -3 -13 223.909 694.593   1
  -4  -3 -12 10452.7 1853.66   1
  -4  -3 -11 7958.02 1588.71   1
  -4  -3 -10 12444.3 1902.27   1
  -4  -3  -9 41809.6 3335.15   1
  -4  -3  -9 51860.0 3708.36   3
  -4  -3  -8 5254.19 1244.43   1
  -4  -3  -8 3144.23 923.815   3
  -4  -3  -7 68471.1 3718.79   3
  -4  -3  -7 69644.0 3895.69   1
  -4  -3  -6 72508.6 3535.08   3
  -4  -3  -5 6231.68 877.419   3
  -4  -3  -4 31918.6 1718.20   3
  -4  -3  -3 29469.2 1317.59   3
  -4  -3  -2 51713.4 1397.47   3
  -4  -3  -1 99528.2 3297.08   4
  -4  -3   0 2014.21 411.373   4
  -4  -3   0 2207.60 352.397   2
  -4  -3   1 187605. 4935.79   2
  -4  -3   2 9181.05 1068.66   2
  -4  -3   3 73789.8 3542.99   2
  -4  -3   4 112147. 4897.39   2
  -4  -3   5 22261.5 2301.41   2
  -4  -3   6 74718.3 4050.54   1
  -4  -3   6 70410.4 4344.98   2
  -4  -3   7-433.665 751.173   2
  -4  -3   8 29004.4 3037.91   2
  -4  -3   9 22436.0 2814.60   2
  -4  -3  10-98.9561 809.420   2
  -4  -3  11 21989.1 2982.79   2
  -4  -3  12 2634.99 1398.27   2
  -4  -3  13 8114.66 2100.91   2
  -4  -2 -14 1047.79 692.783   1
  -4  -2 -13 13474.9 2119.95   1
  -4  -2 -12 8279.63 1653.56   1
  -4  -2 -11 5932.84 1449.38   1
  -4  -2 -10 45521.4 3541.59   1
  -4  -2  -9 703.968 659.416   3
  -4  -2  -9 111.174 684.065   1
  -4  -2  -8 71788.7 4035.96   3
  -4  -2  -8 69672.3 4060.46   1
  -4  -2  -7 61076.8 3408.73   3
  -4  -2  -7 59718.8 3502.94   1
  -4  -2  -6 36336.3 2343.82   3
  -4  -2  -6 38733.3 2619.79   1
  -4  -2  -5 143028. 4607.73   3
  -4  -2  -5 139720. 5015.05   1
  -4  -2  -4 11568.9 996.905   3
  -4  -2  -3 184571. 4504.37   3
  -4  -2  -2 67301.5 1926.54   3
  -4  -2  -1 37355.8 1143.89   3
  -4  -2   0 91846.5 2691.96   4
  -4  -2   0 92869.6 2624.11   2
  -4  -2   1 6484.11 700.522   2
  -4  -2   1 7317.11 550.768   4
  -4  -2   2 21818.8 1499.23   2
  -4  -2   3 76065.0 3346.68   2
  -4  -2   4 2294.72 768.710   2
  -4  -2   5 82816.1 4262.83   2
  -4  -2   6 14472.0 1904.14   2
  -4  -2   7 48452.8 3660.37   2
  -4  -2   8 42205.1 3574.63   2
  -4  -2   9 13185.2 2156.17   2
  -4  -2  10 36852.4 3610.87   2
  -4  -2  11 215.680 922.469   2
  -4  -2  12 22316.5 3072.43   2
  -4  -2  13 14578.6 2609.23   2
  -4  -1 -15 166.874 718.457   1
  -4  -1 -14 14430.0 2245.70   1
  -4  -1 -13 8338.85 1744.52   1
  -4  -1 -12 11867.6 1934.40   1
  -4  -1 -11 25316.4 2723.61   1
  -4  -1 -10 1772.25 852.985   1
  -4  -1  -9 41367.8 3232.98   1
  -4  -1  -9 47790.9 3486.59   3
  -4  -1  -8 9677.47 1498.03   3
  -4  -1  -8 8183.50 1429.88   1
  -4  -1  -7 15474.4 1650.74   3
  -4  -1  -7 16921.1 1800.43   1
  -4  -1  -6 58732.3 2987.97   3
  -4  -1  -6 58168.2 3166.99   1
  -4  -1  -5 7385.71 950.208   3
  -4  -1  -4 89145.0 3177.03   3
  -4  -1  -3 129857. 2981.99   3
  -4  -1  -3-139.618 240.806   1
  -4  -1  -2 19547.3 1402.22   1
  -4  -1  -2 24424.4 1222.06   3
  -4  -1  -1 197186. 4559.66   3
  -4  -1  -1 199195. 5371.48   1
  -4  -1   0 1316.45 296.393   3
  -4  -1   0 1284.35 419.972   1
  -4  -1   1 137811. 3601.15   2
  -4  -1   1 135323. 2421.60   4
  -4  -1   2 7468.68 875.968   2
  -4  -1   3 5470.73 888.918   2
  -4  -1   4 82487.3 3805.82   2
  -4  -1   4 97130.5 4338.37   1
  -4  -1   5 6476.11 1140.96   2
  -4  -1   5 4049.07 842.257   1
  -4  -1   6 76489.3 4214.60   2
  -4  -1   7 23116.3 2452.01   2
  -4  -1   8 1985.21 990.813   2
  -4  -1   9 50866.0 4037.57   2
  -4  -1  10 1926.75 1073.73   2
  -4  -1  11 25273.2 3143.04   2
  -4  -1  12 3022.34 1242.32   2
  -4  -1  13 1098.08 1035.77   2
  -4   0 -15 5119.52 1443.05   1
  -4   0 -14 5860.75 1521.66   1
  -4   0 -13 1056.82 810.507   1
  -4   0 -12 25369.5 2799.40   1
  -4   0 -11 2684.17 939.952   1
  -4   0 -10 51262.2 3721.84   1
  -4   0  -9 24136.7 2406.65   1
  -4   0  -8 45457.6 3129.36   3
  -4   0  -8 45782.7 3134.61   1
  -4   0  -7 72476.7 3721.33   3
  -4   0  -7 73370.9 3763.40   1
  -4   0  -6 3375.24 791.303   3
  -4   0  -6 3014.40 740.219   1
  -4   0  -5 85018.7 3506.24   3
  -4   0  -4 21770.0 1558.59   3
  -4   0  -3 33892.1 1863.45   1
  -4   0  -3 33501.8 1795.12   3
  -4   0  -2 137909. 3975.61   3
  -4   0  -2 135298. 4098.35   1
  -4   0  -1 6348.47 695.496   3
  -4   0  -1 4948.31 633.221   1
  -4   0   0 151082. 4181.40   3
  -4   0   0 160087. 4703.16   1
  -4   0   1 31791.5 1637.52   3
  -4   0   1 25745.9 2174.62   1
  -4   0   2 22265.9 1550.45   2
  -4   0   2 852.412 530.675   1
  -4   0   3 84996.8 3551.10   2
  -4   0   4 324.943 460.616   2
  -4   0   5 40558.4 2748.73   2
  -4   0   6 15071.2 1812.58   2
  -4   0   7 781.318 636.537   2
  -4   0   8 48161.1 3684.20   2
  -4   0   9 3517.90 1162.33   2
  -4   0  10 35998.5 3508.43   2
  -4   0  11 17331.6 2537.24   2
  -4   0  12 8590.30 1889.39   2
  -4   0  13 17349.3 2786.08   2
  -4   1 -15 1993.00 1069.71   1
  -4   1 -14 3893.78 1239.42   1
  -4   1 -13 11449.7 1993.44   1
  -4   1 -12 586.086 662.074   1
  -4   1 -11 21549.3 2517.73   1
  -4   1 -10 9084.52 1544.68   1
  -4   1  -9 17379.6 2028.56   1
  -4   1  -8 54020.5 3375.52   1
  -4   1  -7 2490.98 846.235   3
  -4   1  -7 2063.11 765.837   1
  -4   1  -6 81784.4 3834.99   3
  -4   1  -5 22617.8 1805.79   3
  -4   1  -4 30412.1 1954.74   3
  -4   1  -4 18484.6 1396.56   1
  -4   1  -3 83142.3 3298.40   3
  -4   1  -3 85985.9 3065.79   1
  -4   1  -2 5795.96 715.223   1
  -4   1  -2 5680.10 770.910   3
  -4   1  -1 70983.1 2572.75   1
  -4   1  -1 65884.8 2702.09   3
  -4   1   0 54735.7 2421.88   3
  -4   1   0 55837.7 2720.21   1
  -4   1   1 74907.7 3774.11   1
  -4   1   1 71792.1 2892.08   3
  -4   1   2 150894. 4753.54   3
  -4   1   2 146504. 3289.51   4
  -4   1   3 438.443 474.768   2
  -4   1   4 120925. 4776.17   2
  -4   1   5 22265.4 2054.83   2
  -4   1   6 34808.5 2718.56   2
  -4   1   7 7872.43 1426.95   2
  -4   1   8 4702.85 1271.96   2
  -4   1   9 29354.2 2991.58   2
  -4   1  10 5513.77 1488.07   2
  -4   1  11 8725.78 1888.82   2
  -4   1  12 11108.3 2252.14   2
  -4   1  13 1501.87 1179.78   2
  -4   2 -14 8031.52 1750.98   1
  -4   2 -13-855.547 856.658   1
  -4   2 -12 19198.7 2486.84   1
  -4   2 -11 5198.38 1265.82   1
  -4   2 -10 7990.94 1504.41   1
  -4   2  -9 31070.2 2684.59   1
  -4   2  -8 267.119 496.503   1
  -4   2  -7 55759.8 3108.16   1
  -4   2  -6 26164.3 2212.92   3
  -4   2  -5 201.974 180.369   1
  -4   2  -5 79919.9 3473.04   3
  -4   2  -4 122471. 4595.80   3
  -4   2  -4 116918. 3830.46   1
  -4   2  -3 4161.39 590.910   1
  -4   2  -3 3953.64 779.432   3
  -4   2  -2 88804.6 2906.52   1
  -4   2  -2 95525.7 3700.54   3
  -4   2  -1 1861.83 503.894   3
  -4   2  -1 3757.17 811.305   1
  -4   2   0 21926.2 2059.86   1
  -4   2   0 24213.0 1721.54   3
  -4   2   1 29210.5 1938.65   3
  -4   2   1 31305.6 2148.23   1
  -4   2   2 149.114 315.870   3
  -4   2   2 250.579 214.461   4
  -4   2   3 48268.3 1720.24   4
  -4   2   4 22973.0 2013.15   2
  -4   2   5 22794.2 2130.60   2
  -4   2   6 29612.1 2559.27   2
  -4   2   7 4330.83 1156.85   2
  -4   2   8 34443.7 3101.36   2
  -4   2   9 8373.90 1668.30   2
  -4   2  10 5632.61 1487.06   2
  -4   2  11 15546.8 2378.81   2
  -4   2  12 1005.52 998.423   2
  -4   2  13 10967.0 2235.35   2
  -4   3 -14 1257.84 827.712   1
  -4   3 -13 21547.9 2801.83   1
  -4   3 -12 2806.76 1058.51   1
  -4   3 -11 13925.3 2065.59   1
  -4   3 -10 14797.4 1972.68   1
  -4   3  -9 3270.14 958.447   1
  -4   3  -8 15522.9 1682.01   1
  -4   3  -7 8870.97 1191.03   1
  -4   3  -5 60487.2 2603.48   1
  -4   3  -4 1011.95 353.571   1
  -4   3  -4 1370.59 635.255   3
  -4   3  -3 96073.2 4115.57   3
  -4   3  -3 88214.8 2786.56   1
  -4   3  -2 25627.7 1338.61   1
  -4   3  -2 24771.3 1940.97   3
  -4   3  -1 48604.8 2710.59   3
  -4   3  -1 47907.1 2578.77   1
  -4   3   0 74683.8 2890.87   1
  -4   3   0 65210.9 3223.09   3
  -4   3   1 697.918 469.005   3
  -4   3   2 62083.1 3230.06   3
  -4   3   2 61206.4 2345.05   4
  -4   3   3 10569.5 915.961   4
  -4   3   3 12597.5 1475.07   3
  -4   3   5 46207.3 3137.53   2
  -4   3   6 1329.87 682.720   2
  -4   3   7 25932.8 2611.28   2
  -4   3   8 5686.59 1393.85   2
  -4   3   9 15634.9 2251.27   2
  -4   3  10 16204.3 2396.97   2
  -4   3  11-63.1831 832.230   2
  -4   3  12 4100.05 1423.32   2
  -4   4 -12 5551.04 1368.16   1
  -4   4 -11 19454.8 2378.36   1
  -4   4 -10 526.043 677.677   1
  -4   4  -9 32605.6 2600.09   1
  -4   4  -8 562.524 462.509   1
  -4   4  -6 13220.1 1172.80   1
  -4   4  -5 1532.14 409.778   1
  -4   4  -4 46522.7 1814.13   1
  -4   4  -3 11702.3 798.740   1
  -4   4  -2 30515.9 1604.96   1
  -4   4  -1 42770.1 1465.35   1
  -4   4   0 2025.05 644.726   3
  -4   4   1 69549.9 3579.18   3
  -4   4   1 65117.5 2847.15   4
  -4   4   2 2032.36 589.485   4
  -4   4   3 29585.8 1763.91   4
  -4   4   7 5376.55 1306.41   2
  -4   4   8 8754.40 1683.71   2
  -4   4   9 14722.3 2226.03   2
  -4   4  10-81.6263 642.101   2
  -4   4  11 9341.75 2019.05   2
  -4   5  -7-59.2184 138.223   1
  -4   5  -6 4751.90 629.061   1
  -4   5  -5 20925.0 1083.20   1
  -4   5  -4 1279.49 283.794   1
  -4   5  -4 74.1193 177.393   1
  -4   5   1 11237.5 1235.63   4
  -4   5   2 26818.8 1864.43   4
  -4   5   3 30734.9 1988.78   4
  -4   5   4 3430.48 718.754   4
  -4   5   9 198.352 654.271   2
  -4   5  10 6547.07 1635.41   2
  -4   5  11 1089.44 1098.12   2
  -4   6   0 1678.24 688.001   4
  -4   6   1 11928.6 1395.32   4
  -4   6   2 14956.6 1529.58   4
  -4   6   3 641.555 461.718   4
  -4   6   4 13201.3 1438.12   4
  -4   7   0 12571.7 1627.15   4
  -4   7   1 6209.11 1122.72   4
  -4   7   2 897.137 571.691   4
  -4   7   3 12127.5 1521.91   4
  -4   7   4-28.9859 434.951   4
  -4   8  -1 9392.15 1586.69   4
  -4   8   0 5483.35 1213.92   4
  -4   8   1 4113.76 1047.75   4
  -4   8   2 6058.79 1215.03   4
  -4   8   3 39.2803 479.125   4
  -4   8   4 4720.55 1056.30   4
  -4   9  -3 1466.86 960.400   4
  -4   9  -2 3451.23 1127.25   4
  -4   9  -1 5369.26 1302.29   4
  -4   9   0 796.510 667.037   4
  -4   9   1 4672.41 1220.98   4
  -4   9   2-727.569 744.137   4
  -4   9   3 5038.29 1201.11   4
  -3 -13  -5 547.987 642.841   3
  -3 -13  -4-702.225 1032.42   3
  -3 -13  -3-74.3926 824.986   3
  -3 -13  -2 2943.57 1145.96   3
  -3 -13  -1 583.392 775.365   3
  -3 -13   0 2894.74 1168.75   3
  -3 -13   1 3107.31 1293.98   3
  -3 -13   2-449.149 926.640   3
  -3 -12  -8 4329.12 1290.89   3
  -3 -12  -7-42.3985 607.707   3
  -3 -12  -6 2668.78 978.150   3
  -3 -12  -5 3396.99 1118.95   3
  -3 -12  -4 358.221 554.473   3
  -3 -12  -3 1377.15 841.929   3
  -3 -12  -2 2683.96 1090.30   3
  -3 -12  -1 122.717 706.053   3
  -3 -12   0 6813.39 1482.91   3
  -3 -12   1-59.4502 681.642   3
  -3 -12   2 9298.53 1801.13   3
  -3 -12   3 1756.73 1000.07   3
  -3 -12   4 2502.89 1146.79   3
  -3 -12   4 6938.71 1735.79   2
  -3 -12   5 4167.08 1508.30   2
  -3 -12   5 2622.00 1252.77   3
  -3 -12   6-531.227 758.080   3
  -3 -11 -10-734.749 711.465   1
  -3 -11 -10 1615.84 889.652   3
  -3 -11  -9 3171.90 1081.91   3
  -3 -11  -9 4765.15 1186.98   1
  -3 -11  -8 1924.47 924.460   3
  -3 -11  -8 3251.27 976.462   1
  -3 -11  -7 686.998 577.064   3
  -3 -11  -7 2975.59 946.021   1
  -3 -11  -6 4992.65 1266.97   3
  -3 -11  -6 5313.56 1140.08   1
  -3 -11  -5 2016.03 867.056   3
  -3 -11  -5 1901.14 723.818   1
  -3 -11  -4 4378.53 1079.89   3
  -3 -11  -4 3276.54 823.027   1
  -3 -11  -3 1803.51 773.932   1
  -3 -11  -3 1254.92 701.257   3
  -3 -11  -2 4733.27 1302.16   1
  -3 -11  -2 3359.61 919.664   3
  -3 -11  -1 6422.29 1655.02   1
  -3 -11  -1 5196.37 1231.19   3
  -3 -11   0 439.077 702.504   3
  -3 -11   0-571.627 940.679   1
  -3 -11   1 3134.06 1022.74   3
  -3 -11   1 3849.61 1157.63   1
  -3 -11   2 18580.1 2217.51   3
  -3 -11   3 11944.4 1913.41   3
  -3 -11   4 8793.86 1680.40   3
  -3 -11   4 7320.12 1782.98   2
  -3 -11   5-1081.93 926.464   3
  -3 -11   5 138.672 939.561   2
  -3 -11   6 5618.97 1718.34   2
  -3 -11   6 5867.01 1511.95   3
  -3 -11   7 1865.23 1223.39   2
  -3 -10 -12 2268.33 982.060   1
  -3 -10 -11 91.3374 620.112   1
  -3 -10 -11 182.419 519.495   3
  -3 -10 -10 2267.60 916.436   3
  -3 -10 -10 3980.86 1137.05   1
  -3 -10  -9 995.986 635.042   3
  -3 -10  -9 1151.00 625.942   1
  -3 -10  -8 1542.11 734.387   1
  -3 -10  -8 2943.69 975.999   3
  -3 -10  -7 7336.47 1315.35   1
  -3 -10  -7 6635.01 1313.72   3
  -3 -10  -6-217.972 548.155   1
  -3 -10  -6-51.3199 524.130   3
  -3 -10  -5 11557.5 1493.50   1
  -3 -10  -5 13754.0 1732.00   3
  -3 -10  -4 4480.30 1033.07   3
  -3 -10  -4 3817.83 866.421   1
  -3 -10  -3 11344.2 1390.09   1
  -3 -10  -3 10599.1 1476.39   3
  -3 -10  -2 10038.5 1435.18   3
  -3 -10  -2 12555.9 1543.25   1
  -3 -10  -1 5430.41 1368.60   1
  -3 -10  -1 2654.32 810.377   3
  -3 -10   0 9340.96 1404.38   3
  -3 -10   0 8761.53 1960.73   1
  -3 -10   1 3458.25 1293.01   1
  -3 -10   1 3195.90 1044.40   3
  -3 -10   2 7209.42 1388.36   3
  -3 -10   2 6037.53 1337.99   1
  -3 -10   3 17189.1 2062.03   3
  -3 -10   3 14421.1 1817.62   1
  -3 -10   4-387.381 769.427   3
  -3 -10   4 243.514 619.946   2
  -3 -10   5 11097.5 1798.34   3
  -3 -10   5 12578.8 2197.32   2
  -3 -10   6 4979.11 1529.59   2
  -3 -10   6 4450.35 1313.08   3
  -3 -10   7 4424.03 1580.82   2
  -3 -10   8 6343.88 1800.88   2
  -3  -9 -13 2535.84 984.241   1
  -3  -9 -13 3206.58 1068.93   3
  -3  -9 -12 1291.74 732.956   1
  -3  -9 -12 438.211 606.006   3
  -3  -9 -11 11006.2 1832.58   1
  -3  -9 -11 9292.45 1644.19   3
  -3  -9 -10 66.0811 606.536   1
  -3  -9 -10 510.430 673.841   3
  -3  -9  -9 9491.76 1576.33   3
  -3  -9  -9 10753.3 1679.96   1
  -3  -9  -8 5188.79 1153.06   3
  -3  -9  -8 5639.04 1257.70   1
  -3  -9  -7 2666.08 786.166   2
  -3  -9  -7 2335.86 788.831   1
  -3  -9  -7 1838.86 744.196   3
  -3  -9  -6 11150.0 1512.24   3
  -3  -9  -6 12324.5 1599.93   1
  -3  -9  -6 13793.8 1590.60   2
  -3  -9  -5 2475.94 756.202   3
  -3  -9  -5 2090.84 647.820   2
  -3  -9  -5 1083.65 552.437   1
  -3  -9  -4 5966.25 976.794   2
  -3  -9  -4 5559.37 1038.13   3
  -3  -9  -4 4528.35 912.937   1
  -3  -9  -3 16895.6 1694.08   3
  -3  -9  -3 17177.7 1646.88   1
  -3  -9  -3 17456.7 1652.14   2
  -3  -9  -2 665.959 414.198   2
  -3  -9  -2 556.340 469.881   1
  -3  -9  -2 1066.12 572.659   3
  -3  -9  -1 26175.4 2151.85   1
  -3  -9  -1 22689.1 1949.14   3
  -3  -9   0 304.719 886.313   1
  -3  -9   0-462.245 536.640   3
  -3  -9   1 2399.47 1199.66   1
  -3  -9   1 2954.75 858.513   3
  -3  -9   2 37711.3 2724.40   3
  -3  -9   2 34977.1 3067.51   1
  -3  -9   3 3687.86 1141.21   1
  -3  -9   3 5117.11 1190.37   3
  -3  -9   4 20461.6 2102.37   1
  -3  -9   4 21506.8 2428.13   2
  -3  -9   4 20784.6 2172.21   3
  -3  -9   5 4765.77 1321.16   2
  -3  -9   5 5397.88 1269.98   3
  -3  -9   6 2135.10 936.110   3
  -3  -9   6 4510.71 1389.56   2
  -3  -9   7 26365.1 3167.69   2
  -3  -9   8 827.912 904.538   2
  -3  -9   9 14738.0 2669.02   2
  -3  -8 -13 705.153 718.533   1
  -3  -8 -13 531.367 484.740   3
  -3  -8 -12 6282.14 1431.10   1
  -3  -8 -12 5048.89 1209.69   3
  -3  -8 -11 378.087 492.070   3
  -3  -8 -11 837.915 677.839   1
  -3  -8 -10 6348.14 1310.33   3
  -3  -8 -10 6438.33 1388.58   1
  -3  -8  -9 11652.8 1657.06   3
  -3  -8  -9 11033.3 1726.09   1
  -3  -8  -9 13085.0 1681.00   2
  -3  -8  -8 2756.44 908.558   1
  -3  -8  -8 4111.61 904.878   2
  -3  -8  -8 2550.33 843.983   3
  -3  -8  -7 21919.1 2228.91   1
  -3  -8  -7 23130.0 1982.24   2
  -3  -8  -7 21127.7 2055.17   3
  -3  -8  -6 1931.69 594.187   2
  -3  -8  -6 2481.41 791.732   1
  -3  -8  -6 2431.50 754.661   3
  -3  -8  -5 23170.3 1802.27   2
  -3  -8  -5 22085.0 1901.00   3
  -3  -8  -5 23215.9 2004.55   1
  -3  -8  -4 21045.2 1784.67   3
  -3  -8  -4 20162.9 1617.18   2
  -3  -8  -4 23374.1 1907.92   1
  -3  -8  -3 1198.51 525.021   3
  -3  -8  -3 758.152 383.443   2
  -3  -8  -3 1034.99 522.444   1
  -3  -8  -2 34277.8 2058.73   2
  -3  -8  -2 32276.5 2171.28   1
  -3  -8  -2 32109.2 2119.47   3
  -3  -8  -1 6334.30 976.517   3
  -3  -8  -1 6859.24 1061.12   1
  -3  -8   0 14415.7 1455.99   3
  -3  -8   0 14229.3 1776.50   1
  -3  -8   1 31324.2 2241.19   3
  -3  -8   1 31212.3 3019.68   1
  -3  -8   2 12620.7 1458.31   3
  -3  -8   2 9036.16 1715.43   1
  -3  -8   3 44689.7 2897.37   3
  -3  -8   3 47992.6 3401.72   1
  -3  -8   4 561.198 675.919   2
  -3  -8   4-269.963 610.924   3
  -3  -8   4 372.507 720.322   1
  -3  -8   5 27628.9 2518.12   3
  -3  -8   5 27125.4 2798.54   2
  -3  -8   6 15542.1 2239.21   2
  -3  -8   7 209.129 691.745   2
  -3  -8   8 13002.1 2324.49   2
  -3  -8   9 2295.70 1224.39   2
  -3  -8  10 3379.46 1517.48   2
  -3  -8  11 11822.0 2476.53   2
  -3  -7 -14 495.380 664.179   1
  -3  -7 -14 930.465 754.262   3
  -3  -7 -13 6176.47 1415.46   3
  -3  -7 -13 7805.20 1594.04   1
  -3  -7 -12 93.5104 576.754   3
  -3  -7 -12 809.202 665.791   1
  -3  -7 -11 8317.78 1575.88   1
  -3  -7 -11 6717.58 1347.71   3
  -3  -7 -10 14513.6 1981.43   1
  -3  -7 -10 14439.9 1873.69   2
  -3  -7 -10 11449.3 1661.77   3
  -3  -7  -9 5464.06 1092.21   2
  -3  -7  -9 4757.64 1078.85   3
  -3  -7  -9 3867.41 1070.79   1
  -3  -7  -8 33306.4 2567.02   3
  -3  -7  -8 32891.7 2825.98   1
  -3  -7  -8 33446.2 2443.50   2
  -3  -7  -7 164.415 298.016   2
  -3  -7  -7 1111.83 613.605   3
  -3  -7  -7-94.6860 596.772   1
  -3  -7  -6 36694.6 2461.32   3
  -3  -7  -6 39709.7 2752.44   1
  -3  -7  -6 36931.3 2247.21   2
  -3  -7  -5 16356.2 1398.49   2
  -3  -7  -5 16348.4 1649.38   1
  -3  -7  -5 16281.6 1546.86   3
  -3  -7  -4 17784.4 1518.62   3
  -3  -7  -4 17248.5 1630.27   1
  -3  -7  -4 19023.8 1427.36   2
  -3  -7  -4 20272.8 1979.98   4
  -3  -7  -3 29966.0 2330.66   4
  -3  -7  -3 27926.4 1831.73   3
  -3  -7  -3 28466.8 1990.24   1
  -3  -7  -3 29366.4 1711.64   2
  -3  -7  -2 335.876 374.640   3
  -3  -7  -2 296.924 271.038   2
  -3  -7  -2 761.895 518.396   1
  -3  -7  -1 13198.3 1185.59   3
  -3  -7  -1 11505.9 1239.63   1
  -3  -7   0 20073.3 1520.18   3
  -3  -7   0 25246.8 1996.35   1
  -3  -7   1 929.668 1065.28   1
  -3  -7   1 807.355 528.594   3
  -3  -7   2 51124.1 3763.55   1
  -3  -7   2 55907.1 2849.08   3
  -3  -7   3 13888.3 1519.32   3
  -3  -7   3 14636.0 1739.08   2
  -3  -7   3 12434.0 1924.24   1
  -3  -7   4 36318.7 2722.63   1
  -3  -7   4 36344.7 2524.08   3
  -3  -7   4 37482.2 2879.36   2
  -3  -7   5 21047.9 2031.14   3
  -3  -7   5 22751.1 2432.26   2
  -3  -7   5 19386.6 2050.33   1
  -3  -7   6 3181.62 1130.63   2
  -3  -7   7 57362.3 4335.70   2
  -3  -7   8 832.330 988.668   2
  -3  -7   9 13002.9 2300.06   2
  -3  -7  10 13990.7 2628.64   2
  -3  -7  11 1172.17 898.187   2
  -3  -6 -14 4625.61 1237.79   1
  -3  -6 -13-72.7582 580.615   1
  -3  -6 -12 7461.81 1525.22   1
  -3  -6 -11 6977.66 1466.64   1
  -3  -6 -10 4597.42 1096.62   2
  -3  -6 -10 2502.10 992.268   1
  -3  -6  -9 10994.3 1707.76   1
  -3  -6  -9 12257.6 1599.82   2
  -3  -6  -8 8926.24 1479.09   1
  -3  -6  -8 9443.07 1302.02   2
  -3  -6  -8 8553.10 1287.24   3
  -3  -6  -7 34484.4 2701.43   1
  -3  -6  -7 30594.9 2140.22   2
  -3  -6  -7 31978.3 2293.29   3
  -3  -6  -6 65606.8 3193.87   3
  -3  -6  -6 65309.8 3676.66   4
  -3  -6  -6 70779.6 3666.66   1
  -3  -6  -6 63583.3 2909.98   2
  -3  -6  -5 7786.99 1226.80   4
  -3  -6  -5 9033.89 1078.38   3
  -3  -6  -5 10800.9 1333.11   1
  -3  -6  -5 8152.01 911.176   2
  -3  -6  -4 121883. 4475.26   1
  -3  -6  -4 119501. 3688.36   2
  -3  -6  -4 120442. 4053.43   3
  -3  -6  -4 119722. 4814.89   4
  -3  -6  -3 1577.77 546.364   1
  -3  -6  -3 1386.41 360.679   2
  -3  -6  -3 1706.35 458.935   3
  -3  -6  -3 1911.49 655.119   4
  -3  -6  -2 69368.0 2985.27   1
  -3  -6  -2 68680.7 2418.05   2
  -3  -6  -2 69108.2 2609.10   3
  -3  -6  -2 73295.5 3387.34   4
  -3  -6  -1 26751.7 1504.52   3
  -3  -6  -1 26611.7 1753.24   1
  -3  -6   0 33376.3 1749.83   3
  -3  -6   0 37708.5 2187.31   1
  -3  -6   1 60306.1 3454.32   1
  -3  -6   1 56073.1 2519.35   3
  -3  -6   2 1343.02 576.215   3
  -3  -6   2 2035.49 1215.71   1
  -3  -6   2 519.462 502.439   2
  -3  -6   3 33081.4 2093.59   3
  -3  -6   3 37310.4 2556.68   2
  -3  -6   3 33906.7 2919.51   1
  -3  -6   4 45772.7 2687.01   3
  -3  -6   4 47009.1 3118.73   1
  -3  -6   4 47381.7 3178.99   2
  -3  -6   5 2620.67 806.533   1
  -3  -6   5 3512.64 1027.32   2
  -3  -6   6 67758.0 4369.35   2
  -3  -6   7 2108.42 1046.02   2
  -3  -6   8 35763.4 3495.17   2
  -3  -6   9 10734.1 2097.39   2
  -3  -6  10 4249.42 1413.73   2
  -3  -6  11 12872.0 2434.68   2
  -3  -6  12 4003.03 1617.33   2
  -3  -5 -14 1814.38 983.668   1
  -3  -5 -13 20877.3 2515.21   1
  -3  -5 -12 11417.9 1823.45   1
  -3  -5 -11 10821.2 1784.70   1
  -3  -5 -11 13269.8 1902.43   2
  -3  -5 -10 34765.5 2897.87   2
  -3  -5 -10 27842.8 2693.11   1
  -3  -5  -9-342.994 673.001   1
  -3  -5  -9 178.078 439.710   2
  -3  -5  -8 55595.4 3632.40   1
  -3  -5  -8 58147.2 3345.69   2
  -3  -5  -7 12874.9 1666.90   1
  -3  -5  -7 13322.2 1441.11   2
  -3  -5  -6 23534.0 2072.22   1
  -3  -5  -6 22280.1 2005.70   4
  -3  -5  -6 21384.7 1609.85   2
  -3  -5  -5 73715.0 3483.27   1
  -3  -5  -5 66969.2 2890.01   3
  -3  -5  -5 70000.7 3525.40   4
  -3  -5  -5 68692.3 2685.96   2
  -3  -5  -4 149.784 287.973   3
  -3  -5  -4 488.976 368.136   4
  -3  -5  -4 64.0249 202.063   2
  -3  -5  -4 575.531 439.276   1
  -3  -5  -3 94271.9 3032.80   3
  -3  -5  -3 98035.8 3660.81   1
  -3  -5  -3 94302.6 3827.24   4
  -3  -5  -3 93396.6 2692.71   2
  -3  -5  -2 32346.6 1328.63   2
  -3  -5  -2 33640.0 1975.81   1
  -3  -5  -2 36889.9 2157.61   4
  -3  -5  -2 32868.7 1488.12   3
  -3  -5  -1 16107.7 959.788   3
  -3  -5  -1 16002.7 1375.94   4
  -3  -5  -1 13603.6 1113.36   1
  -3  -5   0 95148.9 2841.29   3
  -3  -5   0 93365.5 3476.00   1
  -3  -5   1 3204.45 613.451   3
  -3  -5   1 4984.57 1254.84   1
  -3  -5   2 40770.2 2003.27   3
  -3  -5   2 39730.1 2434.46   2
  -3  -5   2 37040.0 2961.77   1
  -3  -5   3 24123.9 1674.39   3
  -3  -5   3 29503.2 2220.91   2
  -3  -5   3 25959.0 2531.04   1
  -3  -5   4 7075.98 1266.89   2
  -3  -5   4 7310.47 1365.55   1
  -3  -5   5 70484.9 3697.21   1
  -3  -5   5 74801.8 4238.58   2
  -3  -5   6 12153.3 1829.79   2
  -3  -5   7 58695.4 4181.72   2
  -3  -5   8 37178.9 3506.56   2
  -3  -5   9 10891.5 2011.05   2
  -3  -5  10 38847.7 3890.88   2
  -3  -5  11 413.804 825.984   2
  -3  -5  12 6868.41 1927.91   2
  -3  -5  13 8333.85 2090.74   2
  -3  -4 -11 36409.8 3149.31   2
  -3  -4 -10 1053.76 725.041   1
  -3  -4 -10-865.450 694.302   2
  -3  -4  -9 19808.1 2220.61   1
  -3  -4  -9 26669.9 2415.09   2
  -3  -4  -8 62275.2 3825.49   1
  -3  -4  -8 75863.6 3919.25   2
  -3  -4  -7 22370.8 2134.77   1
  -3  -4  -7 25064.4 2023.18   2
  -3  -4  -6 68235.6 3151.78   2
  -3  -4  -5-265.585 319.000   2
  -3  -4  -4 52513.0 1995.76   2
  -3  -4  -4 51867.3 2707.82   4
  -3  -4  -3 68277.5 2297.63   3
  -3  -4  -3 68057.0 3021.77   4
  -3  -4  -3 67905.4 1922.39   2
  -3  -4  -2 19739.2 1452.75   4
  -3  -4  -2 17445.8 889.612   3
  -3  -4  -2 17557.6 709.497   2
  -3  -4  -1 216404. 4536.70   3
  -3  -4  -1 213939. 5725.22   4
  -3  -4   0 1617.37 445.779   2
  -3  -4   0 1970.82 325.401   3
  -3  -4   0 1262.16 426.274   4
  -3  -4   1 180329. 4343.90   3
  -3  -4   1 186059. 5260.28   2
  -3  -4   1 180980. 5615.23   1
  -3  -4   2 51494.2 2674.23   2
  -3  -4   2 38798.1 3018.59   1
  -3  -4   3 65514.0 4026.19   1
  -3  -4   3 73952.5 3653.10   2
  -3  -4   4 53873.2 3196.97   1
  -3  -4   4 47616.0 3108.67   2
  -3  -4   5 4151.00 1148.18   2
  -3  -4   5 1578.94 824.093   1
  -3  -4   6 56588.8 3794.03   2
  -3  -4   7 21876.4 2519.80   2
  -3  -4   8 3295.74 1169.84   2
  -3  -4   9 49403.2 4055.94   2
  -3  -4  10 7109.19 1662.74   2
  -3  -4  11 13782.5 2359.39   2
  -3  -4  12 12973.7 2388.50   2
  -3  -4  13 2787.06 1367.25   2
  -3  -3 -11 4057.62 1102.19   2
  -3  -3 -10 29947.2 2664.98   2
  -3  -3  -9 65489.3 3809.30   2
  -3  -3  -8 47883.7 3296.39   1
  -3  -3  -8 57376.9 3284.96   2
  -3  -3  -7 112819. 4471.80   2
  -3  -3  -6 3571.75 726.014   2
  -3  -3  -5 137798. 4125.54   2
  -3  -3  -4 27202.9 1253.23   2
  -3  -3  -2 54774.7 2380.48   4
  -3  -3  -1 221.550 307.378   4
  -3  -3   0 107264. 3057.64   2
  -3  -3   0 107294. 3174.27   4
  -3  -3   1 117763. 3834.40   2
  -3  -3   2 13866.7 1341.03   2
  -3  -3   3 101909. 4292.50   2
  -3  -3   4 493.824 590.212   2
  -3  -3   5 125973. 5487.38   2
  -3  -3   6 22702.5 2378.99   2
  -3  -3   7 38945.4 3248.72   2
  -3  -3   8 77138.5 4846.44   2
  -3  -3   9-114.318 697.873   2
  -3  -3  10 40186.0 3731.64   2
  -3  -3  11 18031.0 2665.93   2
  -3  -3  12 3302.71 1384.44   2
  -3  -3  13 19561.6 2946.12   2
  -3  -3  14 808.109 1144.81   2
  -3  -2  -9 391.299 639.502   3
  -3  -2  -8 96259.2 4783.43   3
  -3  -2  -7 3375.53 912.664   3
  -3  -2  -6 161795. 5642.17   3
  -3  -2  -5 72676.2 3188.91   3
  -3  -2  -4 48153.4 2227.05   3
  -3  -2  -3 278593. 6319.72   3
  -3  -2  -2 57363.2 1701.33   3
  -3  -2   0 25797.8 1034.63   2
  -3  -2   0 25158.3 1163.12   4
  -3  -2   1 26997.6 1393.08   2
  -3  -2   2 78776.5 3037.46   2
  -3  -2   3-42.2159 438.180   2
  -3  -2   4 143839. 5321.13   2
  -3  -2   5 31976.8 2533.40   2
  -3  -2   6 54346.8 3541.09   2
  -3  -2   7 55784.1 3794.74   2
  -3  -2   8 6486.21 1432.27   2
  -3  -2   9 37068.3 3385.51   2
  -3  -2  10 8321.98 1762.33   2
  -3  -2  11 4746.58 1492.98   2
  -3  -2  12 20694.9 2867.76   2
  -3  -2  13 1538.68 1187.49   2
  -3  -2  14 12097.5 2474.25   2
  -3  -1  -9 59298.0 3891.93   3
  -3  -1  -8 8634.42 1383.01   3
  -3  -1  -7 74559.0 3785.11   3
  -3  -1  -6 9856.01 1198.15   3
  -3  -1  -5 28990.6 1888.63   3
  -3  -1  -4 173160. 4865.96   3
  -3  -1  -4 168953. 5083.87   1
  -3  -1  -3 25827.0 1357.52   3
  -3  -1  -2 307737. 6482.57   3
  -3  -1  -1 82193.0 2127.23   3
  -3  -1   0 16698.9 897.016   2
  -3  -1   0 17848.2 802.191   3
  -3  -1   1 69516.9 1648.95   4
  -3  -1   1 71991.2 2372.52   2
  -3  -1   2 4853.15 690.868   2
  -3  -1   3 63370.2 2834.90   2
  -3  -1   4 44025.0 2600.73   2
  -3  -1   5 24724.7 2090.67   2
  -3  -1   6 101643. 4804.31   2
  -3  -1   7 1230.14 794.484   2
  -3  -1   8 109763. 5578.34   2
  -3  -1   9 15533.0 2150.90   2
  -3  -1  10 25220.6 2862.65   2
  -3  -1  11 29316.5 3206.42   2
  -3  -1  12 651.019 811.323   2
  -3  -1  13 18210.3 2781.46   2
  -3  -1  14 4298.79 1485.90   2
  -3   0  -8 77927.0 4213.86   3
  -3   0  -7 22931.2 2057.79   3
  -3   0  -6 22017.0 1814.72   3
  -3   0  -5 32550.1 1944.01   3
  -3   0  -5 64.5959 260.017   1
  -3   0  -4 7453.33 898.877   3
  -3   0  -4 6533.69 847.908   1
  -3   0  -3 289747. 6793.66   3
  -3   0  -3 283425. 6824.65   1
  -3   0  -2 76959.4 2614.35   1
  -3   0  -2 75682.1 2496.81   3
  -3   0  -1 201546. 4728.89   3
  -3   0  -1 200735. 4866.32   1
  -3   0   0 319988. 6935.07   3
  -3   0   0 334266. 7281.84   1
  -3   0   1 52580.7 2088.05   2
  -3   0   1 47870.3 2670.27   1
  -3   0   1 52141.3 1945.25   3
  -3   0   2 199905. 6246.34   1
  -3   0   2 187597. 5181.12   2
  -3   0   3 43411.0 2411.11   1
  -3   0   3 40023.1 2187.74   2
  -3   0   4 64441.1 3104.40   2
  -3   0   5 30038.3 2251.25   2
  -3   0   6 7547.27 1286.80   2
  -3   0   7 50969.6 3446.76   2
  -3   0   8 9547.68 1624.61   2
  -3   0   9 18434.1 2311.78   2
  -3   0  10 27587.0 2938.53   2
  -3   0  11 1070.82 797.697   2
  -3   0  12 27663.6 3196.21   2
  -3   0  13 3772.71 1379.22   2
  -3   0  14 3867.66 1455.58   2
  -3   1  -8 6055.79 1212.34   3
  -3   1  -7 98793.5 4466.91   3
  -3   1  -6 41824.9 2584.31   3
  -3   1  -5 11020.9 1206.57   3
  -3   1  -5 8402.20 981.601   1
  -3   1  -4 121962. 4195.90   3
  -3   1  -4 123093. 3899.74   1
  -3   1  -3 3039.28 506.137   1
  -3   1  -3 1971.94 430.642   3
  -3   1  -2 41518.6 1723.98   1
  -3   1  -2 43477.1 1982.00   3
  -3   1  -1 46230.2 1955.12   3
  -3   1  -1 40677.1 1617.93   1
  -3   1   0 19818.9 1311.67   1
  -3   1   0 17446.6 1167.58   3
  -3   1   1 58490.6 2338.33   3
  -3   1   1 55638.1 2921.34   1
  -3   1   2 67865.7 2793.76   2
  -3   1   2 65927.9 1753.19   4
  -3   1   2 68029.0 2691.03   3
  -3   1   3 57281.3 2650.39   1
  -3   1   3 54043.9 2649.97   2
  -3   1   4 105278. 4131.36   2
  -3   1   5 572.293 455.842   2
  -3   1   6 85563.5 4231.70   2
  -3   1   7 16202.9 1922.50   2
  -3   1   8 26948.6 2646.35   2
  -3   1   9 23045.9 2548.77   2
  -3   1  10 2068.91 974.412   2
  -3   1  11 35497.0 3494.45   2
  -3   1  12 3809.01 1328.39   2
  -3   1  13 8297.81 1894.18   2
  -3   1  14 8133.93 1932.14   2
  -3   2  -7 67258.0 3673.80   3
  -3   2  -6 3371.61 832.268   3
  -3   2  -5 122699. 4673.09   3
  -3   2  -5 122378. 4113.18   1
  -3   2  -4 21575.6 1371.48   1
  -3   2  -4 23742.0 1776.06   3
  -3   2  -3 99024.6 3702.87   3
  -3   2  -3 104206. 3082.00   1
  -3   2  -2 84699.8 2523.25   1
  -3   2  -2 88132.2 3307.36   3
  -3   2  -1 13572.7 831.104   1
  -3   2  -1 13760.6 1178.91   3
  -3   2   0 112479. 3731.78   3
  -3   2   0 105805. 3758.87   1
  -3   2   1 360.775 681.497   1
  -3   2   1 290.827 290.916   3
  -3   2   2 24647.6 1159.30   4
  -3   2   2 26062.7 1730.86   3
  -3   2   3 124448. 3283.35   4
  -3   2   3 127705. 4515.27   2
  -3   2   4 9136.08 1221.81   2
  -3   2   5 133372. 5204.62   2
  -3   2   6 1740.00 785.043   2
  -3   2   7 20386.4 2142.10   2
  -3   2   8 26310.3 2568.65   2
  -3   2   9 11549.8 1810.63   2
  -3   2  10 19854.2 2524.23   2
  -3   2  11 1521.69 976.237   2
  -3   2  12 4369.20 1357.78   2
  -3   2  13 10925.3 2119.02   2
  -3   2  14-1297.52 1033.21   2
  -3   3  -6 68402.8 3492.23   3
  -3   3  -6 214.634 304.590   1
  -3   3  -5 5577.05 758.775   1
  -3   3  -5 5168.38 925.750   3
  -3   3  -4 69528.1 3351.40   3
  -3   3  -4 71660.7 2538.40   1
  -3   3  -3 67874.9 2199.20   1
  -3   3  -3 70994.3 3289.60   3
  -3   3  -2 16055.1 1436.24   3
  -3   3  -2 13687.8 740.531   1
  -3   3  -1 104489. 3837.06   3
  -3   3  -1 93968.4 3009.53   1
  -3   3   0 1562.07 492.085   3
  -3   3   0 1464.23 325.906   1
  -3   3   1 30346.5 1974.28   3
  -3   3   2 33353.5 1628.68   4
  -3   3   2 34635.2 2185.08   3
  -3   3   3 4884.65 632.348   4
  -3   3   3 5369.42 904.685   3
  -3   3   4 48613.2 2862.70   2
  -3   3   5 8317.01 1284.32   2
  -3   3   6 14352.6 1758.74   2
  -3   3   7 58603.7 3719.22   2
  -3   3   8 7731.51 1485.67   2
  -3   3   9 48003.1 3744.81   2
  -3   3  10 1608.73 955.891   2
  -3   3  11 17475.9 2468.12   2
  -3   3  12 8004.72 1847.93   2
  -3   3  13 2444.01 1152.54   2
  -3   4  -6 957.459 380.978   1
  -3   4  -5 33099.8 1736.98   1
  -3   4  -4 49436.0 1854.29   1
  -3   4  -4 50009.6 3003.33   3
  -3   4  -3 1190.22 505.373   3
  -3   4  -3 1631.34 258.504   1
  -3   4  -2 97813.3 4110.58   3
  -3   4  -1 4555.58 860.420   3
  -3   4   0 114720. 4445.12   3
  -3   4   1 30373.6 2146.98   3
  -3   4   1 28191.7 1749.25   4
  -3   4   2 20629.3 1803.33   3
  -3   4   2 18328.9 1355.82   4
  -3   4   3 45619.3 2219.81   4
  -3   4   3 49985.6 2928.81   3
  -3   4   4 191.634 337.561   4
  -3   4   6 2522.59 849.060   2
  -3   4   7 276.736 509.377   2
  -3   4   8 39178.1 3233.49   2
  -3   4   9 122.669 605.243   2
  -3   4  10 15493.6 2267.37   2
  -3   4  11 5244.81 1475.19   2
  -3   4  12 372.430 655.216   2
  -3   4  13 7537.96 1870.40   2
  -3   5 -10 10516.9 1659.72   1
  -3   5  -9 9174.67 1425.03   1
  -3   5  -8 32501.5 2362.19   1
  -3   5  -8 25936.7 2190.96   1
  -3   5  -6 60810.1 2546.89   1
  -3   5  -6 57057.0 2684.92   1
  -3   5  -5 12494.1 893.081   1
  -3   5  -5 12567.3 1027.14   1
  -3   5  -4 13721.3 687.964   1
  -3   5  -4 15689.9 959.025   1
  -3   5   1 4630.29 829.489   4
  -3   5   2 55469.4 2710.20   4
  -3   5   3 817.366 498.889   4
  -3   5   4 34262.7 2128.74   4
  -3   5   8 433.336 641.642   2
  -3   5   9 12111.2 1916.23   2
  -3   5  10 9962.73 1860.93   2
  -3   5  11 1757.48 1003.28   2
  -3   5  12 11999.7 2282.68   2
  -3   6  -6 11325.1 850.187   1
  -3   6   0 8891.36 1280.31   4
  -3   6   1 33500.9 2310.44   4
  -3   6   2 59.6848 412.790   4
  -3   6   3 27639.5 2060.27   4
  -3   6   4 10681.4 1277.78   4
  -3   6  11 3146.27 1230.60   2
  -3   7   0 14203.7 1678.82   4
  -3   7   1 1138.28 648.246   4
  -3   7   2 13517.1 1560.25   4
  -3   7   3 3693.43 913.969   4
  -3   7   4 292.866 467.839   4
  -3   8  -1 17022.5 2086.14   4
  -3   8   0 139.549 624.106   4
  -3   8   1 18408.5 2014.69   4
  -3   8   2 1270.94 721.408   4
  -3   8   3 6325.55 1188.13   4
  -3   8   4 5381.90 1114.32   4
  -3   9  -2 7805.72 1517.40   4
  -3   9  -1-109.210 631.349   4
  -3   9   0 9677.67 1653.59   4
  -3   9   1 2582.61 909.272   4
  -3   9   2 4106.20 1113.83   4
  -3   9   3 3319.02 1059.23   4
  -3   9   4 536.860 628.405   4
  -3  10  -2 785.302 810.282   4
  -3  10  -1 4124.07 1261.59   4
  -3  10   0 2259.37 937.928   4
  -3  10   1 2124.74 907.625   4
  -3  10   2 6263.14 1420.56   4
  -3  10   3-120.142 576.427   4
  -3  10   4 4890.62 1273.55   4
  -2 -12  -7 787.275 888.623   3
  -2 -12  -6 3618.39 1295.50   3
  -2 -12  -5 203.626 691.713   3
  -2 -12  -4 1276.06 855.747   3
  -2 -12  -3 1295.92 776.836   3
  -2 -12  -2-794.371 909.943   3
  -2 -12  -1 5467.62 1425.04   3
  -2 -12   0 455.425 774.993   3
  -2 -12   1 5040.00 1444.21   3
  -2 -12   2 5271.38 1540.41   3
  -2 -12   3 851.271 836.222   3
  -2 -12   4 5231.66 1482.96   3
  -2 -11  -9 1408.61 896.360   3
  -2 -11  -8 435.010 600.514   3
  -2 -11  -7 6522.67 1495.82   3
  -2 -11  -6 865.783 762.237   3
  -2 -11  -5 7851.25 1571.44   3
  -2 -11  -4 3479.70 1059.47   3
  -2 -11  -3 2508.91 936.778   3
  -2 -11  -2 4164.12 1171.04   3
  -2 -11  -1-769.118 799.518   3
  -2 -11   0 4773.09 1213.86   3
  -2 -11   1 5077.69 1306.72   3
  -2 -11   2 1349.41 847.625   3
  -2 -11   3 8040.13 1631.90   3
  -2 -11   4 1471.80 903.040   3
  -2 -11   5 4800.57 1407.30   3
  -2 -11   6 3660.58 1326.40   2
  -2 -11   6 1708.46 908.316   3
  -2 -11   7-292.327 1024.21   3
  -2 -10 -12-845.649 659.528   1
  -2 -10 -11 1608.17 759.484   1
  -2 -10 -11 2701.88 1071.56   3
  -2 -10 -10 2103.47 825.341   1
  -2 -10 -10 1070.09 649.049   3
  -2 -10  -9 1009.76 747.177   3
  -2 -10  -9 1894.26 749.939   1
  -2 -10  -8 5592.90 1349.32   3
  -2 -10  -8 2609.59 917.355   1
  -2 -10  -7 517.347 548.145   3
  -2 -10  -7 821.439 549.630   1
  -2 -10  -6 5117.17 997.999   1
  -2 -10  -6 3884.06 1043.49   3
  -2 -10  -5 4360.75 1127.44   3
  -2 -10  -5 4763.81 931.860   1
  -2 -10  -4 166.308 526.704   3
  -2 -10  -4-1002.78 708.445   1
  -2 -10  -3 21163.1 2190.03   3
  -2 -10  -3 21778.3 1753.67   1
  -2 -10  -2-1628.38 782.565   3
  -2 -10  -2 429.221 645.515   1
  -2 -10  -1 11416.1 1639.44   3
  -2 -10  -1 15674.5 2073.87   1
  -2 -10   0 5247.87 1191.58   3
  -2 -10   0 8009.85 1490.13   1
  -2 -10   1 305.966 675.143   3
  -2 -10   1 493.949 638.992   1
  -2 -10   2 15367.6 2049.93   3
  -2 -10   2 17017.6 1653.34   1
  -2 -10   3 3230.59 1107.61   3
  -2 -10   4 6556.07 1461.27   3
  -2 -10   5 11459.9 1866.82   3
  -2 -10   6 192.167 728.470   2
  -2 -10   6 1362.02 928.513   3
  -2 -10   7 12622.4 2311.83   2
  -2 -10   7 13063.9 2196.74   3
  -2 -10   8 1146.88 1046.66   2
  -2  -9 -13 926.677 691.606   1
  -2  -9 -12 5015.14 1385.82   3
  -2  -9 -12 2010.69 929.686   1
  -2  -9 -11 3665.83 1256.32   3
  -2  -9 -11 2723.82 900.288   1
  -2  -9 -10 1511.83 806.120   3
  -2  -9 -10 1782.41 807.454   1
  -2  -9  -9 9729.19 1530.95   1
  -2  -9  -9 8209.03 1563.19   3
  -2  -9  -8-349.466 552.613   1
  -2  -9  -8 52.8073 487.276   3
  -2  -9  -7 10793.2 1481.43   1
  -2  -9  -7 10312.1 1607.10   3
  -2  -9  -6 5834.00 1220.71   3
  -2  -9  -6 5773.92 1064.16   1
  -2  -9  -5 1760.57 622.903   1
  -2  -9  -5 1130.99 671.987   3
  -2  -9  -4 24970.3 1883.15   1
  -2  -9  -4 26911.9 2335.32   3
  -2  -9  -4 27995.1 2232.02   2
  -2  -9  -3 1666.97 725.696   3
  -2  -9  -3 2071.09 629.013   2
  -2  -9  -3 1240.82 490.208   1
  -2  -9  -2 28045.4 2177.87   2
  -2  -9  -2 27323.6 1874.50   1
  -2  -9  -2 23271.7 2113.71   3
  -2  -9  -1 12621.9 1554.60   3
  -2  -9  -1 12714.0 1559.99   1
  -2  -9   0 15613.1 1748.35   3
  -2  -9   0 15511.4 1969.19   1
  -2  -9   1 22535.1 2113.34   3
  -2  -9   1 24731.3 2251.97   1
  -2  -9   2 477.907 645.063   3
  -2  -9   2 1012.56 602.277   1
  -2  -9   3 20811.4 2247.61   3
  -2  -9   4 8626.37 1532.25   3
  -2  -9   5 395.568 745.253   3
  -2  -9   6 10910.8 1967.57   2
  -2  -9   6 10638.6 1796.22   3
  -2  -9   7 2350.76 1043.63   2
  -2  -9   7 1808.66 881.910   3
  -2  -9   8 5529.27 1575.71   2
  -2  -9   9 9211.20 2130.65   2
  -2  -8 -13 3012.32 1109.95   3
  -2  -8 -13 2548.77 953.834   1
  -2  -8 -12 1134.70 780.223   3
  -2  -8 -12 1078.39 746.295   1
  -2  -8 -11 2501.97 917.866   1
  -2  -8 -11 3730.40 1107.12   3
  -2  -8 -10 13120.1 1794.01   1
  -2  -8 -10 13589.3 1920.15   3
  -2  -8  -9 160.017 488.083   3
  -2  -8  -9-291.043 513.388   1
  -2  -8  -8 16851.8 1992.46   3
  -2  -8  -8 17127.7 1940.94   1
  -2  -8  -7 353.552 536.003   1
  -2  -8  -7 980.651 568.823   3
  -2  -8  -7 1099.67 564.398   2
  -2  -8  -6 12543.5 1593.34   3
  -2  -8  -6 13411.3 1528.98   1
  -2  -8  -6 12761.4 1528.03   2
  -2  -8  -5 5002.73 997.620   3
  -2  -8  -5 4982.32 931.638   2
  -2  -8  -5 4695.35 910.332   1
  -2  -8  -4 3981.72 909.882   3
  -2  -8  -4 3769.65 770.763   2
  -2  -8  -4 3355.55 742.949   1
  -2  -8  -3 21395.6 1882.21   3
  -2  -8  -3 20341.7 1588.95   1
  -2  -8  -3 19620.4 1697.30   2
  -2  -8  -2 23102.9 1809.13   2
  -2  -8  -2 20648.2 1837.32   3
  -2  -8  -2 21428.7 1568.59   1
  -2  -8  -1 4528.77 936.890   3
  -2  -8  -1 4340.80 812.805   1
  -2  -8   0 28615.1 2177.44   3
  -2  -8   0 29135.2 2400.23   1
  -2  -8   1 12497.4 1505.12   3
  -2  -8   1 12049.7 1798.59   1
  -2  -8   2 93625.6 4271.31   3
  -2  -8   2 91626.4 4204.47   1
  -2  -8   3 5452.32 1171.97   3
  -2  -8   3 3381.12 868.209   1
  -2  -8   4 16884.8 1910.37   3
  -2  -8   5 21994.5 2294.58   3
  -2  -8   5 22027.0 2476.22   2
  -2  -8   6 134.985 659.304   2
  -2  -8   6-187.384 746.611   3
  -2  -8   7 13585.3 1965.65   3
  -2  -8   7 13459.4 2239.07   2
  -2  -8   8 9891.26 2028.34   2
  -2  -8   9 774.985 839.317   2
  -2  -8  10 16586.1 2787.05   2
  -2  -7 -14 3168.98 1202.03   3
  -2  -7 -14 2124.89 1005.11   1
  -2  -7 -13 849.919 698.238   3
  -2  -7 -13 1816.97 795.133   1
  -2  -7 -12 587.302 555.340   3
  -2  -7 -12 895.304 729.190   1
  -2  -7 -11 9148.36 1624.57   3
  -2  -7 -11 11222.9 1678.55   1
  -2  -7 -10 1300.19 713.482   3
  -2  -7 -10 1375.29 706.204   1
  -2  -7  -9 16288.7 1971.50   3
  -2  -7  -9 18017.7 2018.45   1
  -2  -7  -9 20181.0 2139.54   2
  -2  -7  -8 14978.6 1804.78   3
  -2  -7  -8 14743.5 1849.46   1
  -2  -7  -8 16283.4 1785.40   2
  -2  -7  -7 13246.5 1632.72   3
  -2  -7  -7 12502.6 1599.96   1
  -2  -7  -7 14184.9 1571.10   2
  -2  -7  -6 47812.9 2975.65   3
  -2  -7  -6 49509.3 2814.03   2
  -2  -7  -6 50144.9 2977.73   1
  -2  -7  -5 22.0554 420.495   1
  -2  -7  -5-113.229 407.324   3
  -2  -7  -5 544.917 415.262   2
  -2  -7  -4 47066.7 2707.74   3
  -2  -7  -4 50436.2 2607.82   1
  -2  -7  -4 50321.5 2572.31   2
  -2  -7  -4 54007.3 3212.82   4
  -2  -7  -3 6114.14 865.430   1
  -2  -7  -3 5852.04 942.800   3
  -2  -7  -3 6413.02 881.274   2
  -2  -7  -2 20060.6 1540.40   2
  -2  -7  -2 23114.3 1737.65   3
  -2  -7  -2 21989.8 1539.73   1
  -2  -7  -1 35647.5 2143.78   3
  -2  -7  -1 32707.5 1879.26   1
  -2  -7   0 2786.25 919.644   1
  -2  -7   0 2126.11 662.051   3
  -2  -7   1 56988.8 2877.78   3
  -2  -7   1 53370.2 3427.05   1
  -2  -7   2 37575.4 2429.57   3
  -2  -7   2 37611.7 2716.61   1
  -2  -7   3 28785.4 2152.04   1
  -2  -7   3 29729.1 2228.11   3
  -2  -7   4 48272.7 3097.53   3
  -2  -7   4 46664.1 2778.14   1
  -2  -7   5 592.924 737.189   2
  -2  -7   5 128.381 599.590   3
  -2  -7   6 26301.7 2446.84   3
  -2  -7   6 24538.8 2655.00   2
  -2  -7   7 6006.73 1430.86   2
  -2  -7   8 3433.69 1275.98   2
  -2  -7   9 18061.9 2698.13   2
  -2  -7  10 1443.46 1003.27   2
  -2  -7  11 11461.8 2375.88   2
  -2  -6 -11-139.183 589.791   1
  -2  -6 -10 15117.2 1874.82   1
  -2  -6 -10 14676.8 1885.02   3
  -2  -6  -9 2287.64 861.549   1
  -2  -6  -9 2473.52 808.640   2
  -2  -6  -9 2109.05 762.431   3
  -2  -6  -8 12853.2 1695.35   1
  -2  -6  -8 15513.0 1706.84   2
  -2  -6  -8 16104.0 1805.80   3
  -2  -6  -7 31222.2 2519.67   1
  -2  -6  -7 32319.4 2424.93   3
  -2  -6  -7 31978.1 2281.75   2
  -2  -6  -6 1605.66 670.487   1
  -2  -6  -6 758.476 379.095   2
  -2  -6  -6 284.983 415.862   3
  -2  -6  -6 674.237 608.720   4
  -2  -6  -5 49289.8 2710.45   3
  -2  -6  -5 47492.3 2919.10   4
  -2  -6  -5 51443.1 2776.35   1
  -2  -6  -5 46978.9 2444.86   2
  -2  -6  -4 18395.6 1571.78   1
  -2  -6  -4 18404.9 1528.52   3
  -2  -6  -4 17490.0 1350.14   2
  -2  -6  -4 19795.9 1780.46   4
  -2  -6  -3 37333.4 2080.58   3
  -2  -6  -3 34966.0 1857.28   2
  -2  -6  -3 34218.4 1989.49   1
  -2  -6  -3 36501.8 2382.52   4
  -2  -6  -2 35949.9 1883.96   2
  -2  -6  -2 41423.7 2068.55   1
  -2  -6  -2 41259.9 2115.13   3
  -2  -6  -2 42639.5 2536.84   4
  -2  -6  -1 6243.76 812.833   3
  -2  -6  -1 4883.58 669.081   1
  -2  -6   0 6323.77 841.767   3
  -2  -6   0 7020.96 889.031   1
  -2  -6   1 115651. 3934.57   3
  -2  -6   1 107910. 4672.35   1
  -2  -6   2 79280.3 3312.01   3
  -2  -6   2 73798.9 3910.38   1
  -2  -6   3 97880.3 4164.71   1
  -2  -6   3 103798. 4151.70   3
  -2  -6   4 2304.68 752.552   3
  -2  -6   4 721.193 625.630   1
  -2  -6   4 3011.27 909.497   2
  -2  -6   5 61098.1 3408.07   3
  -2  -6   5 64906.3 3819.44   2
  -2  -6   6 33122.9 2965.57   2
  -2  -6   7 43611.0 3607.81   2
  -2  -6   8 23383.7 2797.53   2
  -2  -6   9 1846.89 1055.07   2
  -2  -6  10 19062.1 2791.12   2
  -2  -6  11 4734.00 1660.68   2
  -2  -6  12 3629.82 1428.64   2
  -2  -5 -10 10453.1 1623.33   2
  -2  -5  -9 18824.2 2056.69   2
  -2  -5  -8 29049.3 2422.61   1
  -2  -5  -8 28280.7 2294.67   2
  -2  -5  -7 101.798 410.132   2
  -2  -5  -7 349.245 514.290   4
  -2  -5  -7-802.662 717.886   1
  -2  -5  -6 62644.8 3400.46   4
  -2  -5  -6 64480.5 3001.58   2
  -2  -5  -6 72774.4 3541.67   1
  -2  -5  -6 61589.1 3085.55   3
  -2  -5  -5 23353.9 1715.31   3
  -2  -5  -5 23694.5 1954.23   4
  -2  -5  -5 24457.8 1920.15   1
  -2  -5  -5 22161.2 1540.08   2
  -2  -5  -4 42426.3 2204.24   3
  -2  -5  -4 41562.8 2292.74   1
  -2  -5  -4 41547.0 2470.42   4
  -2  -5  -4 42949.8 2004.46   2
  -2  -5  -3 92999.9 3262.19   3
  -2  -5  -3 97097.7 3404.67   1
  -2  -5  -3 88761.2 3680.82   4
  -2  -5  -3 91813.1 2984.44   2
  -2  -5  -2 2855.70 546.201   1
  -2  -5  -2 2331.70 580.837   4
  -2  -5  -2 2965.87 452.903   2
  -2  -5  -2 2425.55 483.204   3
  -2  -5  -1 79601.3 2727.05   3
  -2  -5  -1 77229.8 2755.48   1
  -2  -5   0 9233.25 846.155   3
  -2  -5   0 10570.3 970.533   1
  -2  -5   1 114891. 3685.44   3
  -2  -5   1 126468. 4561.90   1
  -2  -5   2 78304.9 3053.33   3
  -2  -5   2 70036.4 3810.09   1
  -2  -5   3 4311.77 801.015   3
  -2  -5   3 5575.73 1074.33   1
  -2  -5   4 66533.5 3213.01   3
  -2  -5   4 66126.3 3169.14   1
  -2  -5   4 65812.7 3466.50   2
  -2  -5   5 32971.9 2318.49   3
  -2  -5   5 28075.5 2446.15   2
  -2  -5   6 11013.1 1713.78   2
  -2  -5   7 60071.7 4117.38   2
  -2  -5   8 692.681 767.168   2
  -2  -5   9 25121.1 2921.75   2
  -2  -5  10 10483.5 2076.62   2
  -2  -5  11 11899.5 2253.54   2
  -2  -5  12 18353.8 2861.18   2
  -2  -5  13-301.291 906.077   2
  -2  -4 -10 50461.8 3605.08   2
  -2  -4  -9 39859.3 3017.18   2
  -2  -4  -8 17182.0 1816.48   2
  -2  -4  -7 63356.1 3284.06   2
  -2  -4  -6 5399.04 859.606   2
  -2  -4  -6 4811.44 948.315   1
  -2  -4  -5 31372.3 2151.80   1
  -2  -4  -5 30429.6 1762.45   2
  -2  -4  -4 47834.4 2551.58   4
  -2  -4  -4 48977.2 2034.83   2
  -2  -4  -4 51258.8 2512.35   1
  -2  -4  -4 48141.7 2218.24   3
  -2  -4  -3 1975.18 505.197   4
  -2  -4  -3 2150.98 537.845   1
  -2  -4  -3 1516.78 405.598   3
  -2  -4  -3 1925.58 355.621   2
  -2  -4  -2 63713.0 2687.08   4
  -2  -4  -2 64942.0 2471.63   1
  -2  -4  -2 64146.8 2197.59   3
  -2  -4  -2 62156.2 1969.21   2
  -2  -4  -1 38809.0 1754.05   1
  -2  -4  -1 38170.6 1515.78   3
  -2  -4  -1 37939.4 1940.08   4
  -2  -4   0 32614.6 1606.53   1
  -2  -4   0 32498.3 1414.58   3
  -2  -4   1 231889. 6441.08   1
  -2  -4   1 241780. 5620.20   3
  -2  -4   2 10438.2 982.266   3
  -2  -4   2 9309.51 1581.57   1
  -2  -4   3 164160. 4903.89   3
  -2  -4   3 168021. 5375.05   2
  -2  -4   3 169573. 5560.71   1
  -2  -4   4 7674.31 948.587   1
  -2  -4   4 11340.6 1358.44   2
  -2  -4   5 49657.8 3235.42   2
  -2  -4   6 152296. 6279.96   2
  -2  -4   7 4065.16 1048.30   2
  -2  -4   8 61443.0 4242.95   2
  -2  -4   9 20049.1 2526.71   2
  -2  -4  10 16144.9 2410.47   2
  -2  -4  11 18579.6 2671.14   2
  -2  -4  12 220.369 769.060   2
  -2  -4  13 17950.9 2842.44   2
  -2  -3 -10 40723.1 3242.89   2
  -2  -3  -9 1388.88 793.094   2
  -2  -3  -8 156661. 6120.40   2
  -2  -3  -7 45315.3 2847.99   2
  -2  -3  -6 141039. 4974.71   2
  -2  -3  -5 115782. 3964.12   2
  -2  -3  -4 35284.5 1698.94   2
  -2  -3  -3 70693.3 2145.70   2
  -2  -3  -2 658.110 229.458   3
  -2  -3  -2 523.709 170.088   2
  -2  -3  -2 670.256 370.755   4
  -2  -3  -1 117264. 3434.81   4
  -2  -3  -1 117483. 2741.94   3
  -2  -3   0 67318.1 1833.59   3
  -2  -3   0 67525.6 2344.12   4
  -2  -3   1 18415.5 1168.49   2
  -2  -3   1 18856.9 990.381   3
  -2  -3   2 140639. 3856.72   3
  -2  -3   2 150228. 4459.96   2
  -2  -3   3 31427.3 2064.51   2
  -2  -3   4 93852.4 3761.80   1
  -2  -3   4 99919.0 4216.19   2
  -2  -3   5 89522.7 4346.95   2
  -2  -3   6 12616.3 1690.90   2
  -2  -3   7 63097.9 3995.82   2
  -2  -3   8 5651.54 1334.39   2
  -2  -3   9 16941.9 2320.06   2
  -2  -3  10 34358.7 3392.39   2
  -2  -3  11 893.230 827.198   2
  -2  -3  12 21750.1 2886.41   2
  -2  -3  13 8577.34 2023.69   2
  -2  -3  14 8251.28 2011.67   2
  -2  -2 -10 10875.7 1675.14   2
  -2  -2  -9 75385.0 4225.68   2
  -2  -2  -8 2095.20 775.389   2
  -2  -2  -7 90167.5 4127.80   2
  -2  -2  -6 93071.6 3870.68   2
  -2  -2  -5 32625.3 1946.54   2
  -2  -2  -4 160251. 4474.28   2
  -2  -2  -3 18153.0 999.396   2
  -2  -2  -1 72847.1 2315.73   4
  -2  -2   0 2179.74 369.178   2
  -2  -2   0 1116.71 279.753   4
  -2  -2   1 33355.0 1609.06   2
  -2  -2   2 43258.0 2150.33   2
  -2  -2   3 95760.7 3787.40   2
  -2  -2   4 201106. 6427.43   2
  -2  -2   5 8648.54 1320.62   2
  -2  -2   6 270267. 8623.43   2
  -2  -2   7 7535.24 1443.13   2
  -2  -2   8 74129.4 4500.02   2
  -2  -2   9 41471.1 3463.10   2
  -2  -2  10 4360.52 1281.23   2
  -2  -2  11 17131.8 2432.27   2
  -2  -2  12 6201.69 1603.45   2
  -2  -2  13 12793.7 2305.17   2
  -2  -2  14 11326.6 2297.77   2
  -2  -1  -9 31590.3 2802.01   3
  -2  -1  -8 64531.8 3805.13   3
  -2  -1  -4 30369.2 1741.17   3
  -2  -1  -3 343578. 7594.72   3
  -2  -1  -2 355910. 7243.76   3
  -2  -1  -1 177401. 3603.18   3
  -2  -1   0 302843. 5920.33   2
  -2  -1   1 758.463 331.782   2
  -2  -1   2 70187.1 2607.00   2
  -2  -1   3 3087.82 670.929   2
  -2  -1   4 20719.4 1719.83   2
  -2  -1   5 96049.4 4250.91   2
  -2  -1   6 9378.06 1423.48   2
  -2  -1   7 58838.4 3686.60   2
  -2  -1   8 85262.9 4707.21   2
  -2  -1   9 3361.51 1149.35   2
  -2  -1  10 46772.9 3786.25   2
  -2  -1  11 4011.11 1238.80   2
  -2  -1  12 15321.5 2386.68   2
  -2  -1  13 14740.9 2418.86   2
  -2  -1  14 298.354 850.833   2
  -2   0  -9 102011. 5187.50   3
  -2   0  -8 16732.9 1902.01   3
  -2   0  -7 44028.4 2851.43   3
  -2   0  -6 77005.7 3570.35   3
  -2   0  -5 517.951 432.916   3
  -2   0  -4 73107.5 2856.75   3
  -2   0  -3 43625.8 1901.83   3
  -2   0  -3 42562.2 1864.88   1
  -2   0  -2 25444.9 1199.05   3
  -2   0  -2 24842.2 1229.62   1
  -2   0  -1 301920. 6176.02   3
  -2   0   0 39852.3 1327.16   3
  -2   0   1 123785. 3295.44   2
  -2   0   1 124759. 3128.34   3
  -2   0   2 59014.2 2262.02   2
  -2   0   3 28511.1 1718.62   2
  -2   0   4 146673. 4880.04   2
  -2   0   5 2348.44 713.202   2
  -2   0   6 82740.2 4054.31   2
  -2   0   7 76639.0 4139.65   2
  -2   0   8 11255.1 1707.94   2
  -2   0   9 69640.4 4405.54   2
  -2   0  10 1201.38 907.857   2
  -2   0  11 25344.3 2857.95   2
  -2   0  12 14710.7 2286.63   2
  -2   0  13 6055.12 1595.77   2
  -2   0  14 9533.41 2097.37   2
  -2   1  -8 23053.7 2211.25   3
  -2   1  -7 166439. 6098.31   3
  -2   1  -3 143408. 3872.89   1
  -2   1  -2 157301. 3792.58   1
  -2   1  -1 15863.2 783.610   1
  -2   1   0 88419.2 2434.57   1
  -2   1   1 114705. 3345.19   2
  -2   1   1 118906. 3717.82   1
  -2   1   2 67831.4 1773.26   4
  -2   1   2 65324.4 2386.24   1
  -2   1   2 66912.6 2535.12   2
  -2   1   3 223773. 5968.36   2
  -2   1   4 804.748 535.250   2
  -2   1   5 106860. 4272.20   2
  -2   1   6 17415.5 1782.07   2
  -2   1   7 16473.7 1843.46   2
  -2   1   8 34460.6 2840.95   2
  -2   1   9 7518.46 1450.50   2
  -2   1  10 14867.9 2072.92   2
  -2   1  11 27549.3 2963.83   2
  -2   1  12 1372.08 824.689   2
  -2   1  13 25308.3 3045.04   2
  -2   1  14 1984.95 1130.82   2
  -2   2  -8 73269.2 4039.99   3
  -2   2  -7 574.274 617.743   3
  -2   2  -3 133085. 3551.27   1
  -2   2  -2 1604.97 289.001   1
  -2   2  -1 32919.4 1047.69   1
  -2   2   0 42643.0 1731.00   1
  -2   2   1 11127.3 725.079   1
  -2   2   2 149748. 4452.45   2
  -2   2   2 150661. 3703.19   4
  -2   2   3 6180.62 866.381   2
  -2   2   4 155129. 5094.82   2
  -2   2   5 64831.6 3221.24   2
  -2   2   6 64366.6 3450.60   2
  -2   2   7 104437. 4807.26   2
  -2   2   8 572.413 687.310   2
  -2   2   9 35662.1 3024.34   2
  -2   2  10 8476.68 1603.52   2
  -2   2  11 7306.32 1563.59   2
  -2   2  12 19013.3 2554.55   2
  -2   2  13 319.752 638.140   2
  -2   2  14 5692.97 1609.34   2
  -2   3  -7 42183.4 2904.24   3
  -2   3  -6 36891.2 2564.61   3
  -2   3  -3 2794.52 399.750   1
  -2   3  -2 204545. 4258.59   1
  -2   3   2 861.472 350.109   4
  -2   3   3 40253.3 1838.95   4
  -2   3   4 6700.74 1015.55   2
  -2   3   5 22086.8 1887.94   2
  -2   3   6 59497.0 3363.35   2
  -2   3   7 166.690 559.690   2
  -2   3   8 36618.1 2940.16   2
  -2   3   9 13734.3 1904.62   2
  -2   3  10 9624.98 1699.46   2
  -2   3  11 24705.4 2808.02   2
  -2   3  12 129.619 753.625   2
  -2   3  13 5165.36 1444.42   2
  -2   3  14 7626.36 1839.85   2
  -2   4  -5 65768.5 3450.93   3
  -2   4  -4 671.461 482.229   3
  -2   4  -3 52010.1 1638.86   1
  -2   4  -3 53174.6 1749.60   1
  -2   4   1 4597.79 721.557   4
  -2   4   2 85726.9 3138.03   4
  -2   4   3 30914.9 1774.49   4
  -2   4   4 18948.0 1426.81   4
  -2   4   5 65033.7 3419.83   2
  -2   4   6 190.085 510.913   2
  -2   4   7 45274.1 3146.25   2
  -2   4   8 8014.32 1461.33   2
  -2   4   9 21787.0 2434.51   2
  -2   4  10 27968.3 2894.40   2
  -2   4  11 69.6017 676.940   2
  -2   4  12 13685.2 2253.87   2
  -2   4  13 2075.73 1108.26   2
  -2   4  14 2455.14 1325.89   2
  -2   5  -9 27015.8 2556.10   1
  -2   5  -8 4038.60 868.433   1
  -2   5  -7 32274.4 2297.91   1
  -2   5  -6 35294.9 2181.84   1
  -2   5  -5 1913.43 622.307   1
  -2   5  -4 66300.7 2129.11   1
  -2   5  -4 71538.5 2727.70   1
  -2   5  -3 15858.1 1640.33   3
  -2   5  -2 29325.3 2150.18   3
  -2   5  -1 62152.8 3162.81   3
  -2   5   0 3318.77 755.659   3
  -2   5   1 48738.0 2766.45   3
  -2   5   1 46175.6 2454.12   4
  -2   5   2 27128.2 2078.26   3
  -2   5   2 27117.2 1835.79   4
  -2   5   3 51710.2 2600.24   4
  -2   5   3 56202.2 3132.17   3
  -2   5   4 37697.4 2236.94   4
  -2   5   7 5878.02 1210.58   2
  -2   5   8 14261.8 1901.93   2
  -2   5   9 10410.5 1748.23   2
  -2   5  10-386.069 760.722   2
  -2   5  11 12286.4 2065.26   2
  -2   5  12 7175.68 1756.33   2
  -2   5  13 2786.26 1314.85   2
  -2   6  -7 20912.5 2255.00   1
  -2   6  -6 3004.08 1148.88   1
  -2   6  -5 35228.3 1550.47   1
  -2   6  -5 40284.9 2174.99   1
  -2   6   0 18189.9 1729.29   4
  -2   6   1 19180.1 1715.00   4
  -2   6   2 11224.0 1312.05   4
  -2   6   3 37090.0 2391.55   4
  -2   6   4 149.671 441.398   4
  -2   6   9 1884.01 888.436   2
  -2   6  10 10665.9 1874.08   2
  -2   6  11 218.406 701.810   2
  -2   6  12 4483.13 1394.25   2
  -2   7   0 13.3119 479.926   4
  -2   7   1 13854.8 1603.15   4
  -2   7   2 13815.8 1560.11   4
  -2   7   3 344.448 451.383   4
  -2   7   4 16161.5 1707.34   4
  -2   8  -1 1234.07 759.584   4
  -2   8   0 12218.1 1685.35   4
  -2   8   1 10123.9 1469.37   4
  -2   8   2 2820.39 833.000   4
  -2   8   3 10822.5 1501.23   4
  -2   8   4 671.564 572.141   4
  -2   9  -2 2690.16 1032.14   4
  -2   9  -1 6975.65 1448.15   4
  -2   9   0 9571.01 1583.51   4
  -2   9   1 1677.30 851.484   4
  -2   9   2 13047.9 1807.59   4
  -2   9   3 210.954 575.042   4
  -2   9   4 7829.86 1391.43   4
  -2  10  -3-129.714 706.332   4
  -2  10  -2 5228.26 1446.06   4
  -2  10  -1 2703.18 1080.91   4
  -2  10   0 774.330 770.337   4
  -2  10   1 5963.06 1391.88   4
  -2  10   2 1657.80 920.812   4
  -2  10   3 2942.06 1033.78   4
  -2  10   4 3418.25 1088.99   4
  -2  11   2 1131.05 740.662   4
  -2  11   3 522.701 703.606   4
  -2  11   4 1164.27 857.273   4
  -1 -12  -4 1364.25 945.972   3
  -1 -12  -3-280.018 912.482   3
  -1 -12  -2 187.696 769.266   3
  -1 -12  -1 3775.06 1332.38   3
  -1 -12   0 2541.54 1199.95   3
  -1 -12   1 4185.40 1425.73   3
  -1 -12   2 600.454 859.436   3
  -1 -11  -8 2270.91 951.034   3
  -1 -11  -7 1146.35 887.065   3
  -1 -11  -6 1599.64 793.802   3
  -1 -11  -5 3057.04 1097.87   3
  -1 -11  -4 625.751 639.564   3
  -1 -11  -3 3604.23 1080.96   3
  -1 -11  -2 1939.55 865.888   3
  -1 -11  -1 774.609 664.915   3
  -1 -11   0 6935.30 1543.52   3
  -1 -11   1 1545.58 861.384   3
  -1 -11   2 6151.48 1513.83   3
  -1 -11   3 4857.47 1421.80   3
  -1 -11   4 4136.26 1434.96   3
  -1 -11   5 4602.89 1449.72   3
  -1 -11   6-1535.46 1146.08   3
  -1 -10 -10-262.974 775.268   3
  -1 -10  -9 5749.33 1386.78   3
  -1 -10  -8 1009.37 724.307   3
  -1 -10  -8 3558.25 883.677   1
  -1 -10  -7 1488.81 799.417   3
  -1 -10  -7 1439.64 627.363   1
  -1 -10  -6 10424.1 1275.58   1
  -1 -10  -6 8061.53 1544.03   3
  -1 -10  -5-25.5786 663.482   3
  -1 -10  -5 498.296 395.287   1
  -1 -10  -4 13467.1 1916.31   3
  -1 -10  -4 12589.3 1191.18   1
  -1 -10  -3 2558.89 637.496   1
  -1 -10  -3 2758.91 962.872   3
  -1 -10  -2 9465.42 1593.34   3
  -1 -10  -1 7841.49 1480.20   3
  -1 -10   0 596.650 699.185   3
  -1 -10   1 8137.23 1566.44   3
  -1 -10   2 5439.55 1372.54   3
  -1 -10   3 1626.12 937.206   3
  -1 -10   4 11095.1 1899.08   3
  -1 -10   5 386.643 681.869   3
  -1 -10   6 12784.2 2104.21   3
  -1 -10   7 3830.81 1453.36   2
  -1 -10   7 2334.53 1073.53   3
  -1 -10   8 2713.69 1090.78   3
  -1  -9 -13 1086.86 676.224   1
  -1  -9 -12 2061.33 828.218   1
  -1  -9 -11 560.587 756.657   3
  -1  -9 -11-112.651 459.451   1
  -1  -9 -10 9403.78 1754.90   3
  -1  -9 -10 7313.23 1344.96   1
  -1  -9  -9 674.705 570.547   1
  -1  -9  -9-51.7703 499.643   3
  -1  -9  -8 2241.43 806.922   1
  -1  -9  -8 2573.65 1051.11   3
  -1  -9  -7 4917.09 1217.58   3
  -1  -9  -7 4396.09 952.567   1
  -1  -9  -6-239.877 591.030   3
  -1  -9  -6 483.735 462.586   1
  -1  -9  -5 11206.7 1257.99   1
  -1  -9  -5 7878.85 1400.60   3
  -1  -9  -4 10081.0 1067.46   1
  -1  -9  -4 10934.8 1605.90   3
  -1  -9  -3 8125.60 1404.64   3
  -1  -9  -3 6590.15 827.833   1
  -1  -9  -2 24386.4 2286.14   3
  -1  -9  -2 25609.3 1671.66   1
  -1  -9  -1 425.736 657.565   1
  -1  -9  -1-361.249 698.401   3
  -1  -9   0 25689.6 2401.41   3
  -1  -9   0 27928.5 1823.38   1
  -1  -9   1 2070.64 842.719   3
  -1  -9   2 10259.5 1641.80   3
  -1  -9   3 13082.3 1828.99   3
  -1  -9   4 1679.23 971.603   3
  -1  -9   5 13190.9 2015.99   3
  -1  -9   6 6663.69 1507.83   3
  -1  -9   7 4045.59 1433.72   2
  -1  -9   7 2628.54 1100.49   3
  -1  -9   8 12467.8 2133.12   3
  -1  -9   8 18622.4 2743.13   2
  -1  -9   9-76.0388 887.875   2
  -1  -8 -13 2219.03 827.224   1
  -1  -8 -12-482.764 732.136   3
  -1  -8 -12 296.098 491.347   1
  -1  -8 -11 9492.39 1797.73   3
  -1  -8 -11 11167.4 1641.24   1
  -1  -8 -10 3368.12 1084.30   3
  -1  -8 -10 2219.70 864.913   1
  -1  -8  -9 11416.1 1798.21   3
  -1  -8  -9 8232.29 1399.85   1
  -1  -8  -8 11444.4 1736.36   3
  -1  -8  -8 11615.9 1562.67   1
  -1  -8  -7 1538.52 761.605   3
  -1  -8  -7 1342.33 633.743   1
  -1  -8  -6 22212.4 2219.16   3
  -1  -8  -6 24764.8 2027.78   1
  -1  -8  -5 872.951 530.809   3
  -1  -8  -5 899.061 502.570   1
  -1  -8  -4 16815.8 1413.17   1
  -1  -8  -4 14726.3 1720.78   3
  -1  -8  -4 16046.7 1658.65   2
  -1  -8  -3 26710.4 2235.20   3
  -1  -8  -3 22547.3 1961.02   2
  -1  -8  -3 25015.9 1567.14   1
  -1  -8  -2 710.818 502.995   2
  -1  -8  -2-50.0864 385.819   1
  -1  -8  -2 42.2749 557.026   3
  -1  -8  -1 37157.0 2582.75   3
  -1  -8  -1 37434.3 2120.86   1
  -1  -8   0 7014.88 1175.10   1
  -1  -8   0 5863.81 1100.52   3
  -1  -8   1 13820.6 1648.67   3
  -1  -8   1 15169.7 1320.41   1
  -1  -8   2 16342.1 1822.91   3
  -1  -8   3 93.9451 614.287   3
  -1  -8   4 27164.5 2518.02   3
  -1  -8   5 2165.77 882.137   3
  -1  -8   6 4503.16 1192.23   3
  -1  -8   7 16683.4 2382.47   2
  -1  -8   7 14734.3 2077.95   3
  -1  -8   8 1950.61 1083.85   2
  -1  -8   8 644.199 854.605   3
  -1  -8   9 16603.2 2662.41   2
  -1  -8  10 10947.7 2341.78   2
  -1  -7 -13 1130.69 742.914   3
  -1  -7 -12 3890.20 1161.83   3
  -1  -7 -11 1461.99 690.441   1
  -1  -7 -11 2650.28 1061.43   3
  -1  -7 -10 10293.7 1695.76   3
  -1  -7 -10 11008.9 1544.09   1
  -1  -7  -9 8830.65 1519.50   3
  -1  -7  -9 7388.56 1304.12   1
  -1  -7  -8 281.176 519.951   3
  -1  -7  -8 1333.04 639.471   1
  -1  -7  -7 26609.5 2186.78   1
  -1  -7  -7 29651.0 2390.82   2
  -1  -7  -7 27682.2 2446.03   3
  -1  -7  -6 1253.45 713.152   3
  -1  -7  -6 1544.04 584.234   2
  -1  -7  -6 417.929 478.964   1
  -1  -7  -5 16601.0 1559.46   1
  -1  -7  -5 16603.7 1738.90   3
  -1  -7  -5 17724.7 1678.22   2
  -1  -7  -4 43851.3 2744.83   3
  -1  -7  -4 43480.2 2251.85   1
  -1  -7  -4 42549.2 2537.81   2
  -1  -7  -3 8461.69 1179.63   3
  -1  -7  -3 8132.17 904.714   1
  -1  -7  -3 8007.37 1065.34   2
  -1  -7  -2 46243.1 2520.62   2
  -1  -7  -2 44156.6 2644.12   3
  -1  -7  -2 42868.7 1947.93   1
  -1  -7  -1 14775.4 1500.85   3
  -1  -7  -1 15181.6 1116.96   1
  -1  -7   0 18499.8 1675.91   3
  -1  -7   0 19040.5 1707.42   1
  -1  -7   1 64865.2 3282.07   3
  -1  -7   1 69150.0 3094.38   1
  -1  -7   2 828.342 617.687   3
  -1  -7   2 756.178 466.094   1
  -1  -7   3 65345.0 3503.83   3
  -1  -7   4 4935.61 1132.31   3
  -1  -7   5 40438.3 2959.17   3
  -1  -7   6 13105.0 1826.15   3
  -1  -7   6 13788.0 1927.32   2
  -1  -7   7 4607.45 1226.74   2
  -1  -7   7 4736.33 1200.13   3
  -1  -7   8 19848.3 2667.62   2
  -1  -7   9 1939.31 1137.17   2
  -1  -7  10 6494.32 1736.95   2
  -1  -7  11 11410.0 2323.57   2
  -1  -6 -14 445.653 786.882   3
  -1  -6 -13 5231.32 1378.93   3
  -1  -6 -12 890.182 769.014   3
  -1  -6 -11 10328.1 1771.77   3
  -1  -6 -10 15567.5 2041.60   3
  -1  -6  -9 541.810 563.360   3
  -1  -6  -8 27212.5 2424.40   3
  -1  -6  -8 29136.9 2427.65   2
  -1  -6  -7 1832.06 674.479   4
  -1  -6  -7 2281.05 729.999   2
  -1  -6  -7 1391.43 633.625   3
  -1  -6  -7 1446.00 667.600   1
  -1  -6  -6 36236.5 2389.04   2
  -1  -6  -6 33470.3 2287.57   1
  -1  -6  -6 33546.5 2507.18   4
  -1  -6  -6 33924.5 2454.66   3
  -1  -6  -5 47597.3 2828.57   3
  -1  -6  -5 47671.0 2916.74   4
  -1  -6  -5 48724.6 2604.70   1
  -1  -6  -5 49302.9 2660.24   2
  -1  -6  -4 16436.4 1558.16   3
  -1  -6  -4 15866.2 1365.82   1
  -1  -6  -4 17373.7 1679.19   4
  -1  -6  -4 15142.7 1358.76   2
  -1  -6  -3 81118.9 3469.59   3
  -1  -6  -3 84165.0 2990.60   1
  -1  -6  -3 84779.8 3789.65   4
  -1  -6  -3 82023.6 3278.84   2
  -1  -6  -2 130.226 276.650   1
  -1  -6  -2 87.7484 354.752   3
  -1  -6  -2 508.175 337.493   2
  -1  -6  -1 83543.8 3387.96   3
  -1  -6  -1 83918.9 2717.81   1
  -1  -6   0 21955.5 1631.98   3
  -1  -6   0 23515.1 1543.06   1
  -1  -6   1 6365.56 945.080   3
  -1  -6   1 7361.25 1257.94   1
  -1  -6   2 51715.9 2794.76   3
  -1  -6   2 56703.6 2534.87   1
  -1  -6   3 21327.4 1825.09   3
  -1  -6   4 16862.3 1736.22   3
  -1  -6   5 35914.9 2657.14   3
  -1  -6   6-20.5313 621.306   2
  -1  -6   6-1042.03 821.399   3
  -1  -6   7 31911.8 2765.91   3
  -1  -6   7 36606.7 3166.73   2
  -1  -6   8 5880.49 1483.20   2
  -1  -6   9 31226.7 3305.32   2
  -1  -6  10 18307.5 2729.44   2
  -1  -6  11 1231.84 938.980   2
  -1  -6  12 22042.5 3228.28   2
  -1  -5  -9 19068.9 2082.11   2
  -1  -5  -8 175.991 429.635   2
  -1  -5  -8-129.129 482.441   4
  -1  -5  -8-198.510 604.957   3
  -1  -5  -7 18232.3 1856.77   4
  -1  -5  -7 18991.7 1801.60   2
  -1  -5  -7 16563.8 1729.58   3
  -1  -5  -6 14277.1 1521.04   3
  -1  -5  -6 16761.0 1563.21   2
  -1  -5  -6 14763.0 1577.51   4
  -1  -5  -5 7659.49 1055.78   3
  -1  -5  -5 6493.34 971.686   1
  -1  -5  -5 7686.97 1089.16   4
  -1  -5  -5 8002.25 1002.30   2
  -1  -5  -4 137312. 4397.12   2
  -1  -5  -4 140646. 4710.83   3
  -1  -5  -4 138502. 4865.25   4
  -1  -5  -4 144937. 4513.61   1
  -1  -5  -3 20610.2 1499.95   3
  -1  -5  -3 18099.7 1307.28   1
  -1  -5  -3 17527.7 1311.67   2
  -1  -5  -3 19367.3 1575.17   4
  -1  -5  -2 107194. 3483.71   2
  -1  -5  -2 109308. 3283.79   1
  -1  -5  -2 110998. 3718.53   3
  -1  -5  -2 111653. 4049.56   4
  -1  -5  -1 87718.0 3164.09   3
  -1  -5  -1 87187.5 2639.52   1
  -1  -5   0 6380.80 833.904   3
  -1  -5   0 5472.46 644.100   1
  -1  -5   1 306307. 7300.87   3
  -1  -5   1 264757. 7482.52   1
  -1  -5   2 12178.7 1257.60   3
  -1  -5   2 7870.63 998.534   1
  -1  -5   3 69504.0 3112.25   3
  -1  -5   3 64357.1 2700.91   1
  -1  -5   4 64887.3 3214.77   3
  -1  -5   5 568.892 544.854   3
  -1  -5   5 745.821 619.176   2
  -1  -5   6 72725.1 3814.47   3
  -1  -5   6 69276.9 4029.88   2
  -1  -5   7 10108.7 1663.18   2
  -1  -5   8 34456.4 3156.48   2
  -1  -5   9 25106.0 2829.03   2
  -1  -5  10 9660.19 1990.58   2
  -1  -5  11 19987.5 2875.98   2
  -1  -5  12 84.8466 942.521   2
  -1  -5  13 5342.27 1700.87   2
  -1  -4 -10 67225.9 4230.93   2
  -1  -4  -9 1997.27 847.167   2
  -1  -4  -8 74893.9 3930.04   2
  -1  -4  -7 32071.9 2319.07   2
  -1  -4  -6 18388.0 1572.41   2
  -1  -4  -6 19138.7 1688.17   4
  -1  -4  -5 59055.5 2677.49   2
  -1  -4  -5 58820.1 2905.09   4
  -1  -4  -5 55448.3 2755.95   3
  -1  -4  -4 3554.07 677.825   4
  -1  -4  -4 3423.77 663.497   3
  -1  -4  -4 2673.10 522.150   2
  -1  -4  -4 3903.88 694.735   1
  -1  -4  -3 101890. 3420.99   3
  -1  -4  -3 100408. 3348.03   1
  -1  -4  -3 99339.3 3149.08   2
  -1  -4  -3 96423.7 3546.16   4
  -1  -4  -2 59631.2 2177.56   2
  -1  -4  -2 60657.6 2354.94   3
  -1  -4  -2 60233.4 2577.01   4
  -1  -4  -2 62558.9 2216.38   1
  -1  -4  -1 28289.1 1285.78   1
  -1  -4  -1 28975.2 1481.08   3
  -1  -4   0 246641. 5897.16   3
  -1  -4   0 254223. 5589.50   1
  -1  -4   1 3991.44 839.659   1
  -1  -4   1 3042.88 535.312   3
  -1  -4   2 218130. 5749.48   3
  -1  -4   2 227213. 5927.14   1
  -1  -4   3 42841.4 2215.09   3
  -1  -4   3 37031.9 1897.42   1
  -1  -4   4 12271.6 1270.51   3
  -1  -4   4 12519.7 1378.48   2
  -1  -4   5 33159.9 2257.85   3
  -1  -4   5 35721.4 2536.88   2
  -1  -4   6 5715.51 1185.03   2
  -1  -4   7 29096.6 2676.96   2
  -1  -4   8 52819.7 3831.26   2
  -1  -4   9 3311.78 1068.66   2
  -1  -4  10 49407.4 4088.60   2
  -1  -4  11 3811.83 1339.41   2
  -1  -4  12 21688.8 2972.13   2
  -1  -4  13 12495.1 2410.88   2
  -1  -4  14 4253.88 1603.51   2
  -1  -3 -10 1052.09 785.678   2
  -1  -3  -9 67370.4 4040.14   2
  -1  -3  -8 38804.9 2804.33   2
  -1  -3  -7 23146.7 1988.99   2
  -1  -3  -6 58955.8 2957.55   2
  -1  -3  -5 7583.59 918.223   2
  -1  -3  -4 40104.4 1895.35   2
  -1  -3  -3 19975.0 1361.62   4
  -1  -3  -3 20203.5 1316.78   1
  -1  -3  -3 21478.2 1182.22   2
  -1  -3  -3 22176.5 1318.94   3
  -1  -3  -2 1078.72 325.775   3
  -1  -3  -2 1110.66 257.557   2
  -1  -3  -2 1366.79 410.518   4
  -1  -3  -2 993.842 329.250   1
  -1  -3  -1 12833.7 816.819   3
  -1  -3  -1 12721.9 793.393   1
  -1  -3  -1 12716.8 975.541   4
  -1  -3   0 251551. 5436.00   1
  -1  -3   0 255047. 5532.19   3
  -1  -3   1 903881. 16682.1   3
  -1  -3   1 830414. 17345.2   1
  -1  -3   2 185440. 4703.96   3
  -1  -3   2 176465. 4924.70   1
  -1  -3   3 48927.9 2206.44   3
  -1  -3   3 46407.6 2113.00   1
  -1  -3   3 49042.4 2382.50   2
  -1  -3   4 206145. 5947.88   3
  -1  -3   4 211043. 6271.07   2
  -1  -3   5 2246.66 798.720   2
  -1  -3   6 140814. 5684.02   2
  -1  -3   7 7046.05 1351.01   2
  -1  -3   8 8684.24 1529.41   2
  -1  -3   9 32104.9 3030.15   2
  -1  -3  10 4189.08 1216.52   2
  -1  -3  11 19869.9 2638.83   2
  -1  -3  12 16452.1 2506.80   2
  -1  -3  13 887.407 1008.26   2
  -1  -3  14 14009.8 2525.26   2
  -1  -2 -10 51079.8 3725.79   2
  -1  -2  -9 28933.8 2633.38   2
  -1  -2  -8 22933.5 2213.19   2
  -1  -2  -7 179897. 6384.54   2
  -1  -2  -6 457.116 508.784   2
  -1  -2  -5 242498. 6684.24   2
  -1  -2  -4 79157.6 2900.17   2
  -1  -2  -3 77502.8 2453.45   2
  -1  -2  -2 75770.4 2042.99   2
  -1  -2  -1 1717.63 262.359   3
  -1  -2  -1 1837.76 360.643   4
  -1  -2   0 260196. 5139.76   3
  -1  -2   0 259085. 5572.51   4
  -1  -2   1 97856.4 2510.37   3
  -1  -2   2 31031.6 1452.37   3
  -1  -2   2 33090.4 1634.16   2
  -1  -2   3 172953. 5037.96   2
  -1  -2   4 7508.91 1073.87   2
  -1  -2   5 129938. 4983.66   2
  -1  -2   6 89743.9 4339.22   2
  -1  -2   7 21850.0 2191.04   2
  -1  -2   8 59449.0 3866.34   2
  -1  -2   9 1086.08 740.730   2
  -1  -2  10 43668.2 3615.13   2
  -1  -2  11 23707.1 2772.93   2
  -1  -2  12 7152.21 1748.22   2
  -1  -2  13 27614.8 3269.03   2
  -1  -2  14-174.244 732.113   2
  -1  -1 -10 1471.07 920.451   2
  -1  -1  -9 35720.8 2914.82   2
  -1  -1  -8 42996.1 3036.67   2
  -1  -1  -7-57.6726 460.878   2
  -1  -1  -6 72002.7 3474.44   2
  -1  -1  -5 72559.4 3213.85   2
  -1  -1  -4 22917.9 1531.07   2
  -1  -1  -3 146318. 4013.25   2
  -1  -1   2 155803. 4282.77   2
  -1  -1   3 650.223 570.748   2
  -1  -1   4 149515. 4984.51   2
  -1  -1   5 207026. 6583.89   2
  -1  -1   6 96368.3 4406.29   2
  -1  -1   7 73435.6 3991.19   2
  -1  -1   8 267.476 619.456   2
  -1  -1   9 63517.9 4101.75   2
  -1  -1  10 7955.06 1549.18   2
  -1  -1  11 12984.0 2064.45   2
  -1  -1  12 17696.7 2440.50   2
  -1  -1  13 767.937 1004.43   2
  -1  -1  14 9642.38 2013.90   2
  -1  -1  15 7839.24 1923.11   2
  -1   0  -9 111965. 5398.08   3
  -1   0  -9 109634. 5265.59   2
  -1   0  -8 1158.74 656.125   2
  -1   0  -7 156936. 5747.96   2
  -1   0  -6 11897.8 1330.64   2
  -1   0  -5 71217.5 3039.34   2
  -1   0   2 2168.17 468.876   2
  -1   0   3 173350. 4861.48   2
  -1   0   4 58766.6 2763.64   2
  -1   0   5 25527.4 1975.93   2
  -1   0   6 78229.0 3811.77   2
  -1   0   7 1844.59 822.276   2
  -1   0   8 55913.6 3584.38   2
  -1   0   9 50239.6 3596.10   2
  -1   0  10 7827.59 1558.85   2
  -1   0  11 56041.3 4139.38   2
  -1   0  12-231.914 849.786   2
  -1   0  13 44071.9 3998.90   2
  -1   0  14 4683.09 1476.53   2
  -1   0  15 8902.40 2015.96   2
  -1   1  -9 4657.78 1145.21   3
  -1   1  -8 107222. 4986.88   3
  -1   1  -1 83909.5 1940.16   1
  -1   1   1 1452.81 236.101   4
  -1   1   1 959.074 315.814   2
  -1   1   2 539065. 10886.1   2
  -1   1   3 95625.5 3208.71   2
  -1   1   4 172216. 5139.37   2
  -1   1   5 247763. 7032.21   2
  -1   1   6 22587.0 1924.89   2
  -1   1   7 68338.4 3707.50   2
  -1   1   8 11414.5 1620.79   2
  -1   1   9 15288.4 1965.42   2
  -1   1  10 16982.7 2175.93   2
  -1   1  11-98.2045 645.862   2
  -1   1  12 37503.7 3506.85   2
  -1   1  13 3243.03 1260.50   2
  -1   1  14 7310.29 1798.01   2
  -1   1  15 8909.55 2037.48   2
  -1   2  -8 20635.4 2115.05   3
  -1   2   1 11091.9 751.170   4
  -1   2   2 776.528 369.415   2
  -1   2   2 686.762 268.273   4
  -1   2   3 58248.9 2419.58   2
  -1   2   4 138904. 4435.67   2
  -1   2   5 2887.28 718.424   2
  -1   2   6 132171. 4962.35   2
  -1   2   7 45044.7 2908.22   2
  -1   2   8 24753.3 2292.11   2
  -1   2   9 33891.2 2869.71   2
  -1   2  10-52.2447 593.340   2
  -1   2  11 25216.4 2745.34   2
  -1   2  12 11067.4 1937.42   2
  -1   2  13 9938.84 1896.54   2
  -1   2  14 16815.2 2541.95   2
  -1   2  15 559.195 775.897   2
  -1   3  -7 51157.7 3196.19   3
  -1   3  -2 174547. 3865.40   1
  -1   3   1 10936.3 909.312   4
  -1   3   2 52073.8 2080.72   4
  -1   3   3 109647. 3753.10   2
  -1   3   3 116752. 3527.37   4
  -1   3   4 4559.60 774.181   2
  -1   3   5 148534. 5060.60   2
  -1   3   6 21395.5 1867.51   2
  -1   3   7 77202.1 3914.31   2
  -1   3   8 55186.4 3492.97   2
  -1   3   9 7621.53 1397.85   2
  -1   3  10 25994.7 2648.64   2
  -1   3  11 4547.49 1244.47   2
  -1   3  12 13456.6 2133.86   2
  -1   3  13 7494.23 1710.93   2
  -1   3  14 171.474 788.486   2
  -1   3  15 3307.33 1279.42   2
  -1   4  -9 74270.3 4457.29   1
  -1   4  -8 35779.7 2798.67   1
  -1   4  -7 22510.3 2003.66   1
  -1   4  -6 71204.7 3709.85   3
  -1   4  -6 70006.7 3313.42   1
  -1   4  -5 10066.8 1076.11   1
  -1   4  -4 110906. 3574.67   1
  -1   4  -3 89433.0 2941.64   1
  -1   4  -2 10874.3 717.401   1
  -1   4   1 132770. 4106.64   4
  -1   4   2 33045.0 1807.26   4
  -1   4   3 29434.6 1747.23   4
  -1   4   4 40000.2 2322.24   2
  -1   4   5 1287.23 498.198   2
  -1   4   6 21902.3 1919.62   2
  -1   4   7 35753.0 2631.22   2
  -1   4   8-484.622 672.094   2
  -1   4   9 40964.7 3154.24   2
  -1   4  10 8543.12 1544.58   2
  -1   4  11 18084.3 2358.03   2
  -1   4  12 17451.1 2449.45   2
  -1   4  13-65.5717 732.289   2
  -1   4  14 12054.3 2192.67   2
  -1   5  -9 10075.7 1677.07   1
  -1   5  -8 5736.98 1178.79   1
  -1   5  -7 32618.0 2509.91   1
  -1   5  -6-80.7536 792.013   1
  -1   5  -5 68043.2 3577.67   3
  -1   5  -5 69981.3 3379.76   1
  -1   5  -4 24786.5 2009.15   1
  -1   5  -4 23612.8 1948.35   3
  -1   5  -3 1904.88 587.744   3
  -1   5  -3 4403.89 620.053   1
  -1   5   1 79324.1 3288.57   4
  -1   5   2 10977.4 1180.08   4
  -1   5   3 103112. 3880.05   4
  -1   5   4 817.132 458.483   4
  -1   5   6 23220.1 2066.72   2
  -1   5   7 5921.14 1144.69   2
  -1   5   8 19389.6 2109.18   2
  -1   5   9 608.363 554.330   2
  -1   5  10 13813.4 1994.95   2
  -1   5  11 13681.8 2081.11   2
  -1   5  12 819.611 817.418   2
  -1   5  13 9525.15 1936.46   2
  -1   5  14 141.824 671.123   2
  -1   6  -8 35808.3 3381.32   1
  -1   6  -7 3869.54 1355.05   1
  -1   6  -6 40280.3 3172.73   1
  -1   6  -5 52196.2 2956.22   1
  -1   6  -4 49287.9 1880.77   1
  -1   6  -3 51014.7 3007.93   3
  -1   6  -2 210.624 392.460   3
  -1   6  -1 37728.1 2435.20   3
  -1   6   0 14214.0 1480.90   3
  -1   6   0 13617.1 1498.05   4
  -1   6   1 618.197 501.304   4
  -1   6   1 554.478 350.959   3
  -1   6   2 52822.9 2962.16   3
  -1   6   2 49221.0 2740.26   4
  -1   6   3 2008.03 682.651   3
  -1   6   3 1995.19 656.273   4
  -1   6   4 37439.3 2409.18   4
  -1   6   8 1462.22 778.654   2
  -1   6   9 11002.9 1731.58   2
  -1   6  10 9678.94 1712.47   2
  -1   6  11 63.1504 762.956   2
  -1   6  12 9081.17 1869.61   2
  -1   6  13 1558.10 1004.47   2
  -1   7  -6 28890.8 2013.66   1
  -1   7  -5 5994.90 633.490   1
  -1   7  -4 26513.8 995.003   1
  -1   7   0 8094.65 1305.51   4
  -1   7   1 34175.2 2468.54   4
  -1   7   2 672.189 604.529   4
  -1   7   3 23676.9 2039.88   4
  -1   7   4 22978.4 2029.65   4
  -1   7  11 2748.04 903.578   2
  -1   7  12 1051.47 869.371   2
  -1   8  -1 12462.7 1729.78   4
  -1   8   0 12490.4 1673.37   4
  -1   8   1-76.9557 585.418   4
  -1   8   2 27124.5 2367.58   4
  -1   8   3 2719.82 850.529   4
  -1   8   4 3964.01 989.066   4
  -1   9  -2 4285.89 1169.74   4
  -1   9  -1 9860.89 1651.92   4
  -1   9   0 2730.57 954.311   4
  -1   9   1 15742.7 1977.48   4
  -1   9   2 7862.47 1364.74   4
  -1   9   3 6330.87 1256.62   4
  -1   9   4 9336.11 1549.29   4
  -1  10  -4 1589.26 904.506   4
  -1  10  -3 7408.15 1656.05   4
  -1  10  -2 5262.71 1329.77   4
  -1  10  -1 1801.88 1003.69   4
  -1  10   0 4555.97 1271.64   4
  -1  10   1 5274.99 1236.29   4
  -1  10   2 1067.97 833.262   4
  -1  10   3 5553.66 1320.74   4
  -1  10   4 389.819 618.026   4
  -1  11  -1 4916.94 1406.47   4
  -1  11   0 928.193 781.391   4
  -1  11   1 1334.98 919.411   4
  -1  11   2 2222.49 1004.56   4
  -1  11   3-213.888 675.392   4
  -1  11   4 742.963 766.829   4
   0 -11  -6 6424.79 1535.40   3
   0 -11  -5 50.8581 657.612   3
   0 -11  -4 2707.61 1058.27   3
   0 -11  -3 3254.35 1189.21   3
   0 -11  -2-1089.52 1041.72   3
   0 -11  -1 6904.79 1576.51   3
   0 -11   0 102.216 767.631   3
   0 -11   1 1208.94 1016.91   3
   0 -11   2 7568.32 1758.98   3
   0 -11   3 145.405 901.046   3
   0 -11   4 9782.21 1987.16   3
   0 -10  -8-66.7734 684.063   3
   0 -10  -7 4017.25 1246.08   3
   0 -10  -6 3430.05 1143.21   3
   0 -10  -5 3734.79 1192.76   3
   0 -10  -4 7968.07 1556.65   3
   0 -10  -3 1211.93 788.863   3
   0 -10  -2 10900.5 1797.41   3
   0 -10  -1-555.976 888.532   3
   0 -10   0 9282.03 1651.03   3
   0 -10   1 2247.85 1023.37   3
   0 -10   2 807.134 826.848   3
   0 -10   3 6181.19 1453.88   3
   0 -10   4 2610.88 1142.88   3
   0 -10   5 6333.30 1602.16   3
   0 -10   6 8287.31 1803.31   3
   0 -10   7 270.935 871.533   3
   0  -9 -11 3748.49 1036.65   1
   0  -9 -10 1213.82 807.581   3
   0  -9 -10 2706.11 822.647   1
   0  -9  -9 918.226 680.913   3
   0  -9  -9 2074.91 783.929   1
   0  -9  -8 9475.82 1750.27   3
   0  -9  -8 7217.64 1189.16   1
   0  -9  -7 10.0834 404.928   1
   0  -9  -7-791.186 834.922   3
   0  -9  -6 4108.20 1146.66   3
   0  -9  -6 4170.36 812.186   1
   0  -9  -5 8434.44 993.835   1
   0  -9  -5 7038.88 1431.34   3
   0  -9  -4 436.801 282.937   1
   0  -9  -4 266.443 637.018   3
   0  -9  -3 15922.9 1998.84   3
   0  -9  -3 14916.6 980.067   1
   0  -9  -2 3886.65 1038.41   3
   0  -9  -2 2297.68 373.771   1
   0  -9  -1 13354.3 1795.86   3
   0  -9   0 5285.12 1224.97   3
   0  -9   1 2655.32 987.217   3
   0  -9   2 11549.9 1766.43   3
   0  -9   3 1553.45 959.940   3
   0  -9   4 6338.67 1444.43   3
   0  -9   5 23959.1 2691.54   3
   0  -9   6 790.826 743.597   3
   0  -9   7 14945.6 2265.05   3
   0  -9   8 3055.39 1385.35   2
   0  -9   8 2575.08 1151.17   3
   0  -8 -13 231.921 458.783   1
   0  -8 -12 557.220 654.615   1
   0  -8 -11 2100.41 731.310   1
   0  -8 -11 3048.95 1186.93   3
   0  -8 -10 2573.00 1083.24   3
   0  -8 -10 2405.26 793.823   1
   0  -8  -9 10819.0 1462.38   1
   0  -8  -9 11461.0 1885.29   3
   0  -8  -8 354.203 567.741   3
   0  -8  -8 695.294 534.003   1
   0  -8  -7 10144.2 1669.69   3
   0  -8  -7 10930.4 1374.54   1
   0  -8  -6 9074.27 1168.75   1
   0  -8  -6 7581.40 1402.39   3
   0  -8  -5 2565.58 873.951   3
   0  -8  -5 3446.99 688.622   1
   0  -8  -4 23167.6 1474.99   1
   0  -8  -4 19456.9 2062.19   3
   0  -8  -3 6217.06 1214.93   3
   0  -8  -3 5868.10 642.075   1
   0  -8  -2 20642.8 2069.80   3
   0  -8  -2 20050.4 1128.43   1
   0  -8  -1 24599.4 2233.64   3
   0  -8  -1 25223.1 1156.50   1
   0  -8   0 3007.46 905.401   3
   0  -8   1 41726.7 2994.89   3
   0  -8   2 542.551 655.005   3
   0  -8   3 30565.1 2632.52   3
   0  -8   4 7152.58 1429.15   3
   0  -8   5 8837.98 1572.40   3
   0  -8   6 19095.3 2301.27   3
   0  -8   7 1043.34 772.975   3
   0  -8   8 7266.19 1624.24   2
   0  -8   8 6896.83 1619.10   3
   0  -8   9 9156.12 2011.37   2
   0  -8   9 5952.28 1589.78   3
   0  -8  10 235.123 942.830   2
   0  -7 -12 1337.64 879.385   3
   0  -7 -11 2421.74 999.178   3
   0  -7 -10 16391.9 2236.79   3
   0  -7  -9 788.545 701.896   3
   0  -7  -8 19346.8 1842.24   1
   0  -7  -8 21863.6 2359.19   3
   0  -7  -7 8726.68 1475.99   3
   0  -7  -7 7379.21 1104.29   1
   0  -7  -6 17015.2 1943.96   3
   0  -7  -6 17766.1 1607.04   1
   0  -7  -5 25256.6 2266.19   3
   0  -7  -5 26801.9 1814.54   1
   0  -7  -4 780.507 396.253   1
   0  -7  -4 1432.65 720.781   3
   0  -7  -4 676.599 491.597   2
   0  -7  -3 27246.3 1427.03   1
   0  -7  -3 24631.4 2162.54   3
   0  -7  -3 25395.4 2048.32   2
   0  -7  -2 11349.6 1363.70   2
   0  -7  -2 11590.7 1465.23   3
   0  -7  -2 10955.1 777.208   1
   0  -7  -1 1770.85 445.154   1
   0  -7  -1 1404.31 665.531   3
   0  -7   0 35478.0 2471.38   3
   0  -7   0 35668.1 1336.66   1
   0  -7   1 6547.23 1133.76   3
   0  -7   2 18395.8 1855.55   3
   0  -7   3 26810.0 2312.60   3
   0  -7   4 8209.68 1380.61   3
   0  -7   5 47772.1 3398.60   3
   0  -7   6 79.7730 625.524   3
   0  -7   7 22448.5 2474.63   3
   0  -7   8 12303.0 2047.05   2
   0  -7   8 10196.1 1795.67   3
   0  -7   9 2598.90 1180.00   2
   0  -7  10 35519.9 3809.22   2
   0  -7  11 802.410 1034.91   2
   0  -6 -13 488.449 666.589   3
   0  -6 -12 1860.39 966.996   3
   0  -6 -11 9328.53 1728.31   3
   0  -6 -10-347.034 611.786   3
   0  -6  -9 5437.46 1190.39   3
   0  -6  -8 11891.8 1692.59   3
   0  -6  -7 2331.96 823.807   3
   0  -6  -7 3129.38 844.610   2
   0  -6  -7 4456.27 968.418   4
   0  -6  -6 52551.4 3272.33   3
   0  -6  -6 59144.5 3266.06   2
   0  -6  -6 53676.0 3215.84   4
   0  -6  -5 3117.46 731.864   1
   0  -6  -5 2937.27 802.247   3
   0  -6  -5 3079.34 747.575   2
   0  -6  -5 3828.10 920.164   4
   0  -6  -4 75735.6 3654.82   3
   0  -6  -4 74360.4 2935.03   1
   0  -6  -4 77174.4 3463.92   2
   0  -6  -3 38561.8 2453.68   3
   0  -6  -3 40655.5 1823.00   1
   0  -6  -3 37898.9 2298.73   2
   0  -6  -2 32584.1 2082.42   2
   0  -6  -2 34518.4 1433.25   1
   0  -6  -2 32716.7 2196.09   3
   0  -6  -1 63412.5 3077.58   3
   0  -6  -1 61829.7 1893.72   1
   0  -6   0-466.406 462.204   3
   0  -6   0 135.016 362.542   1
   0  -6   1 39127.3 2411.31   3
   0  -6   2 31674.3 2217.77   3
   0  -6   3 15797.5 1660.37   3
   0  -6   4 67431.0 3564.61   3
   0  -6   5 3558.37 1035.37   3
   0  -6   6 37747.8 2936.24   3
   0  -6   7 14724.9 1902.97   3
   0  -6   7 16901.3 2162.68   2
   0  -6   8 12782.3 1939.44   3
   0  -6   8 16839.3 2295.99   2
   0  -6   9 20378.3 2655.15   2
   0  -6  10-79.8745 799.603   2
   0  -6  11 19041.0 2863.48   2
   0  -6  12 3784.92 1390.68   2
   0  -5 -11-2.31900 752.459   3
   0  -5 -10 29068.9 2789.07   3
   0  -5  -9 3692.99 1080.39   3
   0  -5  -8 14240.3 1807.60   3
   0  -5  -8 16340.2 1844.70   2
   0  -5  -8 13506.8 1637.02   4
   0  -5  -7 30170.9 2501.07   3
   0  -5  -7 33379.8 2486.78   2
   0  -5  -7 31637.0 2386.35   4
   0  -5  -6 2280.98 785.045   3
   0  -5  -6 3634.02 814.334   2
   0  -5  -6 3664.30 854.908   4
   0  -5  -5 76409.8 3620.75   3
   0  -5  -5 78147.7 3468.42   2
   0  -5  -5 77872.1 3559.53   4
   0  -5  -4 31339.2 2126.53   3
   0  -5  -4 33003.5 2044.98   2
   0  -5  -4 30446.8 1757.07   1
   0  -5  -4 31933.6 2130.75   4
   0  -5  -3 61085.0 2887.19   3
   0  -5  -3 57324.6 2250.27   1
   0  -5  -3 57807.9 2677.30   2
   0  -5  -2 97078.7 3733.89   3
   0  -5  -2 98230.6 2763.62   1
   0  -5  -2 98397.5 3557.00   2
   0  -5  -1 285.561 382.338   3
   0  -5  -1 526.368 195.407   1
   0  -5   0 48443.7 2392.92   3
   0  -5   0 43924.4 1818.96   1
   0  -5   1 6062.73 852.293   3
   0  -5   1 6846.07 554.288   1
   0  -5   2 9556.11 1134.62   3
   0  -5   3 65577.9 3171.97   3
   0  -5   4 4558.13 1019.18   3
   0  -5   5 50003.3 3036.31   3
   0  -5   6 50979.8 3222.14   3
   0  -5   7 9058.40 1545.17   2
   0  -5   7 11046.6 1613.43   3
   0  -5   8 73859.5 4589.97   2
   0  -5   9 1230.98 916.810   2
   0  -5  10 58772.0 4582.04   2
   0  -5  11 2598.46 1182.10   2
   0  -5  12 6485.89 1761.45   2
   0  -5  13 14147.0 2617.66   2
   0  -4  -9 11902.9 1705.16   2
   0  -4  -8 29333.8 2442.38   2
   0  -4  -8 24418.6 2115.93   4
   0  -4  -7 1107.75 535.080   2
   0  -4  -7 1621.58 603.695   4
   0  -4  -6 29741.9 2081.36   4
   0  -4  -6 31718.2 2198.54   2
   0  -4  -6 29187.9 2196.51   3
   0  -4  -5 43126.6 2528.44   3
   0  -4  -5 45689.2 2471.71   4
   0  -4  -5 46740.0 2500.03   2
   0  -4  -4 41747.2 2306.61   3
   0  -4  -4 41712.2 2198.21   2
   0  -4  -4 42288.3 2249.76   4
   0  -4  -3 105713. 3743.19   3
   0  -4  -3 105698. 3687.90   4
   0  -4  -3 106489. 3581.47   2
   0  -4  -2 4331.09 704.246   3
   0  -4  -2 3680.14 477.691   1
   0  -4  -2 3627.10 593.024   2
   0  -4  -1 193593. 5230.99   3
   0  -4  -1 190897. 4135.95   1
   0  -4   0 73373.5 2764.67   3
   0  -4   0 72381.4 1993.57   1
   0  -4   1 93081.9 2462.32   1
   0  -4   1 87500.0 3212.41   3
   0  -4   2 144334. 4436.08   3
   0  -4   3 15703.8 1397.12   3
   0  -4   4 78894.4 3465.07   3
   0  -4   5 4122.70 878.616   3
   0  -4   6 16310.2 1722.88   3
   0  -4   6 18235.4 1898.03   2
   0  -4   7 46251.0 3247.03   2
   0  -4   8 1119.99 778.516   2
   0  -4   9 36613.8 3302.43   2
   0  -4  10 20009.2 2619.39   2
   0  -4  11 7989.40 1819.37   2
   0  -4  12 21681.2 2959.68   2
   0  -4  13 281.874 856.689   2
   0  -4  14 8955.43 2061.63   2
   0  -3  -9 51835.2 3548.55   2
   0  -3  -8 9500.16 1421.64   2
   0  -3  -7 120909. 4915.77   2
   0  -3  -6 20704.3 1754.68   2
   0  -3  -5 79926.6 3308.95   2
   0  -3  -5 79324.7 3197.56   4
   0  -3  -4 78880.6 3028.92   4
   0  -3  -4 82723.8 3090.37   2
   0  -3  -4 81827.6 3198.98   3
   0  -3  -3 10760.4 998.708   3
   0  -3  -3 8466.63 847.050   2
   0  -3  -3 10045.7 928.970   4
   0  -3  -2 148159. 4112.89   3
   0  -3  -2 142291. 4014.44   4
   0  -3  -1 23113.3 1282.84   3
   0  -3  -1 21929.4 892.929   1
   0  -3   0 31784.6 1517.73   3
   0  -3   0 33132.3 995.619   1
   0  -3   1 155036. 4271.17   3
   0  -3   1 167681. 3654.74   1
   0  -3   2 1917.63 488.095   3
   0  -3   3 150088. 4526.33   3
   0  -3   4 33642.7 2021.11   3
   0  -3   5 35176.5 2254.54   3
   0  -3   5 35760.9 2339.98   2
   0  -3   6 78291.6 3888.15   2
   0  -3   7-190.085 598.814   2
   0  -3   8 98846.3 5108.83   2
   0  -3   9 28172.5 2816.35   2
   0  -3  10 22529.9 2636.49   2
   0  -3  11 48286.1 4057.49   2
   0  -3  12 243.121 805.135   2
   0  -3  13 28577.8 3400.65   2
   0  -3  14 4271.38 1628.84   2
   0  -2  -9 1532.18 764.011   2
   0  -2  -8 56626.3 3524.59   2
   0  -2  -7 22573.4 2034.95   2
   0  -2  -6 14060.0 1473.28   2
   0  -2  -5 299023. 7804.63   2
   0  -2  -3 304758. 6885.88   4
   0  -2  -2 17776.8 1065.41   3
   0  -2  -2 17176.1 993.697   4
   0  -2  -1 116216. 2993.60   3
   0  -2  -1 109617. 2943.01   4
   0  -2   0 342989. 7023.79   3
   0  -2   1 159822. 3925.08   3
   0  -2   1 166523. 3508.36   1
   0  -2   2 121238. 3409.21   3
   0  -2   3 82898.8 2932.10   3
   0  -2   4 47209.4 2311.94   3
   0  -2   4 46135.4 2361.04   2
   0  -2   5 101558. 4069.59   2
   0  -2   6 13550.9 1571.25   2
   0  -2   7 96827.6 4617.80   2
   0  -2   8 1879.18 814.454   2
   0  -2   9 41360.6 3304.50   2
   0  -2  10 22706.4 2584.08   2
   0  -2  11-170.667 748.573   2
   0  -2  12 21579.8 2746.24   2
   0  -2  13 8954.92 1981.77   2
   0  -2  14 4731.85 1578.51   2
   0  -2  15 18021.7 2844.73   2
   0  -1  -9 73574.3 4371.82   2
   0  -1  -8 2383.20 842.889   2
   0  -1  -7 43858.2 2937.14   2
   0  -1   2 21534.1 1118.90   3
   0  -1   3 2824.08 588.516   2
   0  -1   4 52806.3 2526.31   2
   0  -1   5 731.702 533.080   2
   0  -1   6 135286. 5171.83   2
   0  -1   7 59131.4 3470.23   2
   0  -1   8 73853.7 4137.34   2
   0  -1   9 79029.7 4539.31   2
   0  -1  10 2857.73 999.685   2
   0  -1  11 55683.7 4137.55   2
   0  -1  12 3736.11 1261.19   2
   0  -1  13 15631.9 2414.28   2
   0  -1  14 13661.0 2375.12   2
   0  -1  15 932.080 903.374   2
   0   0  -9 5925.25 1302.35   2
   0   0  -8 44845.3 3145.69   2
   0   0   3 96264.7 3215.93   2
   0   0   4 19505.4 1496.13   2
   0   0   5 81224.8 3513.28   2
   0   0   6 1377.58 641.324   2
   0   0   7 21642.7 2026.24   2
   0   0   8 40125.7 2955.64   2
   0   0   9 3626.23 1055.92   2
   0   0  10 72376.1 4442.06   2
   0   0  11 5450.40 1376.05   2
   0   0  12 20328.8 2565.15   2
   0   0  13 16870.2 2465.42   2
   0   0  14 2625.99 1213.69   2
   0   0  15 12113.6 2260.27   2
   0   1  -9 85581.0 4671.94   3
   0   1  -9 78273.4 4455.84   2
   0   1  -8 76248.3 4127.21   2
   0   1   2 175106. 4065.89   2
   0   1   3 41098.8 1799.48   2
   0   1   4 221535. 5916.59   2
   0   1   5 41134.9 2321.52   2
   0   1   6 46623.4 2716.47   2
   0   1   7 41014.2 2742.65   2
   0   1   8 2304.33 830.957   2
   0   1   9 74693.3 4248.43   2
   0   1  10 14368.8 1954.82   2
   0   1  11 36106.7 3210.07   2
   0   1  12 24504.4 2759.74   2
   0   1  13 9382.54 1945.58   2
   0   1  14 24690.8 3063.36   2
   0   1  15 902.786 861.331   2
   0   2  -8 2147.04 855.054   3
   0   2  -2 119627. 3126.47   1
   0   2  -1 153388. 3695.73   1
   0   2   2 17153.2 985.517   2
   0   2   3 308523. 6959.62   2
   0   2   4 55079.0 2369.89   2
   0   2   5 305961. 7815.63   2
   0   2   6 14800.0 1451.70   2
   0   2   7 22450.4 1960.47   2
   0   2   8 49163.1 3147.63   2
   0   2   9 1279.30 672.680   2
   0   2  10 9733.50 1653.66   2
   0   2  11 12581.6 1886.12   2
   0   2  12 1700.88 849.204   2
   0   2  13 23514.1 2829.25   2
   0   2  14 2656.16 1126.81   2
   0   2  15 6602.63 1680.55   2
   0   3  -9 29821.4 2887.37   1
   0   3  -8 113086. 5183.39   3
   0   3  -8 108493. 5321.62   1
   0   3  -7 859.937 628.749   3
   0   3  -7-2053.56 1229.81   1
   0   3  -6 81078.5 3775.50   1
   0   3  -5 26875.3 1809.26   1
   0   3  -4 29616.8 1747.40   1
   0   3  -3 139055. 4078.46   1
   0   3  -2 2013.98 595.907   1
   0   3  -1 155828. 3327.86   1
   0   3   0 32018.2 990.298   1
   0   3   3 8766.70 848.138   2
   0   3   4 82074.8 3062.43   2
   0   3   5 79332.9 3220.74   2
   0   3   6 21057.8 1737.22   2
   0   3   7 118687. 4764.60   2
   0   3   8 8242.03 1298.50   2
   0   3   9 46995.4 3250.48   2
   0   3  10 20495.3 2288.02   2
   0   3  11 12609.0 1907.46   2
   0   3  12 34146.6 3248.45   2
   0   3  13-461.654 908.665   2
   0   3  14 12686.0 2265.14   2
   0   3  15 4007.76 1363.96   2
   0   4  -9 34334.2 3116.33   1
   0   4  -8-83.7821 932.019   1
   0   4  -7 49675.7 3163.12   3
   0   4  -7 47235.6 3131.26   1
   0   4  -6 17692.0 1800.88   3
   0   4  -6 15776.8 1607.54   1
   0   4  -5 5221.89 927.092   3
   0   4  -5 2623.29 772.238   1
   0   4  -4 74935.3 3364.94   1
   0   4  -3 15408.4 1529.11   1
   0   4  -2 152773. 3824.90   1
   0   4  -1 85167.2 2110.62   1
   0   4   0 69448.9 1828.19   1
   0   4   3 106276. 3670.16   4
   0   4   4 39779.1 2116.56   2
   0   4   5 41182.5 2324.80   2
   0   4   6 28486.7 2081.95   2
   0   4   7 2131.88 710.839   2
   0   4   8 28349.6 2345.85   2
   0   4   9 12572.6 1707.91   2
   0   4  10 7173.77 1380.35   2
   0   4  11 34902.7 3174.74   2
   0   4  12 1050.59 931.292   2
   0   4  13 6808.45 1570.94   2
   0   4  14 3240.13 1251.11   2
   0   4  15-344.996 691.580   2
   0   5  -9 160.414 1071.90   1
   0   5  -8 66015.5 4417.02   1
   0   5  -7 11747.4 1861.79   1
   0   5  -6 54990.1 3232.30   3
   0   5  -6 45462.1 3236.10   1
   0   5  -5 50199.2 2931.25   3
   0   5  -5 43885.4 3126.98   1
   0   5  -4 3930.09 1271.34   1
   0   5  -4 1845.98 648.408   3
   0   5  -3 69736.3 3125.66   3
   0   5  -3 69661.0 2570.69   1
   0   5  -2 9562.76 642.528   1
   0   5  -1 6692.02 473.890   1
   0   5   2 99777.0 3724.35   4
   0   5   3 57800.8 2803.67   4
   0   5   3 61097.7 2882.35   3
   0   5   6 3805.12 874.707   2
   0   5   7 33108.0 2427.58   2
   0   5   8 16722.1 1857.23   2
   0   5   9 4002.39 1034.17   2
   0   5  10 32557.0 2903.39   2
   0   5  11-323.360 721.956   2
   0   5  12 26704.8 2902.42   2
   0   5  13 3777.10 1388.60   2
   0   5  14 9234.94 1897.99   2
   0   5  15 6127.08 1709.95   2
   0   6  -8 12101.8 2378.78   1
   0   6  -7 13532.5 2270.49   1
   0   6  -6 38480.1 3236.06   1
   0   6  -5 7343.47 1447.68   1
   0   6  -4 68135.6 3481.02   3
   0   6  -4 70880.6 2769.82   1
   0   6  -3 15474.1 1537.54   3
   0   6  -3 12953.6 870.174   1
   0   6  -2 34204.1 2209.44   3
   0   6  -2 28560.4 1184.05   1
   0   6  -1 40626.3 2348.63   3
   0   6  -1 35235.8 1264.01   1
   0   6   0 48.2073 361.527   3
   0   6   0 200.931 455.232   4
   0   6   1 65150.3 3076.24   3
   0   6   1 64740.8 3123.44   4
   0   6   2 34821.8 2226.87   3
   0   6   2 33071.8 2191.06   4
   0   6   3 42242.1 2554.00   3
   0   6   3 39724.5 2467.64   4
   0   6   4 73748.5 3504.20   4
   0   6   7 2964.99 835.700   2
   0   6   8 12024.3 1616.65   2
   0   6   9 6513.21 1286.08   2
   0   6  10 24.7368 631.082   2
   0   6  11 12437.6 1952.81   2
   0   6  12 3405.59 1181.78   2
   0   6  13 1726.00 939.050   2
   0   6  14 6964.71 1783.79   2
   0   7  -8 15767.7 2692.80   1
   0   7  -7 28351.8 2851.03   1
   0   7  -6 2292.45 923.801   1
   0   7  -5 47690.4 2324.90   1
   0   7  -4 4303.29 534.922   1
   0   7  -3 22194.0 1115.75   1
   0   7  -2 19375.3 1797.12   3
   0   7  -2 16249.1 848.209   1
   0   7  -1 8192.96 1166.47   3
   0   7  -1 7745.76 1242.23   4
   0   7   0 39372.7 2524.33   3
   0   7   0 36834.8 2582.45   4
   0   7   1 1780.35 590.027   3
   0   7   1 2175.14 740.911   4
   0   7   2 10282.7 1321.71   3
   0   7   2 12242.7 1468.12   4
   0   7   3 26628.8 2161.66   3
   0   7   3 27535.8 2199.36   4
   0   7   4 635.629 536.912   4
   0   7  10 15935.5 2100.57   2
   0   7  11 1990.36 938.677   2
   0   7  12 1333.48 829.939   2
   0   7  13 5550.82 1493.47   2
   0   7  14-637.752 935.292   2
   0   8  -5 5286.78 668.303   1
   0   8  -4 4776.13 541.336   1
   0   8  -3 25825.6 1125.43   1
   0   8  -1 42192.3 3050.51   4
   0   8   0 3662.36 1018.52   4
   0   8   1 27146.9 2357.16   4
   0   8   2 17669.6 1887.60   4
   0   8   3 4553.85 978.503   4
   0   8   4 22421.6 2159.51   4
   0   9  -2 14398.8 1998.47   4
   0   9  -1 2540.29 945.161   4
   0   9   0 8927.05 1469.17   4
   0   9   1 17586.0 2068.03   4
   0   9   2 2767.61 927.229   4
   0   9   3 16944.2 2006.10   4
   0   9   4 347.025 538.979   4
   0  10  -4 3469.64 1199.59   4
   0  10  -3 10602.2 1882.76   4
   0  10  -2-30.4749 716.204   4
   0  10  -1 4137.41 1148.26   4
   0  10   0 11618.8 1881.91   4
   0  10   1 1117.59 907.801   4
   0  10   2 13615.4 1931.33   4
   0  10   3 2871.76 1078.13   4
   0  10   4 10860.1 1721.79   4
   0  11  -3 282.220 681.007   4
   0  11  -2 6394.96 1644.88   4
   0  11  -1 642.334 798.446   4
   0  11   0 585.511 807.091   4
   0  11   1 7421.82 1583.61   4
   0  11   2-401.292 802.761   4
   0  11   3 2201.24 1168.39   4
   0  11   4 3514.77 1175.76   4
   1 -11  -1-225.867 1034.79   3
   1 -10  -7 4883.77 1399.21   3
   1 -10  -6 2630.62 1090.70   3
   1 -10  -5 2088.50 1072.84   3
   1 -10  -4 179.759 575.955   3
   1 -10  -3 7127.79 1544.76   3
   1 -10  -2 1765.67 1036.49   3
   1 -10  -1 1932.51 973.392   3
   1 -10   0 2999.23 1108.03   3
   1 -10   1 402.180 721.471   3
   1 -10   2 6707.23 1607.82   3
   1 -10   3 8294.82 1781.33   3
   1 -10   4 2336.46 1179.90   3
   1 -10   5 13258.0 2267.19   3
   1  -9  -9 6255.28 1539.51   3
   1  -9  -8 3393.05 1242.95   3
   1  -9  -7 2348.56 984.884   3
   1  -9  -6 14941.0 2140.10   3
   1  -9  -5 477.242 653.640   3
   1  -9  -4 11138.5 1831.02   3
   1  -9  -3 5391.69 1254.91   3
   1  -9  -2 6046.07 1384.10   3
   1  -9  -1 15823.1 2077.89   3
   1  -9   0 1192.89 699.941   3
   1  -9   1 8714.55 1625.10   3
   1  -9   2 3947.55 1215.33   3
   1  -9   3 6219.83 1436.82   3
   1  -9   4 10230.1 1879.46   3
   1  -9   5 1720.03 1017.01   3
   1  -9   6 9054.36 1777.46   3
   1  -9   7 6231.93 1512.97   3
   1  -8 -10 5880.39 1185.99   1
   1  -8 -10 7795.54 1716.82   3
   1  -8  -9 1693.49 940.447   3
   1  -8  -9 760.134 498.868   1
   1  -8  -8 6059.75 1398.22   3
   1  -8  -8 4634.10 929.019   1
   1  -8  -7 12221.4 1877.72   3
   1  -8  -7 11976.4 1341.06   1
   1  -8  -6-91.2919 550.569   3
   1  -8  -6 970.069 481.244   1
   1  -8  -5 6689.71 813.792   1
   1  -8  -5 7149.45 1383.28   3
   1  -8  -5 3728.93 710.738   1
   1  -8  -4 4253.29 518.638   1
   1  -8  -4 3815.99 1081.60   3
   1  -8  -4 3394.43 635.821   1
   1  -8  -3 1435.37 694.506   3
   1  -8  -2 27034.8 2480.17   3
   1  -8  -1-150.533 566.390   3
   1  -8   0 13188.1 1758.03   3
   1  -8   1 11596.8 1695.97   3
   1  -8   2 11004.0 1674.76   3
   1  -8   3 18987.1 2232.39   3
   1  -8   4 1815.07 1049.85   3
   1  -8   5 26880.3 2746.44   3
   1  -8   6 2785.26 1076.74   3
   1  -8   7 4233.65 1321.37   3
   1  -8   8 13262.9 2144.34   3
   1  -8   9-128.522 811.063   2
   1  -8   9-1002.84 1125.18   3
   1  -7 -12-413.788 674.401   3
   1  -7 -11 3629.67 1328.63   3
   1  -7 -10 3072.25 1086.98   3
   1  -7  -9 3972.70 1206.54   3
   1  -7  -8 20861.2 2417.53   3
   1  -7  -7 755.161 742.703   3
   1  -7  -6 27460.4 2556.51   3
   1  -7  -6 27957.9 1917.67   1
   1  -7  -5 6329.59 1246.53   3
   1  -7  -5 6685.12 883.097   1
   1  -7  -4 22003.5 2177.47   3
   1  -7  -4 25158.5 1439.38   1
   1  -7  -3 24088.8 1117.79   1
   1  -7  -3 25287.5 2292.06   3
   1  -7  -3 24445.2 1366.10   1
   1  -7  -2 1003.87 578.601   3
   1  -7  -1 36990.1 2692.22   3
   1  -7   0 5244.16 1070.46   3
   1  -7   1 8077.82 1290.02   3
   1  -7   2 36237.6 2754.16   3
   1  -7   3-434.367 650.723   3
   1  -7   4 37507.0 2948.69   3
   1  -7   5 6823.02 1401.52   3
   1  -7   6 26728.4 2670.37   3
   1  -7   7 8457.93 1570.36   3
   1  -7   8 391.515 603.729   3
   1  -7   8 1114.51 997.022   2
   1  -7   9 10170.9 1974.71   2
   1  -7   9 9152.03 1774.69   3
   1  -7  10 7973.33 1886.68   2
   1  -6 -13 1823.23 1157.22   3
   1  -6 -12 9909.81 1966.55   3
   1  -6 -11 381.808 786.761   3
   1  -6 -10 10148.2 1812.57   3
   1  -6  -9 10891.9 1820.45   3
   1  -6  -8 364.164 605.035   3
   1  -6  -7 21356.3 2273.54   3
   1  -6  -7 23837.1 2215.35   4
   1  -6  -6 7663.36 1341.55   3
   1  -6  -6 10048.8 1447.92   4
   1  -6  -5 24633.2 2213.56   3
   1  -6  -4 40527.9 2739.56   3
   1  -6  -4 38135.7 1887.78   1
   1  -6  -4 37217.6 2520.20   2
   1  -6  -3 1509.16 345.391   1
   1  -6  -3 1762.39 690.289   3
   1  -6  -3 1225.08 551.439   2
   1  -6  -2 53269.4 2920.81   2
   1  -6  -2 46531.2 1394.89   1
   1  -6  -2 52845.8 3032.00   3
   1  -6  -2 47702.8 1641.21   1
   1  -6  -1 809.000 545.641   3
   1  -6   0 14042.6 1542.17   3
   1  -6   1 36096.9 2473.91   3
   1  -6   2 77.2592 514.269   3
   1  -6   3 49958.2 3041.17   3
   1  -6   4 44814.8 2989.89   3
   1  -6   5 55232.5 3482.02   3
   1  -6   6 37425.7 2960.74   3
   1  -6   7 2884.70 909.705   3
   1  -6   8 38874.4 3286.65   3
   1  -6   8 35155.0 3249.46   2
   1  -6   9 1860.34 1001.28   2
   1  -6  10 17949.1 2603.93   2
   1  -6  11 6483.52 1749.42   2
   1  -6  12-186.759 1089.80   2
   1  -5 -13 6792.22 1766.13   3
   1  -5 -12-478.362 742.867   3
   1  -5 -11 10822.9 1903.18   3
   1  -5 -10 13517.7 2042.78   3
   1  -5  -9 563.806 581.388   3
   1  -5  -9 886.590 669.910   4
   1  -5  -8 18062.6 2094.67   3
   1  -5  -8 18039.1 1874.15   4
   1  -5  -7 4917.63 978.824   4
   1  -5  -7 5789.34 1212.00   3
   1  -5  -6 21623.5 2042.52   3
   1  -5  -6 21522.5 1970.01   2
   1  -5  -6 21218.8 1867.20   4
   1  -5  -5 59796.0 3322.43   3
   1  -5  -5 63733.7 3284.36   2
   1  -5  -5 61677.3 3164.04   4
   1  -5  -4 554.286 552.114   3
   1  -5  -4 506.819 436.692   2
   1  -5  -3 111627. 4359.96   3
   1  -5  -3 107376. 4156.56   2
   1  -5  -2 12169.3 1271.53   2
   1  -5  -2 10474.4 1227.05   3
   1  -5  -2 10478.4 655.491   1
   1  -5  -1 83559.5 3573.28   3
   1  -5   0 45807.2 2524.94   3
   1  -5   1 24576.4 1862.62   3
   1  -5   2 48451.0 2707.76   3
   1  -5   3 2246.06 804.083   3
   1  -5   4 27098.9 2164.89   3
   1  -5   5 64003.8 3581.42   3
   1  -5   6-981.325 751.507   3
   1  -5   7 33041.4 2788.08   3
   1  -5   8 9275.20 1661.15   2
   1  -5   8 10006.8 1645.59   3
   1  -5   9 16979.4 2288.79   2
   1  -5  10 26579.5 3037.80   2
   1  -5  11 5060.15 1561.02   2
   1  -5  12 10726.0 2216.79   2
   1  -5  13 5429.29 1796.78   2
   1  -4 -10 6673.65 1201.80   4
   1  -4  -9 37996.6 2729.76   4
   1  -4  -9 36549.8 3064.61   3
   1  -4  -8 200.016 643.651   3
   1  -4  -8-106.554 511.290   4
   1  -4  -7 39495.7 2839.87   3
   1  -4  -7 37744.5 2703.51   2
   1  -4  -7 35728.4 2386.63   4
   1  -4  -6 22366.6 2003.69   3
   1  -4  -6 23027.4 1964.29   2
   1  -4  -6 21918.5 1747.44   4
   1  -4  -5 1339.82 558.366   3
   1  -4  -5 1759.08 589.523   2
   1  -4  -5 1619.13 557.410   4
   1  -4  -4 46102.5 2591.88   3
   1  -4  -4 45071.4 2344.17   4
   1  -4  -3 28588.6 1922.96   3
   1  -4  -2 34063.3 2032.97   3
   1  -4  -1 129894. 4292.10   3
   1  -4   0 3172.78 636.646   3
   1  -4   1 104689. 3765.54   3
   1  -4   2 3042.22 736.255   3
   1  -4   3 85233.7 3512.61   3
   1  -4   4 106840. 4238.70   3
   1  -4   5 11729.3 1447.32   3
   1  -4   6 70905.9 3753.03   3
   1  -4   7 25862.8 2322.60   3
   1  -4   7 23490.2 2297.60   2
   1  -4   8 35429.0 2965.87   2
   1  -4   9 71941.8 4598.77   2
   1  -4  10 17063.8 2343.48   2
   1  -4  11 19937.8 2693.52   2
   1  -4  12 1351.38 962.904   2
   1  -4  13 12943.1 2349.98   2
   1  -3  -8 59025.5 3627.19   2
   1  -3  -7 76124.8 3886.52   2
   1  -3  -7 73243.1 3354.52   4
   1  -3  -6 22510.6 1897.77   2
   1  -3  -6 21730.4 1624.31   4
   1  -3  -6 21449.1 1887.12   3
   1  -3  -5 142811. 4478.64   4
   1  -3  -5 139373. 4966.58   3
   1  -3  -4 4608.12 806.465   3
   1  -3  -4 4810.40 697.169   4
   1  -3  -3 112155. 3877.99   3
   1  -3  -3 115138. 3541.04   4
   1  -3  -2 52575.5 2339.34   3
   1  -3  -1 11699.6 1024.89   3
   1  -3  -1 10026.9 563.094   1
   1  -3   0 99001.5 3273.14   3
   1  -3   1 5857.01 757.618   3
   1  -3   2 167465. 4796.34   3
   1  -3   3 90046.3 3402.30   3
   1  -3   4 21592.7 1712.55   3
   1  -3   5 88502.7 3799.23   3
   1  -3   6-283.143 646.532   3
   1  -3   6 458.730 508.596   2
   1  -3   7 50645.8 3230.75   2
   1  -3   8 27737.6 2544.22   2
   1  -3   9 453.424 672.903   2
   1  -3  10 58746.4 4252.55   2
   1  -3  11 3949.31 1289.78   2
   1  -3  12 7082.55 1724.69   2
   1  -3  13 26660.0 3244.63   2
   1  -3  14 468.703 909.297   2
   1  -2  -9 39868.4 3187.32   2
   1  -2  -8 25117.5 2334.42   2
   1  -2  -7 46955.4 3005.41   2
   1  -2  -4 131101. 3799.61   4
   1  -2  -3 56779.0 2422.95   3
   1  -2  -3 56415.2 2046.45   4
   1  -2  -2 245.645 333.296   3
   1  -2  -2 799.759 297.269   4
   1  -2  -1 10483.6 857.725   3
   1  -2  -1 11487.6 628.466   1
   1  -2   0 11176.0 869.559   3
   1  -2   1 18337.2 1117.75   3
   1  -2   2 179406. 4732.32   3
   1  -2   3 13467.9 1134.88   3
   1  -2   4 250608. 6673.70   3
   1  -2   5 22348.4 1739.30   3
   1  -2   6 134386. 5047.30   2
   1  -2   7 84056.6 4124.27   2
   1  -2   8 17226.1 1979.51   2
   1  -2   9 96646.5 5114.48   2
   1  -2  10 1849.22 872.051   2
   1  -2  11 19678.1 2528.89   2
   1  -2  12 22151.1 2784.51   2
   1  -2  13 2533.72 1217.20   2
   1  -2  14 18127.7 2745.32   2
   1  -2  15-169.316 792.221   2
   1  -1  -9 14863.0 2004.74   2
   1  -1  -8 12402.2 1701.66   2
   1  -1  -2 545756. 10724.5   3
   1  -1  -2 514792. 10649.7   1
   1  -1  -2 529597. 10054.8   4
   1  -1  -1 1173.22 326.186   3
   1  -1  -1 1380.01 324.017   1
   1  -1   0 227417. 4863.04   3
   1  -1   1 84580.8 2373.05   3
   1  -1   2 60387.9 2108.44   3
   1  -1   3 23360.8 1404.16   3
   1  -1   4 523.563 381.769   3
   1  -1   4 789.635 402.680   2
   1  -1   5 63701.3 2918.72   2
   1  -1   6 71281.9 3432.13   2
   1  -1   7 18089.1 1832.15   2
   1  -1   8 114887. 5195.68   2
   1  -1   9 4880.34 1196.65   2
   1  -1  10 60343.6 4063.21   2
   1  -1  11 24319.5 2701.67   2
   1  -1  12 4487.33 1385.31   2
   1  -1  13 24595.2 2961.68   2
   1  -1  14 1181.02 933.655   2
   1  -1  15 12333.7 2325.11   2
   1   0  -9 59005.8 3973.54   2
   1   0  -8 64507.5 3969.09   2
   1   0  -3 177017. 4823.91   1
   1   0  -2 2170.71 450.851   1
   1   0   2 253452. 5555.57   3
   1   0   3 5881.92 677.542   2
   1   0   4 47544.9 2216.42   2
   1   0   5 72870.9 3154.94   2
   1   0   6 13148.7 1433.55   2
   1   0   7 161379. 5875.81   2
   1   0   8 1987.35 814.892   2
   1   0   9 110638. 5289.13   2
   1   0  10 30518.9 2805.01   2
   1   0  11 17750.0 2250.97   2
   1   0  12 37479.3 3416.95   2
   1   0  13 887.185 870.280   2
   1   0  14 23232.0 2919.77   2
   1   0  15 2620.83 1181.13   2
   1   1  -9 70231.1 4540.85   1
   1   1  -9 71098.5 4336.10   2
   1   1  -8 1120.95 790.606   2
   1   1  -5 210439. 6439.99   1
   1   1  -4 156517. 4877.34   1
   1   1  -3 523.334 476.570   1
   1   1  -2 155207. 4344.62   1
   1   1   2 15540.1 784.988   2
   1   1   3 149706. 3950.46   2
   1   1   4 22791.3 1463.06   2
   1   1   5 68589.1 2983.65   2
   1   1   6 68546.1 3272.07   2
   1   1   7-10.3998 474.664   2
   1   1   8 42166.6 2900.14   2
   1   1   9 34109.5 2768.44   2
   1   1  10 2415.64 932.465   2
   1   1  11 55501.3 3920.13   2
   1   1  12 2022.04 970.070   2
   1   1  13 28900.0 3109.25   2
   1   1  14 13120.0 2256.72   2
   1   1  15 7768.02 1803.81   2
   1   1  16 12413.3 2340.08   2
   1   2  -9 986.353 1041.97   3
   1   2  -9 289.994 1131.38   1
   1   2  -8 67522.7 3904.67   3
   1   2  -8 68466.7 4269.19   1
   1   2  -8 64037.4 3841.32   2
   1   2  -7 25963.6 2233.64   3
   1   2  -7 24839.0 2291.64   1
   1   2  -6 96803.2 4310.42   1
   1   2  -5 116381. 4306.56   3
   1   2  -5 127654. 4657.25   1
   1   2  -4 7516.58 887.988   3
   1   2  -4 6716.14 882.624   1
   1   2  -3 154441. 4821.61   1
   1   2  -2 27571.6 1803.98   1
   1   2  -1 99786.2 2744.01   1
   1   2   0 246306. 5113.90   1
   1   2   1 1570.45 295.316   1
   1   2   2 74547.5 1982.12   2
   1   2   3 79489.2 2393.96   2
   1   2   4 75751.5 2689.23   2
   1   2   5 249484. 6559.58   2
   1   2   6 541.997 524.111   2
   1   2   7 170710. 5843.80   2
   1   2   8 18593.4 1895.36   2
   1   2   9 30766.6 2573.24   2
   1   2  10 45619.8 3335.30   2
   1   2  11 782.559 742.126   2
   1   2  12 30258.7 3008.83   2
   1   2  13 4944.15 1305.48   2
   1   2  14 11264.5 2060.71   2
   1   2  15 10865.6 2051.80   2
   1   2  16-959.067 1057.43   2
   1   3  -8 10774.3 1565.56   3
   1   3  -8 10501.9 1717.92   1
   1   3  -7 7190.51 1230.28   3
   1   3  -7 2836.60 1095.80   1
   1   3  -6 141392. 5241.62   3
   1   3  -6 136428. 5519.49   1
   1   3  -5-1146.97 1459.83   1
   1   3  -4 215017. 5871.33   3
   1   3  -4 199103. 6410.99   1
   1   3  -3 48675.3 2138.42   3
   1   3  -3 41600.6 2637.84   1
   1   3  -2 168228. 4951.49   1
   1   3  -2 182094. 4528.78   3
   1   3  -1 894989. 16828.2   3
   1   3  -1 887352. 16730.7   1
   1   3   0 253157. 5415.66   3
   1   3   0 243530. 5287.48   1
   1   3   1 12157.9 790.916   3
   1   3   1 11517.5 805.582   1
   1   3   3 20879.0 1135.73   2
   1   3   4 37896.5 1753.56   2
   1   3   5 6652.54 832.867   2
   1   3   6 54939.9 2699.25   2
   1   3   7 22083.0 1823.40   2
   1   3   8 36557.8 2612.84   2
   1   3   9 62658.6 3690.80   2
   1   3  10-95.1591 644.551   2
   1   3  11 23246.0 2454.33   2
   1   3  12 7969.70 1527.02   2
   1   3  13 5281.43 1397.11   2
   1   3  14 18661.5 2547.87   2
   1   3  15 695.155 902.279   2
   1   3  16 10068.3 2110.23   2
   1   4  -8 55696.6 3578.10   3
   1   4  -8 53839.4 4048.73   1
   1   4  -7 31350.6 2485.65   3
   1   4  -7 30261.6 2848.72   1
   1   4  -6 4959.47 1002.70   3
   1   4  -6 5295.25 1316.40   1
   1   4  -5 30062.9 2549.57   1
   1   4  -4 14839.1 2170.89   1
   1   4  -3 39298.7 2036.55   3
   1   4  -3 48234.9 2732.17   1
   1   4  -2 213732. 5551.04   3
   1   4  -2 225154. 5427.22   1
   1   4  -1 3632.12 517.725   3
   1   4  -1 3503.62 438.775   1
   1   4   0 254563. 5853.23   3
   1   4   0 242857. 5419.58   1
   1   4   1 30016.2 1493.72   3
   1   4   1 28693.4 1353.35   1
   1   4   2 64628.2 2465.63   3
   1   4   4 3269.25 559.472   2
   1   4   5 56477.1 2549.88   2
   1   4   6 19745.9 1582.51   2
   1   4   7 28951.2 2092.84   2
   1   4   8 76767.2 3820.29   2
   1   4   9 2112.60 824.623   2
   1   4  10 66849.0 3999.06   2
   1   4  11 2548.12 951.265   2
   1   4  12 26672.7 2774.70   2
   1   4  13 12189.3 2026.10   2
   1   4  14 576.020 858.801   2
   1   4  15 5789.24 1609.30   2
   1   4  16 3090.58 1334.60   2
   1   5  -8 34504.4 3595.04   1
   1   5  -7 9432.37 1462.71   3
   1   5  -7 9531.18 2004.84   1
   1   5  -6 71435.2 3687.90   3
   1   5  -6 60625.9 4239.40   1
   1   5  -5 1037.94 1341.65   1
   1   5  -5 895.630 528.048   3
   1   5  -4 66437.8 3130.09   3
   1   5  -4 70199.0 3682.40   1
   1   5  -3 71313.5 2825.87   1
   1   5  -2 9772.17 810.696   1
   1   5  -1 278826. 4077.52   1
   1   5  -1 35593.5 2255.69   3
   1   5   0 4493.87 672.996   3
   1   5   0 5192.97 565.836   1
   1   5   1 83872.3 3064.12   3
   1   5   1 87029.3 2738.44   1
   1   5   2 12099.9 1109.82   3
   1   5   5 8283.38 988.191   2
   1   5   6 14120.0 1371.07   2
   1   5   7 16990.3 1624.14   2
   1   5   8-86.5614 445.863   2
   1   5   9 16766.9 1860.72   2
   1   5  10 7868.08 1421.47   2
   1   5  11 13959.8 1933.67   2
   1   5  12 22967.3 2575.84   2
   1   5  13 447.483 712.410   2
   1   5  14 12138.8 2082.27   2
   1   5  15 709.902 873.300   2
   1   6  -8 5427.60 1879.82   1
   1   6  -7 35772.8 3680.10   1
   1   6  -6 3248.94 1519.67   1
   1   6  -5 38037.2 2572.40   3
   1   6  -5 40162.8 2787.30   1
   1   6  -4 14796.6 1504.52   3
   1   6  -4 15397.9 1400.27   1
   1   6  -3 20103.1 1661.42   3
   1   6  -3 19033.1 1272.21   1
   1   6  -2 48957.7 1994.52   1
   1   6  -2 53724.2 2681.23   3
   1   6  -1 6251.23 627.771   1
   1   6   0 23589.8 1271.04   1
   1   6   1 83069.0 2764.32   1
   1   6   3 84298.3 3777.70   4
   1   6   3 90745.7 3674.11   3
   1   6   7 2268.14 760.059   2
   1   6   8 28027.7 2269.32   2
   1   6   9 1027.40 641.420   2
   1   6  10 15503.5 2004.65   2
   1   6  11 14521.6 1981.25   2
   1   6  12 3101.62 1057.79   2
   1   6  13 7541.75 1661.82   2
   1   6  14 760.568 836.980   2
   1   6  15 3563.86 1304.07   2
   1   7  -8 22380.0 2917.30   1
   1   7  -7 10852.9 2066.06   1
   1   7  -6 15436.7 1778.92   1
   1   7  -5 38726.6 2317.36   1
   1   7  -4 5884.13 1048.29   3
   1   7  -4 4151.44 613.203   1
   1   7  -3 66222.3 3335.92   3
   1   7  -3 58863.2 2382.11   1
   1   7  -2 768.358 421.149   3
   1   7  -2 698.006 303.792   1
   1   7  -1 66548.3 3176.55   3
   1   7  -1 60752.3 2277.01   1
   1   7  -1 66816.3 3491.98   4
   1   7   0 19580.6 1659.96   3
   1   7   0 18984.1 1199.62   1
   1   7   0 21958.3 1927.06   4
   1   7   1 14930.3 1461.90   3
   1   7   1 14508.2 1600.02   4
   1   7   2 46750.3 2658.13   3
   1   7   2 42103.8 2725.95   4
   1   7   3 7411.18 1190.93   4
   1   7   3 7919.91 1145.89   3
   1   7   4 46152.2 2938.81   4
   1   7   9 10338.6 1546.75   2
   1   7  10 12098.7 1752.34   2
   1   7  11 1657.34 889.415   2
   1   7  12 7378.63 1558.37   2
   1   7  13 1474.38 925.220   2
   1   7  14 1624.02 986.033   2
   1   8  -7 16438.4 1793.96   1
   1   8  -6 3855.24 786.018   1
   1   8  -5 236.892 670.414   1
   1   8  -4 24763.9 1573.61   1
   1   8  -3 710.269 301.809   1
   1   8  -2 14582.9 1073.35   1
   1   8  -2 16457.8 1882.05   4
   1   8  -1 13372.7 1008.34   1
   1   8  -1 15822.4 1840.77   4
   1   8   0 7367.27 1124.00   3
   1   8   0 7762.46 1327.49   4
   1   8   1 38564.7 2562.86   3
   1   8   1 37653.9 2752.92   4
   1   8   2 1120.75 696.582   4
   1   8   3 27078.6 2369.24   4
   1   8   4 16272.4 1817.43   4
   1   8  13 3305.02 1165.35   2
   1   8  14 1194.16 722.392   2
   1   9  -3 11338.9 978.107   1
   1   9  -3 12546.5 1857.21   4
   1   9  -2 11224.3 924.236   1
   1   9  -2 10326.3 1620.81   4
   1   9  -1 1243.92 709.677   4
   1   9   0 27895.4 2577.24   4
   1   9   1 557.153 640.078   4
   1   9   2 25148.1 2438.92   4
   1   9   3 7796.22 1416.93   4
   1   9   4 10640.0 1608.33   4
   1  10  -4 11146.0 1897.60   4
   1  10  -3 1585.53 965.326   4
   1  10  -2 4306.71 1148.88   4
   1  10  -1 8593.74 1627.61   4
   1  10   0 630.663 574.036   4
   1  10   1 7708.55 1494.45   4
   1  10   2 10168.3 1700.11   4
   1  10   3 2214.26 931.244   4
   1  10   4 13876.9 1975.41   4
   1  11  -4 3474.93 1303.91   4
   1  11  -3 2524.66 1140.69   4
   1  11  -2 6242.93 1504.72   4
   1  11  -1 422.003 639.239   4
   1  11   0 6311.75 1498.35   4
   1  11   1 1290.58 921.794   4
   1  11   2 4498.62 1362.47   4
   1  11   3 4121.18 1244.84   4
   1  11   4-314.421 641.922   4
   2 -10  -4 1917.00 859.611   3
   2 -10  -3 3550.18 1150.99   3
   2 -10  -2-1370.92 1121.88   3
   2 -10  -1 3645.85 1324.12   3
   2 -10   0 789.674 928.644   3
   2 -10   1 2926.03 1276.29   3
   2 -10   2 4405.64 1491.86   3
   2  -9  -7 5447.71 1474.34   3
   2  -9  -6 573.081 745.163   3
   2  -9  -5 453.144 690.198   3
   2  -9  -4 6398.05 1473.26   3
   2  -9  -3-2.34206 627.382   3
   2  -9  -2 12120.4 1930.62   3
   2  -9  -1 613.388 789.296   3
   2  -9   0 7765.56 1643.39   3
   2  -9   1 6797.14 1562.31   3
   2  -9   2 1207.84 900.131   3
   2  -9   3 9321.48 1818.01   3
   2  -9   4 2739.97 1201.20   3
   2  -9   5 4842.36 1555.72   3
   2  -9   6 9892.40 1957.54   3
   2  -8  -9 1396.02 826.795   3
   2  -8  -8 9075.01 1777.67   3
   2  -8  -7 1222.71 716.584   3
   2  -8  -6 14298.3 2033.56   3
   2  -8  -5 356.205 575.371   3
   2  -8  -4-194.850 537.404   3
   2  -8  -3 10053.9 1712.07   3
   2  -8  -2 2575.79 992.151   3
   2  -8  -1 11499.2 1771.63   3
   2  -8   0 11897.2 1788.20   3
   2  -8   1 1591.05 824.614   3
   2  -8   2 15853.2 2106.18   3
   2  -8   3 489.927 748.566   3
   2  -8   4 11950.0 1940.42   3
   2  -8   5 9140.46 1723.98   3
   2  -8   6 111.410 779.517   3
   2  -8   7 12475.0 2119.08   3
   2  -8   8 4250.54 1319.56   3
   2  -7 -11 1848.50 1089.86   3
   2  -7 -10 1787.87 1100.81   3
   2  -7  -9 9096.73 1783.56   3
   2  -7  -8 4458.39 1283.47   3
   2  -7  -7 24714.1 2648.77   3
   2  -7  -6 1205.93 681.995   3
   2  -7  -6 555.422 753.101   1
   2  -7  -5 1310.85 704.705   3
   2  -7  -5 762.640 375.130   1
   2  -7  -5 1035.11 964.552   1
   2  -7  -4 15480.7 1943.03   3
   2  -7  -4 17759.5 1048.97   1
   2  -7  -4 18114.3 1730.02   1
   2  -7  -3 946.432 670.025   3
   2  -7  -2 15683.4 1896.06   3
   2  -7  -1 12270.8 1668.98   3
   2  -7   0-824.866 863.848   3
   2  -7   1 44027.2 3166.04   3
   2  -7   2 5287.05 1230.49   3
   2  -7   3 28984.4 2654.89   3
   2  -7   4 18612.3 2204.61   3
   2  -7   5 11010.7 1810.19   3
   2  -7   6 26514.3 2774.85   3
   2  -7   7-1008.33 1038.50   3
   2  -7   8 9977.12 1842.13   3
   2  -7   9 7900.47 1748.98   2
   2  -7   9 8238.22 1722.02   3
   2  -7  10 363.148 840.217   2
   2  -6 -12 2349.70 1137.41   3
   2  -6 -11 1490.75 966.791   3
   2  -6 -10 10363.2 1898.56   3
   2  -6  -9 1703.18 932.701   3
   2  -6  -8 14152.1 1986.85   3
   2  -6  -8 10354.1 1538.61   1
   2  -6  -7 21066.5 2316.82   3
   2  -6  -7 17987.5 1951.04   1
   2  -6  -6 12339.3 1718.42   3
   2  -6  -6 9700.47 1393.07   1
   2  -6  -5 28711.3 2527.64   3
   2  -6  -5 29877.8 2360.03   1
   2  -6  -4-63.9094 594.254   3
   2  -6  -4-377.464 631.176   1
   2  -6  -3 36884.8 2742.50   3
   2  -6  -3 38672.3 1463.09   1
   2  -6  -3 40037.6 2070.22   1
   2  -6  -2 11282.4 1519.65   3
   2  -6  -1 20147.9 1940.68   3
   2  -6   0 18474.8 1875.59   3
   2  -6   1 5373.63 1083.25   3
   2  -6   2 21432.2 2061.42   3
   2  -6   3 24668.6 2264.73   3
   2  -6   4 3017.84 1096.75   3
   2  -6   5 41262.3 3058.89   3
   2  -6   6 2228.21 974.951   3
   2  -6   7 19440.6 2288.70   3
   2  -6   8 12769.0 1948.59   3
   2  -6   9 1822.77 965.340   2
   2  -6   9 2614.32 1097.92   3
   2  -6  10 19999.1 2736.29   2
   2  -6  11 2901.35 1257.24   2
   2  -5 -13 1153.45 1035.62   3
   2  -5 -12 4679.51 1406.27   3
   2  -5 -11 8735.45 1834.24   3
   2  -5 -10-543.308 800.828   3
   2  -5  -9 10498.8 1810.98   3
   2  -5  -9 10478.2 1486.58   4
   2  -5  -8 10779.2 1597.84   1
   2  -5  -8 12193.0 1843.80   3
   2  -5  -8 14285.6 1671.60   4
   2  -5  -7 4387.97 1074.34   3
   2  -5  -7 2752.36 835.538   1
   2  -5  -7 4397.43 950.712   4
   2  -5  -6 10854.9 1577.34   3
   2  -5  -6 8522.93 1298.78   1
   2  -5  -5 7415.08 1253.62   3
   2  -5  -5 5339.91 1034.02   1
   2  -5  -4 35519.3 2566.00   3
   2  -5  -4 37335.3 2353.84   1
   2  -5  -4 40295.2 2636.22   2
   2  -5  -3 50357.9 2984.75   3
   2  -5  -3 51127.0 2625.00   1
   2  -5  -3 56827.1 3111.97   2
   2  -5  -2 25186.8 2048.17   3
   2  -5  -2 25226.9 976.853   1
   2  -5  -2 28412.4 1108.76   1
   2  -5  -1 48589.3 2780.37   2
   2  -5  -1 46589.6 2763.89   3
   2  -5   0 3322.90 789.477   3
   2  -5   1 59637.1 3172.71   3
   2  -5   2 27199.2 2131.70   3
   2  -5   3 16729.0 1705.72   3
   2  -5   4 67408.9 3626.21   3
   2  -5   5 4670.19 1111.75   3
   2  -5   6 33339.1 2735.43   3
   2  -5   7 32645.6 2805.86   3
   2  -5   8 7466.24 1440.24   3
   2  -5   9 29151.8 2909.09   3
   2  -5   9 29836.0 2997.26   2
   2  -5  10-268.051 775.073   2
   2  -5  11 15107.7 2369.00   2
   2  -5  12 4250.93 1427.65   2
   2  -4 -13 1299.06 906.990   3
   2  -4 -12 10773.7 2021.01   3
   2  -4 -11 992.675 873.599   3
   2  -4 -10 28518.4 2958.44   3
   2  -4 -10 26642.8 2336.21   4
   2  -4  -9 21198.9 2402.26   3
   2  -4  -9 19243.0 1893.46   4
   2  -4  -8 7397.53 1431.02   3
   2  -4  -8 5745.95 1135.49   1
   2  -4  -8 8751.17 1254.80   4
   2  -4  -7 44023.3 3113.89   3
   2  -4  -7 37406.8 2752.93   1
   2  -4  -7 46598.0 2681.44   4
   2  -4  -6-530.857 596.334   3
   2  -4  -6 342.459 458.514   2
   2  -4  -6-217.862 715.113   1
   2  -4  -6 443.255 388.198   4
   2  -4  -5 64022.1 3439.99   3
   2  -4  -5 61855.8 3228.05   1
   2  -4  -5 69176.5 3501.55   2
   2  -4  -4 19829.3 1793.57   3
   2  -4  -4 16805.4 1524.12   1
   2  -4  -3 29045.6 2085.50   3
   2  -4  -3 32029.6 1988.58   1
   2  -4  -2 83791.5 3562.94   3
   2  -4  -2 81486.9 2914.71   1
   2  -4  -1 4057.63 807.129   3
   2  -4   0 67683.6 3076.15   3
   2  -4   1 35283.9 2173.84   3
   2  -4   2 35198.5 2241.97   3
   2  -4   3 49685.3 2773.71   3
   2  -4   4 180.660 645.674   3
   2  -4   5 61954.0 3407.22   3
   2  -4   6 11492.9 1525.77   3
   2  -4   7 3001.77 898.731   3
   2  -4   8 44648.6 3315.84   3
   2  -4   8 49396.3 3492.83   2
   2  -4   9 5614.74 1302.06   2
   2  -4  10 29564.0 3024.47   2
   2  -4  11 20692.0 2752.63   2
   2  -4  12 4030.58 1346.08   2
   2  -4  13 21012.5 3003.20   2
   2  -3 -11 19142.2 2000.00   4
   2  -3 -10 9573.50 1360.15   4
   2  -3  -9 11165.5 1388.22   4
   2  -3  -8 29070.7 2550.16   1
   2  -3  -8 35961.4 2337.52   4
   2  -3  -8 34311.2 2833.64   3
   2  -3  -7-14.2922 484.916   2
   2  -3  -7 150.824 509.417   3
   2  -3  -7 53.8127 619.455   1
   2  -3  -7 20.4817 367.069   4
   2  -3  -6 59962.7 3376.53   3
   2  -3  -6 58537.1 3295.25   2
   2  -3  -6 55837.0 3225.25   1
   2  -3  -6 61138.2 2752.38   4
   2  -3  -5 19393.2 1765.79   3
   2  -3  -5 16990.7 1609.18   1
   2  -3  -5 21267.2 1463.95   4
   2  -3  -4 5218.39 896.367   3
   2  -3  -4 6024.47 939.117   1
   2  -3  -3 40400.2 2275.82   3
   2  -3  -3 37764.5 2133.49   1
   2  -3  -2 1090.00 441.227   3
   2  -3  -2 1710.83 654.150   1
   2  -3  -1 35413.3 1984.97   3
   2  -3  -1 34854.6 1165.85   1
   2  -3   0 86806.1 3256.99   3
   2  -3   1 27568.1 1719.25   3
   2  -3   2 206091. 5828.36   3
   2  -3   3 4398.39 965.245   3
   2  -3   4 248434. 7090.78   3
   2  -3   5 11367.5 1381.48   3
   2  -3   6 28566.1 2270.72   3
   2  -3   7 39370.7 2842.54   3
   2  -3   8 959.667 661.398   2
   2  -3   9 36475.8 3085.07   2
   2  -3  10 11348.8 1875.55   2
   2  -3  11 2126.12 1037.89   2
   2  -3  12 29955.7 3336.55   2
   2  -3  13 1230.55 973.383   2
   2  -3  14 9600.93 2081.48   2
   2  -2  -8 669.019 609.327   2
   2  -2  -8-344.759 792.011   1
   2  -2  -7 103612. 4864.45   1
   2  -2  -7 110531. 4922.97   2
   2  -2  -6 62995.6 3460.90   1
   2  -2  -6 61724.5 2635.55   4
   2  -2  -5 66584.0 3367.29   1
   2  -2  -5 66650.4 2529.93   4
   2  -2  -5 62285.6 3153.44   3
   2  -2  -4 159391. 5185.01   3
   2  -2  -4 169104. 5417.02   1
   2  -2  -4 168859. 4319.26   4
   2  -2  -3 6095.99 825.137   3
   2  -2  -3 5889.95 906.549   1
   2  -2  -2 149058. 4314.46   3
   2  -2  -2 131173. 4346.17   1
   2  -2  -1 12815.4 1046.60   3
   2  -2  -1 14125.2 824.066   1
   2  -2   0 44382.8 1995.58   3
   2  -2   0 44463.6 1300.92   1
   2  -2   1 32929.3 1680.10   3
   2  -2   2 2281.87 521.207   3
   2  -2   3 131364. 4215.13   3
   2  -2   4 109489. 4028.12   3
   2  -2   5 52345.9 2798.40   3
   2  -2   6 76114.4 3668.06   3
   2  -2   7 687.722 574.796   2
   2  -2   8 68927.6 3891.64   2
   2  -2   9 27660.0 2603.27   2
   2  -2  10 25946.2 2682.61   2
   2  -2  11 26517.0 2897.06   2
   2  -2  12 3807.62 1202.32   2
   2  -2  13 23933.0 3017.04   2
   2  -2  14 12283.0 2292.82   2
   2  -2  15 4777.13 1548.76   2
   2  -1  -8 32697.2 2840.94   1
   2  -1  -8 36870.3 2961.48   2
   2  -1  -7 18221.9 2033.10   1
   2  -1  -6 19554.6 1950.14   1
   2  -1  -5 116893. 4659.29   1
   2  -1  -4-413.805 823.756   1
   2  -1  -4 131.946 190.591   4
   2  -1  -3 216511. 5768.41   3
   2  -1  -3 230045. 6392.92   1
   2  -1  -3 223985. 4726.99   4
   2  -1  -2 65089.6 2377.91   3
   2  -1  -2 56100.8 2746.99   1
   2  -1  -1 116234. 3324.91   3
   2  -1  -1 124436. 3278.97   1
   2  -1   0 86640.0 2206.08   1
   2  -1   0 81258.0 2546.10   3
   2  -1   1 12638.1 876.724   3
   2  -1   1 16554.3 810.987   1
   2  -1   2 146695. 4024.60   3
   2  -1   3 144710. 4261.68   3
   2  -1   4 72750.1 2993.12   3
   2  -1   5 104870. 3992.58   3
   2  -1   6-116.580 409.991   2
   2  -1   7 156450. 5671.81   2
   2  -1   8 18625.9 1978.18   2
   2  -1   9 100098. 5043.00   2
   2  -1  10 9653.61 1731.32   2
   2  -1  11 961.425 696.573   2
   2  -1  12 23346.5 2762.25   2
   2  -1  13 5270.60 1457.20   2
   2  -1  14 3280.11 1205.00   2
   2  -1  15 9237.38 2030.57   2
   2   0  -8 14256.0 1995.43   1
   2   0  -8 13747.4 1900.34   2
   2   0  -7 85224.7 4551.15   1
   2   0  -6 93430.3 4462.67   1
   2   0  -5 1697.55 757.579   1
   2   0  -4 159930. 5419.65   1
   2   0  -3 28679.9 2061.48   1
   2   0  -2 54462.5 2717.44   1
   2   0  -2 56281.9 2008.87   3
   2   0  -1 133114. 3242.21   3
   2   0  -1 132500. 3526.87   1
   2   0   0 38879.8 1394.63   1
   2   0   0 40233.2 1325.61   3
   2   0   1 304419. 6268.74   3
   2   0   1 307431. 6363.89   1
   2   0   2 27522.8 1284.01   3
   2   0   2 23495.4 1186.31   1
   2   0   3 37949.9 1775.52   3
   2   0   5 1053.24 483.001   2
   2   0   6 78812.2 3480.24   2
   2   0   7 41376.2 2670.11   2
   2   0   8 21438.1 2049.21   2
   2   0   9 109994. 5201.69   2
   2   0  10 3908.39 1068.81   2
   2   0  11 37833.3 3263.84   2
   2   0  12 19930.0 2489.53   2
   2   0  13 12421.0 2090.98   2
   2   0  14 22185.5 2882.65   2
   2   0  15 81.8607 921.266   2
   2   0  16 11791.8 2286.15   2
   2   1  -8 93934.5 5295.55   1
   2   1  -8 95834.6 5052.89   2
   2   1  -7 63736.8 4026.98   1
   2   1  -6 9200.35 1429.29   1
   2   1  -5 104786. 4587.75   1
   2   1  -4 22319.2 2000.07   1
   2   1  -3 2905.94 1086.70   1
   2   1  -2 70837.3 3161.54   1
   2   1  -1 271.083 280.483   2
   2   1  -1 279.028 144.222   4
   2   1   0 306884. 6428.92   1
   2   1   0 303183. 6031.16   2
   2   1   1 179404. 3546.20   2
   2   1   1 176052. 4224.52   1
   2   1   1 182080. 3729.89   3
   2   1   2 354135. 7593.22   1
   2   1   3 354482. 7390.28   2
   2   1   4 30092.7 1594.49   2
   2   1   5 206612. 5799.33   2
   2   1   6 19725.7 1637.98   2
   2   1   7 52973.9 2994.78   2
   2   1   8 65992.5 3598.04   2
   2   1   9 31638.0 2618.04   2
   2   1  10 37380.6 3008.50   2
   2   1  11 11709.8 1793.63   2
   2   1  12 24101.0 2687.71   2
   2   1  13 17639.1 2446.34   2
   2   1  14 2036.78 986.594   2
   2   1  15 10064.6 2045.32   2
   2   1  16 3720.80 1374.65   2
   2   2  -9 38795.9 3117.26   3
   2   2  -8 83688.9 5149.72   1
   2   2  -8 76865.1 4434.04   2
   2   2  -7 7987.48 1534.52   1
   2   2  -6 291371. 9351.04   1
   2   2  -5 10260.1 1622.88   1
   2   2  -4 183732. 6502.04   1
   2   2  -3 101905. 3670.84   2
   2   2  -3 85567.9 4054.78   1
   2   2  -2 43422.1 1688.36   3
   2   2  -2 40881.4 1978.73   2
   2   2  -2 46521.7 2475.24   1
   2   2  -1 36853.1 1187.77   3
   2   2  -1 33441.4 1298.30   4
   2   2  -1 34866.7 1526.26   2
   2   2  -1 36647.3 1611.20   1
   2   2   0 1494.49 389.855   1
   2   2   0 1676.27 370.693   4
   2   2   1 73375.1 2331.04   1
   2   2   2 10465.0 867.452   1
   2   2   3 19427.2 933.543   2
   2   2   4 166236. 4353.54   2
   2   2   5 32363.2 1825.73   2
   2   2   6 90626.0 3614.95   2
   2   2   7 86438.1 3806.67   2
   2   2   8 1379.28 649.205   2
   2   2   9 72063.7 3928.20   2
   2   2  10 9419.23 1551.21   2
   2   2  11 13134.8 1840.80   2
   2   2  12 25333.1 2702.71   2
   2   2  13 2676.75 1132.72   2
   2   2  14 36406.9 3545.72   2
   2   2  15 2408.20 1005.55   2
   2   2  16 6545.07 1651.61   2
   2   3  -8 6327.90 1295.93   3
   2   3  -8 7736.02 1835.79   1
   2   3  -7 67613.6 3668.53   3
   2   3  -7 64258.4 3753.16   2
   2   3  -7 69944.3 4632.71   1
   2   3  -6 13394.5 1578.84   2
   2   3  -6 12923.4 1965.67   1
   2   3  -5 206.016 292.898   3
   2   3  -5 86042.0 4499.46   1
   2   3  -4 102188. 3635.31   3
   2   3  -4 82947.3 4470.96   1
   2   3  -3 32533.7 1686.72   3
   2   3  -3 32741.0 2386.04   1
   2   3  -2 142668. 3717.52   3
   2   3  -2 147603. 4363.68   1
   2   3  -1 17087.0 844.904   3
   2   3  -1 17874.9 1105.94   4
   2   3  -1 16026.1 1076.04   1
   2   3   0 64672.4 2244.23   1
   2   3   0 68050.4 1775.71   3
   2   3   1 112147. 3323.01   1
   2   3   1 121159. 2827.97   3
   2   3   2 415.750 307.110   1
   2   3   3 70074.0 1963.15   2
   2   3   4 35361.0 1492.79   2
   2   3   5 109568. 3473.06   2
   2   3   6 138905. 4465.94   2
   2   3   7 41092.0 2417.24   2
   2   3   8 143031. 5325.06   2
   2   3   9 250.935 499.885   2
   2   3  10 34853.8 2776.15   2
   2   3  11 15889.0 2024.04   2
   2   3  12 6956.79 1459.22   2
   2   3  13 15687.7 2176.72   2
   2   3  14 720.592 803.211   2
   2   3  15 1628.04 915.175   2
   2   3  16 7528.70 1785.52   2
   2   4  -8 67030.4 3952.31   3
   2   4  -8 58566.2 4796.23   1
   2   4  -7 6472.20 1220.87   3
   2   4  -7 5437.27 1735.39   1
   2   4  -6 167048. 5737.91   3
   2   4  -6 139480. 6848.55   1
   2   4  -5 46708.6 3572.32   1
   2   4  -4 9718.83 1043.95   3
   2   4  -4 11088.9 1847.23   1
   2   4  -3 171151. 4732.62   3
   2   4  -3 163472. 5311.80   1
   2   4  -2 9685.56 837.526   3
   2   4  -2 9405.81 952.740   1
   2   4  -1 235827. 5319.03   3
   2   4  -1 222220. 5561.57   1
   2   4   0 31477.8 1535.12   1
   2   4   0 33830.5 1396.24   3
   2   4   1 38252.5 1550.14   3
   2   4   1 38849.3 1745.47   1
   2   4   2 67152.8 2554.03   1
   2   4   4 46582.8 1838.96   2
   2   4   5 31764.2 1657.30   2
   2   4   6 5235.48 758.817   2
   2   4   7 61986.9 2941.12   2
   2   4   8 15232.7 1548.33   2
   2   4   9 36735.8 2636.12   2
   2   4  10 47064.2 3195.33   2
   2   4  11 8972.92 1496.46   2
   2   4  12 34200.1 3043.78   2
   2   4  13 1035.77 885.152   2
   2   4  14 15370.4 2344.02   2
   2   4  15 8172.31 1780.04   2
   2   4  16 585.116 914.189   2
   2   5  -7 60752.6 3538.69   3
   2   5  -7 53062.3 4476.73   1
   2   5  -6 10919.6 2120.93   1
   2   5  -6 11922.0 1473.26   3
   2   5  -5 28253.6 2103.17   3
   2   5  -5 32375.0 2912.96   1
   2   5  -4 76275.4 3706.63   1
   2   5  -3 438.942 280.284   3
   2   5  -3 4514.56 769.738   1
   2   5  -2 75992.7 2819.45   3
   2   5  -2 73560.1 2821.92   1
   2   5  -1 112110. 3509.49   1
   2   5  -1 120575. 3547.74   3
   2   5   0 11400.1 909.285   3
   2   5   0 9696.05 865.805   1
   2   5   1 83327.3 2787.01   3
   2   5   1 75551.4 2786.20   1
   2   5   2 3361.07 554.479   3
   2   5   2 3143.19 569.932   1
   2   5   5 22609.9 1443.95   2
   2   5   6 63359.7 2770.57   2
   2   5   7 420.893 420.603   2
   2   5   8 30621.3 2172.59   2
   2   5   9 19472.1 1862.82   2
   2   5  10 7681.72 1307.29   2
   2   5  11 26880.2 2535.16   2
   2   5  12-42.2438 632.600   2
   2   5  13 15467.4 2171.67   2
   2   5  14 5227.54 1419.59   2
   2   5  15 1136.01 856.529   2
   2   5  16 5409.93 1609.15   2
   2   6  -7 44712.0 4139.69   1
   2   6  -6 36928.0 2676.12   3
   2   6  -6 40377.4 3293.51   1
   2   6  -5 64682.1 3338.72   3
   2   6  -5 64996.0 3562.84   1
   2   6  -4 1953.65 573.297   3
   2   6  -4 3954.05 856.581   1
   2   6  -3 96300.4 3556.27   1
   2   6  -2 78698.8 3522.44   4
   2   6  -2 72022.4 2826.17   1
   2   6  -1 107922. 2933.44   1
   2   6  -1-88.7948 176.540   3
   2   6   0 7022.51 786.397   1
   2   6   0-29.0526 199.625   3
   2   6   1 55.2052 180.578   3
   2   6   1 6122.90 772.729   1
   2   6   2 90.9514 190.498   3
   2   6   2 42093.4 1980.64   1
   2   6   7 34452.5 2192.44   2
   2   6   8 17004.4 1640.40   2
   2   6   9 2337.63 717.797   2
   2   6  10 17902.2 1953.71   2
   2   6  11 1424.74 757.606   2
   2   6  12 16604.7 2170.96   2
   2   6  13 10341.0 1841.70   2
   2   6  14 1721.22 916.765   2
   2   6  15 11883.7 2116.18   2
   2   7  -7 9142.63 1740.18   1
   2   7  -6 27760.8 2371.88   1
   2   7  -5 639.158 535.499   3
   2   7  -5-773.252 667.978   1
   2   7  -4 45277.2 2507.28   1
   2   7  -4 50018.2 2854.54   3
   2   7  -3 30628.7 2108.46   3
   2   7  -3 28889.2 1820.32   1
   2   7  -2 36430.8 1966.44   1
   2   7  -2 42835.5 2405.69   3
   2   7  -2 39303.8 2635.57   4
   2   7  -1 60893.3 2833.31   3
   2   7  -1 58090.9 3158.86   4
   2   7   0 2496.03 530.382   1
   2   7   0 1791.48 483.100   3
   2   7   0 2684.09 776.334   4
   2   7   1 36026.5 2132.38   3
   2   7   1 34798.8 1944.26   1
   2   7   1 34973.8 2441.94   4
   2   7   2 21046.5 1677.79   3
   2   7   2 22760.5 1975.09   4
   2   7   3 7227.43 1204.25   4
   2   7   9 21349.0 2019.37   2
   2   7  10 1664.82 711.380   2
   2   7  11 12886.5 1823.15   2
   2   7  12 1565.01 774.319   2
   2   7  13 1679.46 868.345   2
   2   7  14 5066.01 1513.82   2
   2   7  15-240.182 678.856   2
   2   8  -6-883.697 952.742   1
   2   8  -5 18753.1 1658.56   1
   2   8  -4 14373.9 1360.96   1
   2   8  -3 3557.27 664.103   1
   2   8  -3 4414.74 876.902   3
   2   8  -3 4723.29 1070.02   4
   2   8  -2 97712.4 4090.03   3
   2   8  -2 90526.9 4410.36   4
   2   8  -1 16044.0 1563.36   3
   2   8  -1 14012.9 1210.57   1
   2   8  -1 16138.3 1839.95   4
   2   8   0 30934.4 2174.16   3
   2   8   0 28123.7 1734.92   1
   2   8   0 31206.5 2471.64   4
   2   8   1 5099.67 898.182   3
   2   8   1 4343.32 713.299   1
   2   8   1 3265.98 901.724   4
   2   8   2 23027.6 1899.92   3
   2   8   2 21332.1 2057.90   4
   2   8   3 20956.7 2083.18   4
   2   8   3 18401.7 1726.74   3
   2   8  12 2221.93 832.952   2
   2   8  13 4814.17 1293.33   2
   2   8  14-18.8175 612.970   2
   2   9  -5 865.795 415.075   1
   2   9  -4 5777.17 878.426   1
   2   9  -4 6732.31 1386.92   4
   2   9  -3 18547.4 1492.26   1
   2   9  -3 20424.7 2237.85   4
   2   9  -2 966.221 397.840   1
   2   9  -2 906.550 707.960   4
   2   9  -1 21404.6 1549.69   1
   2   9  -1 25352.3 2414.34   4
   2   9   0 15784.7 1325.17   1
   2   9   0 18159.0 2030.68   4
   2   9   1 14238.7 1867.09   4
   2   9   2 27667.7 2537.45   4
   2   9   3 842.795 597.652   4
   2   9   4 26246.3 2517.60   4
   2  10  -5 12346.0 1997.09   4
   2  10  -4 5976.76 1394.56   4
   2  10  -3 1944.93 918.032   4
   2  10  -2 16914.1 2153.21   4
   2  10  -1 545.476 684.399   4
   2  10   0 7552.26 1501.34   4
   2  10   1 14440.0 1968.27   4
   2  10   2-454.246 695.325   4
   2  10   3 21524.2 2423.78   4
   2  10   4 583.246 576.997   4
   2  11  -5 7052.47 1652.11   4
   2  11  -4 843.012 755.681   4
   2  11  -3 6430.64 1549.64   4
   2  11  -2 2262.52 1083.62   4
   2  11  -1 4399.06 1315.82   4
   2  11   0 6231.32 1472.83   4
   2  11   1 554.074 850.565   4
   2  11   2 8008.04 1616.94   4
   2  11   3 3319.69 1156.13   4
   2  12   0 1926.25 946.399   4
   2  12   1 5174.25 1504.94   4
   2  12   2 485.521 787.556   4
   2  12   3 4129.60 1327.51   4
   3  -9  -5 4366.15 1356.56   3
   3  -9  -4 685.250 805.526   3
   3  -9  -3 3367.47 1226.32   3
   3  -9  -2 3429.27 1158.87   3
   3  -9  -1 1493.98 833.355   3
   3  -9   0 8623.50 1827.52   3
   3  -9   1-585.741 926.319   3
   3  -9   2 7980.37 1762.14   3
   3  -9   3 2540.87 1214.04   3
   3  -8  -8-102.471 782.988   3
   3  -8  -7 441.524 773.508   3
   3  -8  -6 7774.87 1688.38   3
   3  -8  -5-485.462 752.666   3
   3  -8  -4 3733.78 1223.32   3
   3  -8  -3 5518.25 1367.65   3
   3  -8  -2 2419.81 1073.05   3
   3  -8  -1 20488.3 2423.07   3
   3  -8   0 2.28550 916.023   3
   3  -8   1 18755.5 2387.81   3
   3  -8   2 7430.16 1591.12   3
   3  -8   3 12193.4 1975.79   3
   3  -8   4 9521.47 1837.57   3
   3  -8   5-256.185 902.201   3
   3  -8   6 8107.62 1731.35   3
   3  -7  -9 1755.54 1026.48   3
   3  -7  -8 4561.65 1317.76   3
   3  -7  -7 13165.2 2067.20   3
   3  -7  -6 564.313 736.415   3
   3  -7  -5 8205.10 1544.81   3
   3  -7  -5 8155.18 813.311   1
   3  -7  -4 1267.47 739.438   3
   3  -7  -3 5113.19 1255.98   3
   3  -7  -2 11752.4 1773.41   3
   3  -7  -1 247.029 560.821   3
   3  -7   0 13503.6 1820.75   3
   3  -7   1 11287.4 1768.92   3
   3  -7   2 4281.93 1229.92   3
   3  -7   3 24152.7 2563.89   3
   3  -7   4 816.244 861.363   3
   3  -7   5 24246.0 2677.45   3
   3  -7   6 3596.30 1217.60   3
   3  -7   7 4076.34 1290.03   3
   3  -7   8 10001.3 1911.43   3
   3  -6 -11 2001.54 1087.09   3
   3  -6 -10 325.146 654.421   3
   3  -6  -9 2265.77 983.347   3
   3  -6  -8 9985.79 1783.35   3
   3  -6  -7 452.530 676.611   3
   3  -6  -7 81.9241 1175.01   1
   3  -6  -6 6216.00 1335.00   3
   3  -6  -6 9750.83 2156.86   1
   3  -6  -5 10940.9 1646.89   3
   3  -6  -5 17208.5 2255.23   1
   3  -6  -4 9091.63 1520.01   3
   3  -6  -4 11576.5 1105.41   1
   3  -6  -3 27553.5 2492.90   3
   3  -6  -3 25721.5 1047.97   1
   3  -6  -2 99.9008 565.846   3
   3  -6  -1 34232.9 2702.59   3
   3  -6   0 6856.48 1252.92   3
   3  -6   1 10885.6 1547.14   3
   3  -6   2 31859.2 2673.11   3
   3  -6   3 1341.53 750.931   3
   3  -6   4 39992.5 3104.87   3
   3  -6   5 12814.5 1868.79   3
   3  -6   6 14542.5 2039.95   3
   3  -6   7 21140.9 2465.12   3
   3  -6   8 105.934 737.571   3
   3  -6   9 10461.0 1890.01   3
   3  -6  10 1538.54 958.973   2
   3  -5 -12 11201.6 2239.99   3
   3  -5 -11 1701.04 1026.03   3
   3  -5 -10 8118.36 1784.74   3
   3  -5  -9 10693.9 1883.10   3
   3  -5  -8 638.655 664.279   3
   3  -5  -8 1318.38 1211.21   1
   3  -5  -7 25987.2 2593.00   3
   3  -5  -7 28262.5 3102.90   1
   3  -5  -6 254.034 591.827   3
   3  -5  -6 265.880 1051.35   1
   3  -5  -5 7617.21 1361.64   3
   3  -5  -5 7903.43 1891.97   1
   3  -5  -4 31633.7 2563.82   3
   3  -5  -4 39327.5 2757.22   1
   3  -5  -3 1324.76 641.208   3
   3  -5  -3 1633.32 427.350   1
   3  -5  -2 49672.8 1465.76   1
   3  -5  -2 53459.0 3215.11   3
   3  -5  -1 4917.19 998.450   3
   3  -5   0 27249.1 2224.48   3
   3  -5   1 20955.3 1978.20   3
   3  -5   2-204.018 639.832   3
   3  -5   3 32092.8 2524.12   3
   3  -5   4 15744.2 1850.07   3
   3  -5   5 13570.3 1777.33   3
   3  -5   6 59747.6 3802.41   3
   3  -5   7 449.624 711.965   3
   3  -5   8 30976.6 2969.18   3
   3  -5   9 8700.54 1704.33   3
   3  -5   9 8103.34 1615.36   2
   3  -5  10 11246.1 1973.41   2
   3  -5  11 10031.7 2004.41   2
   3  -5  12 648.742 929.797   2
   3  -4 -13 6814.46 1831.34   3
   3  -4 -12 330.100 766.064   3
   3  -4 -11 6141.57 1586.39   3
   3  -4 -10 13748.2 2151.19   3
   3  -4  -9 362.419 660.652   3
   3  -4  -9 579.491 554.310   4
   3  -4  -8 36706.3 3177.49   3
   3  -4  -8 35968.2 3413.19   1
   3  -4  -8 38982.1 2562.74   4
   3  -4  -7 762.285 582.670   3
   3  -4  -7-683.544 1046.44   1
   3  -4  -6 2132.35 773.519   3
   3  -4  -6 2595.47 1210.38   1
   3  -4  -5 22678.3 2127.45   3
   3  -4  -5 22611.4 2586.09   1
   3  -4  -4 409.956 472.750   3
   3  -4  -4 41.1692 380.575   2
   3  -4  -3 47928.7 2859.54   3
   3  -4  -3 47533.1 2432.45   1
   3  -4  -3 51047.6 2964.69   2
   3  -4  -2 19193.7 1755.45   3
   3  -4  -2 19220.4 1017.76   1
   3  -4  -2 23277.8 1949.59   2
   3  -4  -1 29543.1 2146.02   3
   3  -4  -1 26601.9 1001.81   1
   3  -4   0 125647. 4696.11   2
   3  -4   0 107928. 4390.39   3
   3  -4   1 3744.94 824.060   3
   3  -4   2 86058.9 3875.70   3
   3  -4   3 2035.02 791.168   3
   3  -4   4 46497.9 2922.76   3
   3  -4   5 30321.2 2441.55   3
   3  -4   6 572.884 654.291   3
   3  -4   7 25857.5 2454.34   3
   3  -4   8 16331.9 2026.88   3
   3  -4   9 7790.15 1520.16   2
   3  -4   9 7650.75 1511.35   3
   3  -4  10 22170.9 2611.63   2
   3  -4  11-136.291 688.279   2
   3  -4  12 15734.1 2490.22   2
   3  -4  13 2185.59 1222.02   2
   3  -3 -13 2109.05 1075.09   3
   3  -3 -12 6802.68 1674.52   3
   3  -3 -11 18244.6 2501.14   3
   3  -3 -10 1019.99 796.658   3
   3  -3 -10 271.003 449.339   4
   3  -3  -9 44546.0 3600.54   3
   3  -3  -9 47447.1 2760.57   4
   3  -3  -8 7786.34 1489.17   3
   3  -3  -8 6469.84 1606.84   1
   3  -3  -8 7554.78 1036.36   4
   3  -3  -7 52954.2 3518.90   3
   3  -3  -7 58772.0 4133.40   1
   3  -3  -7 61277.0 2851.81   4
   3  -3  -6 14486.2 1716.08   3
   3  -3  -6 16092.4 2173.96   1
   3  -3  -5 8273.49 1238.35   3
   3  -3  -5 8455.06 1238.13   2
   3  -3  -5 5569.68 1563.32   1
   3  -3  -4 44903.1 2726.07   3
   3  -3  -4 46830.4 3392.11   1
   3  -3  -4 50640.6 2886.00   2
   3  -3  -3 5187.28 1148.55   1
   3  -3  -3 4273.13 850.291   3
   3  -3  -2 32029.9 2099.24   3
   3  -3  -2 36813.8 1645.80   1
   3  -3  -1 30333.1 1979.95   3
   3  -3  -1 29690.5 1229.80   1
   3  -3   0 1916.68 291.230   1
   3  -3   0 2346.44 649.492   3
   3  -3   1 97285.0 3785.70   3
   3  -3   2 14123.1 1362.97   3
   3  -3   3 64844.7 3144.09   3
   3  -3   4 66801.1 3325.98   3
   3  -3   5 5624.40 1044.24   3
   3  -3   6 62736.4 3542.30   3
   3  -3   7 13434.9 1703.21   3
   3  -3   8 18264.8 2077.24   3
   3  -3   8 19784.8 2097.20   2
   3  -3   9 49396.4 3562.11   2
   3  -3  10 501.842 637.234   2
   3  -3  11 37047.9 3478.33   2
   3  -3  12 3708.54 1331.09   2
   3  -3  13 13206.2 2322.86   2
   3  -3  14 9075.61 2024.57   2
   3  -2 -11 1662.18 669.267   4
   3  -2 -10 16700.1 1638.99   4
   3  -2  -9 9982.61 1209.75   4
   3  -2  -8 30206.0 3136.62   1
   3  -2  -8 26950.8 1840.54   4
   3  -2  -8 26483.5 2574.56   3
   3  -2  -7 19309.8 2450.54   1
   3  -2  -7 21229.3 1499.96   4
   3  -2  -7 18150.4 1992.09   3
   3  -2  -6 2338.46 703.531   2
   3  -2  -6 2147.70 733.492   3
   3  -2  -6 3114.95 1248.15   1
   3  -2  -6 2106.48 474.257   4
   3  -2  -5 124599. 4942.55   3
   3  -2  -5 134013. 6002.89   1
   3  -2  -5 142193. 3835.76   4
   3  -2  -4 8437.04 1087.94   3
   3  -2  -4 9377.37 1630.24   1
   3  -2  -3 118634. 4200.83   3
   3  -2  -3 118033. 4789.14   1
   3  -2  -2 23667.8 1633.48   3
   3  -2  -2 27479.2 1620.19   1
   3  -2  -1 901.372 407.930   3
   3  -2  -1 116.829 440.900   1
   3  -2   0 107155. 3688.14   3
   3  -2   0 110680. 2919.68   1
   3  -2   1 12485.4 1134.20   3
   3  -2   1 13346.0 831.307   1
   3  -2   2 78019.0 3127.98   3
   3  -2   3 89745.4 3538.35   3
   3  -2   4 21471.4 1727.17   3
   3  -2   5 115562. 4566.35   3
   3  -2   6 2229.81 714.163   3
   3  -2   7 65643.7 3671.41   3
   3  -2   8 23193.2 2201.88   2
   3  -2   9 5849.89 1269.21   2
   3  -2  10 27023.2 2756.30   2
   3  -2  11 5887.32 1401.06   2
   3  -2  12 8621.21 1790.77   2
   3  -2  13 18974.5 2687.67   2
   3  -2  14-470.572 972.246   2
   3  -1  -8 31617.0 3309.12   1
   3  -1  -7 16588.3 2387.52   1
   3  -1  -7 16997.6 1929.71   2
   3  -1  -6 95419.6 5260.49   1
   3  -1  -6 87923.0 4216.29   2
   3  -1  -6 84874.8 2819.44   4
   3  -1  -5 605.957 504.893   3
   3  -1  -5 417.848 836.331   1
   3  -1  -5 986.671 275.669   4
   3  -1  -4 95324.4 3742.88   3
   3  -1  -4 96887.2 4847.29   1
   3  -1  -3 50987.0 2417.34   3
   3  -1  -3 48887.8 3040.49   1
   3  -1  -2 67342.1 2608.95   3
   3  -1  -2 67971.9 2735.48   1
   3  -1  -2 60545.3 2637.71   2
   3  -1  -1 53846.1 2220.52   3
   3  -1  -1 55162.1 2049.79   1
   3  -1  -1 57589.4 2410.23   2
   3  -1   0 17345.5 1214.95   2
   3  -1   0 18248.8 1024.97   1
   3  -1   0 17434.5 1178.60   3
   3  -1   1 42568.4 1909.29   3
   3  -1   1 45450.7 1720.73   1
   3  -1   2 41757.1 1969.19   3
   3  -1   2 40548.0 1729.73   1
   3  -1   3 4197.02 805.158   3
   3  -1   4 120176. 4210.40   3
   3  -1   5 10308.6 1219.56   3
   3  -1   6 41381.5 2600.99   3
   3  -1   7 91657.1 4083.35   2
   3  -1   8 6407.20 1163.29   2
   3  -1   9 88166.6 4624.61   2
   3  -1  10 6262.87 1387.05   2
   3  -1  11 29246.2 2953.53   2
   3  -1  12 14990.5 2271.91   2
   3  -1  13 716.386 764.811   2
   3  -1  14 14418.7 2432.70   2
   3  -1  15 194.273 809.511   2
   3   0  -8 10737.4 2171.23   1
   3   0  -7 52152.1 4146.63   1
   3   0  -7 49693.1 3417.25   2
   3   0  -6 7728.52 1289.69   2
   3   0  -6 10822.4 2040.38   1
   3   0  -5 27694.4 2725.57   1
   3   0  -4 66457.2 4018.41   1
   3   0  -4 59372.8 1596.06   4
   3   0  -3 38449.6 1945.04   3
   3   0  -3 40951.6 2748.59   1
   3   0  -3 38833.3 2141.03   2
   3   0  -2 181767. 4734.25   3
   3   0  -2 190707. 5322.03   1
   3   0  -2 185547. 5105.19   2
   3   0  -1 49979.9 1859.93   3
   3   0  -1 51074.6 2043.02   1
   3   0  -1 51948.7 2083.75   2
   3   0   0 327178. 7105.45   1
   3   0   0 314592. 6857.45   3
   3   0   0 330534. 7160.11   2
   3   0   1 196480. 4695.76   3
   3   0   1 200374. 4840.11   1
   3   0   2 71803.7 2490.57   3
   3   0   2 74105.5 2543.17   1
   3   0   3 279144. 6777.85   3
   3   0   4 5841.93 795.471   3
   3   0   6 23214.6 1726.84   2
   3   0   7 21395.7 1818.73   2
   3   0   8 77156.4 3969.48   2
   3   0   9 2215.63 863.936   2
   3   0  10 31852.0 2851.44   2
   3   0  11 35278.0 3138.20   2
   3   0  12 1853.40 941.227   2
   3   0  13 17153.3 2435.07   2
   3   0  14 1131.47 907.925   2
   3   0  15 5391.94 1568.68   2
   3   1  -8 117713. 6917.72   1
   3   1  -8 120514. 5882.43   2
   3   1  -7 1435.29 787.708   2
   3   1  -7 1579.42 1351.44   1
   3   1  -6 109047. 5876.32   1
   3   1  -6 105122. 4883.28   2
   3   1  -5 26033.3 2767.65   1
   3   1  -4 132.451 318.779   2
   3   1  -4 43046.7 3119.38   1
   3   1  -3 64070.4 3446.38   1
   3   1  -3 66059.4 2954.18   2
   3   1  -2 4565.64 675.867   2
   3   1  -2 6293.80 923.803   1
   3   1  -2 5338.24 575.174   3
   3   1  -1 75196.0 2065.09   3
   3   1  -1 69484.2 2438.59   2
   3   1  -1 72393.0 2604.54   1
   3   1   0 18396.1 1141.51   1
   3   1   0 18509.2 787.656   3
   3   1   0 17073.6 940.424   2
   3   1   1 84201.1 2203.59   3
   3   1   1 79588.8 2678.18   1
   3   1   1 82962.5 2228.77   2
   3   1   2 319503. 6725.79   3
   3   1   2 303164. 7135.05   1
   3   1   3 27123.8 1573.33   1
   3   1   4 163751. 4328.18   2
   3   1   5 27341.7 1650.84   2
   3   1   6 9787.26 1120.30   2
   3   1   7 72603.5 3489.23   2
   3   1   8 7111.84 1174.53   2
   3   1   9 63190.0 3740.55   2
   3   1  10 28632.9 2622.33   2
   3   1  11 1938.85 878.500   2
   3   1  12 57640.9 4153.95   2
   3   1  13 1753.81 985.200   2
   3   1  14 25824.9 3034.15   2
   3   1  15 4379.93 1384.33   2
   3   1  16 5868.53 1687.19   2
   3   2  -8 7070.61 1510.62   2
   3   2  -7 63860.0 3977.27   2
   3   2  -7 58118.8 4700.61   1
   3   2  -6 63644.8 3723.94   2
   3   2  -6 51047.8 4227.61   1
   3   2  -5 27532.4 2813.09   1
   3   2  -4 65594.8 3477.15   2
   3   2  -4 140724. 5619.22   1
   3   2  -3-290.831 385.755   2
   3   2  -3 2475.51 1090.65   1
   3   2  -2 78352.6 3104.94   2
   3   2  -2 81243.1 2232.75   4
   3   2  -1 27965.5 1502.69   2
   3   2  -1 28847.9 1577.97   1
   3   2   0 26977.4 1466.59   1
   3   2   0 25252.5 1177.16   2
   3   2   1 196329. 4932.97   1
   3   2   1 184394. 3839.26   2
   3   2   2 59690.0 2373.71   1
   3   2   3 275165. 6894.51   1
   3   2   3 277657. 5779.26   2
   3   2   4 50377.9 1948.90   2
   3   2   5 74772.6 2848.44   2
   3   2   6 171308. 5277.44   2
   3   2   7 4378.84 902.210   2
   3   2   8 95162.4 4237.15   2
   3   2   9 406.714 547.680   2
   3   2  10 133.409 577.565   2
   3   2  11 32709.6 2864.41   2
   3   2  12 6791.63 1428.87   2
   3   2  13 9528.79 1724.10   2
   3   2  14 12208.9 2075.47   2
   3   2  15 1918.55 1178.55   2
   3   2  16 12899.3 2295.64   2
   3   3  -8 80180.1 4374.21   3
   3   3  -7 39562.1 2791.12   3
   3   3  -7 37731.9 2994.03   2
   3   3  -7 36892.2 3876.54   1
   3   3  -6 23615.5 2216.34   2
   3   3  -6 27865.6 3296.61   1
   3   3  -5 100896. 3996.13   3
   3   3  -5 114300. 5694.99   1
   3   3  -4 87.1281 306.864   2
   3   3  -4 85.1716 321.326   3
   3   3  -3 111898. 3516.34   3
   3   3  -3 114047. 4091.77   2
   3   3  -3 117193. 4428.86   1
   3   3  -2 15142.0 921.723   3
   3   3  -2 13964.2 1173.27   2
   3   3  -2 12887.7 1197.76   1
   3   3  -2 13091.1 938.069   4
   3   3  -1 122306. 2756.71   3
   3   3  -1 125273. 3501.28   2
   3   3  -1 126549. 3523.15   4
   3   3  -1 125108. 3870.62   1
   3   3   0 107342. 3421.60   1
   3   3   0 107376. 3293.88   4
   3   3   1 25.8678 222.220   1
   3   3   2 54498.8 2341.28   1
   3   3   3 67210.8 2767.22   1
   3   3   4 26163.3 1078.45   2
   3   3   5 142397. 3897.89   2
   3   3   6 4029.93 634.555   2
   3   3   7 111981. 4135.28   2
   3   3   8 51873.1 2897.72   2
   3   3   9 60751.3 3399.95   2
   3   3  10 31359.2 2601.20   2
   3   3  11 2538.54 922.813   2
   3   3  12 30563.5 2878.09   2
   3   3  13 10250.2 1761.33   2
   3   3  14 9025.70 1757.28   2
   3   3  15 11901.5 2064.48   2
   3   3  16-614.396 770.858   2
   3   4  -8 3432.49 983.953   3
   3   4  -7 22689.1 2122.04   3
   3   4  -7 22793.6 3217.27   1
   3   4  -6 60447.4 4589.54   1
   3   4  -5 5793.33 1600.00   1
   3   4  -5 47.5116 238.198   3
   3   4  -4 51869.0 2429.91   3
   3   4  -4 48088.4 3002.63   1
   3   4  -3 74255.2 2780.97   3
   3   4  -3 84605.9 3522.32   1
   3   4  -2 44726.5 1736.39   3
   3   4  -2 41679.9 2213.18   1
   3   4  -2 43675.8 2029.21   4
   3   4  -1 181150. 4046.01   3
   3   4  -1 178402. 4934.58   4
   3   4  -1 176506. 5050.13   1
   3   4   0 851.431 334.211   1
   3   4   0 1686.37 252.830   3
   3   4   0 1518.87 455.806   4
   3   4   1 213493. 5608.20   1
   3   4   1 213763. 5833.23   4
   3   4   2 17174.6 1312.02   1
   3   4   3 70577.6 2944.89   1
   3   4   5 18.4344 178.131   2
   3   4   6 64691.5 2507.81   2
   3   4   7 20916.9 1525.64   2
   3   4   8 71407.4 3294.65   2
   3   4   9 22782.8 1963.92   2
   3   4  10 742.646 666.163   2
   3   4  11 30912.1 2661.00   2
   3   4  12 3889.61 1081.93   2
   3   4  13 4206.24 1172.55   2
   3   4  14 6610.10 1540.09   2
   3   4  15 2302.38 986.735   2
   3   4  16 5110.80 1470.30   2
   3   5  -8 43818.1 3231.47   3
   3   5  -7 64942.6 3644.75   3
   3   5  -6 12001.6 1538.12   3
   3   5  -6 16199.9 2372.72   1
   3   5  -5 73972.0 4084.64   1
   3   5  -4 6780.10 1130.97   1
   3   5  -4 222.369 247.862   3
   3   5  -3 27446.7 1616.68   3
   3   5  -3 27243.0 1914.33   1
   3   5  -2 40677.1 1784.57   3
   3   5  -2 38157.9 2129.74   1
   3   5  -1 731.981 357.092   1
   3   5  -1 1122.60 288.831   3
   3   5   0 100017. 2837.95   3
   3   5   0 98125.6 3445.86   1
   3   5   1 15899.0 980.850   3
   3   5   1 17469.8 1324.47   1
   3   5   2 33305.8 1934.84   1
   3   5   3 90797.7 3538.03   1
   3   5   6 21697.2 1387.50   2
   3   5   7 11546.9 1119.29   2
   3   5   8 56094.1 2796.82   2
   3   5   9 159.057 408.019   2
   3   5  10 31438.1 2451.12   2
   3   5  11 12401.5 1654.82   2
   3   5  12 16110.3 2011.37   2
   3   5  13 25726.6 2714.54   2
   3   5  14 1314.36 804.740   2
   3   5  15 8136.47 1673.01   2
   3   5  16 3189.08 1218.92   2
   3   6  -7 3465.32 1034.85   3
   3   6  -6 71748.0 3634.54   3
   3   6  -6 71509.5 4209.42   1
   3   6  -5 5138.67 1118.00   1
   3   6  -5 3694.82 805.381   3
   3   6  -4 48849.7 2789.34   1
   3   6  -3 34487.6 2246.58   4
   3   6  -3 33394.8 2136.76   1
   3   6  -2 755.518 340.548   3
   3   6  -2 1041.26 467.920   1
   3   6  -2 438.083 440.140   4
   3   6  -1 54825.8 2565.82   1
   3   6  -1 57887.0 2318.43   3
   3   6  -1 55203.0 2822.15   4
   3   6   0 34558.6 1696.10   3
   3   6   0 33217.5 1907.61   1
   3   6   0 35018.8 2210.90   4
   3   6   1 28568.8 1550.72   3
   3   6   1 29089.5 1790.86   1
   3   6   1 31768.7 2156.68   4
   3   6   2 71652.5 3052.83   1
   3   6   3 2708.57 642.801   1
   3   6   7 31136.8 1917.21   2
   3   6   8 8031.97 1030.51   2
   3   6   9 12151.1 1401.70   2
   3   6  10 2605.76 812.153   2
   3   6  11 8556.12 1365.50   2
   3   6  12 10141.4 1583.92   2
   3   6  13 341.007 493.363   2
   3   6  14 5920.65 1365.44   2
   3   6  15 4601.81 1384.48   2
   3   7  -6 1888.68 668.178   3
   3   7  -6 4098.61 1035.74   1
   3   7  -5 24019.6 2006.57   3
   3   7  -5 20884.1 1941.19   1
   3   7  -4 34923.4 2248.69   3
   3   7  -4 31529.7 2235.51   1
   3   7  -3 13756.7 1353.23   3
   3   7  -3 11234.4 1408.12   4
   3   7  -3 11555.9 1254.47   1
   3   7  -2 55646.6 2752.52   1
   3   7  -2 55979.8 3086.94   4
   3   7  -1 59.3172 346.424   1
   3   7  -1 729.074 590.279   4
   3   7   0 19606.3 1549.41   1
   3   7   0 22401.7 1917.77   4
   3   7   1 13620.7 1271.38   1
   3   7   1 13897.5 1569.88   4
   3   7   2-34.6080 382.092   1
   3   7   2 431.922 520.191   4
   3   7   3 29159.6 2025.10   1
   3   7   9 4032.44 905.609   2
   3   7  10 16270.2 1759.87   2
   3   7  11 11389.6 1600.58   2
   3   7  12 387.306 607.952   2
   3   7  13 12039.0 1811.86   2
   3   7  14 1163.05 702.970   2
   3   8  -5 23752.8 2054.57   1
   3   8  -4 263.243 373.979   3
   3   8  -4 151.180 323.891   1
   3   8  -4 1298.82 822.103   4
   3   8  -3 44675.8 2587.02   1
   3   8  -3 48745.9 2773.88   3
   3   8  -3 46254.6 3076.66   4
   3   8  -2 11671.9 1281.42   3
   3   8  -2 11763.5 1280.12   1
   3   8  -2 12157.9 1555.92   4
   3   8  -1 31859.6 2070.83   3
   3   8  -1 29008.5 1936.53   1
   3   8  -1 33318.1 2522.48   4
   3   8   0 14613.0 1371.20   3
   3   8   0 13585.0 1337.79   1
   3   8   0 13629.8 1636.52   4
   3   8   1 6965.07 971.543   3
   3   8   1 5640.51 912.148   1
   3   8   1 5902.52 1151.13   4
   3   8   2 34202.4 2190.38   1
   3   8   2 32977.0 2614.90   4
   3   8   2 35389.3 2198.85   3
   3   8   3 1319.74 677.969   4
   3   8  12 7947.98 1443.15   2
   3   8  13 278.944 576.555   2
   3   9  -5 6521.51 1381.83   4
   3   9  -4 21265.8 1875.21   1
   3   9  -4 22360.5 2328.34   4
   3   9  -3 4738.45 860.790   1
   3   9  -3 6382.40 1282.21   4
   3   9  -2 39433.1 2590.97   3
   3   9  -2 34392.3 2210.44   1
   3   9  -2 33920.5 2780.25   4
   3   9  -1 2126.44 584.446   1
   3   9  -1 3673.90 842.242   3
   3   9  -1 1411.78 749.213   4
   3   9   0-298.253 425.755   3
   3   9   0 211.485 323.826   1
   3   9   0-29.4233 546.069   4
   3   9   1 25626.1 2012.24   3
   3   9   1 22279.2 1811.69   1
   3   9   1 25660.7 2426.02   4
   3   9   2 381.699 339.051   3
   3   9   2 563.916 717.441   4
   3   9   3 16694.7 1986.88   4
   3  10  -6 3719.29 1141.79   4
   3  10  -5 14385.2 2074.63   4
   3  10  -4 399.121 580.386   4
   3  10  -3 15560.0 2079.72   4
   3  10  -2 6241.03 970.152   1
   3  10  -2 7003.80 1409.48   4
   3  10  -1 2733.53 660.888   1
   3  10  -1 2528.65 939.842   4
   3  10   0 10496.6 1253.03   1
   3  10   0 9486.64 1629.89   4
   3  10   1 3672.96 791.894   1
   3  10   1 2928.48 1108.91   4
   3  10   2 11091.2 1726.79   4
   3  10   3 14282.6 1994.87   4
   3  11  -6 6014.75 1511.95   4
   3  11  -5 1404.73 870.839   4
   3  11  -4 7849.42 1652.24   4
   3  11  -3 13058.7 2021.56   4
   3  11  -2 14105.5 2086.60   4
   3  11  -1 1690.00 882.685   4
   3  11   0 469.318 753.609   4
   3  11   1 6321.06 1445.45   4
   3  11   2 4640.57 1319.49   4
   3  11   3 1754.38 942.285   4
   3  12  -1-801.666 885.135   4
   3  12   0 6822.25 1542.96   4
   3  12   1 126.708 751.091   4
   3  12   2 3835.15 1341.01   4
   3  12   3 4632.08 1298.65   4
   4  -8  -5 772.999 867.615   3
   4  -8  -4 4106.08 1266.72   3
   4  -8  -3-190.771 612.169   3
   4  -8  -2 6165.19 1539.43   3
   4  -8  -1 679.125 827.956   3
   4  -8   0 3219.32 1208.52   3
   4  -8   1 9805.59 1931.21   3
   4  -8   2 23.4270 792.037   3
   4  -8   3 3891.35 1368.50   3
   4  -8   4 2591.64 1076.17   3
   4  -7  -8 5556.18 1486.33   3
   4  -7  -7-253.675 725.100   3
   4  -7  -6 5992.83 1526.99   3
   4  -7  -5 5828.86 1401.50   3
   4  -7  -4 1117.79 709.381   3
   4  -7  -3 13557.8 2014.19   3
   4  -7  -2 1887.03 921.624   3
   4  -7  -1 5928.29 1371.06   3
   4  -7   0 14394.5 2022.35   3
   4  -7   1-502.076 887.652   3
   4  -7   2 22604.1 2602.82   3
   4  -7   3-404.132 750.009   3
   4  -7   4 915.104 790.559   3
   4  -7   5 14008.0 2161.57   3
   4  -7   6 2338.80 1109.90   3
   4  -7   7 9708.54 1927.78   3
   4  -6  -9 5117.96 1404.25   3
   4  -6  -8 974.478 851.945   3
   4  -6  -7 7419.64 1639.86   3
   4  -6  -6 11365.5 1870.56   3
   4  -6  -5 963.479 823.161   3
   4  -6  -4 14770.7 1990.65   3
   4  -6  -3 90.8816 578.182   3
   4  -6  -2 15917.1 2012.51   3
   4  -6  -1 12521.1 1805.77   3
   4  -6   0 374.703 821.758   3
   4  -6   1 22664.9 2354.25   3
   4  -6   2 3363.63 1133.22   3
   4  -6   3 5736.15 1353.70   3
   4  -6   4 26296.0 2678.16   3
   4  -6   5 3626.56 1226.89   3
   4  -6   6 25721.2 2779.35   3
   4  -6   7 447.870 795.847   3
   4  -6   8 8194.16 1668.68   3
   4  -6   9 7290.43 1663.62   3
   4  -5 -11 767.854 811.001   3
   4  -5 -10 4063.63 1406.75   3
   4  -5  -9 715.992 765.908   3
   4  -5  -8 5888.42 1426.41   3
   4  -5  -7 12441.7 1923.85   3
   4  -5  -7 13106.2 2787.57   1
   4  -5  -6 1807.44 1331.79   1
   4  -5  -6 628.252 615.815   3
   4  -5  -5 17891.7 2085.95   3
   4  -5  -5 23493.8 2134.26   1
   4  -5  -4 3299.04 1026.34   3
   4  -5  -4 4018.13 686.541   1
   4  -5  -3 32394.6 2664.03   3
   4  -5  -3 31626.2 1499.92   1
   4  -5  -2 28404.3 2458.54   3
   4  -5  -2 25317.3 1084.03   1
   4  -5  -1 14287.8 1746.93   3
   4  -5   0 37814.1 2842.25   3
   4  -5   1-868.107 1020.77   3
   4  -5   2 33095.8 2682.82   3
   4  -5   3 6729.06 1297.48   3
   4  -5   4 712.344 775.348   3
   4  -5   5 25899.2 2553.41   3
   4  -5   6 3984.39 1174.01   3
   4  -5   7 14217.2 2036.11   3
   4  -5   8 9144.93 1677.30   3
   4  -5   9-730.427 1042.12   3
   4  -5  10 20258.6 2658.32   2
   4  -5  11-358.296 743.869   2
   4  -4 -12 2709.15 1235.43   3
   4  -4 -11 7834.47 1770.16   3
   4  -4 -10 246.120 733.897   3
   4  -4  -9 14098.2 2184.39   3
   4  -4  -8 8675.12 1657.84   3
   4  -4  -7 6008.06 2437.21   1
   4  -4  -7 4862.06 1181.96   3
   4  -4  -6 9253.17 2100.52   1
   4  -4  -6 8389.88 1482.80   3
   4  -4  -5 1367.78 1153.67   1
   4  -4  -5 961.977 708.450   3
   4  -4  -4 12660.9 1580.07   3
   4  -4  -4 16188.5 1512.97   1
   4  -4  -3 29911.1 2382.33   3
   4  -4  -3 28796.1 1626.69   1
   4  -4  -2 2428.30 439.459   1
   4  -4  -2 3645.61 936.511   3
   4  -4  -1 66521.5 3531.78   3
   4  -4  -1 65941.1 2091.35   1
   4  -4   0 2104.20 731.306   3
   4  -4   1 47987.8 2979.35   3
   4  -4   2 31188.1 2416.28   3
   4  -4   3 12282.3 1575.00   3
   4  -4   4 45959.2 3087.84   3
   4  -4   5 2811.54 1040.86   3
   4  -4   6 22140.3 2296.62   3
   4  -4   7 26894.5 2586.52   3
   4  -4   8 109.493 650.397   3
   4  -4   9 34807.1 3203.80   3
   4  -4   9 28209.6 2819.20   2
   4  -4  10 445.190 595.472   2
   4  -4  11 20442.9 2686.99   2
   4  -4  12 5719.44 1596.98   2
   4  -3 -12 2879.00 1269.55   3
   4  -3 -11 484.083 812.345   3
   4  -3 -10 10620.4 1960.78   3
   4  -3  -9 11138.1 1846.93   3
   4  -3  -8 5317.44 1304.33   3
   4  -3  -7 26901.8 2579.27   3
   4  -3  -7 27130.5 3697.83   1
   4  -3  -6 1530.84 1649.51   1
   4  -3  -6 489.893 740.872   3
   4  -3  -5 41558.9 2888.49   3
   4  -3  -5 46626.6 3677.05   1
   4  -3  -4 24913.6 2151.26   3
   4  -3  -4 27820.7 2227.51   1
   4  -3  -3 13344.1 1488.38   3
   4  -3  -3 12657.7 1172.25   1
   4  -3  -3 12280.6 1494.60   2
   4  -3  -2 58278.6 3104.28   3
   4  -3  -2 58138.6 2318.48   1
   4  -3  -1 340.158 249.113   1
   4  -3  -1 443.710 458.904   3
   4  -3  -1 134.283 479.424   2
   4  -3   0 68429.4 3360.24   2
   4  -3   0 63093.6 3163.47   3
   4  -3   0 64009.7 2189.46   1
   4  -3   1 45914.2 2665.36   3
   4  -3   1 43902.2 1743.45   1
   4  -3   2 22757.5 1883.63   3
   4  -3   3 88701.1 4001.90   3
   4  -3   4 2486.66 907.505   3
   4  -3   5 57085.1 3384.34   3
   4  -3   6 14849.3 1788.48   3
   4  -3   7 7598.10 1350.93   3
   4  -3   8 12783.3 1831.11   3
   4  -3   9 1835.66 844.269   2
   4  -3  10 12628.7 1925.31   2
   4  -3  11 15548.3 2259.50   2
   4  -3  12 654.213 668.619   2
   4  -3  13 19947.2 2828.97   2
   4  -2 -13 9614.22 2014.74   3
   4  -2 -12-397.068 703.849   3
   4  -2 -11 11341.0 2057.14   3
   4  -2 -10 3931.60 1198.14   3
   4  -2  -9 5302.67 1384.04   3
   4  -2  -9 8467.23 988.004   4
   4  -2  -8 29791.9 2835.78   3
   4  -2  -8 36381.7 1917.67   4
   4  -2  -7 4181.80 1067.59   3
   4  -2  -7 5238.31 2115.05   1
   4  -2  -6 28522.7 2432.25   3
   4  -2  -6 29101.7 3449.41   1
   4  -2  -5 26210.0 2137.35   3
   4  -2  -5 23756.9 2790.05   1
   4  -2  -5 26339.9 2249.85   2
   4  -2  -4 22406.9 1896.88   3
   4  -2  -4 24446.8 2292.10   1
   4  -2  -4 25167.2 2071.67   2
   4  -2  -3 44913.3 2593.74   3
   4  -2  -3 52869.0 2599.77   1
   4  -2  -3 52573.8 2923.39   2
   4  -2  -2 304.460 410.795   3
   4  -2  -2 344.268 433.795   2
   4  -2  -2-209.901 479.914   1
   4  -2  -1 28590.1 1506.82   1
   4  -2  -1 28424.1 1891.97   3
   4  -2  -1 30036.5 2067.83   2
   4  -2   0 25296.7 1832.01   2
   4  -2   0 23486.9 1692.12   3
   4  -2   0 22800.4 1297.81   1
   4  -2   1 1066.87 559.458   3
   4  -2   1 2019.25 564.970   2
   4  -2   1 1292.55 354.992   1
   4  -2   2 88225.8 3591.11   3
   4  -2   3 4990.82 984.229   3
   4  -2   4 117212. 4553.86   3
   4  -2   5 73032.7 3677.83   3
   4  -2   6 21733.0 2027.75   3
   4  -2   7 54856.2 3426.65   3
   4  -2   8-433.123 589.995   2
   4  -2   9 30036.5 2691.43   2
   4  -2  10 6727.47 1386.46   2
   4  -2  11 6028.29 1432.00   2
   4  -2  12 20309.2 2672.29   2
   4  -2  13-454.381 902.100   2
   4  -2  14 11583.7 2211.94   2
   4  -1 -10 5872.45 885.013   4
   4  -1  -9 27282.9 1737.40   4
   4  -1  -8 4547.43 1174.06   3
   4  -1  -8 4033.85 593.522   4
   4  -1  -7 6463.09 1253.91   3
   4  -1  -7 8555.56 740.666   4
   4  -1  -7 9639.10 2408.06   1
   4  -1  -6 38079.5 2715.82   3
   4  -1  -6 36062.0 3859.57   1
   4  -1  -6 37215.3 2782.57   2
   4  -1  -5 23208.5 1958.05   3
   4  -1  -5 20987.5 2640.31   1
   4  -1  -5 25971.0 2174.49   2
   4  -1  -4 122518. 4526.42   3
   4  -1  -4 114444. 5201.97   1
   4  -1  -4 126261. 4830.81   2
   4  -1  -3 565.295 442.589   3
   4  -1  -3 1354.24 518.791   2
   4  -1  -3 1042.67 693.802   1
   4  -1  -2 148215. 4634.26   3
   4  -1  -2 154816. 4575.42   1
   4  -1  -1 72342.2 2859.81   3
   4  -1  -1 72829.8 2671.01   1
   4  -1   0 52869.6 2176.67   1
   4  -1   0 52364.8 2344.96   3
   4  -1   1 64033.2 2420.68   3
   4  -1   1 66812.0 2196.36   1
   4  -1   2 5933.48 726.940   1
   4  -1   2 4882.87 764.992   3
   4  -1   3 78828.5 3242.72   3
   4  -1   4 30764.5 2079.19   3
   4  -1   5 20733.5 1772.81   3
   4  -1   6 75730.6 3782.98   3
   4  -1   8 54665.2 3336.62   2
   4  -1   9 20228.4 2131.48   2
   4  -1  10 10554.6 1660.32   2
   4  -1  11 21673.0 2541.01   2
   4  -1  12-177.369 771.236   2
   4  -1  13 14526.4 2309.84   2
   4  -1  14 6110.93 1694.27   2
   4  -1  15 1770.45 1108.07   2
   4   0  -7 630.145 1500.81   1
   4   0  -7 718.934 637.949   2
   4   0  -7 739.749 296.797   4
   4   0  -6 12655.5 1652.20   2
   4   0  -6 14802.5 754.423   4
   4   0  -5 39719.4 3595.83   1
   4   0  -5 43490.1 2828.78   2
   4   0  -5 39691.0 2505.01   3
   4   0  -4 1192.54 1009.11   1
   4   0  -4 634.375 514.574   2
   4   0  -4 87.8705 363.304   3
   4   0  -3 81956.9 3158.74   3
   4   0  -3 91398.3 3710.16   1
   4   0  -2 22966.1 1350.21   3
   4   0  -2 19587.2 1418.78   1
   4   0  -1 30937.2 1577.28   3
   4   0  -1 30589.4 1764.71   2
   4   0  -1 33075.4 1756.07   1
   4   0   0 150656. 4331.84   1
   4   0   0 145918. 4049.18   3
   4   0   0 154005. 4396.97   2
   4   0   1 6131.70 711.348   2
   4   0   1 6227.24 698.829   3
   4   0   1 5612.56 696.909   1
   4   0   2 129397. 3947.63   3
   4   0   2 134111. 4068.50   1
   4   0   3 34638.7 1902.41   3
   4   0   3 31433.5 1805.80   1
   4   0   4 21567.2 1610.42   3
   4   0   5 85872.8 3687.03   3
   4   0   7 69877.7 3404.17   2
   4   0   8 44026.9 2870.80   2
   4   0   9 27923.8 2483.81   2
   4   0  10 52026.4 3668.20   2
   4   0  11 3181.92 1007.51   2
   4   0  12 28877.8 2991.10   2
   4   0  13 2786.63 1070.70   2
   4   0  14 7028.56 1705.04   2
   4   0  15 7499.17 1810.18   2
   4   1  -7 25805.6 3587.19   1
   4   1  -7 25624.8 2528.57   2
   4   1  -6 74201.6 5385.29   1
   4   1  -6 76556.0 4211.08   2
   4   1  -5 6999.14 1693.37   1
   4   1  -5 8058.07 1263.50   2
   4   1  -4 85432.1 4283.87   1
   4   1  -3 6218.85 763.837   3
   4   1  -3 9823.61 1303.39   1
   4   1  -2 6762.98 684.671   3
   4   1  -2 5741.60 817.149   1
   4   1  -2 6786.27 872.767   2
   4   1  -1 142606. 3598.44   3
   4   1  -1 139575. 4167.06   2
   4   1  -1 145365. 4375.90   1
   4   1   0 1477.47 432.415   1
   4   1   0 1037.54 314.183   2
   4   1   0 1663.30 328.524   3
   4   1   1 208726. 4734.54   3
   4   1   1 204519. 5426.20   1
   4   1   1 195286. 4858.24   2
   4   1   2 25240.2 1255.74   2
   4   1   2 26200.0 1370.23   3
   4   1   2 24948.9 1570.56   1
   4   1   3 130134. 3910.80   3
   4   1   3 126232. 4179.32   1
   4   1   6 56973.1 2710.76   2
   4   1   7 15371.1 1518.07   2
   4   1   8 9517.46 1359.15   2
   4   1   9 42707.8 3016.54   2
   4   1  10 2916.55 939.415   2
   4   1  11 31475.6 2925.54   2
   4   1  12 17349.0 2279.16   2
   4   1  13 7472.92 1593.06   2
   4   1  14 13851.7 2201.23   2
   4   1  15 1427.29 920.162   2
   4   1  16 13998.2 2410.37   2
   4   2  -7 47387.5 3532.61   2
   4   2  -6 14955.1 2749.01   1
   4   2  -6 14621.4 1846.90   2
   4   2  -5 89103.2 4395.46   2
   4   2  -5 82321.0 4825.02   1
   4   2  -4 2873.29 1006.42   1
   4   2  -4 1629.07 286.354   4
   4   2  -3 76169.6 3477.37   2
   4   2  -3 81902.3 3583.48   1
   4   2  -3 75045.5 2081.47   4
   4   2  -2 22633.3 1142.06   3
   4   2  -2 22512.4 1637.87   2
   4   2  -2 20755.9 1577.22   1
   4   2  -1 7488.85 495.774   3
   4   2  -1 7235.93 830.798   2
   4   2  -1 6269.91 828.652   1
   4   2   0 95460.5 3363.24   1
   4   2   0 90066.6 2134.61   3
   4   2   0 93389.5 2858.87   2
   4   2   1 39017.8 1995.69   1
   4   2   1 39227.8 1277.09   3
   4   2   1 38405.0 1413.07   2
   4   2   2 65959.5 2737.91   1
   4   2   2 65542.8 1815.59   2
   4   2   3 188052. 5496.04   1
   4   2   4 9635.71 1090.88   1
   4   2   4 10087.7 775.513   2
   4   2   5 141717. 4187.24   2
   4   2   6 37573.2 2135.05   2
   4   2   7 61736.6 3056.29   2
   4   2   8 68010.0 3487.93   2
   4   2   9 959.643 625.381   2
   4   2  10 49804.7 3353.46   2
   4   2  11 6866.43 1351.11   2
   4   2  12 11462.0 1803.79   2
   4   2  13 21438.9 2554.93   2
   4   2  14 1013.19 794.470   2
   4   2  15 16484.9 2447.50   2
   4   2  16 1133.46 917.163   2
   4   3  -7 89.5701 513.904   2
   4   3  -6 79894.1 4350.12   2
   4   3  -6 72006.6 4974.31   1
   4   3  -5 22436.0 2189.74   2
   4   3  -5 26224.3 2666.25   1
   4   3  -4 114130. 4758.90   1
   4   3  -4 109938. 3228.31   4
   4   3  -3 74983.6 3482.85   2
   4   3  -3 77547.2 3436.37   1
   4   3  -3 71085.2 2431.14   4
   4   3  -2 9388.50 709.659   3
   4   3  -2 9961.97 1136.03   2
   4   3  -2 8898.65 788.041   4
   4   3  -1 185231. 3575.79   3
   4   3  -1 195157. 5137.29   2
   4   3  -1 200765. 5472.18   1
   4   3   0 2157.64 397.395   2
   4   3   0 1599.31 506.036   1
   4   3   1 98066.1 3402.76   1
   4   3   1 84429.0 2074.81   2
   4   3   2 64039.5 2791.69   1
   4   3   3 30350.3 1923.68   1
   4   3   4 33498.9 2114.21   1
   4   3   4 32505.2 1120.93   2
   4   3   5 7228.85 690.974   2
   4   3   6 70769.7 2746.25   2
   4   3   7 64114.6 2906.29   2
   4   3   8 4437.12 853.806   2
   4   3   9 46781.5 2886.53   2
   4   3  10 14072.0 1697.22   2
   4   3  11 8077.94 1457.02   2
   4   3  12 17010.3 2085.74   2
   4   3  13 180.230 581.570   2
   4   3  14 14359.6 2140.74   2
   4   3  15 4568.19 1391.57   2
   4   3  16 5952.01 1596.80   2
   4   4  -8 8491.45 1426.16   3
   4   4  -7 50640.3 3185.84   3
   4   4  -7 46107.8 3405.02   2
   4   4  -6 1586.91 776.193   2
   4   4  -6 3772.61 1523.20   1
   4   4  -5 34480.1 2489.38   2
   4   4  -5 40253.9 2999.47   1
   4   4  -4 45730.5 2279.37   3
   4   4  -4 47510.6 2895.02   1
   4   4  -4 39400.3 1998.19   4
   4   4  -3 11512.0 940.702   3
   4   4  -3 11125.2 1246.10   2
   4   4  -3 10479.2 1240.56   1
   4   4  -3 9778.73 937.154   4
   4   4  -2 75225.9 2211.19   3
   4   4  -2 70822.9 2733.07   4
   4   4  -2 72713.6 3219.56   1
   4   4  -1 6095.44 859.215   1
   4   4  -1 5671.60 361.722   3
   4   4  -1 5832.00 780.488   4
   4   4   0 91610.0 3498.29   1
   4   4   1 111861. 3890.87   1
   4   4   2 889.604 423.128   1
   4   4   3 89101.2 3603.19   1
   4   4   4 2748.86 641.794   1
   4   4   5 16866.4 796.974   2
   4   4   6 70330.0 2371.43   2
   4   4   7 2751.37 572.335   2
   4   4   8 96586.2 3738.40   2
   4   4   9 5936.41 992.896   2
   4   4  10 31405.8 2398.45   2
   4   4  11 40871.7 2945.89   2
   4   4  12 3483.55 984.691   2
   4   4  13 21640.6 2414.61   2
   4   4  14-158.905 560.948   2
   4   4  15 4817.52 1315.01   2
   4   5  -8 51103.3 3416.10   3
   4   5  -7 2610.10 902.652   3
   4   5  -6 49575.9 2934.39   3
   4   5  -5 36374.7 2758.81   1
   4   5  -4 14458.9 1238.19   3
   4   5  -4 12311.3 1513.76   1
   4   5  -3 63460.1 2421.00   3
   4   5  -3 56100.3 2981.25   1
   4   5  -2 11489.1 816.182   3
   4   5  -2 9054.10 1047.16   1
   4   5  -1 75245.7 3257.10   1
   4   5  -1 75470.3 2128.76   3
   4   5   0 103166. 2524.03   3
   4   5   0 104135. 3853.91   1
   4   5   1 12086.8 1209.61   1
   4   5   2 192970. 5776.36   1
   4   5   3 4472.16 822.712   1
   4   5   4 79883.4 3583.53   1
   4   5   6 19249.5 1079.92   2
   4   5   7 33064.5 1701.26   2
   4   5   8 201.288 297.030   2
   4   5   9 3389.52 712.698   2
   4   5  10 32637.3 2345.14   2
   4   5  11-106.560 443.149   2
   4   5  12 23827.1 2315.51   2
   4   5  13 1705.55 852.754   2
   4   5  14 8475.14 1588.67   2
   4   6  -7 31683.3 2500.25   3
   4   6  -6 19317.2 1804.55   3
   4   6  -5 23604.1 2166.20   1
   4   6  -4 31827.4 2297.65   1
   4   6  -4 30228.0 2021.25   4
   4   6  -3 2031.91 518.655   3
   4   6  -3 706.126 581.566   1
   4   6  -3 2056.42 697.150   4
   4   6  -2 50203.3 2070.58   3
   4   6  -2 48683.6 2652.43   4
   4   6  -2 50739.3 2749.88   1
   4   6  -1 25759.3 1299.84   3
   4   6  -1 25820.9 1883.15   1
   4   6  -1 24353.7 1864.91   4
   4   6   0 2470.96 395.760   3
   4   6   0 2217.15 586.320   1
   4   6   0 1554.83 585.108   4
   4   6   1 56754.8 2817.80   1
   4   6   1 58031.3 3036.51   4
   4   6   2 20116.2 1651.33   1
   4   6   3 60036.6 3039.31   1
   4   6   4 45167.3 2693.32   1
   4   6   8 44558.8 2278.14   2
   4   6   9 4922.52 839.084   2
   4   6  10-231.257 380.667   2
   4   6  11 25093.5 2170.64   2
   4   6  12 988.115 587.919   2
   4   6  13 14894.7 1887.77   2
   4   7  -6 955.156 517.248   3
   4   7  -5 43444.8 2603.17   3
   4   7  -5 38299.5 2664.50   4
   4   7  -4 952.648 720.413   1
   4   7  -4 2841.97 814.825   4
   4   7  -3 50116.6 2901.66   4
   4   7  -3 50475.7 2932.30   1
   4   7  -2 17701.5 1627.46   1
   4   7  -2 14599.0 1181.27   3
   4   7  -2 17259.7 1681.06   4
   4   7  -1 26157.9 1524.80   3
   4   7  -1 27009.5 1973.31   1
   4   7  -1 27659.4 2128.73   4
   4   7   0 52249.9 2189.87   3
   4   7   0 49528.9 2702.30   1
   4   7   0 52597.4 3011.94   4
   4   7   1-97.7546 424.090   1
   4   7   1-170.176 295.401   3
   4   7   1 124.813 526.311   4
   4   7   2 44005.0 2560.02   1
   4   7   3 24714.7 1960.94   1
   4   7  10 15410.3 1574.92   2
   4   7  11-75.6764 417.155   2
   4   7  12 5302.72 1121.05   2
   4   8  -5 318.903 429.727   3
   4   8  -5 1010.82 705.921   4
   4   8  -4 19834.0 1725.26   3
   4   8  -4 16126.4 1789.55   4
   4   8  -3 15564.1 1661.19   1
   4   8  -3 14844.0 1392.44   3
   4   8  -3 13413.8 1645.22   4
   4   8  -2 6586.03 1070.56   1
   4   8  -2 7170.74 1185.83   4
   4   8  -1 37796.7 2424.09   1
   4   8  -1 34919.5 2583.65   4
   4   8   0 1257.34 463.371   1
   4   8   0 763.321 609.429   4
   4   8   1 22740.9 1879.74   1
   4   8   1 24838.4 2205.42   4
   4   8   2 9892.59 1259.49   1
   4   8   2 10400.6 1509.53   4
   4   8   3 7133.02 1119.05   1
   4   9  -7 11537.9 1789.14   4
   4   9  -6 1141.54 767.010   4
   4   9  -5 12150.1 1759.14   4
   4   9  -4 6035.80 1046.60   3
   4   9  -4 4178.41 1021.13   4
   4   9  -3 3492.05 799.889   3
   4   9  -3 2636.75 822.588   4
   4   9  -2 26722.5 1972.92   3
   4   9  -2 24294.9 2032.18   1
   4   9  -2 23782.6 2295.81   4
   4   9  -1 1563.16 513.824   3
   4   9  -1 1642.06 584.332   1
   4   9  -1 1867.40 770.305   4
   4   9   0 30480.1 2051.47   3
   4   9   0 27788.0 2130.57   1
   4   9   0 26086.8 2434.38   4
   4   9   1 6911.71 991.882   3
   4   9   1 7436.49 1129.41   1
   4   9   1 7690.17 1395.90   4
   4   9   2 13439.0 1532.61   1
   4   9   2 14055.0 1813.84   4
   4   9   3 23010.8 2026.92   1
   4  10  -8 12693.3 2051.22   4
   4  10  -7 1860.42 1000.13   4
   4  10  -6 10875.7 1776.01   4
   4  10  -5 926.094 762.725   4
   4  10  -4 7920.51 1515.59   4
   4  10  -3 6237.36 1382.16   4
   4  10  -2 569.493 621.454   4
   4  10  -1 5751.05 989.082   3
   4  10  -1 5920.94 1276.87   4
   4  10   0 6321.63 1051.07   3
   4  10   0 5276.86 1256.80   4
   4  10   1 1766.38 625.018   3
   4  10   1 1003.33 699.815   4
   4  10   2 19012.3 2271.04   4
   4  11  -6 2066.23 946.034   4
   4  11  -5 4920.77 1355.98   4
   4  11  -4 9044.47 1736.83   4
   4  11  -3 715.385 748.571   4
   4  11  -2 11414.3 1849.41   4
   4  11  -1-119.050 651.774   4
   4  11   0 5099.69 1320.16   4
   4  11   1 7285.10 1493.49   4
   4  11   2-534.853 854.782   4
   4  12  -2-89.8117 798.330   4
   4  12  -1 580.614 683.607   4
   4  12   0 4603.56 1289.17   4
   4  12   1 1163.99 915.785   4
   4  12   2 3039.63 1114.03   4
   5  -7  -5 60.0429 720.769   3
   5  -7  -4 6545.79 1588.71   3
   5  -7  -3 1598.67 777.134   3
   5  -7  -2 1888.33 1029.41   3
   5  -7  -1 4918.57 1377.07   3
   5  -7   0 177.920 822.623   3
   5  -7   1 5170.49 1459.13   3
   5  -7   2 11847.7 2047.63   3
   5  -7   3 1389.84 916.450   3
   5  -7   4 14121.1 2286.02   3
   5  -7   5 881.145 1066.16   3
   5  -6  -8 274.112 751.111   3
   5  -6  -7 7344.33 1675.77   3
   5  -6  -6-145.601 710.334   3
   5  -6  -5 13536.6 2077.70   3
   5  -6  -4 4851.44 1299.50   3
   5  -6  -3 8722.08 1584.03   3
   5  -6  -2 5021.89 1257.77   3
   5  -6  -1-3285.32 1090.01   3
   5  -6   0 9028.31 1613.96   3
   5  -6   1 3743.56 1207.47   3
   5  -6   2 2849.62 1147.25   3
   5  -6   3 6567.41 1442.95   3
   5  -6   4 5700.20 1466.35   3
   5  -6   5 17280.6 2367.33   3
   5  -6   6 4194.91 1287.46   3
   5  -6   7 4645.02 1388.16   3
   5  -5  -9 3160.20 1306.45   3
   5  -5  -8 3939.10 1302.39   3
   5  -5  -7 489.849 649.235   3
   5  -5  -6 8422.32 1632.77   3
   5  -5  -5 6860.92 1408.67   3
   5  -5  -4 2755.40 1026.63   3
   5  -5  -3 18268.9 2139.01   3
   5  -5  -2 16.8209 534.887   3
   5  -5  -1 29812.7 2642.90   3
   5  -5   0 4018.09 1051.54   3
   5  -5   1 9373.01 1536.73   3
   5  -5   2 9014.78 1589.51   3
   5  -5   3 4102.77 1191.08   3
   5  -5   4 16435.4 2121.85   3
   5  -5   5 16202.7 2179.10   3
   5  -5   6 7075.06 1523.38   3
   5  -5   7 25996.3 2818.91   3
   5  -5   8-907.651 981.961   3
   5  -5   9 15970.8 2386.46   3
   5  -5  10 3209.61 1225.08   2
   5  -4 -11 2874.42 1248.71   3
   5  -4 -10 1928.73 1083.31   3
   5  -4  -9 10069.1 1959.17   3
   5  -4  -8 356.599 648.614   3
   5  -4  -7 15710.9 2170.24   3
   5  -4  -6 5662.38 1303.67   3
   5  -4  -6 6384.67 1362.29   1
   5  -4  -5 6204.90 1266.16   3
   5  -4  -5 10122.6 1367.77   1
   5  -4  -4 21977.1 2235.20   3
   5  -4  -4 23904.8 1726.25   1
   5  -4  -3 552.037 635.491   3
   5  -4  -3 734.291 360.047   1
   5  -4  -2 34793.2 2752.93   3
   5  -4  -2 35262.5 1759.78   1
   5  -4  -1 11871.0 1567.30   3
   5  -4  -1 11987.4 918.075   1
   5  -4   0 24107.6 2207.78   3
   5  -4   0 23930.1 1260.83   1
   5  -4   1 31782.4 2576.20   3
   5  -4   2 7318.79 1301.21   3
   5  -4   3 4290.67 1081.13   3
   5  -4   4 14737.7 1886.46   3
   5  -4   5 14524.6 1947.92   3
   5  -4   6 18849.8 2235.49   3
   5  -4   7-482.540 831.414   3
   5  -4   8 11949.0 1934.06   3
   5  -4   9 12545.7 2043.77   3
   5  -4  10 9640.81 1813.43   2
   5  -4  11 16282.6 2429.94   2
   5  -3 -12 40.2580 816.862   3
   5  -3 -11 3900.17 1458.82   3
   5  -3 -10 9035.32 1894.39   3
   5  -3  -9 310.055 669.234   3
   5  -3  -8 18982.0 2388.35   3
   5  -3  -7 3545.34 1137.05   3
   5  -3  -6 14722.4 1887.30   3
   5  -3  -6 18874.6 2432.04   1
   5  -3  -5 9254.18 1496.79   3
   5  -3  -5 11911.9 1517.50   1
   5  -3  -4 537.115 547.143   3
   5  -3  -4 393.228 452.880   1
   5  -3  -3 23066.1 2068.78   3
   5  -3  -3 21456.9 1577.67   1
   5  -3  -2 12620.4 1129.05   1
   5  -3  -2 11748.0 1484.46   3
   5  -3  -1 13111.9 1528.77   3
   5  -3  -1 13994.5 1114.46   1
   5  -3   0 51709.9 3033.33   3
   5  -3   0 54928.4 2261.22   1
   5  -3   1 706.266 325.284   1
   5  -3   1-76.4048 644.573   3
   5  -3   2 43852.2 2819.73   3
   5  -3   3 20737.3 2021.84   3
   5  -3   4 30006.1 2479.41   3
   5  -3   5 25886.0 2378.41   3
   5  -3   6 2786.04 916.155   3
   5  -3   7 20322.5 2243.46   3
   5  -3   8 4990.10 1267.23   3
   5  -3   9 9180.98 1630.15   2
   5  -3  10 19110.4 2417.96   2
   5  -3  11-726.999 739.291   2
   5  -3  12 15317.5 2394.77   2
   5  -2 -12 1770.87 1076.78   3
   5  -2 -11 2715.92 1093.54   3
   5  -2 -10-68.1850 691.233   3
   5  -2  -9 13999.5 2107.05   3
   5  -2  -8 11345.8 1865.31   3
   5  -2  -7 18267.2 2145.72   3
   5  -2  -6 28566.6 2521.38   3
   5  -2  -6 34271.5 3263.70   1
   5  -2  -5 2193.20 751.270   3
   5  -2  -5 3023.99 1245.18   1
   5  -2  -4 70937.1 3648.36   3
   5  -2  -4 75261.3 3540.48   1
   5  -2  -3 7343.37 1102.25   3
   5  -2  -3 6386.44 908.006   1
   5  -2  -3 9142.88 1320.14   2
   5  -2  -2 34795.8 2359.99   3
   5  -2  -2 38758.0 2087.38   1
   5  -2  -1 35939.0 1932.47   1
   5  -2  -1 32725.4 2194.41   3
   5  -2  -1 37389.3 2511.44   2
   5  -2   0 2837.82 754.784   3
   5  -2   0 2230.28 703.231   2
   5  -2   0 2411.74 516.302   1
   5  -2   1 63678.4 3202.42   2
   5  -2   1 57585.4 2987.68   3
   5  -2   1 55639.9 2435.06   1
   5  -2   2 4260.83 898.133   3
   5  -2   2 3383.95 616.942   1
   5  -2   3 12991.7 1506.76   3
   5  -2   4 57405.6 3287.35   3
   5  -2   5 2150.39 803.724   3
   5  -2   6 42287.0 2973.06   3
   5  -2   7 3372.98 971.922   3
   5  -2   8 8475.57 1497.73   3
   5  -2   9 28420.3 2658.36   2
   5  -2  10 1212.58 802.299   2
   5  -2  11 21241.6 2565.54   2
   5  -2  12 8353.51 1733.15   2
   5  -2  13 6783.22 1692.39   2
   5  -1 -13 5424.16 1544.02   3
   5  -1 -12 2373.93 1120.68   3
   5  -1 -11 2083.01 1055.84   3
   5  -1 -10 9944.93 1883.12   3
   5  -1  -9 1713.94 863.265   3
   5  -1  -8 11514.5 1805.48   3
   5  -1  -7 9549.87 1539.72   3
   5  -1  -6 2712.16 1482.31   1
   5  -1  -6 1039.59 664.995   3
   5  -1  -5 45482.6 2879.17   3
   5  -1  -5 49664.4 3381.30   1
   5  -1  -4 17311.7 1647.77   3
   5  -1  -4 18927.3 1891.61   2
   5  -1  -3 56735.0 2889.89   3
   5  -1  -3 60706.2 3272.12   2
   5  -1  -3 61538.2 2964.29   1
   5  -1  -2 68496.9 3068.58   3
   5  -1  -2 69998.8 3409.51   2
   5  -1  -2 67371.7 2946.66   1
   5  -1  -1 17555.8 1384.52   1
   5  -1  -1 17498.4 1437.96   3
   5  -1  -1 18726.8 1645.00   2
   5  -1   0 79290.1 3253.80   3
   5  -1   0 81904.8 3143.68   1
   5  -1   0 87129.5 3650.51   2
   5  -1   1 10720.3 1192.00   2
   5  -1   1 9497.83 1118.86   3
   5  -1   1 9953.47 1015.46   1
   5  -1   2 30023.9 1954.91   2
   5  -1   2 27654.7 1922.44   3
   5  -1   2 30085.0 1813.90   1
   5  -1   3 54086.1 2818.38   3
   5  -1   4 2389.71 773.158   3
   5  -1   5 68149.5 3534.62   3
   5  -1   6 16362.2 1784.01   3
   5  -1   7 33325.6 2677.87   3
   5  -1   8 35016.0 2644.42   2
   5  -1   9 12263.3 1695.46   2
   5  -1  10 35853.3 3065.19   2
   5  -1  11 441.146 700.496   2
   5  -1  12 13483.3 2098.98   2
   5  -1  13 6910.69 1667.04   2
   5  -1  14 772.262 917.755   2
   5   0  -9 14311.0 2047.92   3
   5   0  -8 14902.1 1965.34   3
   5   0  -7 3359.27 937.588   3
   5   0  -6 41511.8 2870.67   3
   5   0  -6 43019.7 3790.82   1
   5   0  -5 9156.00 1246.69   3
   5   0  -5 7528.65 1260.58   2
   5   0  -5 11190.9 1750.68   1
   5   0  -4 38249.6 2294.01   3
   5   0  -4 40541.6 2699.63   2
   5   0  -3 51791.6 2514.60   3
   5   0  -3 55671.4 3025.26   2
   5   0  -2 18573.8 1372.67   3
   5   0  -2 17317.4 1431.31   1
   5   0  -1 112821. 3969.63   1
   5   0  -1 113436. 3696.79   3
   5   0   0 6762.36 789.787   3
   5   0   0 6166.51 817.722   1
   5   0   1 90046.9 2826.68   3
   5   0   1 90552.7 3034.95   1
   5   0   2 42671.5 2047.34   3
   5   0   2 42743.2 2142.23   1
   5   0   3 20777.4 1579.94   3
   5   0   3 18011.1 1472.98   1
   5   0   4 51615.5 2720.69   3
   5   0   5 12479.9 1437.03   3
   5   0   6 9633.14 1326.84   3
   5   0   7 27015.2 2070.32   2
   5   0   8 548.189 549.222   2
   5   0   9 50530.5 3337.50   2
   5   0  10 6039.14 1300.15   2
   5   0  11 25054.3 2654.18   2
   5   0  12 23592.4 2731.97   2
   5   0  13 4216.44 1279.97   2
   5   0  14 11683.9 2135.71   2
   5   0  15 3016.80 1250.91   2
   5   1  -6 3557.75 1014.77   2
   5   1  -6 3525.61 872.101   3
   5   1  -5 34408.0 2324.44   3
   5   1  -5 35537.9 2714.04   2
   5   1  -5 37232.5 2924.40   1
   5   1  -4 28850.1 1887.83   3
   5   1  -4 27719.4 2260.90   2
   5   1  -4 32775.7 2409.13   1
   5   1  -3 2835.95 574.939   3
   5   1  -3 1508.53 585.084   1
   5   1  -2 65601.0 2484.34   3
   5   1  -2 68024.9 3108.63   1
   5   1  -1 22049.4 1622.97   1
   5   1  -1 19875.7 1193.27   3
   5   1  -1 19754.2 1478.84   2
   5   1   0 65351.0 2872.54   1
   5   1   0 61253.0 2230.90   3
   5   1   0 61652.4 2579.77   2
   5   1   1 134569. 3821.06   3
   5   1   1 141778. 4541.72   1
   5   1   1 136878. 4053.50   2
   5   1   2 41170.8 1928.46   3
   5   1   2 39898.0 2225.52   1
   5   1   2 38631.1 1850.23   2
   5   1   3 232836. 6171.26   3
   5   1   3 234028. 6625.47   1
   5   1   4 10684.4 1141.77   3
   5   1   4 9468.59 1137.73   1
   5   1   6 29255.1 1891.32   2
   5   1   7 5259.24 946.929   2
   5   1   8 41895.3 2754.99   2
   5   1   9 1591.76 666.818   2
   5   1  10 28593.9 2623.51   2
   5   1  11 22524.7 2471.65   2
   5   1  12 8330.56 1615.50   2
   5   1  13 21805.6 2658.16   2
   5   1  14 1661.43 900.497   2
   5   1  15 5968.37 1657.95   2
   5   2  -6 73493.1 4321.34   2
   5   2  -6 70288.0 1955.27   4
   5   2  -5 47054.6 3224.59   2
   5   2  -5 45201.9 3193.23   1
   5   2  -4 25098.5 2206.40   2
   5   2  -4 30076.7 2338.48   1
   5   2  -4 26865.8 1770.52   3
   5   2  -3 87689.3 3030.23   3
   5   2  -3 96425.7 4000.76   1
   5   2  -2 710.140 432.653   2
   5   2  -2 607.525 247.540   3
   5   2  -1 59633.1 2846.97   1
   5   2  -1 60555.2 1902.78   3
   5   2  -1 58094.9 2622.12   2
   5   2   0 16673.8 1448.12   1
   5   2   0 17840.0 886.837   3
   5   2   0 15307.6 1160.38   2
   5   2   1 32634.1 2026.82   1
   5   2   1 36274.9 1405.66   3
   5   2   1 33651.4 1570.48   2
   5   2   2 106643. 4006.27   1
   5   2   2 106376. 3036.75   2
   5   2   3 3078.45 421.706   2
   5   2   3 2628.08 634.203   1
   5   2   4 92087.9 3847.02   1
   5   2   5 57485.9 2361.06   2
   5   2   6 11134.2 1124.20   2
   5   2   7 55651.5 2888.56   2
   5   2   8 3583.64 843.871   2
   5   2   9 16480.5 1769.35   2
   5   2  10 16246.0 1908.12   2
   5   2  11 1757.01 778.381   2
   5   2  12 31314.0 2931.16   2
   5   2  13 1238.16 818.131   2
   5   2  14 10726.0 1887.00   2
   5   2  15 10909.3 2041.70   2
   5   3  -6 38382.1 3143.19   2
   5   3  -6 37599.8 1711.83   4
   5   3  -5 12960.8 1768.65   2
   5   3  -5 14334.2 1851.65   1
   5   3  -5 13242.9 942.530   4
   5   3  -4 82970.3 2645.33   4
   5   3  -4 88107.9 4090.69   1
   5   3  -3-11.9176 313.480   2
   5   3  -3-346.416 800.149   1
   5   3  -2 53355.2 1735.60   3
   5   3  -2 53872.2 2847.74   2
   5   3  -2 53242.4 2829.11   1
   5   3  -1 47921.7 2586.58   1
   5   3  -1 42288.0 1171.50   3
   5   3  -1 47296.5 2359.05   2
   5   3   0 21084.6 1650.68   1
   5   3   0 20033.0 1317.36   2
   5   3   1 76081.3 3290.89   1
   5   3   1 74297.5 2387.26   2
   5   3   2 9881.27 1145.15   1
   5   3   2 7729.17 518.253   2
   5   3   3 51827.2 2738.06   1
   5   3   4 76805.8 2174.68   2
   5   3   4 77573.2 1931.95   2
   5   3   5 16174.6 1030.80   2
   5   3   6 118310. 3757.01   2
   5   3   7 2544.33 613.169   2
   5   3   8 79521.7 3542.82   2
   5   3   9 19115.9 1812.86   2
   5   3  10 20158.4 1998.44   2
   5   3  11 19789.0 2092.73   2
   5   3  12-155.957 561.866   2
   5   3  13 9715.37 1655.92   2
   5   3  14 6145.92 1428.20   2
   5   4  -8 21285.9 2214.79   3
   5   4  -7 20083.5 1995.34   3
   5   4  -6 24475.9 2423.87   2
   5   4  -6 22249.8 1514.95   4
   5   4  -5 50135.8 2675.88   3
   5   4  -5 56077.9 3502.93   2
   5   4  -5 56888.2 2414.18   4
   5   4  -4 362.658 306.420   3
   5   4  -4 961.635 538.167   1
   5   4  -4 521.369 350.614   4
   5   4  -3 47028.7 1792.52   3
   5   4  -3 44650.6 1996.92   4
   5   4  -3 42491.3 2553.10   1
   5   4  -2 68615.5 1968.04   3
   5   4  -2 74170.8 3189.97   2
   5   4  -2 73389.1 3433.19   1
   5   4  -1 56720.3 2939.94   1
   5   4  -1 58005.9 2473.15   2
   5   4   0 111630. 4247.75   1
   5   4   1 9498.18 1124.33   1
   5   4   2 95192.7 3881.53   1
   5   4   3 17693.2 1598.47   1
   5   4   4 15191.5 1544.14   1
   5   4   6 5455.45 481.101   2
   5   4   7 33898.9 1659.57   2
   5   4   8 35758.8 1991.29   2
   5   4   9 8294.31 1065.32   2
   5   4  10 46632.0 2827.42   2
   5   4  11-171.706 457.901   2
   5   4  12 26353.5 2402.76   2
   5   4  13 6950.06 1381.03   2
   5   5  -8 1347.96 643.945   3
   5   5  -7 26227.2 2279.19   3
   5   5  -5 11.6333 182.851   3
   5   5  -4 41521.7 2067.15   3
   5   5  -3 13092.9 948.464   3
   5   5  -3 12126.7 1462.04   1
   5   5  -2 888.861 210.856   3
   5   5  -2 1000.19 495.892   1
   5   5  -1 108603. 4365.39   1
   5   5   0 991.866 444.948   1
   5   5   1 93867.3 3882.78   1
   5   5   2 28530.4 2036.96   1
   5   5   3 48723.4 2773.16   1
   5   5   4 49036.5 2876.09   1
   5   5   7 18686.1 1008.64   2
   5   5   8 9636.49 879.773   2
   5   5   9 41443.2 2201.05   2
   5   5  10 191.848 350.702   2
   5   5  11 20103.9 1851.60   2
   5   5  12 5906.26 1085.78   2
   5   6  -8 7279.80 1318.67   3
   5   6  -7 40484.6 2800.80   3
   5   6  -6 2197.27 714.784   3
   5   6  -6 2038.17 700.818   4
   5   6  -5 52918.5 2849.44   4
   5   6  -4 1149.68 402.960   3
   5   6  -4 535.160 529.475   4
   5   6  -3 22062.9 1304.09   3
   5   6  -3 20316.6 1708.66   4
   5   6  -3 23529.7 2059.65   1
   5   6  -2 48930.4 2893.67   1
   5   6  -2 49211.8 1766.04   3
   5   6  -2 49446.8 2722.42   4
   5   6  -1 2431.77 305.771   3
   5   6  -1 1860.79 611.062   1
   5   6   0 58194.8 3071.40   1
   5   6   1 23989.0 1890.74   1
   5   6   2 30401.0 2166.38   1
   5   6   3 35546.0 2423.79   1
   5   6   4-297.917 525.427   1
   5   6   9 1716.77 505.045   2
   5   6  10 13419.1 1322.57   2
   5   6  11 8408.16 1170.05   2
   5   7  -7 746.948 654.177   3
   5   7  -7 283.285 657.810   4
   5   7  -6 26626.0 2061.16   3
   5   7  -6 24012.2 2109.31   4
   5   7  -5 6488.66 1098.04   4
   5   7  -4 23131.2 1969.30   4
   5   7  -3 20003.0 1350.28   3
   5   7  -3 17333.1 1696.91   4
   5   7  -2 2950.58 498.607   3
   5   7  -2 2653.11 744.223   4
   5   7  -1 44855.4 1764.00   3
   5   7  -1 45382.2 2830.50   1
   5   7  -1 44054.2 2778.10   4
   5   7   0 10879.2 1357.91   1
   5   7   0 11032.3 1413.89   4
   5   7   0 9962.80 757.114   3
   5   7   1 17216.3 1695.47   1
   5   7   2 41212.7 2627.71   1
   5   7   3 808.651 578.211   1
   5   8  -8 1338.29 750.513   4
   5   8  -7 15449.6 1873.95   4
   5   8  -6 5380.51 977.233   3
   5   8  -6 3730.86 958.751   4
   5   8  -5 10911.1 1281.63   3
   5   8  -5 10259.5 1474.25   4
   5   8  -4 21677.3 1674.79   3
   5   8  -4 19828.9 1967.69   4
   5   8  -3 439.987 495.913   4
   5   8  -2 40019.1 2016.49   3
   5   8  -2 40378.5 2807.34   4
   5   8  -1 3740.58 577.439   3
   5   8  -1 3960.79 938.736   4
   5   8   0 28666.2 1568.25   3
   5   8   0 26951.6 2359.26   4
   5   8   1 24694.1 2289.17   4
   5   9 -10 8057.48 1680.53   4
   5   9  -9 1986.33 1017.27   4
   5   9  -8 7771.08 1492.89   4
   5   9  -7 802.804 666.833   4
   5   9  -6 10161.6 1602.41   4
   5   9  -5 6337.29 1262.09   4
   5   9  -4 1031.05 475.570   3
   5   9  -4 1008.32 665.411   4
   5   9  -3 17649.1 1512.46   3
   5   9  -3 17397.2 1959.62   4
   5   9  -2 7474.09 1356.21   4
   5   9  -1 6505.41 1233.51   4
   5   9   0 25321.2 2392.53   4
   5   9   1 452.335 524.055   4
   5  10  -9 7398.32 1649.78   4
   5  10  -8 3080.24 1239.59   4
   5  10  -7 7208.96 1532.09   4
   5  10  -6 5958.51 1376.21   4
   5  10  -5 2715.46 941.807   4
   5  10  -4 10161.9 1663.19   4
   5  10  -3 9.97361 532.146   4
   5  10  -2 12071.4 1807.63   4
   5  10  -1 8968.03 1569.47   4
   5  10   0 679.194 663.643   4
   5  10   1 16605.4 2113.59   4
   5  11  -7 3309.73 1139.62   4
   5  11  -6 1063.95 755.033   4
   5  11  -5 7079.01 1508.56   4
   5  11  -4 1010.33 794.061   4
   5  11  -3 5446.22 1325.40   4
   5  11  -2 4330.67 1213.26   4
   5  11  -1 1205.45 772.194   4
   5  11   0 4633.55 1263.80   4
   5  11   1 1306.46 871.618   4
   5  12  -3 3435.98 1274.94   4
   5  12  -2 2223.86 1067.72   4
   5  12  -1 6879.15 1551.41   4
   5  12   0 533.396 814.866   4
   5  12   1 4166.87 1301.40   4
   6  -6  -5 5108.42 1326.14   3
   6  -6  -4-248.603 590.143   3
   6  -6  -3 7806.86 1641.89   3
   6  -6  -2 289.593 889.566   3
   6  -6  -1 3512.34 1163.56   3
   6  -6   0 6546.29 1516.54   3
   6  -6   1-199.402 795.047   3
   6  -6   2 10361.8 1899.05   3
   6  -6   3 4218.08 1363.29   3
   6  -6   4 4692.65 1476.44   3
   6  -6   5 10333.4 2026.68   3
   6  -5  -8 1004.23 747.948   3
   6  -5  -7 6651.66 1628.42   3
   6  -5  -6 4635.11 1333.96   3
   6  -5  -5-1138.76 942.138   3
   6  -5  -4 11262.5 1899.72   3
   6  -5  -3 1047.92 782.744   3
   6  -5  -2 6983.80 1431.37   3
   6  -5  -1 9042.67 1582.41   3
   6  -5   0 657.019 663.660   3
   6  -5   1 9839.39 1696.99   3
   6  -5   2 1648.98 881.463   3
   6  -5   3 6047.14 1419.78   3
   6  -5   4 10718.4 1864.81   3
   6  -5   5 929.964 870.062   3
   6  -5   6 20431.9 2585.03   3
   6  -5   7 2401.42 1117.82   3
   6  -4  -9 1223.03 1002.63   3
   6  -4  -8 6662.06 1579.33   3
   6  -4  -7 3503.37 1171.93   3
   6  -4  -6 108.614 653.713   3
   6  -4  -5 10429.3 1743.46   3
   6  -4  -4 1162.60 742.764   3
   6  -4  -3 5025.57 1173.16   3
   6  -4  -2 17303.4 2028.15   3
   6  -4  -1 440.942 549.024   3
   6  -4   0 26264.1 2487.52   3
   6  -4   1 1765.91 774.171   3
   6  -4   2 19326.9 2229.49   3
   6  -4   3 12517.8 1858.82   3
   6  -4   4 4691.23 1294.04   3
   6  -4   5 19586.0 2331.44   3
   6  -4   6 429.765 706.501   3
   6  -4   7 12782.0 2048.69   3
   6  -4   8 12361.8 2097.67   3
   6  -4   9-1505.30 1090.76   3
   6  -4  10 12092.2 2061.91   2
   6  -3 -10 114.984 733.362   3
   6  -3  -9 7632.50 1775.89   3
   6  -3  -8 8886.93 1784.40   3
   6  -3  -7 3692.31 1175.97   3
   6  -3  -6 21028.2 2369.72   3
   6  -3  -5 284.801 592.983   3
   6  -3  -4 14740.6 1859.15   3
   6  -3  -4 15093.8 1505.36   1
   6  -3  -3 4527.87 815.958   1
   6  -3  -3 5165.87 1098.57   3
   6  -3  -2 35.0453 294.282   1
   6  -3  -2-120.228 511.729   3
   6  -3  -1 24279.1 2223.15   3
   6  -3  -1 22886.8 1599.97   1
   6  -3   0 2789.31 837.303   3
   6  -3   0 3029.50 597.340   1
   6  -3   1 18369.9 1951.56   3
   6  -3   1 16547.6 1338.38   1
   6  -3   2 16444.9 1906.14   3
   6  -3   3 2143.29 1025.01   3
   6  -3   4 46400.2 3294.72   3
   6  -3   5 241.165 791.853   3
   6  -3   6 23701.4 2498.44   3
   6  -3   7 16312.5 2120.66   3
   6  -3   8-915.653 930.373   3
   6  -3   9 19941.5 2584.33   3
   6  -3  10 5834.59 1455.95   2
   6  -3  11 8879.73 1822.76   2
   6  -3  12 8615.08 1877.95   2
   6  -2 -11-549.514 1105.61   3
   6  -2 -10 3019.44 1218.09   3
   6  -2  -9 4474.07 1386.16   3
   6  -2  -8 1022.74 705.090   3
   6  -2  -7 21912.8 2443.38   3
   6  -2  -6 826.358 719.234   3
   6  -2  -5 28141.9 2514.90   3
   6  -2  -5 31992.1 2491.41   1
   6  -2  -4 13364.7 1652.71   3
   6  -2  -4 12780.4 1467.12   1
   6  -2  -3 7432.83 1207.57   3
   6  -2  -3 7001.94 1015.01   1
   6  -2  -2 39194.0 2304.59   1
   6  -2  -2 36636.4 2547.19   3
   6  -2  -1 1102.16 621.593   3
   6  -2  -1 466.186 436.672   1
   6  -2   0 18231.6 1733.59   3
   6  -2   0 17003.7 1418.21   1
   6  -2   1 13093.4 1557.81   3
   6  -2   1 16281.6 1395.52   1
   6  -2   2 719.336 709.433   3
   6  -2   2 308.934 383.988   1
   6  -2   3 50757.3 3135.77   3
   6  -2   4 3166.93 977.823   3
   6  -2   5 61038.3 3696.69   3
   6  -2   6 17356.5 2036.74   3
   6  -2   7 14222.6 1925.92   3
   6  -2   8 25476.0 2689.20   3
   6  -2   9 226.019 497.088   2
   6  -2  10 11326.7 1842.51   2
   6  -2  11 8084.29 1701.63   2
   6  -2  12 724.661 873.077   2
   6  -2  13 12402.2 2282.19   2
   6  -1 -12-214.450 792.761   3
   6  -1 -11 7366.31 1792.02   3
   6  -1 -10 3418.92 1183.13   3
   6  -1  -9 4938.93 1374.89   3
   6  -1  -8 16203.7 2211.89   3
   6  -1  -7 213.398 620.629   3
   6  -1  -6 26451.0 2417.88   3
   6  -1  -5 14882.3 1695.62   3
   6  -1  -4 22394.3 1955.93   3
   6  -1  -4 22805.5 1972.71   1
   6  -1  -3 44649.2 2684.55   3
   6  -1  -3 45367.8 2668.42   1
   6  -1  -2 104.837 369.879   1
   6  -1  -2 183.008 437.827   2
   6  -1  -2-7.91817 459.220   3
   6  -1  -1 46143.1 2522.66   1
   6  -1  -1 44110.7 2537.48   3
   6  -1  -1 49674.2 3019.15   2
   6  -1   0 9422.92 1159.34   3
   6  -1   0 10352.3 1153.62   1
   6  -1   0 10460.7 1308.50   2
   6  -1   1 8356.94 1148.76   3
   6  -1   1 9481.82 1094.73   1
   6  -1   1 10484.6 1332.01   2
   6  -1   2 3183.97 703.159   1
   6  -1   2 3612.31 858.592   3
   6  -1   2 3807.83 816.706   2
   6  -1   3 23037.5 1821.92   2
   6  -1   3 25099.4 2051.61   3
   6  -1   3 23166.8 1784.98   1
   6  -1   4 46442.8 2932.14   3
   6  -1   5 23827.2 2164.88   3
   6  -1   6 6254.10 1178.44   3
   6  -1   7 45827.7 3313.50   3
   6  -1   9 38901.3 3038.76   2
   6  -1  10 9620.75 1623.39   2
   6  -1  11 4953.93 1307.32   2
   6  -1  12 15026.6 2283.75   2
   6  -1  13 1506.58 1112.92   2
   6   0 -12 8976.83 1857.64   3
   6   0 -11 3296.14 1211.38   3
   6   0 -10 5096.83 1411.29   3
   6   0  -9 15383.5 2210.67   3
   6   0  -8-285.296 607.518   3
   6   0  -7 16742.4 2021.12   3
   6   0  -6 5791.89 1100.19   3
   6   0  -5 4057.70 893.864   3
   6   0  -4 46979.7 2684.23   3
   6   0  -4 45667.6 3114.82   2
   6   0  -4 46202.2 2910.22   1
   6   0  -3 2959.22 796.795   2
   6   0  -3 3752.38 719.198   3
   6   0  -3 2741.59 707.282   1
   6   0  -2 74961.1 3178.52   3
   6   0  -2 76270.0 3733.77   2
   6   0  -2 79287.7 3551.50   1
   6   0  -1 43467.3 2534.92   1
   6   0  -1 45434.1 2328.80   3
   6   0  -1 47557.1 2765.28   2
   6   0   0 34077.1 1996.84   3
   6   0   0 28277.5 1994.71   1
   6   0   0 35480.3 2289.95   2
   6   0   1 53992.6 2647.95   3
   6   0   1 57530.1 2860.81   1
   6   0   1 59602.7 2948.63   2
   6   0   2 2692.74 697.328   3
   6   0   2 1498.54 499.043   1
   6   0   3 54235.5 2793.45   3
   6   0   3 50329.2 2757.41   1
   6   0   4 11858.1 1367.06   3
   6   0   5 13269.4 1514.11   3
   6   0   6 36252.3 2674.40   3
   6   0   8 43006.4 2890.76   2
   6   0   9 19647.8 2091.71   2
   6   0  10 11793.4 1737.12   2
   6   0  11 24343.3 2674.00   2
   6   0  12 30.9024 584.095   2
   6   0  13 9285.81 1829.18   2
   6   0  14 5475.57 1544.18   2
   6   1 -13 2412.73 996.927   3
   6   1 -12 2679.63 1060.96   3
   6   1 -11 2182.38 1003.99   3
   6   1 -10 18102.3 2387.71   3
   6   1  -9 56.7329 652.183   3
   6   1  -8 35429.7 3080.19   3
   6   1  -7 4528.33 1038.92   3
   6   1  -6 18120.1 1868.94   3
   6   1  -5 38945.6 2503.17   3
   6   1  -5 37294.2 2950.17   2
   6   1  -4 2116.40 728.433   2
   6   1  -4 1219.59 510.406   3
   6   1  -4 661.126 576.993   1
   6   1  -3 45591.7 2288.51   3
   6   1  -3 45303.8 2884.68   2
   6   1  -3 46951.3 2810.43   1
   6   1  -2 12572.1 1098.22   3
   6   1  -2 12666.1 1450.57   2
   6   1  -2 13551.3 1426.58   1
   6   1  -1 29905.1 2111.93   1
   6   1  -1 27643.0 1592.01   3
   6   1   0 53376.8 2894.23   1
   6   1   0 71128.2 2640.57   3
   6   1   1 4379.49 679.143   3
   6   1   1 2830.80 629.240   1
   6   1   2 29637.2 2086.90   1
   6   1   2 24587.4 1659.95   2
   6   1   3 31252.1 1845.65   2
   6   1   3 38071.5 2162.21   3
   6   1   3 34082.7 2282.88   1
   6   1   4 26583.5 1928.19   3
   6   1   4 27852.9 2105.12   1
   6   1   5 38270.5 2468.43   3
   6   1   7 16024.9 1572.12   2
   6   1   8 27491.3 2232.59   2
   6   1   9 13912.5 1733.92   2
   6   1  10 34382.4 2902.37   2
   6   1  11 164.156 579.388   2
   6   1  12 29571.9 2990.46   2
   6   1  13 9661.32 1832.78   2
   6   2  -7 13945.1 1757.18   3
   6   2  -6 39121.6 2693.29   3
   6   2  -5 393.127 543.946   2
   6   2  -5-152.771 414.245   3
   6   2  -4 62924.8 2811.45   3
   6   2  -4 65523.8 3764.42   2
   6   2  -3 11662.2 1020.34   3
   6   2  -3 11014.1 1433.34   2
   6   2  -3 11994.4 1416.71   1
   6   2  -2 31670.1 1549.04   3
   6   2  -2 32792.2 2301.32   1
   6   2  -1 48601.4 2681.55   1
   6   2  -1 42691.7 1580.69   3
   6   2   0 366.772 331.386   2
   6   2   0 379.867 428.284   1
   6   2   0 438.670 266.317   3
   6   2   1 51036.5 2004.32   3
   6   2   1 53812.7 2855.56   1
   6   2   1 49907.6 2271.47   2
   6   2   2 38988.5 1823.49   3
   6   2   2 37134.6 2384.76   1
   6   2   2 37510.5 1823.93   2
   6   2   3 43402.4 2125.46   3
   6   2   3 40146.5 2535.06   1
   6   2   3 41805.9 1891.58   2
   6   2   4 78474.3 2759.30   2
   6   2   4 82926.4 3827.96   1
   6   2   6 62181.3 2789.52   2
   6   2   7 8202.83 1095.22   2
   6   2   8 27917.2 2187.84   2
   6   2   9 24343.2 2184.51   2
   6   2  10 278.709 533.337   2
   6   2  11 16711.3 2019.87   2
   6   2  12 8758.21 1561.58   2
   6   2  13 1429.14 771.662   2
   6   3  -8 10677.8 790.146   4
   6   3  -7 29120.6 1206.96   4
   6   3  -5 65013.3 4051.71   2
   6   3  -5 63109.2 3085.04   3
   6   3  -4 12829.2 1141.33   3
   6   3  -4 10425.6 1582.38   2
   6   3  -3 58868.9 2208.78   3
   6   3  -2 48808.8 1478.78   3
   6   3  -2 51156.9 2824.10   1
   6   3  -1 5366.86 423.806   3
   6   3  -1 5804.13 1003.60   1
   6   3  -1 6175.47 948.381   2
   6   3   0 76038.1 3490.79   1
   6   3   0 71485.3 2872.19   2
   6   3   1 6373.30 1017.24   1
   6   3   1 6772.97 750.739   2
   6   3   2 23908.9 1927.48   1
   6   3   2 24723.4 1257.59   2
   6   3   3 54047.9 2997.49   1
   6   3   3 48168.3 1670.40   2
   6   3   4 1989.92 335.616   2
   6   3   4 2582.59 729.712   1
   6   3   4 2240.43 319.756   2
   6   3   5 44532.0 1643.53   2
   6   3   5 48374.2 1937.45   2
   6   3   6 16342.0 1233.28   2
   6   3   7 19754.3 1513.07   2
   6   3   8 62676.2 3064.09   2
   6   3   9 2988.43 780.879   2
   6   3  10 37430.8 2669.20   2
   6   3  11 8248.77 1370.67   2
   6   3  12 11371.6 1664.62   2
   6   4  -8 4377.72 1062.16   3
   6   4  -8 4187.98 674.065   4
   6   4  -7-193.529 676.162   3
   6   4  -7 232.182 292.869   4
   6   4  -6 36678.7 3123.14   2
   6   4  -6 35145.0 1832.54   4
   6   4  -5 12816.3 1312.42   3
   6   4  -5 14272.7 1836.57   2
   6   4  -5 15125.0 1171.23   4
   6   4  -4 18753.2 1401.99   3
   6   4  -4 20582.9 2083.87   2
   6   4  -3 65592.7 2195.40   3
   6   4  -3 66075.9 2362.06   3
   6   4  -2 1420.73 534.241   2
   6   4  -2 1117.99 173.174   3
   6   4  -2 1330.40 223.784   3
   6   4  -1 98611.8 4277.12   1
   6   4  -1 90662.6 3599.82   2
   6   4   0 16665.4 1670.42   1
   6   4   0 15663.6 1166.32   2
   6   4   1 98232.0 4106.35   1
   6   4   1 82683.3 2393.61   2
   6   4   2 60866.6 3239.36   1
   6   4   3 4962.62 966.970   1
   6   4   7 31702.9 1412.53   2
   6   4   8 3121.35 545.110   2
   6   4   9 42684.2 2316.44   2
   6   4  10 3595.48 784.525   2
   6   4  11 19951.8 1889.64   2
   6   5  -9 5231.46 917.223   4
   6   5  -7 37881.8 2689.17   3
   6   5  -5 28569.0 1858.72   3
   6   5  -5 27401.6 2486.44   2
   6   5  -5 22422.3 1681.38   4
   6   5  -4 28480.5 1601.90   3
   6   5  -4 26030.5 2216.20   2
   6   5  -4 26884.1 1864.31   4
   6   5  -3 2777.25 410.800   3
   6   5   1 59204.7 3240.57   1
   6   5   8 22963.5 1058.27   2
   6   5   9 8460.19 826.071   2
   6   5  10 17029.6 1384.97   2
   6   6  -9 3322.98 856.895   4
   6   6  -8 9959.56 1333.72   4
   6   6  -7 8532.64 1324.73   3
   6   6  -7 6123.94 1031.48   4
   6   6  -6 26427.1 2031.56   4
   6   6  -5 14374.9 1258.22   3
   6   6  -5 16278.4 1567.42   4
   6   6  -4 7972.86 813.404   3
   6   6  -3 28841.7 1256.71   3
   6   7  -9 4940.89 1093.77   4
   6   7  -8 3426.35 915.264   4
   6   7  -7 18505.8 1883.94   4
   6   7  -6 13512.2 1599.37   4
   6   7  -5 4615.24 931.222   4
   6   7  -4 26699.0 1540.40   3
   6   7  -4 23796.9 2058.34   4
   6   7  -3 1027.88 281.506   3
   6   7  -3 320.546 538.136   4
   6   7  -2 43126.9 1445.40   3
   6   7  -2 44569.4 2868.53   4
   6   8  -9 878.849 639.327   4
   6   8  -8 7650.37 1327.24   4
   6   8  -7 5258.74 1120.76   4
   6   8  -6 1718.16 776.817   4
   6   8  -5 15183.1 1741.65   4
   6   8  -4 2422.89 747.071   4
   6   8  -3 10546.6 906.123   3
   6   8  -3 9673.82 1430.24   4
   6   8  -2 30754.4 1433.92   3
   6   8  -2 30086.4 2494.48   4
   6   8  -1 9207.76 1430.36   4
   6   8  -1 10214.4 717.238   3
   6   9  -9 6869.86 1468.73   4
   6   9  -8 3535.72 1106.01   4
   6   9  -7 7039.32 1364.41   4
   6   9  -6 8501.45 1545.93   4
   6   9  -5 515.388 542.198   4
   6   9  -4 6860.26 1311.43   4
   6   9  -3 12070.6 1693.15   4
   6   9  -2 5020.33 1133.15   4
   6   9  -1 23322.0 2348.75   4
   6  10  -8 2479.08 996.308   4
   6  10  -7 7770.47 1584.00   4
   6  10  -6 706.223 720.792   4
   6  10  -5 8592.02 1548.09   4
   6  10  -4 805.083 635.947   4
   6  10  -3 1364.97 776.335   4
   6  10  -2 9206.41 1563.92   4
   6  10  -1 1129.25 894.983   4
   6  10   0 10980.3 1753.84   4
   6  11  -7-280.542 715.811   4
   6  11  -6 7101.37 1545.15   4
   6  11  -5 1832.89 994.951   4
   6  11  -4 2994.29 1071.29   4
   6  11  -3 7171.90 1503.90   4
   6  11  -2 182.602 694.391   4
   6  11  -1 6940.30 1526.79   4
   6  11   0 1824.74 883.737   4
   6  12  -3 7.90993 693.340   4
   6  12  -2 5608.54 1393.24   4
   6  12  -1 1765.33 927.239   4
   6  12   0 3562.73 1146.87   4
   7  -5  -5 5973.74 1562.08   3
   7  -5  -4 6507.61 1565.21   3
   7  -5  -3 3018.50 1177.18   3
   7  -5  -2 7149.65 1570.45   3
   7  -5  -1-1217.27 1056.93   3
   7  -5   0 8281.65 1671.22   3
   7  -5   1 2048.04 1101.13   3
   7  -5   2 1639.85 968.476   3
   7  -5   3 10225.5 1888.80   3
   7  -5   4 3118.82 1324.54   3
   7  -5   5 6043.19 1645.69   3
   7  -4  -7 593.690 944.182   3
   7  -4  -6 3677.22 1260.15   3
   7  -4  -5 1720.97 956.051   3
   7  -4  -4 123.340 598.982   3
   7  -4  -3 9783.91 1666.49   3
   7  -4  -2-146.788 633.404   3
   7  -4  -1 11369.6 1765.95   3
   7  -4   0 6364.49 1390.48   3
   7  -4   1 6638.46 1457.10   3
   7  -4   2 13911.0 2027.96   3
   7  -4   3 828.986 875.492   3
   7  -4   4 7370.15 1529.75   3
   7  -4   5 9063.84 1749.64   3
   7  -4   6 1040.74 953.927   3
   7  -4   7 12762.9 2089.61   3
   7  -4   8 654.453 792.766   3
   7  -3  -9 8464.64 1918.28   3
   7  -3  -8-180.879 795.308   3
   7  -3  -7 10635.8 1911.13   3
   7  -3  -6 3674.77 1115.90   3
   7  -3  -5 2568.44 1062.13   3
   7  -3  -4 10944.9 1683.54   3
   7  -3  -3 326.647 642.931   3
   7  -3  -2 11955.8 1686.88   3
   7  -3  -1 6399.78 1247.25   3
   7  -3   0 6162.12 1219.45   3
   7  -3   1 23988.4 2382.89   3
   7  -3   2 579.293 758.538   3
   7  -3   3 29730.1 2726.86   3
   7  -3   4 4524.76 1238.62   3
   7  -3   5 10937.5 1788.43   3
   7  -3   6 10282.1 1780.77   3
   7  -3   7-498.719 789.165   3
   7  -3   8 9378.00 1783.53   3
   7  -3  10 2506.20 1060.82   2
   7  -2 -10 3102.29 1290.06   3
   7  -2  -9 285.585 699.046   3
   7  -2  -8 15804.0 2310.93   3
   7  -2  -7 2974.06 1050.20   3
   7  -2  -6 5023.34 1195.99   3
   7  -2  -5 13790.8 1824.86   3
   7  -2  -4 1713.66 739.055   3
   7  -2  -3 9083.96 1405.33   3
   7  -2  -2 5034.13 1052.81   3
   7  -2  -2 4830.98 917.838   1
   7  -2  -1 3502.45 864.708   3
   7  -2  -1 5664.21 943.523   1
   7  -2   0 14248.2 1700.96   3
   7  -2   0 15401.0 1502.30   1
   7  -2   1 495.309 412.604   1
   7  -2   1-364.196 641.757   3
   7  -2   2 24321.4 2256.85   3
   7  -2   2 24621.9 1900.97   1
   7  -2   3 13596.7 1755.70   3
   7  -2   4 10666.0 1634.47   3
   7  -2   5 38892.6 3108.88   3
   7  -2   6 527.587 643.350   3
   7  -2   7 26027.2 2734.56   3
   7  -2   8 1725.09 923.074   3
   7  -2  10 10286.6 1818.97   2
   7  -2  11-307.995 699.552   2
   7  -1 -11 1377.34 1064.63   3
   7  -1 -10 50.0980 736.357   3
   7  -1  -9 5786.79 1459.44   3
   7  -1  -8 3545.85 1176.16   3
   7  -1  -7 4017.05 1152.42   3
   7  -1  -6 15368.5 1947.25   3
   7  -1  -5-291.364 616.397   3
   7  -1  -4 23168.9 2107.91   3
   7  -1  -3 10540.1 1375.16   3
   7  -1  -2 16742.0 1660.12   1
   7  -1  -2 16239.2 1655.66   3
   7  -1  -1 28953.9 2190.93   3
   7  -1  -1 30640.7 2227.43   1
   7  -1   0 208.276 536.191   3
   7  -1   0 486.033 481.865   1
   7  -1   1 31126.9 2319.14   3
   7  -1   1 29262.6 2151.35   1
   7  -1   2 4889.21 908.483   1
   7  -1   2 6476.66 1164.50   3
   7  -1   3 17006.3 1839.72   3
   7  -1   3 12649.9 1446.31   1
   7  -1   4 26578.4 2349.31   3
   7  -1   5-17.3890 515.409   3
   7  -1   6 38137.1 3033.07   3
   7  -1   7 5718.40 1255.86   3
   7  -1   9 15805.6 2010.40   2
   7  -1  10 184.212 599.479   2
   7  -1  11 9117.76 1753.15   2
   7  -1  12 2904.94 1115.66   2
   7   0 -12 2948.50 1159.98   3
   7   0 -11 1637.41 1015.76   3
   7   0 -10 8773.04 1846.51   3
   7   0  -9 1192.88 850.020   3
   7   0  -8 9702.43 1781.51   3
   7   0  -7 10201.0 1599.87   3
   7   0  -6 662.866 568.535   3
   7   0  -5 20656.8 1955.42   3
   7   0  -4 2091.05 623.753   3
   7   0  -3 7946.30 1098.18   3
   7   0  -2 36425.9 2269.37   3
   7   0  -2 37667.7 2787.92   2
   7   0  -1 2983.11 863.039   2
   7   0  -1 1700.90 610.992   1
   7   0  -1 2563.85 623.883   3
   7   0   0 42464.7 2458.41   3
   7   0   0 45631.8 2745.05   1
   7   0   0 42437.6 2793.11   2
   7   0   1 6051.69 1021.22   1
   7   0   1 5023.77 972.240   2
   7   0   1 4368.54 850.829   3
   7   0   2 13160.0 1437.83   3
   7   0   2 14708.4 1551.33   1
   7   0   2 13420.9 1478.14   2
   7   0   3 41487.2 2621.56   3
   7   0   3 39762.7 2626.37   1
   7   0   3 37158.4 2435.34   2
   7   0   4 3560.21 734.705   2
   7   0   4 4061.16 922.677   3
   7   0   5 37399.1 2722.40   3
   7   0   6 8873.80 1377.32   3
   7   0   8 31821.0 2577.04   2
   7   0   9 209.989 468.991   2
   7   0  10 27979.6 2718.88   2
   7   0  11 2087.28 873.200   2
   7   1 -12-1203.92 1035.81   3
   7   1 -11 5033.40 1436.82   3
   7   1 -10 1409.54 889.090   3
   7   1  -9 8436.51 1650.69   3
   7   1  -8 14926.0 2044.71   3
   7   1  -7 1612.23 795.389   3
   7   1  -6 26841.9 2285.85   3
   7   1  -5 685.642 469.309   3
   7   1  -4 12946.0 1346.51   3
   7   1  -3 25885.5 1792.48   3
   7   1  -3 27451.1 2404.07   2
   7   1  -2 807.926 531.559   2
   7   1  -2 791.131 400.486   3
   7   1  -1 31109.6 1849.88   3
   7   1  -1 31354.8 2335.75   2
   7   1   0 7870.40 966.786   3
   7   1   0 8856.96 1211.89   1
   7   1   0 8113.16 1143.82   2
   7   1   1 18787.1 1496.46   3
   7   1   1 18820.7 1774.60   1
   7   1   1 18531.1 1647.60   2
   7   1   2 50238.2 2606.70   3
   7   1   2 54553.9 3127.60   1
   7   1   3 10698.6 1232.22   3
   7   1   3 11053.1 1415.56   1
   7   1   4 73482.5 3508.21   3
   7   1   5 559.425 502.291   3
   7   1   7 18950.7 1742.83   2
   7   1   8 553.048 438.912   2
   7   1   9 16397.2 1904.15   2
   7   1  10 7281.53 1402.24   2
   7   1  11 8048.87 1509.61   2
   7   2 -12 4370.38 1285.48   3
   7   2 -11 323.132 634.805   3
   7   2 -10 7584.88 1595.29   3
   7   2  -9 10875.8 1771.29   3
   7   2  -8 992.117 714.075   3
   7   2  -7 30049.0 2565.91   3
   7   2  -6 655.689 464.190   3
   7   2  -5 38056.1 2391.50   3
   7   2  -4 12315.4 1207.00   3
   7   2  -4 13155.2 1780.80   2
   7   2  -3 4086.07 986.533   2
   7   2  -3 4084.39 660.521   3
   7   2  -2 32127.9 1688.57   3
   7   2  -2 29953.8 2363.18   2
   7   2  -1 2148.51 427.014   3
   7   2   0 11558.9 969.246   3
   7   2   1 13743.9 1083.60   3
   7   2   1 420.841 352.437   2
   7   2   2 4810.61 753.623   2
   7   2   2 5368.09 735.839   3
   7   2   3 121582. 4133.43   3
   7   2   3 115413. 3953.23   2
   7   2   4 2896.83 607.140   2
   7   2   5 49728.9 2351.19   2
   7   2   6 37349.2 2170.32   2
   7   2   7 3687.64 771.090   2
   7   2   8 49460.7 2976.52   2
   7   2   9 1941.40 759.055   2
   7   2  10 10759.8 1548.00   2
   7   3 -10 3123.03 1003.73   3
   7   3  -9 1894.95 786.151   3
   7   3  -8 14123.2 1834.19   3
   7   3  -7 1141.38 598.853   3
   7   3  -6 19044.3 1783.06   3
   7   3  -5 33591.4 2105.97   3
   7   3  -5 34468.4 3080.33   2
   7   3  -4 6542.25 810.233   3
   7   3  -4 6892.90 1336.97   2
   7   3  -3 65270.5 2382.40   3
   7   3  -3 66643.5 3858.28   2
   7   3  -2 836.442 269.658   3
   7   3  -1 46311.9 1404.93   3
   7   3  -1-48.0584 277.681   2
   7   3   0 8169.18 586.558   3
   7   3   0 9448.98 1125.68   2
   7   3   1 1578.65 465.892   2
   7   3   2 35155.5 1806.22   2
   7   3   3 1323.80 349.587   2
   7   3   4 33309.1 1539.20   2
   7   3   5 27672.0 1492.33   2
   7   3   5 29697.8 1448.73   2
   7   3   6 8553.09 798.224   2
   7   3   6 9029.51 929.038   2
   7   3   7 56467.6 2660.99   2
   7   3   8 607.982 416.995   2
   7   3   9 26236.7 2055.67   2
   7   4  -7 14347.7 1679.06   3
   7   4  -6 13715.4 1494.73   3
   7   4  -5 6490.60 888.623   3
   7   4  -5 7375.79 1464.82   2
   7   4  -5 5716.25 865.131   3
   7   4  -4 36077.5 1746.28   3
   7   4  -4 37474.3 1996.52   3
   7   4  -4 38167.8 3007.73   2
   7   4  -3 1606.40 767.536   2
   7   4  -3 2023.92 328.056   3
   7   4  -3 1320.65 319.691   3
   7   4  -1 23609.8 1873.93   2
   7   4   0 16753.3 1381.68   2
   7   4   1 14491.6 1078.06   2
   7   4   2 7273.55 515.334   2
   7   4   7 8062.03 491.403   2
   7   4   8 53075.7 2062.68   2
   7   5  -5 34525.6 1966.22   3
   7   5  -5 35392.9 2904.47   2
   7   5  -5 32789.7 1945.56   3
   7   5  -4 603.067 540.683   2
   7   5  -4 227.838 224.472   3
   7   5  -4 745.770 335.923   3
   7   5  -3 23010.9 807.306   3
   7   5  -2 237.985 370.184   2
   7   5  -1 7131.08 883.836   2
   7   6  -4 28953.5 1318.19   3
   7   6  -4 30952.4 1442.03   3
   7   7  -7 19012.3 1896.95   4
   7   7  -6 626.671 532.202   4
   7   7  -5 23295.8 2112.68   4
   7   7  -4 9285.85 1333.12   4
   7   8  -7-230.710 551.843   4
   7   8  -6 10279.0 1532.09   4
   7   8  -5 5599.49 1173.21   4
   7   8  -4 6671.11 1274.13   4
   7   8  -3 21937.1 2178.91   4
   7   9  -7 9732.21 1664.99   4
   7   9  -6 900.578 641.153   4
   7   9  -5 3736.56 1016.10   4
   7   9  -4 8837.59 1522.45   4
   7   9  -3 561.186 633.284   4
   7   9  -2 18144.4 2138.58   4
   7  10  -6 4622.51 1244.69   4
   7  10  -5 2236.22 924.178   4
   7  10  -4 1577.79 815.034   4
   7  10  -3 11019.7 1773.07   4
   7  10  -2-222.565 719.971   4
   7  11  -6 2711.46 1084.06   4
   7  11  -5 799.339 706.145   4
   7  11  -4 5129.70 1353.40   4
   7  11  -3 1014.67 852.592   4
   7  11  -2 9433.79 1773.65   4
   7  12  -3 4976.06 1394.20   4
   7  12  -2 2228.63 980.990   4
   8  -4  -5 646.679 761.034   3
   8  -4  -4 5018.78 1401.20   3
   8  -4  -3 1823.93 685.544   3
   8  -4  -2 3539.74 1160.29   3
   8  -4  -1 5242.35 1450.11   3
   8  -4   0 614.374 840.300   3
   8  -4   1 15321.5 2206.49   3
   8  -4   2 1291.89 1063.22   3
   8  -4   3 5281.93 1480.34   3
   8  -4   4 5986.62 1566.68   3
   8  -4   5-439.621 860.500   3
   8  -3  -7 3481.11 1253.31   3
   8  -3  -6 222.000 598.887   3
   8  -3  -5 4430.60 1269.49   3
   8  -3  -4 403.037 728.333   3
   8  -3  -3 2034.94 920.820   3
   8  -3  -2 3604.10 1030.03   3
   8  -3  -1-1358.05 978.623   3
   8  -3   0 11857.7 1788.64   3
   8  -3   1 3855.32 1159.42   3
   8  -3   2 11661.0 1839.23   3
   8  -3   3 15389.6 2122.67   3
   8  -3   4 2897.41 1098.88   3
   8  -3   5 9229.00 1738.93   3
   8  -3   6 62.2456 775.451   3
   8  -3   7 4391.21 1410.61   3
   8  -3   8 5092.64 1459.16   3
   8  -2  -9 3227.90 1258.62   3
   8  -2  -8 4758.00 1338.12   3
   8  -2  -7 482.039 812.427   3
   8  -2  -6 11610.8 1893.77   3
   8  -2  -5 247.726 616.169   3
   8  -2  -4 7838.10 1439.20   3
   8  -2  -3 5320.33 1152.12   3
   8  -2  -2 2539.66 813.583   3
   8  -2  -1 9386.30 1444.62   3
   8  -2   0 1741.33 814.572   3
   8  -2   1 8371.62 1510.40   3
   8  -2   2 15014.5 1932.18   3
   8  -2   3 2014.96 926.238   3
   8  -2   4 17398.4 2153.03   3
   8  -2   5 1648.63 930.610   3
   8  -2   6 7122.96 1519.49   3
   8  -2   7 10340.5 1876.96   3
   8  -2   8 693.304 803.184   3
   8  -1  -9 3128.00 1233.14   3
   8  -1  -8 1564.68 850.991   3
   8  -1  -7 4770.66 1230.20   3
   8  -1  -6 847.922 723.812   3
   8  -1  -5 6586.81 1257.85   3
   8  -1  -4 9541.30 1425.90   3
   8  -1  -3 5610.71 1096.32   3
   8  -1  -2 21462.6 2011.29   3
   8  -1  -1-2396.65 801.309   3
   8  -1   0 19019.8 1918.24   3
   8  -1   1 11142.0 1565.80   3
   8  -1   2 1418.97 788.783   3
   8  -1   3 18209.0 1985.91   3
   8  -1   4 5223.19 1188.37   3
   8  -1   5 15740.4 1975.72   3
   8  -1   6 14889.1 2009.13   3
   8  -1   7 1786.99 869.431   3
   8  -1   9 208.264 548.248   2
   8   0 -10 3327.61 1225.86   3
   8   0  -9 458.339 625.724   3
   8   0  -8 9849.73 1749.00   3
   8   0  -7 862.830 667.783   3
   8   0  -6 4797.15 1080.55   3
   8   0  -5 6328.67 1164.98   3
   8   0  -4 3333.53 818.068   3
   8   0  -3 20126.0 1831.32   3
   8   0  -2 842.477 566.628   3
   8   0  -1 32453.1 2297.51   3
   8   0   0 11691.1 1400.69   3
   8   0   1 13256.9 1555.29   3
   8   0   2 26774.9 2174.15   3
   8   0   3 26.6296 506.696   3
   8   0   4 12971.7 1612.26   3
   8   0   5 9327.35 1452.19   3
   8   0   6-398.040 741.532   3
   8   0   8 1864.65 733.017   2
   8   1  -9 15595.0 2175.10   3
   8   1  -8-244.845 607.349   3
   8   1  -7 8753.63 1425.10   3
   8   1  -6 3685.41 877.652   3
   8   1  -5 2706.44 733.305   3
   8   1  -4 8769.92 1148.21   3
   8   1  -3 2420.39 645.191   3
   8   1  -2 15002.3 1402.03   3
   8   1  -1 18849.5 1547.15   3
   8   1  -1 17910.5 1951.98   2
   8   1   0 7198.97 1219.04   2
   8   1   0 6410.35 962.077   3
   8   1   1 51650.2 2751.50   3
   8   1   1 53285.4 3187.26   2
   8   1   2 125.905 405.481   2
   8   1   2 566.732 422.498   3
   8   1   3 37663.9 2468.22   3
   8   1   3 36982.4 2508.64   2
   8   1   4 22066.4 1945.25   3
   8   1   4 21700.4 1885.92   2
   8   1   5 14522.2 1680.92   3
   8   1   8 8832.58 1372.41   2
   8   2  -8 13501.9 1854.85   3
   8   2  -7 7154.97 1253.66   3
   8   2  -6 7156.04 1145.80   3
   8   2  -5 19254.3 1677.48   3
   8   2  -4 137.730 283.206   3
   8   2  -3 19257.2 1450.43   3
   8   2  -3 22207.4 2324.80   2
   8   2  -2 6801.16 839.977   3
   8   2  -2 7418.74 1306.19   2
   8   2  -1 8693.58 944.902   3
   8   2  -1 8970.07 1344.98   2
   8   2   0 26803.3 1668.24   3
   8   2   0 25186.0 2117.99   2
   8   2   1 530.390 461.347   3
   8   2   2 36832.3 2100.48   3
   8   2   3 13605.0 1330.93   3
   8   2   7 17535.6 1637.70   2
   8   3  -7 3983.94 944.014   3
   8   3  -6 15506.4 1532.68   3
   8   3  -5 204.695 317.342   3
   8   3  -4 15018.1 1210.10   3
   8   3  -3 12178.1 972.825   3
   8   3  -3 13321.5 1840.72   2
   8   3  -2 11304.6 874.256   3
   8   3  -2 12256.9 1631.76   2
   8   3  -1 16339.1 1004.78   3
   8   3   0-60.7763 202.173   3
   8   3   1 15058.3 1457.87   2
   8   3   2 17869.9 1457.30   2
   8   3   3 15608.1 1255.49   2
   8   3   4 43881.6 2074.81   2
   8   3   5 200.290 230.154   2
   8   3   6 40661.4 2075.55   2
   8   4  -5 15899.3 1248.19   3
   8   4  -4 11921.2 901.614   3
   8   4  -4 15119.9 2012.18   2
   8   4  -3 9404.50 642.030   3
   8   4  -3 9544.17 1556.87   2
   8   4  -2 27771.8 2381.89   2
   8   4   0 31519.8 2124.51   2
   8   4   1 8138.42 931.033   2
   8   4   2 23988.1 1327.88   2
   8   5  -3 17725.8 1908.30   2
   8   5  -1 19093.1 1557.37   2
   8   5   0 6671.18 755.095   2
   8  11  -4 453.572 778.828   4
   9  -3  -3 759.600 728.316   3
   9  -3  -2-552.574 800.981   3
   9  -3  -1 3575.72 1214.88   3
   9  -3   0 6703.14 1522.33   3
   9  -3   1 3870.29 1211.24   3
   9  -3   2 6302.68 1516.57   3
   9  -3   3 616.704 764.663   3
   9  -3   4 4291.87 1216.98   3
   9  -2  -5 1794.82 824.714   3
   9  -2  -4 5946.55 1356.18   3
   9  -2  -3-1027.06 1079.21   3
   9  -2  -2 6093.50 1287.68   3
   9  -2  -1 3029.56 1041.69   3
   9  -2   0 1923.49 836.157   3
   9  -2   1 11481.7 1748.23   3
   9  -2   2-340.942 623.804   3
   9  -2   3 10928.4 1767.60   3
   9  -2   4 6106.60 1426.38   3
   9  -2   5 3968.10 1227.67   3
   9  -2   6 8946.34 1720.58   3
   9  -1  -4 205.172 446.162   3
   9  -1  -3 11929.2 1676.27   3
   9  -1  -2 1176.92 617.757   3
   9  -1  -1 3745.26 968.070   3
   9  -1   0 14014.7 1787.59   3
   9  -1   1 880.902 775.390   3
   9  -1   2 7687.89 1371.74   3
   9  -1   3 5303.73 1208.43   3
   9  -1   4 1499.56 787.648   3
   9  -1   5 9180.13 1576.29   3
   9  -1   6 596.520 645.896   3
   9   0  -3 4858.71 983.899   3
   9   0  -2 3499.84 855.328   3
   9   0  -1 22148.0 1987.66   3
   9   0   0 327.470 488.754   3
   9   0   1 24361.7 2151.71   3
   9   0   2 5095.86 1073.16   3
   9   0   3 5979.69 1160.40   3
   9   0   4 7641.77 1330.40   3
   9   0   5-456.732 738.866   3
   9   1  -1-32.9243 478.962   3
   9   1   0 24501.9 1933.89   3
   9   1   1 6913.13 1090.85   3
   9   1   2 12658.5 1489.67   3
   9   1   3 15879.3 1675.61   3
   9   1   4 1058.03 552.352   3
   0   0   0    0.00    0.00   0
TITL Ren4120 in P1
REM P1 (#1 in standard setting)
CELL 0.71073   8.310483   9.785075  12.320247  84.3192  85.2606  67.5289
ZERR    1.00   0.000337   0.000427   0.000523   0.0035   0.0034   0.0040
LATT -1
SFAC C H N O Cl Re
UNIT 30.00 25.00 2.00 4.00 3.00 1.00
TREF
HKLF 4
END
;
_shelx_hkl_checksum              13250
loop_
_space_group_symop_operation_xyz
'x, y, z'
'-x, -y, -z'
loop_
_atom_site_label
_atom_site_type_symbol
_atom_site_fract_x
_atom_site_fract_y
_atom_site_fract_z
_atom_site_U_iso_or_equiv
_atom_site_adp_type
_atom_site_occupancy
_atom_site_site_symmetry_order
_atom_site_calc_flag
_atom_site_refinement_flags_posn
_atom_site_refinement_flags_adp
Re1 Re 0.64014(2) 0.71041(2) 0.69907(2) 0.03442(8) Uani 1 1 d . .
N1 N 0.5403(5) 0.7904(4) 0.8576(4) 0.0313(10) Uani 1 1 d . .
N2 N 0.8726(4) 0.6717(4) 0.7886(4) 0.0313(10) Uani 1 1 d . .
N3 N 0.9643(7) 0.9980(7) 0.7900(6) 0.0763(18) Uani 1 1 d . .
O3 O 0.6391(6) 1.0041(5) 0.5882(4) 0.0763(14) Uani 1 1 d . .
O1 O 0.8040(6) 0.5648(6) 0.4883(5) 0.0891(16) Uani 1 1 d . .
O2 O 0.2867(5) 0.7769(5) 0.6039(4) 0.0747(14) Uani 1 1 d . .
Cl1 Cl 0.65176(15) 0.47083(13) 0.79392(13) 0.0443(3) Uani 1 1 d . .
Cl2 Cl 0.7062(2) 0.79698(17) 1.25009(14) 0.0619(4) Uani 1 1 d . .
C3 C 0.6385(6) 0.8936(7) 0.6317(5) 0.0477(15) Uani 1 1 d . .
C1 C 0.7449(7) 0.6195(6) 0.5696(6) 0.0534(16) Uani 1 1 d . .
C2 C 0.4196(7) 0.7490(6) 0.6393(5) 0.0440(14) Uani 1 1 d . .
C4 C 0.3710(6) 0.8463(5) 0.8927(5) 0.0376(13) Uani 1 1 d . .
H4 H 0.2861 0.8644 0.8427 0.045 Uiso 1 1 calc R U
C5 C 0.3184(6) 0.8778(5) 1.0000(5) 0.0383(13) Uani 1 1 d . .
H5 H 0.2002 0.9178 1.0201 0.046 Uiso 1 1 calc R U
C6 C 0.4392(6) 0.8504(5) 1.0766(5) 0.0412(13) Uani 1 1 d . .
H6 H 0.4042 0.8693 1.1491 0.049 Uiso 1 1 calc R U
C7 C 0.6177(6) 0.7930(5) 1.0437(5) 0.0324(12) Uani 1 1 d . .
C8 C 0.7584(7) 0.7649(5) 1.1143(5) 0.0381(13) Uani 1 1 d . .
C9 C 0.9265(6) 0.7123(5) 1.0774(5) 0.0401(14) Uani 1 1 d . .
H9 H 1.0140 0.6967 1.1250 0.048 Uiso 1 1 calc R U
C10 C 0.9714(6) 0.6804(5) 0.9662(5) 0.0328(12) Uani 1 1 d . .
C11 C 1.1451(6) 0.6191(5) 0.9235(5) 0.0397(14) Uani 1 1 d . .
H11 H 1.2374 0.6001 0.9680 0.048 Uiso 1 1 calc R U
C12 C 1.1762(6) 0.5885(5) 0.8173(5) 0.0426(15) Uani 1 1 d . .
H12 H 1.2902 0.5497 0.7883 0.051 Uiso 1 1 calc R U
C13 C 1.0374(6) 0.6149(5) 0.7513(5) 0.0410(13) Uani 1 1 d . .
H13 H 1.0611 0.5921 0.6788 0.049 Uiso 1 1 calc R U
C14 C 0.8388(6) 0.7034(5) 0.8945(5) 0.0304(12) Uani 1 1 d . .
C15 C 0.6614(5) 0.7629(5) 0.9347(4) 0.0300(11) Uani 1 1 d . .
C16 C 0.9331(10) 1.1671(8) 0.6153(7) 0.089(2) Uani 1 1 d . .
H16A H 1.0351 1.1277 0.5679 0.133 Uiso 1 1 calc R U
H16B H 0.9200 1.2642 0.6333 0.133 Uiso 1 1 calc R U
H16C H 0.8323 1.1735 0.5790 0.133 Uiso 1 1 calc R U
C17 C 0.9508(8) 1.0716(8) 0.7132(7) 0.0595(18) Uani 1 1 d . .
loop_
_atom_site_aniso_label
_atom_site_aniso_U_11
_atom_site_aniso_U_22
_atom_site_aniso_U_33
_atom_site_aniso_U_23
_atom_site_aniso_U_13
_atom_site_aniso_U_12
Re1 0.03105(12) 0.04469(13) 0.02758(15) 0.00511(9) -0.00707(9) -0.01508(9)
N1 0.030(2) 0.034(2) 0.032(3) 0.0059(19) -0.0082(19) -0.0154(18)
N2 0.023(2) 0.036(2) 0.036(3) 0.002(2) -0.0048(19) -0.0138(18)
N3 0.059(3) 0.089(4) 0.068(5) 0.012(4) 0.000(3) -0.019(3)
O3 0.092(3) 0.071(3) 0.074(4) 0.027(3) -0.014(3) -0.044(3)
O1 0.087(3) 0.116(4) 0.049(4) -0.024(3) 0.001(3) -0.017(3)
O2 0.051(2) 0.125(4) 0.054(4) 0.024(3) -0.030(2) -0.042(3)
Cl1 0.0400(7) 0.0429(7) 0.0519(11) 0.0072(7) -0.0138(6) -0.0180(6)
Cl2 0.0795(10) 0.0722(10) 0.0348(11) -0.0054(8) -0.0116(8) -0.0271(9)
C3 0.039(3) 0.065(4) 0.039(4) 0.006(3) -0.012(3) -0.020(3)
C1 0.047(3) 0.062(4) 0.048(5) -0.003(3) -0.008(3) -0.016(3)
C2 0.048(3) 0.057(3) 0.028(4) 0.011(3) -0.006(3) -0.024(3)
C4 0.031(3) 0.038(3) 0.040(4) 0.008(3) -0.005(2) -0.011(2)
C5 0.033(3) 0.035(3) 0.042(4) -0.002(3) 0.003(3) -0.009(2)
C6 0.050(3) 0.038(3) 0.034(4) -0.004(3) 0.007(3) -0.017(3)
C7 0.039(3) 0.029(3) 0.031(4) 0.005(2) -0.005(2) -0.016(2)
C8 0.053(3) 0.033(3) 0.030(4) 0.002(2) -0.011(3) -0.018(3)
C9 0.046(3) 0.036(3) 0.041(4) 0.002(3) -0.017(3) -0.016(3)
C10 0.036(3) 0.027(3) 0.040(4) 0.007(2) -0.013(2) -0.016(2)
C11 0.033(3) 0.034(3) 0.055(5) 0.010(3) -0.013(3) -0.017(2)
C12 0.028(3) 0.044(3) 0.058(5) 0.003(3) 0.000(3) -0.019(2)
C13 0.037(3) 0.048(3) 0.041(4) 0.004(3) -0.001(3) -0.020(3)
C14 0.029(2) 0.027(2) 0.037(4) 0.002(2) -0.006(2) -0.014(2)
C15 0.031(3) 0.027(2) 0.031(4) 0.001(2) -0.008(2) -0.010(2)
C16 0.118(6) 0.104(6) 0.055(6) 0.012(5) -0.034(5) -0.051(5)
C17 0.047(4) 0.066(4) 0.063(6) -0.011(4) -0.010(4) -0.015(3)
loop_
_atom_type_symbol
_atom_type_description
_atom_type_scat_dispersion_real
_atom_type_scat_dispersion_imag
_atom_type_scat_source
C C 0.0033 0.0016 'International Tables Vol C Tables 4.2.6.8 and 6.1.1.4'
H H 0.0000 0.0000 'International Tables Vol C Tables 4.2.6.8 and 6.1.1.4'
N N 0.0061 0.0033 'International Tables Vol C Tables 4.2.6.8 and 6.1.1.4'
O O 0.0106 0.0060 'International Tables Vol C Tables 4.2.6.8 and 6.1.1.4'
Cl Cl 0.1484 0.1585 'International Tables Vol C Tables 4.2.6.8 and 6.1.1.4'
Re Re -1.0185 7.2310 'International Tables Vol C Tables 4.2.6.8 and 6.1.1.4'
loop_
_geom_angle_atom_site_label_1
_geom_angle_atom_site_label_2
_geom_angle_atom_site_label_3
_geom_angle
C1 Re1 C3 89.2(3)
C1 Re1 C2 87.1(2)
C3 Re1 C2 89.7(2)
C1 Re1 N1 173.1(2)
C3 Re1 N1 96.2(2)
C2 Re1 N1 97.22(19)
C1 Re1 N2 100.2(2)
C3 Re1 N2 92.79(18)
C2 Re1 N2 172.3(2)
N1 Re1 N2 75.28(14)
C1 Re1 Cl1 92.07(19)
C3 Re1 Cl1 177.26(16)
C2 Re1 Cl1 92.83(16)
N1 Re1 Cl1 82.37(10)
N2 Re1 Cl1 84.58(10)
C4 N1 C15 116.6(5)
C4 N1 Re1 126.4(3)
C15 N1 Re1 116.3(3)
C13 N2 C14 118.7(4)
C13 N2 Re1 127.0(4)
C14 N2 Re1 114.2(3)
O3 C3 Re1 178.4(6)
O1 C1 Re1 177.6(5)
O2 C2 Re1 177.8(5)
N1 C4 C5 122.9(5)
C6 C5 C4 120.5(5)
C5 C6 C7 118.8(5)
C15 C7 C6 117.7(5)
C15 C7 C8 117.5(4)
C6 C7 C8 124.8(5)
C9 C8 C7 122.0(5)
C9 C8 Cl2 120.2(4)
C7 C8 Cl2 117.8(4)
C8 C9 C10 120.6(5)
C14 C10 C11 116.9(5)
C14 C10 C9 119.6(4)
C11 C10 C9 123.5(5)
C12 C11 C10 119.6(5)
C11 C12 C13 120.0(5)
N2 C13 C12 122.2(5)
N2 C14 C10 122.6(4)
N2 C14 C15 118.6(4)
C10 C14 C15 118.8(5)
N1 C15 C7 123.5(4)
N1 C15 C14 114.9(5)
C7 C15 C14 121.5(4)
N3 C17 C16 179.5(8)
loop_
_geom_bond_atom_site_label_1
_geom_bond_atom_site_label_2
_geom_bond_distance
Re1 C1 1.884(7)
Re1 C3 1.895(6)
Re1 C2 1.919(5)
Re1 N1 2.158(4)
Re1 N2 2.191(4)
Re1 Cl1 2.4848(13)
N1 C4 1.351(6)
N1 C15 1.373(6)
N2 C13 1.326(6)
N2 C14 1.353(6)
N3 C17 1.117(9)
O3 C3 1.160(6)
O1 C1 1.165(7)
O2 C2 1.144(6)
Cl2 C8 1.722(6)
C4 C5 1.383(7)
C5 C6 1.368(7)
C6 C7 1.411(6)
C7 C15 1.393(7)
C7 C8 1.440(7)
C8 C9 1.347(7)
C9 C10 1.422(7)
C10 C14 1.406(6)
C10 C11 1.413(7)
C11 C12 1.353(8)
C12 C13 1.394(7)
C14 C15 1.428(6)
C16 C17 1.432(11)
loop_
_geom_hbond_atom_site_label_D
_geom_hbond_atom_site_label_H
_geom_hbond_atom_site_label_A
_geom_hbond_distance_DH
_geom_hbond_distance_HA
_geom_hbond_distance_DA
_geom_hbond_angle_DHA
_geom_hbond_site_symmetry_A
C4 H4 N3 0.93 2.59 3.425(8) 149.0 1_455
C12 H12 Cl1 0.93 2.81 3.664(5) 153.7 1_655
C16 H16C O2 0.96 2.47 3.269(9) 141.2 2_676
C6 H6 Cl2 0.93 2.71 3.072(6) 104.3 .
