#------------------------------------------------------------------------------
#$Date: 2019-11-24 04:09:55 +0200 (Sun, 24 Nov 2019) $
#$Revision: 236641 $
#$URL: file:///home/coder/svn-repositories/cod/cif/7/23/69/7236927.cif $
#------------------------------------------------------------------------------
#
# This file is available in the Crystallography Open Database (COD),
# http://www.crystallography.net/
#
# All data on this site have been placed in the public domain by the
# contributors.
#
data_7236927
loop_
_publ_author_name
'Walwyn, Robert J.'
'Chan, Bun'
'Usov, Pavel M.'
'Solomon, Marcello B.'
'Duyker, Samuel G.'
'Koo, Jin Young'
'Kawano, Masaki'
'Turner, Peter'
'Kepert, Cameron J.'
'D'Alessandro, Deanna M.'
_publ_section_title
;
 Spectroscopic, electronic and computational properties of a mixed
 tetrachalcogenafulvalene and its charge transfer complex
;
_journal_issue                   5
_journal_name_full               'Journal of Materials Chemistry C'
_journal_page_first              1092
_journal_paper_doi               10.1039/C7TC03853D
_journal_volume                  6
_journal_year                    2018
_chemical_formula_sum            'C14 H12 O8 S Se3'
_chemical_formula_weight         577.18
_space_group_crystal_system      triclinic
_space_group_IT_number           2
_space_group_name_Hall           '-P 1'
_space_group_name_H-M_alt        'P -1'
_symmetry_cell_setting           triclinic
_symmetry_Int_Tables_number      2
_symmetry_space_group_name_Hall  '-P 1'
_symmetry_space_group_name_H-M   'P -1'
_atom_sites_solution_hydrogens   geom
_audit_creation_method           SHELXL-2014/7
_audit_update_record
;
2016-08-29 deposited with the CCDC.
2017-11-27 downloaded from the CCDC.
;
_cell_angle_alpha                100.073(3)
_cell_angle_beta                 105.219(3)
_cell_angle_gamma                96.116(3)
_cell_formula_units_Z            2
_cell_length_a                   7.7902(2)
_cell_length_b                   8.6288(3)
_cell_length_c                   14.5566(4)
_cell_measurement_reflns_used    8109
_cell_measurement_temperature    150(1)
_cell_measurement_theta_max      75.2220
_cell_measurement_theta_min      5.2400
_cell_volume                     917.58(5)
_computing_cell_refinement
;
  CrysAlisPro, Agilent Technologies,
;
_computing_data_collection
;
  CrysAlisPro, Agilent Technologies,
;
_computing_data_reduction
;
  CrysAlisPro, Agilent Technologies,
;
_computing_molecular_graphics
;
  ORTEP3 for Windows (Farrugia, L., 1997)
  ORTEPIII  (Burnett, N.M., Johnson,C.K., 1996). 
  WinGX (Farrugia, 1999)
  shelXle (H\"ubschle,C.B., et al., 2011) 
;
_computing_structure_refinement  'SHELXL-2014/7 (Sheldrick, 2014)'
_computing_structure_solution    'ShelxT (Sheldrick, 2015)'
_diffrn_ambient_temperature      150(1)
_diffrn_crystal_treatment
;
attached with Exxon Paratone N to a nylon loop and quenched 
in a cold nitrogen gas stream from an Oxford Cryosystems Cryostream. 
;
_diffrn_detector                 'CCD plate'
_diffrn_detector_area_resol_mean 10.5861
_diffrn_detector_type            Atlas
_diffrn_measured_fraction_theta_full 1.000
_diffrn_measured_fraction_theta_max 0.993
_diffrn_measurement_device       'four-circle diffractometer'
_diffrn_measurement_device_type  'SuperNova, Dual, Cu at zero, Atlas'
_diffrn_measurement_method       \w
_diffrn_radiation_monochromator  mirror
_diffrn_radiation_source         'SuperNova (Cu) X-ray Source'
_diffrn_radiation_type           'Cu K\a'
_diffrn_radiation_wavelength     1.5418
_diffrn_reflns_av_R_equivalents  0.0205
_diffrn_reflns_av_unetI/netI     0.0187
_diffrn_reflns_Laue_measured_fraction_full 1.000
_diffrn_reflns_Laue_measured_fraction_max 0.993
_diffrn_reflns_limit_h_max       9
_diffrn_reflns_limit_h_min       -9
_diffrn_reflns_limit_k_max       10
_diffrn_reflns_limit_k_min       -10
_diffrn_reflns_limit_l_max       18
_diffrn_reflns_limit_l_min       -18
_diffrn_reflns_number            14923
_diffrn_reflns_point_group_measured_fraction_full 1.000
_diffrn_reflns_point_group_measured_fraction_max 0.993
_diffrn_reflns_theta_full        67.679
_diffrn_reflns_theta_max         75.850
_diffrn_reflns_theta_min         3.219
_exptl_absorpt_coefficient_mu    8.755
_exptl_absorpt_correction_T_max  1.00
_exptl_absorpt_correction_T_min  0.641
_exptl_absorpt_correction_type   multi-scan
_exptl_absorpt_process_details
;
  CrysAlisPro, Agilent Technologies,
  Version 1.171.37.35
  Empirical absorption correction using spherical 
  harmonics, implemented in SCALE3 ABSPACK scaling algorithm.
;
_exptl_crystal_colour            'pale orange'
_exptl_crystal_density_diffrn    2.089
_exptl_crystal_description       plate
_exptl_crystal_F_000             556
_exptl_crystal_size_max          0.097
_exptl_crystal_size_mid          0.086
_exptl_crystal_size_min          0.021
_refine_diff_density_max         0.617
_refine_diff_density_min         -0.397
_refine_diff_density_rms         0.099
_refine_ls_extinction_method     none
_refine_ls_goodness_of_fit_ref   1.321
_refine_ls_hydrogen_treatment    constr
_refine_ls_matrix_type           full
_refine_ls_number_parameters     239
_refine_ls_number_reflns         3795
_refine_ls_number_restraints     0
_refine_ls_restrained_S_all      1.321
_refine_ls_R_factor_all          0.0374
_refine_ls_R_factor_gt           0.0323
_refine_ls_shift/su_max          0.001
_refine_ls_shift/su_mean         0.000
_refine_ls_structure_factor_coef Fsqd
_refine_ls_weighting_details
'w=1/[\s^2^(Fo^2^)+(0.03P)^2^+3.0P] where P=(Fo^2^+2Fc^2^)/3'
_refine_ls_weighting_scheme      calc
_refine_ls_wR_factor_gt          0.0994
_refine_ls_wR_factor_ref         0.1007
_reflns_Friedel_coverage         0.000
_reflns_number_gt                3524
_reflns_number_total             3795
_reflns_threshold_expression     'I > 2\s(I)'
_cod_data_source_file            c7tc03853d2.cif
_cod_data_source_block           TCMTSTF_dmd15pt2_s1448
_cod_database_code               7236927
_shelx_shelxl_version_number     2014/7
_shelx_space_group_comment
;
The symmetry employed for this shelxl refinement is uniquely defined
by the following loop, which should always be used as a source of
symmetry information in preference to the above space-group names.
They are only intended as comments.
;
_shelx_res_file
;

    dmd15pt2_s1448.res created by SHELXL-2014/7


TITL dmd15pt1_s1448_a.res in P-1
REM SHELXT solution in P-1
CELL  1.54178   7.7902   8.6288  14.5566  100.073  105.219   96.116
ZERR    2.000   0.0002   0.0003   0.0004    0.003    0.003    0.003
LATT  1
SFAC C H O S Se
UNIT 28 24 16 2 6
TEMP -123
MERG 2
L.S. 10
TEMP -123
ACTA
LIST 4
BOND $H
CONF
HTAB
EQIV $1 -x, -y+1, -z+1
EQIV $2 -x, -y, -z+1
EQIV $3 -x+1, -y+1, -z+1
EQIV $4 x, y+1, z
EQIV $5 -x+1, -y+2, -z+1
EQIV $6 x+1, y+1, z+1
HTAB C5 Se3_$1
HTAB C5 Se1_$2
HTAB C5 O5_$3
HTAB C12 Se4_$4
HTAB C14 O1_$6
EXYZ SE1 S1
EADP SE1 S1
EXYZ SE2 S2
EADP SE2 S2
EXYZ SE3 S3
EADP SE3 S3
EXYZ SE4 S4
EADP SE4 S4
REM SUMP 1.0 0.001 1.0 2 1.0 3 1.0 4 1.0 5
FMAP 2
PLAN 20
REM FVAR       0.35588   0.19314   0.17621   0.25665   0.37497
WGHT    0.030000    3.000000
FVAR       0.35592
SE1   5    0.222796    0.385522    0.520895    10.82000    0.02654    0.01772 =
         0.01589    0.00121    0.00196   -0.00141
S1    4    0.222796    0.385522    0.520895    10.18000    0.02654    0.01772 =
         0.01589    0.00121    0.00196   -0.00141
SE2   5    0.269598    0.670863    0.411736    10.81000    0.03296    0.02127 =
         0.01529    0.00208    0.00161   -0.00216
S2    4    0.269598    0.670863    0.411736    10.19000    0.03296    0.02127 =
         0.01529    0.00208    0.00161   -0.00216
SE3   5    0.548005    0.895409    0.617607    10.74000    0.03567    0.02093 =
         0.01634   -0.00112    0.00512   -0.00266
S3    4    0.548005    0.895409    0.617607    10.26000    0.03567    0.02093 =
         0.01634   -0.00112    0.00512   -0.00266
SE4   5    0.492527    0.616411    0.728134    10.63000    0.03069    0.02185 =
         0.01633   -0.00031    0.00250    0.00061
S4    4    0.492527    0.616411    0.728134    10.37000    0.03069    0.02185 =
         0.01633   -0.00031    0.00250    0.00061
O1    3   -0.137065    0.183250    0.262936    11.00000    0.03243    0.02281 =
         0.01996    0.00089   -0.00201   -0.00547
O2    3   -0.008158    0.107068    0.401381    11.00000    0.03179    0.01815 =
         0.02050    0.00321    0.00234   -0.00300
O3    3    0.042562    0.406307    0.170531    11.00000    0.03910    0.03179 =
         0.01515    0.00139    0.00562    0.00553
O4    3   -0.106926    0.580485    0.238481    11.00000    0.02552    0.02258 =
         0.01654    0.00424    0.00049    0.00148
O5    3    0.822406    1.174203    0.785120    11.00000    0.03607    0.02782 =
         0.03601   -0.00291    0.01934   -0.00920
O6    3    0.593337    1.181184    0.851044    11.00000    0.02734    0.01840 =
         0.02622   -0.00209    0.00933    0.00005
O7    3    0.602731    0.723852    0.942902    11.00000    0.04620    0.02305 =
         0.02048    0.00851    0.00671   -0.00497
O8    3    0.753855    0.966533    0.954146    11.00000    0.04199    0.02561 =
         0.01194    0.00226   -0.00085   -0.00587
C1    1    0.325612    0.596344    0.528691    11.00000    0.02338    0.01641 =
         0.01422    0.00320    0.00481    0.00190
C2    1    0.090043    0.363239    0.389804    11.00000    0.01922    0.02174 =
         0.01184   -0.00032    0.00238    0.00403
C3    1    0.109957    0.483307    0.344233    11.00000    0.02092    0.01513 =
         0.01425   -0.00030    0.00358    0.00050
C4    1   -0.032493    0.210265    0.342430    11.00000    0.02150    0.01725 =
         0.01767    0.00200    0.00731    0.00105
C5    1   -0.105355   -0.054255    0.359012    11.00000    0.04124    0.01420 =
         0.03454    0.00330    0.00731   -0.00563
AFIX 137
H5A   2   -0.235106   -0.051548    0.338505    11.00000   -1.50000
H5B   2   -0.079433   -0.120646    0.407591    11.00000   -1.50000
H5C   2   -0.066926   -0.099118    0.302433    11.00000   -1.50000
AFIX   0
C6    1    0.011837    0.481291    0.239502    11.00000    0.02396    0.01705 =
         0.01573    0.00331    0.00255   -0.00416
C7    1   -0.209990    0.594173    0.142861    11.00000    0.03158    0.03016 =
         0.02252    0.00884   -0.00446    0.00013
AFIX 137
H7A   2   -0.128669    0.608496    0.102745    11.00000   -1.50000
H7B   2   -0.272894    0.686275    0.148805    11.00000   -1.50000
H7C   2   -0.298324    0.497034    0.112168    11.00000   -1.50000
AFIX   0
C8    1    0.435153    0.688121    0.611679    11.00000    0.02526    0.01266 =
         0.01517    0.00348    0.00561   -0.00006
C9    1    0.608782    0.940553    0.753445    11.00000    0.02096    0.01728 =
         0.01308    0.00046    0.00400   -0.00053
C10   1    0.589517    0.821501    0.799537    11.00000    0.01997    0.01852 =
         0.01511   -0.00079    0.00274   -0.00103
C11   1    0.689173    1.111043    0.798616    11.00000    0.02545    0.01839 =
         0.01325    0.00373    0.00383   -0.00008
C12   1    0.677481    1.339567    0.908311    11.00000    0.03921    0.01971 =
         0.03222   -0.00528    0.01026   -0.00067
AFIX 137
H12A  2    0.794257    1.333342    0.952576    11.00000   -1.50000
H12B  2    0.599447    1.381717    0.946276    11.00000   -1.50000
H12C  2    0.695426    1.410344    0.864663    11.00000   -1.50000
AFIX   0
C13   1    0.647101    0.829644    0.906404    11.00000    0.02489    0.01955 =
         0.01576    0.00009    0.00357   -0.00027
C14   1    0.803200    0.994967    1.059879    11.00000    0.05066    0.02869 =
         0.01211    0.00275   -0.00086   -0.00521
AFIX 137
H14A  2    0.694637    0.974976    1.080808    11.00000   -1.50000
H14B  2    0.861619    1.105859    1.087343    11.00000   -1.50000
H14C  2    0.886605    0.923230    1.082753    11.00000   -1.50000
REM #####
AFIX   0
HKLF 4

REM  dmd15pt1_s1448_a.res in P-1
REM R1 =  0.0323 for    3524 Fo > 4sig(Fo)  and  0.0374 for all    3795 data
REM    239 parameters refined using      0 restraints

END

WGHT      0.0260      3.5045

REM Instructions for potential hydrogen bonds
HTAB C5 Se3_$1
HTAB C5 Se1_$2
HTAB C5 O5_$3
HTAB C12 Se4_$4
HTAB C14 O1_$6

REM Highest difference peak  0.617,  deepest hole -0.397,  1-sigma level  0.099
Q1    1   0.2455  0.6190  0.4793  11.00000  0.05    0.62
Q2    1   0.6764  0.8784  0.6159  11.00000  0.05    0.59
Q3    1   0.3401  0.3594  0.5789  11.00000  0.05    0.55
Q4    1   0.3411  0.3541  0.5243  11.00000  0.05    0.52
Q5    1   0.5904  0.9267  0.6979  11.00000  0.05    0.50
Q6    1   0.1281  0.3605  0.4437  11.00000  0.05    0.48
Q7    1   0.1003  0.3967  0.5149  11.00000  0.05    0.47
Q8    1   0.6216  0.6040  0.7228  11.00000  0.05    0.46
Q9    1   0.1370  0.6485  0.4173  11.00000  0.05    0.46
Q10   1   0.4351  0.9187  0.6133  11.00000  0.05    0.46
Q11   1   0.0942  0.4183  0.3680  11.00000  0.05    0.46
Q12   1   0.1636  0.7068  0.4189  11.00000  0.05    0.45
Q13   1   0.6517  1.0248  0.7731  11.00000  0.05    0.44
Q14   1   0.0601  0.4759  0.2972  11.00000  0.05    0.43
Q15   1   0.3773  0.6133  0.7390  11.00000  0.05    0.41
Q16   1  -0.0457  0.1354  0.3696  11.00000  0.05    0.40
Q17   1   0.3544  0.6550  0.5670  11.00000  0.05    0.40
Q18   1   0.5733  0.7595  0.7716  11.00000  0.05    0.39
Q19   1   0.6131  0.8734  0.7745  11.00000  0.05    0.39
Q20   1   0.5836  1.1499  0.8017  11.00000  0.05    0.38
;
_shelx_res_checksum              8003
_shelx_hkl_file
;
   0   0  -1 1694.53    8.20
   0   0   1 1704.13    8.70
   0   0   2   15.50    1.20
   0   0  -2   14.30    1.10
   0   0   2   14.10    1.20
   0   0   3    7.30    1.20
   0   0  -3    9.10    1.10
   0   0   3    7.70    1.20
   0   0   4   30.50    2.40
   0   0   4   32.00    2.40
   0   0  -4   32.10    2.30
   0   0  -4   33.00    2.30
   0   0   5  312.17    8.30
   0   0   5  306.77    7.90
   0   0  -5  325.77    7.60
   0   0  -5  314.07    7.60
   0   0   5  306.07    5.60
   0   0   6  875.11   14.60
   0   0   6  901.51   10.40
   0   0  -6  873.71   13.80
   0   0  -6  883.21   13.50
   0   0  -7   88.79    4.60
   0   0   7   87.99    5.10
   0   0  -7   84.79    4.60
   0   0  -8  498.05   12.20
   0   0   8  493.55   13.00
   0   0  -8  507.35   11.80
   0   0   9 1225.28   22.00
   0   0  -9 1214.48   20.30
   0   0  -9 1223.78   19.70
   0   0 -10   39.10    3.90
   0   0  10   40.80    4.40
   0   0  11   10.00    2.50
   0   0  11   12.90    1.30
   0   0 -11   14.80    1.30
   0   0 -11   13.30    1.30
   0   0  11   12.50    1.30
   0   0 -11   12.70    1.30
   0   0  11   13.40    1.40
   0   0 -11   11.80    2.50
   0   0  11   14.00    1.30
   0   0  12    5.40    1.00
   0   0 -12    4.90    0.90
   0   0  12    5.80    0.90
   0   0 -12    5.30    0.90
   0   0  12    4.60    0.80
   0   0  12    4.30    0.80
   0   0 -12    5.00    0.90
   0   0 -12    5.50    0.90
   0   0 -13    3.10    0.80
   0   0 -13    3.30    0.80
   0   0  13    2.10    0.60
   0   0 -13    1.60    0.50
   0   0  13    2.50    0.70
   0   0 -13    2.40    0.80
   0   0  14   36.10    2.00
   0   0 -14   36.20    1.90
   0   0 -14   38.80    2.20
   0   0  14   38.30    2.00
   0   0 -14   36.70    2.00
   0   0  14   36.60    2.20
   0   0  15  202.28    4.50
   0   0 -15  196.98    4.20
   0   0  15  195.08    3.80
   0   0 -15  201.68    4.40
   0   0 -15  197.98    3.80
   0   0  15  188.88    4.00
   0   0  16   92.79    2.60
   0   0 -16   85.99    2.40
   0   0 -17    0.90    0.40
   0   0  17    1.00    0.40
   0   1 -17  266.17    3.50
   0  -1  17  270.37    3.80
   0   1 -16  639.34    6.80
   0   1 -16  627.04    6.70
   0   1 -16  631.04    6.10
   0  -1  16  647.04    7.20
   0  -1  15  477.95    6.90
   0   1 -15  483.35    6.80
   0   1 -15  474.55    6.30
   0  -1  15  493.15    7.20
   0   1 -15  490.95    7.10
   0   1 -15  485.65    6.80
   0   1 -14   32.50    2.00
   0   1 -14   33.40    2.00
   0  -1  14   35.40    2.10
   0  -1  14   36.00    2.10
   0   1 -14   34.50    2.10
   0   1 -14   34.20    1.90
   0  -1  14   32.90    2.10
   0  -1  13    0.70    0.70
   0   1 -13    1.70    0.60
   0   1 -13    0.60    0.60
   0  -1  13    0.50    0.50
   0  -1  13   -0.20    0.60
   0   1 -13    1.50    0.70
   0  -1  12    1.30    0.70
   0   1 -12    0.20    0.50
   0   1 -12    0.00    0.50
   0  -1  12    0.10    0.40
   0   1 -11    1.70    1.30
   0  -1  11    0.70    0.60
   0  -1  11    1.10    0.50
   0   1 -11    0.10    0.40
   0  -1  11    1.40    1.20
   0   1 -11    2.40    0.70
   0  -1  11    0.40    0.40
   0   1 -11    2.00    1.20
   0   1 -10  311.37   11.20
   0   1 -10  313.27   10.50
   0  -1  10  312.97   11.80
   0  -1   9   57.39    4.80
   0   1  -9   54.19    4.10
   0   1  -9   55.69    4.60
   0  -1   8   39.10    3.70
   0   1  -8   32.10    3.20
   0   1  -8   28.90    2.70
   0  -1   7  792.92   15.10
   0   1  -7  778.92   12.70
   0   1  -7  787.62   14.80
   0  -1   7  819.52   11.20
   0  -1   6   96.39    3.70
   0  -1   6   89.29    4.70
   0   1  -6   93.49    4.00
   0  -1   5  481.95    7.90
   0   1  -5  490.55    8.40
   0  -1   5  475.85    9.50
   0  -1   4    4.30    0.90
   0   1  -4    2.70    1.00
   0   1  -4    2.40    0.70
   0  -1   4    3.20    0.70
   0  -1   3  191.18    4.10
   0  -1   3  188.18    4.50
   0   1  -3  188.08    3.60
   0  -1   3  188.28    4.10
   0   1  -3  201.78    5.50
   0  -1   2  218.28    4.00
   0   1  -2  211.58    2.90
   0  -1   2  206.48    3.80
   0  -1   1 1472.25    5.60
   0   1  -1 1484.25   10.00
   0  -1   1 1465.05    9.20
   0   1   0  359.06    4.00
   0   1   0  343.97    2.70
   0   1   0  360.96    3.70
   0  -1   0  341.97    4.30
   0  -1   0  346.47    3.40
   0   1   1   25.90    1.30
   0   1   1   24.90    1.40
   0  -1  -1   26.10    1.20
   0  -1  -1   26.20    1.40
   0   1   2  114.19    2.30
   0  -1  -2  112.59    2.70
   0  -1  -2  120.59    2.30
   0   1   2  114.39    3.40
   0  -1  -2  116.09    3.80
   0  -1  -3 1539.65   15.70
   0   1   3 1477.65   14.60
   0  -1  -3 1545.15   11.10
   0  -1  -3 1464.55   10.40
   0   1   3 1475.65   10.30
   0   1   4 2897.21   23.70
   0  -1  -4 3091.49   18.50
   0  -1  -4 2995.20   24.70
   0   1   4 2879.31   23.60
   0  -1  -4 2983.90   16.00
   0   1   5  637.44   12.40
   0  -1  -5  669.63   12.70
   0   1   5  625.94   12.30
   0  -1  -5  638.74    7.70
   0  -1  -5  658.43    9.70
   0   1   6  242.48    8.40
   0  -1  -6  251.67    8.00
   0   1   6  243.78    8.40
   0  -1  -6  257.57    6.60
   0   1   7    3.30    1.40
   0   1   7    2.40    1.20
   0  -1  -7    2.50    0.90
   0  -1  -7    2.80    1.10
   0  -1  -8  158.68    7.40
   0   1   8  167.18    8.00
   0  -1  -9   32.10    3.50
   0   1   9   28.20    3.60
   0   1  10  319.17   12.70
   0   1  10  316.87    5.90
   0   1  10  330.07    6.20
   0  -1 -10  321.77    6.10
   0  -1 -10  313.67   11.70
   0   1  10  314.47    6.30
   0   1  10  315.27    5.80
   0  -1 -10  322.87    6.20
   0   1  10  321.17    5.90
   0  -1 -11    0.70    0.50
   0   1  11    1.80    0.60
   0  -1 -11    0.70    0.40
   0   1  11   -1.20    1.10
   0  -1 -11    0.20    0.40
   0  -1 -11    0.60    0.60
   0   1  11    0.40    0.50
   0  -1 -11    0.60    0.50
   0   1  11    0.50    0.50
   0   1  11    2.20    0.70
   0  -1 -11   -1.30    1.20
   0  -1 -12  636.14    9.10
   0  -1 -12  612.84    8.50
   0  -1 -12  630.24    8.50
   0  -1 -12  609.24    8.10
   0   1  12  616.54    8.90
   0   1  12  616.04    8.60
   0  -1 -12  629.94    9.10
   0   1  12  592.64    8.00
   0   1  13  342.07    6.30
   0  -1 -13  352.16    6.70
   0  -1 -13  336.37    6.20
   0  -1 -13  339.07    5.80
   0   1  13  332.17    5.70
   0  -1 -14   88.99    2.70
   0  -1 -14   93.69    3.30
   0  -1 -14   84.99    2.90
   0   1  14   85.39    3.10
   0   1  14   89.19    3.00
   0  -1 -15   87.09    2.60
   0   1  15   87.79    2.50
   0   1  15   86.79    2.80
   0   1  16    0.50    0.40
   0   1  16    0.40    0.30
   0  -1 -16   -0.10    0.30
   0   2 -17   81.89    2.10
   0   2 -17   70.69    1.70
   0   2 -17   72.79    1.60
   0  -2  17   79.19    2.00
   0   2 -16   19.30    1.30
   0  -2  16   19.30    1.30
   0  -2  16   19.20    1.30
   0   2 -16   18.50    1.20
   0   2 -16   19.80    1.20
   0   2 -16   19.90    1.30
   0   2 -15    1.10    0.50
   0  -2  15    0.20    0.60
   0   2 -15    0.30    0.50
   0  -2  15    1.00    0.60
   0   2 -15    1.20    0.60
   0  -2  15    0.80    0.70
   0   2 -15    0.30    0.40
   0   2 -14   40.80    2.20
   0  -2  14   43.10    2.30
   0  -2  14   41.40    2.30
   0  -2  14   43.50    2.40
   0   2 -14   41.80    2.30
   0   2 -13  471.15    7.70
   0  -2  13  468.45    7.70
   0  -2  13  471.35    8.00
   0   2 -13  471.65    7.50
   0  -2  13  479.85    7.90
   0   2 -12  808.02   10.00
   0  -2  12  778.12    9.50
   0  -2  12  765.52    9.80
   0   2 -12  791.72    9.60
   0  -2  12  792.92   10.20
   0  -2  11  341.37    6.20
   0   2 -11  335.37    6.20
   0  -2  11  339.87    6.50
   0  -2  11  343.57    6.60
   0   2 -11  350.16   13.20
   0   2 -10   75.49    5.90
   0  -2  10   73.89    5.80
   0   2  -9   -0.10    0.80
   0  -2   9   -0.10    0.80
   0   2  -9    1.90    1.20
   0  -2   8    1.50    0.80
   0   2  -8    2.20    1.10
   0   2  -7  522.95   13.00
   0  -2   7  540.85   10.70
   0  -2   7  514.15   12.20
   0   2  -6  282.77    6.40
   0  -2   6  294.87    8.40
   0  -2   6  281.27    7.40
   0   2  -6  299.37    9.30
   0   2  -5    1.40    1.00
   0   2  -5    0.70    0.40
   0  -2   5    0.30    0.70
   0  -2   4   69.79    3.30
   0   2  -4   73.89    4.10
   0   2  -4   75.19    2.50
   0  -2   4   73.69    3.30
   0  -2   3 2747.93   19.00
   0  -2   3 2633.44   19.10
   0   2  -3 2741.23   13.30
   0   2  -3 2838.62   22.40
   0  -2   3 2705.73   15.80
   0  -2   2  852.81    8.00
   0  -2   2  864.31   10.20
   0   2  -2  878.31    5.50
   0  -2   1   69.79    1.80
   0   2  -1   70.49    2.30
   0  -2   1   67.89    2.20
   0  -2   1   68.99    2.80
   0   2   0   14.40    0.80
   0   2   0   14.10    1.10
   0   2   0   13.60    1.10
   0  -2   0   12.70    1.00
   0  -2   0   12.70    1.30
   0  -2   0   15.10    1.30
   0   2   1   42.70    2.40
   0  -2  -1   40.20    2.20
   0   2   1   39.50    2.10
   0  -2  -1   39.20    1.90
   0  -2  -2  549.85    8.30
   0   2   2  565.34    9.20
   0  -2  -2  543.65    8.50
   0   2   3 1743.33   18.20
   0  -2  -3 1743.23   17.50
   0   2   3 1753.62   11.90
   0  -2  -4  691.23    9.80
   0   2   4  715.93    8.50
   0   2   4  717.13   13.30
   0  -2  -4  698.83   12.50
   0   2   5  160.78    7.00
   0  -2  -5  159.98    4.70
   0   2   5  177.68    7.20
   0  -2  -5  169.88    6.70
   0  -2  -6    9.50    1.90
   0   2   6   10.90    2.10
   0   2   6    9.10    2.00
   0   2   7    5.80    1.90
   0  -2  -7    5.00    1.40
   0   2   7    4.20    1.50
   0   2   8  177.38    9.10
   0  -2  -8  164.68    8.10
   0   2   8  178.18    9.20
   0  -2  -9   11.20    2.30
   0   2   9   14.20    2.90
   0   2  10   60.39    2.80
   0  -2 -10   59.49    2.60
   0  -2 -10   59.49    2.50
   0  -2 -10   58.09    2.70
   0   2  10   58.29    2.60
   0   2  10   56.39    5.60
   0   2  10   60.69    2.70
   0  -2 -10   54.09    5.20
   0   2  10   57.39    2.60
   0  -2 -10   60.09    2.80
   0   2  10   58.39    2.60
   0   2  11   94.69    3.40
   0  -2 -11   91.59    3.50
   0   2  11   93.09    3.50
   0   2  11   94.29    3.40
   0  -2 -11   91.09    3.20
   0  -2 -11   90.09    3.10
   0  -2 -11   92.79    3.40
   0   2  11   89.39    3.30
   0  -2 -12  253.37    5.40
   0   2  12  260.07    5.60
   0  -2 -12  258.37    5.80
   0  -2 -12  253.47    5.30
   0   2  12  247.08    5.20
   0   2  12  262.17    5.70
   0  -2 -13  143.69    3.80
   0   2  13  149.59    4.10
   0   2  13  140.29    3.70
   0  -2 -13  144.69    4.20
   0  -2 -13  146.79    3.80
   0  -2 -14    0.80    0.50
   0   2  14    1.30    0.60
   0   2  14    1.00    0.50
   0   2  15   28.70    1.40
   0   2  15   28.00    1.40
   0  -2 -15   30.20    1.60
   0   2  16  147.99    2.50
   0  -2 -16  154.88    2.70
   0  -3  17    1.50    0.40
   0   3 -17    1.50    0.40
   0   3 -17    1.00    0.30
   0   3 -16    5.00    0.70
   0   3 -16    6.60    0.80
   0  -3  16    4.40    0.60
   0   3 -16    4.90    0.70
   0  -3  16    4.70    0.80
   0   3 -16    5.20    0.60
   0  -3  15    7.80    1.00
   0   3 -15    6.50    0.90
   0  -3  15    6.30    1.00
   0  -3  15    6.50    1.00
   0   3 -15    7.50    0.90
   0  -3  14   41.60    2.30
   0   3 -14   42.30    2.10
   0   3 -14   42.80    2.30
   0  -3  14   44.40    2.40
   0  -3  14   44.70    2.30
   0  -3  13  145.59    4.40
   0   3 -13  146.49    4.10
   0  -3  13  151.88    4.50
   0   3 -13  148.69    4.30
   0  -3  13  146.89    4.20
   0  -3  13  148.19    4.30
   0  -3  12  245.98    5.50
   0  -3  12  242.08    5.50
   0   3 -12  239.08    5.30
   0  -3  12  245.58    5.70
   0  -3  12  244.48    5.70
   0  -3  11   48.70    2.50
   0  -3  11   48.50    2.40
   0  -3  11   49.50    2.60
   0  -3  11   52.59    2.60
   0   3 -11   45.90    2.30
   0   3 -11   48.40    5.20
   0   3 -10   15.10    2.80
   0  -3  10   11.70    2.20
   0   3  -9  435.46   14.00
   0  -3   9  432.06   12.10
   0   3  -8  540.85   14.80
   0  -3   8  538.75   12.60
   0  -3   8  497.35   11.90
   0  -3   7  137.19    6.30
   0  -3   7  133.09    5.60
   0   3  -7  146.19    7.40
   0  -3   6   19.40    2.00
   0  -3   6   17.40    2.30
   0   3  -6   21.90    2.80
   0   3  -5  116.99    3.50
   0  -3   5  116.49    5.10
   0   3  -5  112.49    5.80
   0  -3   5  112.09    4.20
   0  -3   5  108.29    5.20
   0  -3   4   31.20    2.80
   0   3  -4   37.00    1.90
   0  -3   4   35.60    2.20
   0  -3   4   35.70    2.80
   0   3  -4   35.90    3.10
   0   3  -3   12.10    1.60
   0  -3   3    9.50    1.60
   0   3  -3   12.00    1.20
   0  -3   3   10.20    1.60
   0  -3   3   11.90    1.30
   0  -3   2  139.69    4.00
   0  -3   2  150.68    3.00
   0  -3   2  144.39    5.10
   0  -3   2  140.29    5.20
   0   3  -1    0.60    0.30
   0  -3   1    0.60    0.30
   0  -3   1   -0.40    0.70
   0   3  -1    0.10    0.40
   0   3  -1    0.30    0.50
   0  -3   1    0.80    0.70
   0  -3   0  483.65    6.90
   0  -3   0  483.25    9.30
   0   3   0  480.45    8.30
   0   3   0  474.75    7.70
   0   3   0  462.25    4.70
   0  -3  -1 1066.29   14.10
   0   3   1 1099.69   14.40
   0  -3  -1 1060.39   11.70
   0   3   1 1064.69   13.10
   0  -3  -2 2039.00   19.90
   0  -3  -2 2030.40   18.40
   0   3   3    6.30    1.50
   0  -3  -3    6.70    1.40
   0   3   3    5.50    0.80
   0  -3  -3    4.30    1.10
   0   3   4   24.40    2.80
   0  -3  -4   24.20    2.70
   0  -3  -4   26.20    2.30
   0   3   5    0.80    1.10
   0  -3  -5    2.10    1.10
   0  -3  -6  529.15   13.90
   0   3   6  510.85   15.10
   0   3   6  520.95   14.70
   0  -3  -7  987.90   20.20
   0   3   7 1004.40   21.50
   0   3   7  977.70   22.40
   0   3   8  814.82   20.40
   0  -3  -8  769.42   18.80
   0   3   8  770.22   20.80
   0   3   9  108.69    3.50
   0   3   9  109.39    3.40
   0  -3  -9  111.09    3.80
   0   3   9  117.09    3.90
   0  -3  -9  108.79    7.40
   0   3   9  114.89    3.60
   0   3   9  114.59    8.30
   0  -3  -9  108.69    3.50
   0  -3  -9  113.69    3.90
   0   3  10  164.68    4.40
   0  -3 -10  157.18    4.20
   0  -3 -10  158.38    4.60
   0   3  10  161.18    4.40
   0  -3 -10  164.28    4.60
   0   3  10  159.78    4.60
   0   3  10  176.48    4.80
   0  -3 -11   58.89    2.70
   0  -3 -11   53.69    2.70
   0   3  11   55.99    2.60
   0   3  11   55.49    2.60
   0   3  11   61.59    2.90
   0   3  11   56.09    2.60
   0  -3 -12    0.20    0.40
   0   3  12    0.30    0.60
   0   3  12    0.90    0.60
   0  -3 -12   -0.40    0.50
   0   3  12    0.40    0.60
   0   3  13   18.30    1.30
   0  -3 -13   18.70    1.50
   0   3  13   19.40    1.50
   0  -3 -13   16.10    1.20
   0   3  13   17.70    1.40
   0   3  14   43.70    1.90
   0   3  14   37.60    1.60
   0  -3 -14   41.90    1.90
   0   3  15  207.98    3.20
   0  -3 -15  212.68    3.40
   0   4 -17   36.80    1.20
   0   4 -17   39.10    1.40
   0  -4  16   89.69    2.70
   0  -4  16   84.09    2.50
   0   4 -16   90.79    2.50
   0   4 -16   90.59    2.50
   0   4 -16   88.99    2.50
   0   4 -16   81.69    2.10
   0  -4  15  385.76    6.20
   0   4 -15  385.96    5.90
   0   4 -15  375.96    5.30
   0   4 -14  235.18    4.70
   0  -4  14  237.58    5.40
   0   4 -14  236.88    5.10
   0  -4  14  236.98    5.20
   0  -4  13   78.89    3.30
   0   4 -13   76.29    2.80
   0  -4  13   74.09    3.10
   0  -4  12   95.49    3.50
   0  -4  12   95.99    3.60
   0  -4  12   95.49    3.70
   0   4 -12   96.79    3.30
   0  -4  11    2.80    0.90
   0  -4  11    3.20    0.90
   0   4 -11    0.30    0.90
   0  -4  11    1.70    0.60
   0  -4  10  461.45    7.70
   0  -4  10  472.15    7.70
   0  -4  10  473.35    7.90
   0   4 -10  492.25   16.40
   0   4  -9 1536.45   27.90
   0  -4   9 1603.64   24.70
   0  -4   8  718.13   16.60
   0   4  -8  666.23   17.60
   0  -4   7   11.40    2.30
   0   4  -7   13.80    2.50
   0  -4   7   12.60    1.80
   0  -4   6  248.58    7.20
   0   4  -6  252.77    9.90
   0  -4   6  246.08    9.00
   0  -4   6  240.98    9.20
   0  -4   5   39.00    3.60
   0  -4   5   35.30    2.60
   0  -4   5   36.20    3.40
   0   4  -5   34.80    3.50
   0  -4   4    1.60    0.90
   0  -4   4    0.50    0.50
   0  -4   4    1.60    1.10
   0   4  -4    1.40    1.00
   0  -4   3  138.89    4.70
   0  -4   3  145.09    6.40
   0  -4   3  143.79    6.30
   0   4  -3  141.99    5.80
   0   4  -3  152.08    5.60
   0   4  -2   50.19    3.20
   0  -4   2   46.50    3.60
   0   4  -2   51.39    3.30
   0  -4   2   49.20    3.60
   0   4  -2   52.29    2.80
   0  -4   1  987.80   16.10
   0   4  -1  952.30   13.60
   0   4  -1  998.40   13.90
   0  -4   1  984.60   10.30
   0  -4   0 2807.62   27.30
   0  -4   0 2791.52   19.60
   0   4   0 2804.92   22.20
   0   4   0 2824.52   24.20
   0   4   1 1507.05   20.00
   0   4   1 1467.65   18.20
   0  -4  -1 1468.85   15.80
   0  -4  -1 1465.65   20.00
   0  -4  -2   79.29    4.70
   0  -4  -2   79.89    4.10
   0   4   2   82.59    5.00
   0  -4  -3  187.68    7.20
   0   4   3  190.48    8.10
   0  -4  -3  190.28    7.10
   0   4   4   16.40    2.70
   0  -4  -4   15.50    2.10
   0  -4  -4   13.30    2.20
   0   4   5    1.20    1.10
   0  -4  -5    0.80    0.80
   0   4   6    3.10    1.40
   0  -4  -6    0.30    1.10
   0   4   6    0.90    1.30
   0  -4  -7   41.30    2.40
   0  -4  -7   43.50    2.20
   0   4   7   42.90    2.10
   0  -4  -7   42.00    2.40
   0   4   7   40.10    5.00
   0   4   7   40.60    2.10
   0  -4  -7   41.40    4.60
   0   4   7   43.20    4.90
   0   4   8  175.18    4.40
   0  -4  -8  178.28    4.50
   0   4   8  174.28    9.90
   0  -4  -8  177.28    5.00
   0   4   8  172.28   10.60
   0  -4  -8  178.58    5.00
   0  -4  -8  179.78    9.70
   0   4   8  169.38    4.30
   0  -4  -9   35.50    2.00
   0  -4  -9   31.50    2.20
   0   4   9   31.80    2.00
   0   4   9   33.40    2.00
   0  -4  -9   39.00    2.40
   0   4   9   35.10    2.20
   0   4  10   70.89    2.80
   0  -4 -10   71.99    3.20
   0   4  10   72.79    2.90
   0  -4 -10   71.29    2.70
   0  -4 -10   71.99    3.10
   0   4  10   72.39    3.00
   0   4  10   76.09    3.20
   0   4  11  189.98    4.60
   0   4  11  199.28    4.90
   0  -4 -11  188.58    4.70
   0  -4 -11  184.08    4.80
   0   4  11  188.58    4.60
   0  -4 -12  185.78    4.30
   0   4  12  185.48    3.90
   0   4  12  197.28    4.60
   0  -4 -12  182.98    4.50
   0   4  12  196.18    4.30
   0   4  13   12.70    1.00
   0   4  13   13.90    1.10
   0  -4 -13   11.40    0.90
   0   4  13   12.40    0.90
   0  -4 -13   13.00    1.10
   0   4  13   12.50    0.90
   0   4  14   22.50    1.20
   0  -4 -14   23.30    1.20
   0   5 -17   13.10    0.70
   0   5 -16  258.67    3.80
   0  -5  16  244.88    3.90
   0   5 -15  120.59    3.10
   0  -5  15  118.69    3.20
   0   5 -14   15.90    1.20
   0   5 -14   16.20    1.30
   0  -5  14   15.60    1.30
   0  -5  14   15.70    1.40
   0  -5  13    0.40    0.50
   0  -5  13    1.00    0.70
   0   5 -13    0.40    0.40
   0  -5  12   79.29    3.40
   0  -5  12   78.49    3.20
   0  -5  11   66.19    3.00
   0  -5  11   66.09    3.10
   0  -5  11   62.89    3.00
   0   5 -10   19.70    3.70
   0  -5  10   20.30    1.70
   0   5 -10   20.90    3.70
   0  -5  10   20.90    1.70
   0  -5  10   20.60    1.80
   0  -5   9   21.50    1.80
   0  -5   9   19.30    1.70
   0  -5   9   19.40    1.60
   0  -5   9   19.70    1.60
   0   5  -9   22.30    3.60
   0   5  -9   23.00    3.70
   0   5  -8    1.80    1.30
   0   5  -8    2.10    1.70
   0  -5   8    0.30    0.80
   0   5  -7   99.19    7.00
   0   5  -7  100.89    7.00
   0  -5   7  101.09    7.00
   0   5  -6  335.97   11.90
   0  -5   6  337.37   11.90
   0   5  -6  342.57   12.10
   0  -5   6  343.17   12.50
   0  -5   5  666.43   16.30
   0   5  -5  674.53   15.80
   0   5  -5  682.83   15.40
   0  -5   5  703.53   17.20
   0   5  -4  726.33   15.50
   0   5  -4  733.33   14.10
   0  -5   4  717.33   16.50
   0   5  -3   68.39    4.50
   0  -5   3   68.89    5.10
   0   5  -3   68.89    4.30
   0  -5   2   39.90    3.90
   0   5  -2   44.80    3.60
   0   5  -2   41.90    3.30
   0  -5   1  101.29    6.10
   0   5  -1  103.09    5.30
   0   5  -1  104.59    5.20
   0   5   0  123.49    6.50
   0  -5   0  116.79    6.70
   0   5   0  113.49    5.70
   0   5   1   49.90    4.30
   0  -5  -1   50.59    4.40
   0   5   1   52.59    4.10
   0   5   2   48.60    4.50
   0  -5  -2   47.70    3.50
   0  -5  -2   45.00    4.20
   0  -5  -3 1253.67   21.60
   0   5   3 1281.37   24.10
   0  -5  -3 1247.28   19.70
   0   5   4 1854.81   30.90
   0  -5  -4 1769.42   25.90
   0  -5  -5 1270.17   13.40
   0  -5  -5 1242.18   23.60
   0   5   5 1253.37   24.80
   0  -5  -5 1305.67   13.00
   0   5   5 1298.47   27.50
   0  -5  -5 1297.07   12.90
   0   5   6  150.38    9.00
   0   5   6  147.89    9.80
   0  -5  -6  138.09    8.40
   0  -5  -6  150.48    4.80
   0  -5  -6  155.48    4.70
   0  -5  -6  152.98    4.50
   0  -5  -7   18.20    1.70
   0  -5  -7   18.70    1.80
   0  -5  -7   20.70    1.70
   0   5   7   20.10    1.50
   0   5   8    2.50    0.80
   0  -5  -8    2.80    0.70
   0   5   8    3.10    0.60
   0  -5  -8    2.60    0.80
   0  -5  -8    3.20    0.90
   0   5   8    2.20    0.70
   0   5   9    6.50    0.90
   0   5   9    4.70    0.80
   0  -5  -9    5.80    1.10
   0  -5  -9    5.70    0.90
   0  -5  -9    5.40    1.00
   0   5   9    6.10    1.10
   0  -5 -10  293.67    6.00
   0   5  10  301.67    5.80
   0  -5 -10  296.07    6.10
   0  -5 -11   81.19    2.90
   0   5  11   83.19    2.80
   0   5  11   85.99    2.90
   0  -5 -11   83.79    3.00
   0  -5 -12   93.39    2.60
   0   5  12   98.59    2.60
   0   5  12  100.49    2.70
   0   5  12  103.19    2.80
   0  -5 -12   99.99    2.90
   0   5  13  191.38    3.10
   0  -5 -13  189.28    3.30
   0   6 -16   -0.20    0.30
   0  -6  16   -0.20    0.30
   0   6 -16    0.30    0.20
   0   6 -15    1.40    0.40
   0  -6  15    2.10    0.50
   0  -6  15    1.90    0.50
   0  -6  14   -0.30    0.40
   0  -6  14    0.50    0.50
   0  -6  13  158.88    4.40
   0  -6  13  152.78    4.00
   0  -6  12  739.93    9.30
   0  -6  12  770.82   10.20
   0  -6  11  426.96    7.60
   0  -6  11  424.06    7.80
   0  -6  11  424.56    7.30
   0  -6  10  136.99    4.00
   0  -6  10  134.19    4.30
   0  -6  10  135.09    4.20
   0  -6  10  136.89    4.40
   0  -6   9    0.70    0.40
   0  -6   9    1.20    0.50
   0  -6   9    0.60    0.50
   0  -6   9    2.20    0.70
   0  -6   8    1.60    0.80
   0  -6   8    1.60    0.50
   0  -6   8    2.40    0.70
   0  -6   8    1.90    0.60
   0  -6   7   11.80    1.30
   0  -6   7    9.60    1.10
   0  -6   7   11.50    1.20
   0  -6   7    9.40    1.20
   0  -6   7   10.70    1.40
   0   6  -7    8.90    2.40
   0  -6   6  266.87    5.80
   0   6  -6  298.47   12.10
   0  -6   6  288.97   12.40
   0  -6   6  258.47    4.90
   0   6  -5  226.18    9.20
   0   6  -5  220.08    9.90
   0  -6   5  220.48   10.60
   0   6  -4    1.60    0.90
   0   6  -4    1.70    1.00
   0  -6   4    2.40    1.50
   0   6  -3  388.46   11.60
   0  -6   3  394.26   13.80
   0   6  -3  396.06   12.20
   0   6  -2   74.89    5.10
   0  -6   2   74.69    6.10
   0  -6   1   74.99    6.10
   0   6  -1   74.39    5.70
   0   6  -1   73.19    5.20
   0   6   0    0.50    1.10
   0  -6   0    1.90    1.20
   0   6   0   -0.30    0.90
   0   6   1    1.70    1.20
   0  -6  -1    0.20    1.10
   0  -6  -2   25.50    1.80
   0   6   2   25.80    3.80
   0  -6  -2   22.10    3.40
   0  -6  -2   24.10    1.80
   0  -6  -2   23.40    1.70
   0  -6  -3  399.76    7.60
   0  -6  -3  393.16    6.90
   0  -6  -3  406.36    7.30
   0   6   3  410.26   15.40
   0  -6  -3  391.06    7.30
   0  -6  -4  209.68    5.40
   0  -6  -4  208.68    5.50
   0  -6  -4  200.78    4.90
   0   6   4  223.88   11.90
   0  -6  -4  211.08    5.80
   0  -6  -5   -0.20    0.60
   0  -6  -5    0.60    0.50
   0  -6  -5    0.30    0.60
   0  -6  -5    0.30    0.60
   0  -6  -6   24.00    1.90
   0  -6  -6   24.50    2.10
   0  -6  -6   24.80    2.00
   0   6   6   22.80    1.70
   0  -6  -7  100.09    4.00
   0  -6  -7   94.49    3.80
   0  -6  -7   99.99    3.60
   0   6   7   99.19    3.40
   0   6   8  449.46    7.00
   0  -6  -8  435.06    7.70
   0  -6  -8  438.86    7.90
   0   6   9  194.18    4.40
   0  -6  -9  186.48    4.70
   0  -6  -9  192.18    4.30
   0   6   9  204.68    4.60
   0  -6  -9  197.88    4.80
   0   6  10    0.40    0.60
   0  -6 -10    0.90    0.50
   0  -6 -10    1.10    0.40
   0   6  10    1.10    0.50
   0  -6 -10    1.20    0.60
   0   6  11    3.40    0.60
   0   6  11    3.60    0.60
   0   6  11    3.70    0.50
   0  -6 -11    3.70    0.50
   0   6  11    3.80    0.60
   0  -6 -11    4.00    0.60
   0   6  12   34.00    1.20
   0   6  12   33.80    1.20
   0  -6 -12   34.10    1.30
   0   6  12   33.40    1.10
   0  -7  15    2.70    0.40
   0  -7  15    2.90    0.40
   0  -7  14    0.30    0.30
   0   7 -14   -0.10    0.30
   0  -7  14    0.00    0.30
   0  -7  13   41.40    1.80
   0  -7  13   43.20    2.00
   0  -7  12   45.00    2.20
   0  -7  12   42.00    2.00
   0  -7  11    0.40    0.40
   0  -7  11    0.00    0.40
   0  -7  10    1.20    0.60
   0  -7  10    3.00    0.70
   0  -7  10    1.80    0.50
   0  -7   9  158.68    4.30
   0  -7   9  162.18    4.50
   0  -7   9  161.88    4.50
   0  -7   8  846.82    9.90
   0  -7   8  850.31   10.70
   0  -7   7  316.07    6.60
   0  -7   7  328.87    6.10
   0  -7   7  332.87    6.20
   0   7  -6   43.30    4.90
   0  -7   6   39.60    2.40
   0  -7   6   40.80    2.10
   0  -7   6   42.00    2.20
   0  -7   6   36.10    2.00
   0  -7   5   23.70    1.60
   0   7  -5   29.10    4.00
   0  -7   5   30.10    1.80
   0  -7   5   30.10    1.80
   0  -7   5   32.50    4.50
   0  -7   5   32.70    2.20
   0  -7   4   11.00    2.80
   0   7  -4   13.60    2.80
   0  -7   4    8.70    1.10
   0  -7   4   12.10    1.50
   0  -7   4    8.10    0.90
   0   7  -3  179.48    9.70
   0  -7   3  169.78    5.20
   0  -7   3  175.88   10.40
   0  -7   3  165.78    4.60
   0  -7   3  158.28    4.40
   0  -7   2  278.37    5.80
   0   7  -2  308.57   12.80
   0  -7   2  293.37    6.70
   0  -7   2  312.87   13.90
   0  -7   2  294.17    6.40
   0   7  -1    6.60    2.00
   0  -7   1   11.30    1.40
   0  -7   1    9.60    1.10
   0  -7   1   10.20    1.30
   0  -7   1    9.30    2.60
   0   7   0  104.89    7.70
   0  -7   0  104.79    4.00
   0  -7   0  103.09    8.00
   0  -7   0  122.39    4.00
   0  -7   0  108.89    3.90
   0  -7  -1  612.04    9.50
   0  -7  -1  615.64    9.20
   0  -7  -1  585.04   18.90
   0  -7  -2  217.58    5.60
   0  -7  -2  215.18    5.50
   0  -7  -2  214.38    5.50
   0  -7  -3   37.30    2.50
   0  -7  -3   34.30    2.30
   0  -7  -3   36.60    2.30
   0  -7  -3   37.50    2.30
   0  -7  -4   11.10    1.30
   0  -7  -4    7.70    1.20
   0  -7  -4    8.00    1.20
   0  -7  -4    7.10    1.20
   0  -7  -5    8.30    1.40
   0  -7  -5    9.90    1.30
   0  -7  -6   93.19    3.60
   0  -7  -6   91.79    3.80
   0  -7  -7  398.56    7.20
   0  -7  -7  393.06    7.00
   0  -7  -7  394.06    6.50
   0   7   7  383.56    5.70
   0  -7  -8  241.78    4.60
   0   7   8  224.28    4.10
   0  -7  -8  231.18    4.90
   0   7   8  247.88    4.70
   0  -7  -9   38.00    1.60
   0   7   9   34.40    1.40
   0   7   9   37.00    1.70
   0  -7  -9   38.00    1.80
   0  -7 -10   12.20    0.90
   0   7  10   15.10    1.00
   0  -7 -10   13.20    0.80
   0   7  10   13.00    0.80
   0   7  10   12.80    0.90
   0  -8  14   51.79    1.50
   0  -8  13    1.20    0.30
   0  -8  12    0.00    0.30
   0  -8  12   11.90    1.00
   0  -8  11   -1.80    0.70
   0  -8  11    0.60    0.40
   0  -8  10   19.40    1.40
   0  -8  10   23.80    1.50
   0  -8   9  450.55    6.70
   0  -8   9  467.75    7.30
   0  -8   8  231.98    5.40
   0  -8   8  229.78    4.80
   0  -8   8  228.18    4.80
   0  -8   7   11.90    1.40
   0  -8   7   48.40    2.60
   0  -8   6    2.40    0.90
   0  -8   6    9.80    1.30
   0  -8   5    3.80    1.00
   0  -8   5   24.70    2.30
   0  -8   5   22.80    1.90
   0  -8   4  152.18    4.40
   0  -8   4  157.78    4.50
   0  -8   3   10.80    1.50
   0  -8   3    2.70    0.90
   0  -8   2  111.59    4.00
   0  -8   2   99.69    3.80
   0  -8   1   66.39    3.00
   0  -8   1   74.79    3.40
   0  -8   1   69.89    2.70
   0  -8   0   60.59    2.70
   0  -8   0   68.69    3.30
   0  -8  -1   51.09    2.90
   0  -8  -1   38.90    2.30
   0  -8  -2   11.90    1.30
   0  -8  -2   11.70    1.40
   0  -8  -3    0.80    0.60
   0  -8  -3    0.80    0.60
   0  -8  -4   54.29    2.60
   0  -8  -4   50.79    2.60
   0  -8  -5  287.37    5.80
   0  -8  -5  303.07    5.70
   0  -8  -6   73.49    2.80
   0  -8  -6   70.79    2.60
   0   8   6   75.09    2.40
   0  -8  -7   18.30    1.30
   0  -8  -7   18.90    1.20
   0   8   7   19.20    1.10
   0   8   8    0.20    0.30
   0  -8  -8    0.00    0.30
   0   8   8    0.60    0.40
   0  -9  12    2.30    0.50
   0  -9  11  157.18    3.30
   0  -9  11  140.89    2.50
   0  -9  10  203.68    3.60
   0  -9   9   -1.40    0.70
   0  -9   8   -1.10    0.80
   0  -9   7    1.90    0.80
   0  -9   7    1.60    0.50
   0  -9   6  113.09    3.70
   0  -9   6  145.19    3.40
   0  -9   5  538.95    8.20
   0  -9   5  477.25    6.40
   0  -9   4  373.16    5.80
   0  -9   4  423.36    7.40
   0  -9   3   40.50    1.90
   0  -9   3   54.49    2.60
   0  -9   2   37.00    2.00
   0  -9   1    4.80    0.80
   0  -9   0   21.70    1.40
   0  -9  -1   25.90    1.60
   0  -9  -2    4.60    0.80
   0  -9  -3  151.78    3.60
   0  -9  -4  455.25    5.80
   0  -9  -5  244.18    3.90
   0  -9  -6   48.80    1.50
   0 -10   9    8.10    0.80
   0 -10   8    4.30    0.60
   0 -10   7   50.19    1.90
   0 -10   6    1.20    0.50
   0 -10   6  134.29    2.70
   0 -10   5  125.09    2.70
   0 -10   5   35.20    1.60
   0 -10   4   -2.00    0.70
   0 -10   4   46.90    1.80
   0 -10   3   -0.50    0.50
   0 -10   3   22.80    1.30
   0 -10   2    8.00    0.80
   0 -10   1  207.98    3.50
   0 -10   0  152.28    2.90
   0 -10  -2   -1.00    0.40
   1 -10  -3   -0.10    0.30
   1 -10  -2   40.60    1.40
   1 -10  -2   30.10    1.10
   1 -10  -1   53.99    1.60
   1 -10  -1   64.49    1.80
   1 -10   0  170.78    3.00
   1 -10   1  243.68    3.70
   1 -10   2   29.60    1.50
   1 -10   2   47.40    1.70
   1 -10   3   46.90    1.70
   1 -10   3    1.00    0.50
   1 -10   4   20.60    1.40
   1 -10   4  117.29    2.50
   1 -10   5  171.48    3.00
   1 -10   5   42.90    1.90
   1 -10   6   14.70    1.10
   1 -10   7   11.80    0.90
   1 -10   8   12.40    0.90
   1 -10   9   51.99    1.40
   1  -9  -7   64.69    1.60
  -1   9   7   63.89    1.50
   1  -9  -6  115.49    2.60
  -1   9   6  110.49    2.40
   1  -9  -5    6.80    0.80
   1  -9  -4    5.20    0.80
   1  -9  -3   37.90    2.00
   1  -9  -2   87.09    3.00
   1  -9  -1   33.10    1.90
   1  -9   0   12.90    1.20
   1  -9   0   12.80    1.10
   1  -9   1   -0.50    0.70
   1  -9   1    0.60    0.40
   1  -9   2   24.30    1.80
   1  -9   2   14.30    1.10
   1  -9   3   42.70    2.50
   1  -9   3   42.40    1.90
   1  -9   4  293.37    5.20
   1  -9   4  307.07    6.40
   1  -9   5  168.68    3.60
   1  -9   5  159.18    4.50
   1  -9   6   29.10    1.70
   1  -9   6   30.80    2.00
   1  -9   7   10.40    1.00
   1  -9   7   12.50    1.30
   1  -9   8   45.40    2.10
   1  -9   9    3.80    0.70
   1  -9   9    5.50    0.70
   1  -9  10    0.00    0.50
   1  -9  10    0.60    0.30
   1  -9  11   14.40    0.80
   1  -9  11   10.00    0.70
   1  -9  12   17.90    0.90
  -1   8   9    6.80    0.60
  -1   8   9    7.90    0.70
   1  -8  -9    7.50    0.60
   1  -8  -8   51.39    1.80
   1  -8  -8   48.50    2.00
  -1   8   8   51.49    1.80
   1  -8  -7   11.30    1.20
  -1   8   7   10.60    1.00
   1  -8  -7   11.70    1.10
  -1   8   7   11.70    0.90
  -1   8   6   -0.20    0.40
  -1   8   6    0.70    0.50
   1  -8  -6    0.80    0.70
   1  -8  -6    0.50    0.50
   1  -8  -5    6.00    1.00
   1  -8  -5    4.00    0.90
   1  -8  -4   46.20    2.50
   1  -8  -4   42.60    2.50
   1  -8  -3  432.76    8.00
   1  -8  -3  445.46    7.80
   1  -8  -2  305.17    6.40
   1  -8  -2  302.77    6.70
   1  -8  -1    1.60    0.70
   1  -8   0   41.40    2.20
   1  -8   0   43.10    2.40
   1  -8   1    4.00    1.00
   1  -8   1    6.00    0.90
   1  -8   2  106.79    4.10
   1  -8   3    3.10    1.00
   1  -8   4  151.98    4.00
   1  -8   4  176.08    5.20
   1  -8   5    7.10    1.00
   1  -8   5    7.90    1.30
   1  -8   6    1.40    0.60
   1  -8   6    0.90    0.70
   1  -8   7    1.20    0.50
   1  -8   7    2.40    0.80
   1  -8   8   22.40    1.70
   1  -8   8   25.00    1.70
   1  -8   9   10.30    1.20
   1  -8  10    0.20    0.50
   1  -8  10   -1.60    0.70
   1  -8  11   23.40    1.20
   1  -8  11   30.70    1.70
   1  -8  12    1.50    0.50
   1  -8  13   20.80    1.00
   1  -7 -11   56.59    1.70
  -1   7  11   60.69    1.60
  -1   7  10    0.80    0.40
   1  -7 -10    0.30    0.40
   1  -7 -10    0.70    0.30
  -1   7  10    0.10    0.40
  -1   7  10    1.10    0.50
   1  -7  -9    3.30    0.70
  -1   7   9    3.60    0.70
  -1   7   9    2.80    0.70
   1  -7  -9    2.90    0.60
   1  -7  -8  201.58    5.00
  -1   7   8  203.28    4.30
   1  -7  -8  204.58    4.50
   1  -7  -7  218.78    5.60
  -1   7   7  230.58    4.80
   1  -7  -7  230.48    5.20
   1  -7  -6    0.30    0.60
   1  -7  -6    0.60    0.70
   1  -7  -6   -0.40    0.60
  -1   7   6    0.60    0.60
   1  -7  -5   50.29    2.80
   1  -7  -5   50.09    2.70
   1  -7  -5   47.90    2.40
   1  -7  -4    5.70    1.00
   1  -7  -4    4.70    1.00
   1  -7  -4    4.20    0.90
   1  -7  -3   13.40    1.50
   1  -7  -3   13.30    1.50
   1  -7  -3   14.60    1.40
   1  -7  -2    8.10    1.10
   1  -7  -2    6.50    1.00
   1  -7  -2    8.20    2.40
   1  -7  -2    6.30    1.00
   1  -7  -1   11.80    1.30
  -1   7   1   12.10    2.70
   1  -7  -1   12.10    1.40
   1  -7  -1   14.00    3.20
   1  -7  -1   14.30    1.50
   1  -7  -1   10.10    1.20
   1  -7  -1   15.90    1.80
   1  -7   0  314.07    6.70
   1  -7   0  303.57   13.70
   1  -7   0  310.17    6.80
  -1   7   0  308.77   12.40
  -1   7   0  314.97   13.10
   1  -7   0  302.37    6.10
   1  -7   0  309.47    7.00
   1  -7   0  298.17    5.90
  -1   7  -1 1109.59   23.30
  -1   7  -1 1142.69   24.80
   1  -7   1 1108.59   12.80
   1  -7   1 1130.19   26.10
   1  -7   1 1100.39   10.90
   1  -7   1 1102.79   13.20
  -1   7  -2  680.23   18.20
   1  -7   2  660.73   10.20
   1  -7   2  674.33    9.60
   1  -7   2  664.03   19.70
  -1   7  -3   34.30    4.10
   1  -7   3   42.50    2.60
   1  -7   3   38.70    4.70
   1  -7   4   53.89    3.00
   1  -7   4   53.99    2.90
   1  -7   4   52.19    5.60
   1  -7   4   47.80    2.20
  -1   7  -4   55.19    5.20
   1  -7   5    1.20    0.70
  -1   7  -5    2.30    1.40
   1  -7   5    1.00    0.70
   1  -7   5   -0.20    0.60
   1  -7   5    1.20    1.30
   1  -7   6    1.90    0.80
   1  -7   6    0.90    0.50
   1  -7   6    0.00    0.70
   1  -7   7  141.39    4.40
   1  -7   7  141.29    4.80
   1  -7   7  143.69    4.20
   1  -7   8   39.40    2.30
   1  -7   8   38.50    2.50
   1  -7   8   40.40    2.40
   1  -7   8   40.10    2.40
   1  -7   9  103.39    3.60
   1  -7   9  109.39    3.60
   1  -7  10  162.58    4.60
   1  -7  10  154.68    4.00
   1  -7  11   78.79    2.80
   1  -7  11   79.69    3.10
   1  -7  12   35.50    1.90
   1  -7  12   33.90    1.70
   1  -7  13    3.80    0.60
  -1   7 -13    4.40    0.60
   1  -7  14    0.10    0.30
  -1   7 -14    0.20    0.30
  -1   6  12    2.00    0.40
  -1   6  12    2.60    0.50
   1  -6 -12    2.80    0.60
  -1   6  11    1.50    0.40
  -1   6  11    2.40    0.60
   1  -6 -11    2.80    0.70
  -1   6  11    2.10    0.60
  -1   6  11    2.30    0.50
   1  -6 -11    1.50    0.40
   1  -6 -10   19.80    1.30
  -1   6  10   18.60    1.40
   1  -6 -10   20.40    1.30
  -1   6  10   20.60    1.50
   1  -6 -10   18.40    1.50
   1  -6  -9  103.49    3.80
   1  -6  -9   97.49    3.10
  -1   6   9  105.39    3.30
   1  -6  -9  104.19    3.30
   1  -6  -9  100.29    3.50
  -1   6   9  105.99    3.40
   1  -6  -8   75.19    3.40
   1  -6  -8   69.19    2.80
   1  -6  -8   73.19    3.00
   1  -6  -8   72.59    3.20
  -1   6   8   74.99    2.90
  -1   6   8   75.39    3.00
   1  -6  -7   51.69    2.90
   1  -6  -7   51.59    2.60
  -1   6   7   53.79    2.50
   1  -6  -7   52.99    3.00
   1  -6  -6  198.68    5.60
   1  -6  -6  191.58    4.90
   1  -6  -6  184.68    5.50
   1  -6  -5  179.28    5.20
  -1   6   5  175.78   10.70
   1  -6  -5  176.08    4.70
   1  -6  -5  171.48    5.20
   1  -6  -5  178.38    4.50
   1  -6  -4    3.00    0.80
   1  -6  -4    3.10    0.80
  -1   6   4    0.60    1.10
   1  -6  -4    4.40    1.00
   1  -6  -4    3.60    0.90
   1  -6  -4    3.30    0.90
   1  -6  -3   11.20    1.30
   1  -6  -3   10.40    1.30
  -1   6   3   10.10    2.30
   1  -6  -3   10.90    1.30
   1  -6  -3    9.90    1.20
   1  -6  -3    8.80    2.20
  -1   6   2   17.20    3.00
   1  -6  -2   14.00    2.80
   1  -6  -1   -0.20    1.30
  -1   6   1    0.00    0.90
  -1   6   1    0.20    0.80
  -1   6   0  217.18    9.40
   1  -6   0  217.78   10.30
  -1   6   0  216.48    9.80
   1  -6   1  690.83   18.10
  -1   6  -1  693.23   16.50
  -1   6  -2  127.09    7.00
   1  -6   2  124.29    7.60
  -1   6  -3   11.00    2.30
   1  -6   3    9.40    2.20
  -1   6  -3    7.90    1.90
   1  -6   4  391.06   13.60
  -1   6  -4  386.16   13.00
  -1   6  -4  394.16   12.70
  -1   6  -5  466.15   14.20
  -1   6  -5  449.56   14.80
   1  -6   5  449.66   14.80
  -1   6  -6  275.67   11.20
  -1   6  -6  286.27   12.40
   1  -6   6  275.47    5.50
   1  -6   6  269.47    6.40
   1  -6   6  268.77    6.00
   1  -6   6  282.97   11.90
   1  -6   7   34.20    2.10
   1  -6   7   28.50    3.90
  -1   6  -7   29.70    4.20
   1  -6   7   35.90    2.20
  -1   6  -7   32.60    4.20
   1  -6   7   34.50    2.00
   1  -6   7   32.00    2.30
  -1   6  -8   29.10    4.30
   1  -6   8   33.80    2.10
   1  -6   8   33.90    2.20
   1  -6   8   33.50    2.40
  -1   6  -8   32.30    4.50
   1  -6   8   32.60    2.10
   1  -6   9   24.00    1.90
   1  -6   9   22.90    1.70
   1  -6   9   23.70    2.00
   1  -6   9   23.60    1.80
   1  -6  10    6.40    1.10
   1  -6  10    5.80    1.00
   1  -6  11    1.70    0.70
   1  -6  11    3.30    0.90
   1  -6  12   50.09    2.50
   1  -6  12   49.70    2.40
   1  -6  12   48.70    2.40
   1  -6  12   47.60    2.50
   1  -6  13   98.29    3.20
   1  -6  13  101.49    3.20
  -1   6 -13   94.49    2.80
   1  -6  13   90.89    3.00
   1  -6  14  157.78    3.60
  -1   6 -14  156.68    3.10
  -1   6 -14  160.08    3.60
   1  -6  15  179.08    3.20
  -1   6 -15  180.68    3.20
  -1   5  14   42.20    1.30
   1  -5 -14   43.50    1.40
  -1   5  13    1.10    0.40
  -1   5  13    0.80    0.40
   1  -5 -13    1.20    0.50
  -1   5  12   29.20    1.70
  -1   5  12   30.70    1.70
  -1   5  12   29.80    1.60
   1  -5 -12   29.60    1.50
   1  -5 -12   30.80    1.80
  -1   5  11  332.27    5.90
  -1   5  11  332.87    5.90
   1  -5 -11  314.97    5.60
   1  -5 -11  325.67    6.30
   1  -5 -10  203.38    4.50
   1  -5 -10  209.38    5.00
   1  -5 -10  205.88    5.40
  -1   5  10  219.88    5.10
  -1   5  10  216.38    5.10
  -1   5   9  109.39    3.70
  -1   5   9  112.59    3.70
   1  -5  -9  106.39    4.00
   1  -5  -9  106.19    3.90
   1  -5  -9  101.39    3.50
  -1   5   8    8.20    1.00
  -1   5   8    9.00    1.20
   1  -5  -8    7.30    1.10
   1  -5  -8    9.10    1.30
   1  -5  -8    7.60    1.20
   1  -5  -7   53.59    2.90
   1  -5  -7   53.89    5.20
   1  -5  -7   48.80    2.50
  -1   5   7   54.59    2.60
   1  -5  -7   54.79    2.70
  -1   5   7   53.99    5.90
  -1   5   7   51.29    5.90
   1  -5  -7   51.69    2.80
   1  -5  -6    7.00    1.10
   1  -5  -6    8.00    1.20
   1  -5  -6    6.90    1.10
  -1   5   6    8.70    2.60
   1  -5  -6    6.80    1.00
  -1   5   6    8.50    1.00
  -1   5   5  178.58    9.70
   1  -5  -5  172.48    8.30
   1  -5  -4  180.58    7.70
  -1   5   4  179.58    9.20
   1  -5  -4  179.88    8.50
  -1   5   3    9.60    2.10
   1  -5  -3   11.20    2.20
   1  -5  -2  429.66   12.90
  -1   5   2  419.96   12.20
  -1   5   2  425.16   12.60
   1  -5  -1  308.97   10.80
  -1   5   1  321.97   10.70
  -1   5   1  306.37   10.10
   1  -5   0  479.95   13.20
  -1   5   0  474.05   12.10
  -1   5  -1   80.19    4.90
   1  -5   1   79.89    5.30
  -1   5  -2   95.49    5.40
  -1   5  -2   94.69    5.40
   1  -5   2   86.79    5.50
  -1   5  -3  214.98    7.20
   1  -5   3  233.68    9.10
  -1   5  -3  215.68    8.40
   1  -5   3  212.58    7.60
   1  -5   4  769.52   16.80
   1  -5   4  768.12   14.60
  -1   5  -4  768.12   16.70
   1  -5   5 1497.95   24.00
   1  -5   5 1446.36   20.60
  -1   5  -5 1466.75   24.40
   1  -5   6  332.77   10.30
   1  -5   6  351.16   11.80
  -1   5  -6  340.07   12.60
   1  -5   7   31.30    3.40
  -1   5  -7   35.40    4.40
   1  -5   7   27.40    3.50
   1  -5   8   10.40    1.10
   1  -5   8    9.90    1.30
  -1   5  -8   11.40    2.70
   1  -5   8   10.60    1.30
   1  -5   9    2.80    0.70
   1  -5   9    3.30    0.80
   1  -5   9    3.80    0.90
   1  -5   9    2.80    0.90
   1  -5  10   81.19    3.60
   1  -5  10   84.49    3.40
   1  -5  10   81.09    3.30
   1  -5  10   84.19    3.40
   1  -5  11    9.20    1.20
  -1   5 -11    8.20    1.10
   1  -5  11    9.30    1.30
   1  -5  11    8.30    1.20
   1  -5  12   18.20    1.60
  -1   5 -12   20.90    1.60
   1  -5  12   18.50    1.60
   1  -5  12   20.50    1.70
   1  -5  13  179.88    4.60
  -1   5 -13  184.68    4.30
   1  -5  13  190.28    4.80
   1  -5  13  181.48    4.60
  -1   5 -14  280.07    4.80
   1  -5  14  287.27    5.40
  -1   5 -14  288.87    5.30
   1  -5  14  286.17    5.30
   1  -5  15   30.80    1.60
  -1   5 -15   29.50    1.40
  -1   5 -15   30.30    1.50
   1  -5  15   28.70    1.50
  -1   5 -16    6.00    0.60
  -1   5 -16    5.40    0.50
  -1   5 -16    5.80    0.60
   1  -5  16    5.60    0.60
   1  -4 -15    1.60    0.40
  -1   4  15    1.20    0.40
  -1   4  14    2.00    0.50
  -1   4  14    1.30    0.30
   1  -4 -14    1.20    0.50
  -1   4  13   26.10    1.40
  -1   4  13   27.20    1.60
  -1   4  13   28.40    1.70
   1  -4 -13   24.70    1.60
   1  -4 -12  486.75    7.60
   1  -4 -12  485.25    6.70
  -1   4  12  486.65    7.20
  -1   4  12  510.75    7.60
  -1   4  12  491.65    7.10
   1  -4 -11  372.46    7.10
   1  -4 -11  355.36    6.40
  -1   4  11  367.76    6.60
   1  -4 -11  351.76    6.20
  -1   4  11  386.36    7.00
  -1   4  10  509.85    8.10
   1  -4 -10  494.15    7.70
   1  -4 -10  503.85    8.00
   1  -4 -10  502.35    8.50
  -1   4  10  527.25    8.20
  -1   4   9  144.49    3.80
   1  -4  -9  152.68    4.40
  -1   4   9  162.88    4.60
  -1   4   9  160.98    4.60
  -1   4   9  156.18    4.20
   1  -4  -9  149.29    4.00
   1  -4  -9  156.58    4.60
   1  -4  -9  155.38    4.80
   1  -4  -8   29.60    1.80
   1  -4  -8   27.20    1.90
   1  -4  -8   28.10    3.80
  -1   4   8   21.50    3.80
  -1   4   8   29.80    1.80
  -1   4   8   27.20    1.90
   1  -4  -8   31.40    2.10
   1  -4  -8   31.40    2.10
  -1   4   8   32.70    4.50
  -1   4   7   96.99    7.30
   1  -4  -7  109.39    7.00
  -1   4   7  104.79    7.60
   1  -4  -6   58.29    4.90
  -1   4   6   61.39    5.50
   1  -4  -5   61.19    4.50
   1  -4  -5   63.19    4.80
  -1   4   5   62.59    5.20
  -1   4   4   91.29    5.70
  -1   4   4   89.19    4.50
   1  -4  -4   96.29    5.60
   1  -4  -4   98.49    5.40
   1  -4  -3  493.15   10.80
   1  -4  -3  488.45   12.30
  -1   4   3  511.55   12.50
   1  -4  -2  722.73   14.60
  -1   4   2  742.53   14.30
   1  -4  -2  741.23   11.40
  -1   4   2  745.03   14.30
   1  -4  -1   45.20    3.60
   1  -4  -1   45.10    2.40
  -1   4   1   43.20    3.40
  -1   4   0  101.99    4.90
   1  -4   0  102.29    5.20
  -1   4   0  105.09    3.30
   1  -4   1    5.70    1.20
  -1   4  -1    6.70    1.30
  -1   4  -1    5.60    1.30
   1  -4   1    6.10    1.50
  -1   4  -1    6.60    1.00
   1  -4   2  390.76    8.90
  -1   4  -2  374.76    8.20
  -1   4  -2  386.66    9.60
   1  -4   2  395.16   10.10
   1  -4   3  298.07    9.00
  -1   4  -3  295.27    8.70
   1  -4   3  303.27    8.00
  -1   4  -4   14.70    2.20
   1  -4   4   13.50    1.80
   1  -4   4   10.70    1.90
   1  -4   5   52.59    3.70
  -1   4  -5   56.09    4.50
  -1   4  -5   58.69    4.50
   1  -4   5   57.49    4.10
   1  -4   6   62.79    4.20
   1  -4   6   70.39    4.70
  -1   4  -6   66.49    5.20
  -1   4  -6   72.79    5.60
   1  -4   7  365.96   10.80
   1  -4   7  394.96   11.30
  -1   4  -7  382.96   13.60
  -1   4  -7  358.16   12.60
  -1   4  -8  518.35   16.50
  -1   4  -8  489.05   15.30
   1  -4   8  479.45   13.30
   1  -4   9 1058.49   11.20
   1  -4   9 1077.79   21.30
   1  -4   9 1106.09   12.50
   1  -4  10    1.70    0.60
   1  -4  10    1.30    0.70
   1  -4  10    2.10    0.70
   1  -4  10   -1.20    1.00
  -1   4 -10    0.40    1.10
   1  -4  10    1.80    0.80
  -1   4 -11  207.28    5.10
   1  -4  11  207.48    5.20
   1  -4  11  206.68    5.30
   1  -4  11  201.18    5.20
   1  -4  12   32.60    2.20
   1  -4  12   31.60    2.10
  -1   4 -12   31.40    1.90
  -1   4 -12   30.20    2.00
   1  -4  12   32.50    2.10
   1  -4  13   10.60    1.20
   1  -4  13   10.00    1.20
   1  -4  13    8.90    1.20
  -1   4 -13    8.60    1.10
  -1   4 -14    3.30    0.80
  -1   4 -14    3.40    0.70
   1  -4  14    4.10    0.90
   1  -4  14    3.30    0.80
  -1   4 -15    2.50    0.60
  -1   4 -15    3.20    0.60
   1  -4  15    3.00    0.70
   1  -4  15    2.70    0.70
  -1   4 -16  123.89    2.70
  -1   4 -16  121.09    2.70
   1  -4  16  119.29    2.80
  -1   4 -16  116.69    2.40
   1  -3 -15   20.60    1.20
  -1   3  15   20.40    1.10
  -1   3  15   21.50    1.20
   1  -3 -14   68.19    2.60
  -1   3  14   72.49    2.60
  -1   3  14   64.99    2.30
   1  -3 -14   66.99    2.20
   1  -3 -13  183.98    4.20
   1  -3 -13  188.78    4.70
  -1   3  13  186.48    4.10
  -1   3  13  185.88    4.40
  -1   3  13  182.68    4.20
  -1   3  13  196.98    4.80
  -1   3  12    0.50    0.50
  -1   3  12    1.20    0.60
  -1   3  12    0.80    0.70
  -1   3  12    0.60    0.60
   1  -3 -12    0.10    0.40
   1  -3 -12    0.70    0.60
  -1   3  11   60.19    2.90
   1  -3 -11   55.39    2.80
   1  -3 -11   55.89    2.60
  -1   3  11   56.39    2.70
  -1   3  10    4.80    0.90
  -1   3  10    3.90    0.90
   1  -3 -10    2.30    1.70
  -1   3  10    7.00    2.10
  -1   3  10    8.70    2.40
   1  -3 -10    4.20    0.80
   1  -3 -10    3.90    0.90
  -1   3  10    4.90    0.80
  -1   3  10    4.20    0.90
   1  -3  -9   49.50    4.90
  -1   3   9   48.70    2.40
  -1   3   9   48.40    2.30
   1  -3  -9   47.80    2.40
  -1   3   9   48.10    2.50
  -1   3   9   45.60    2.20
   1  -3  -9   46.30    2.30
  -1   3   9   43.50    5.10
  -1   3   9   48.50    5.20
   1  -3  -8 1095.69   21.50
  -1   3   8 1120.19   24.20
  -1   3   8 1096.69   23.60
  -1   3   7 1456.25   26.00
   1  -3  -7 1528.95   23.90
  -1   3   7 1468.05   25.50
   1  -3  -6  281.47    8.50
   1  -3  -6  294.67   10.00
  -1   3   6  299.07   10.70
  -1   3   5  215.58    8.20
  -1   3   5  226.18    6.70
   1  -3  -5  237.88    8.30
   1  -3  -5  219.18    7.60
   1  -3  -4   17.00    2.10
   1  -3  -4   19.00    2.30
  -1   3   4   19.20    1.90
  -1   3   4   19.10    2.30
   1  -3  -3  137.19    5.60
  -1   3   3  137.59    5.50
   1  -3  -3  128.79    5.10
  -1   3   2  143.19    5.40
   1  -3  -2  149.49    4.70
   1  -3  -2  141.59    5.50
   1  -3  -1   64.59    3.70
   1  -3  -1   66.59    2.60
  -1   3   1   67.59    2.30
  -1   3   1   68.89    3.60
  -1   3   0  307.47    7.00
  -1   3   0  314.17    7.20
   1  -3   0  293.17    7.50
   1  -3   0  300.87    6.90
  -1   3   0  298.17    5.30
   1  -3   0  311.57    4.30
  -1   3  -1 1075.09   11.60
   1  -3   1 1030.20   12.40
   1  -3   1 1049.99   14.00
  -1   3  -1 1031.20   13.10
   1  -3   2 2597.14   22.10
  -1   3  -2 2557.54   21.20
  -1   3  -3  372.06    8.70
   1  -3   3  393.36    8.20
  -1   3  -3  382.86    8.70
   1  -3   4  308.67    7.80
   1  -3   4  295.87    7.50
  -1   3  -4  288.97    8.70
  -1   3  -4  297.07    8.40
   1  -3   5   87.19    4.70
   1  -3   5   88.69    4.40
   1  -3   5   97.49    4.50
  -1   3  -5   91.09    5.50
  -1   3  -6  256.87    9.90
   1  -3   6  252.97    7.50
   1  -3   6  243.98    7.90
   1  -3   7  307.27    9.80
  -1   3  -7  326.67   11.70
   1  -3   8  167.48    7.90
  -1   3  -8  181.78    9.10
   1  -3   9   35.90    3.90
  -1   3  -9   31.90    4.10
  -1   3  -9   35.40    3.90
   1  -3  10   16.40    1.50
   1  -3  10   15.80    1.50
  -1   3 -10   15.40    1.40
  -1   3 -10   14.30    2.80
   1  -3  10   15.20    1.40
   1  -3  10   14.10    2.70
   1  -3  11    3.60    0.90
   1  -3  11    3.50    0.80
   1  -3  11    1.50    0.60
   1  -3  11    3.60    0.70
   1  -3  11    2.00    1.30
  -1   3 -11    3.20    0.70
   1  -3  12   99.79    3.50
   1  -3  12   98.79    3.70
  -1   3 -12   98.19    3.50
   1  -3  12   99.99    3.40
  -1   3 -12   95.79    3.30
   1  -3  12  100.59    3.70
  -1   3 -13   69.19    3.00
   1  -3  13   68.49    2.80
  -1   3 -13   67.39    2.60
   1  -3  13   69.19    3.00
   1  -3  13   69.89    2.80
   1  -3  13   68.69    3.00
  -1   3 -13   68.69    2.80
   1  -3  14    0.20    0.60
   1  -3  14    0.00    0.60
  -1   3 -14    0.10    0.50
  -1   3 -14    0.30    0.50
   1  -3  14    0.40    0.50
  -1   3 -15   11.10    1.00
  -1   3 -15   10.70    0.90
   1  -3  15   10.90    1.10
  -1   3 -15   11.10    1.10
   1  -3  15   10.00    1.10
   1  -3  15   10.80    1.00
   1  -3  16    0.60    0.50
   1  -3  16    1.50    0.40
  -1   3 -16    0.20    0.30
  -1   3 -16    0.80    0.40
  -1   3 -16    0.20    0.40
  -1   2  16    0.00    0.30
  -1   2  16    0.40    0.40
   1  -2 -16    0.50    0.30
  -1   2  15  338.97    5.30
  -1   2  15  327.67    5.10
   1  -2 -15  325.47    4.70
   1  -2 -15  341.97    5.50
  -1   2  14  331.67    5.80
   1  -2 -14  334.07    5.50
   1  -2 -14  345.87    6.20
  -1   2  14  343.17    6.10
  -1   2  13   30.40    2.00
   1  -2 -13   29.50    1.80
   1  -2 -13   27.60    1.80
  -1   2  13   29.90    1.90
  -1   2  13   30.10    2.00
  -1   2  12   24.80    1.90
   1  -2 -12   25.20    1.80
   1  -2 -12   25.20    1.90
  -1   2  12   25.70    1.80
  -1   2  12   25.10    1.70
   1  -2 -12   24.90    1.80
   1  -2 -11    1.40    0.60
  -1   2  11    1.30    0.70
   1  -2 -11    1.40    0.60
  -1   2  11    1.30    0.60
  -1   2  11    1.20    0.70
   1  -2 -11    1.50    0.60
   1  -2 -10   13.40    1.30
  -1   2  10   11.90    2.50
   1  -2 -10   12.20    1.20
  -1   2  10   12.70    1.30
  -1   2  10   14.10    1.30
   1  -2 -10   14.80    2.70
  -1   2  10   12.00    1.20
   1  -2 -10   13.90    1.40
  -1   2  10   12.20    1.30
   1  -2  -9    1.90    1.30
  -1   2   9    1.80    1.60
  -1   2   9    0.30    1.20
   1  -2  -8  304.37   10.70
  -1   2   8  307.07   11.90
  -1   2   8  318.67   11.40
  -1   2   7   73.59    5.50
   1  -2  -7   81.49    5.60
  -1   2   7   75.79    5.30
  -1   2   6    5.00    1.60
  -1   2   6    4.00    1.10
   1  -2  -6    4.70    1.50
   1  -2  -6    6.20    1.20
  -1   2   6    5.60    1.50
   1  -2  -5   39.10    3.60
   1  -2  -5   37.40    2.80
  -1   2   5   37.50    2.60
  -1   2   5   34.70    3.00
   1  -2  -4 1052.29   14.00
  -1   2   4 1008.90   13.90
  -1   2   4 1022.90   12.40
  -1   2   3  939.31   11.90
   1  -2  -3  951.50   12.60
  -1   2   2    0.40    0.60
   1  -2  -2    0.60    0.70
   1  -2  -1   34.00    2.10
  -1   2   1   32.00    1.50
   1  -2  -1   32.10    2.10
  -1   2   1   31.60    2.00
   1  -2   0  110.99    3.00
   1  -2   0  105.59    3.40
  -1   2   0  108.09    3.00
  -1   2   0  102.59    3.50
   1  -2   0  104.99    3.70
   1  -2   1  438.56    6.90
   1  -2   1  425.46    7.20
  -1   2  -1  436.36    7.10
  -1   2  -2  247.38    5.60
   1  -2   2  250.47    5.50
   1  -2   2  252.27    5.50
  -1   2  -2  246.28    5.80
  -1   2  -3  196.78    5.90
   1  -2   3  197.98    5.30
   1  -2   3  194.38    4.90
   1  -2   4  897.61   11.60
  -1   2  -4  934.81    8.20
   1  -2   4  926.21   13.80
   1  -2   4  938.31   11.10
   1  -2   5 2284.57   24.00
   1  -2   5 2243.98   19.10
  -1   2  -5 2276.77   16.60
  -1   2  -5 2230.18   25.20
  -1   2  -6 2468.05   28.30
   1  -2   6 2470.15   27.70
  -1   2  -6 2477.45   20.40
   1  -2   7   69.09    5.10
  -1   2  -7   65.69    5.00
  -1   2  -7   64.19    3.70
   1  -2   8   27.00    3.50
  -1   2  -8   24.70    3.30
   1  -2   9    4.90    1.80
  -1   2  -9    5.00    1.70
   1  -2  10   30.60    4.10
  -1   2 -10   28.80    1.90
   1  -2  10   28.30    1.80
   1  -2  10   32.50    2.00
  -1   2 -11  188.98    4.80
   1  -2  11  189.78    5.00
   1  -2  11  185.28    4.60
  -1   2 -11  183.98    4.60
   1  -2  11  186.78    4.90
   1  -2  12   72.89    2.90
   1  -2  12   81.09    3.30
   1  -2  12   75.89    3.20
  -1   2 -12   82.69    3.20
  -1   2 -12   78.49    3.20
  -1   2 -12   78.69    3.00
   1  -2  13   -0.20    0.50
  -1   2 -13   -0.20    0.50
   1  -2  13    0.80    0.70
  -1   2 -13    0.80    0.50
   1  -2  13    0.20    0.60
  -1   2 -13   -0.30    0.50
  -1   2 -14  307.17    5.80
   1  -2  14  321.47    6.10
  -1   2 -14  302.07    5.80
  -1   2 -14  295.27    5.00
   1  -2  14  309.57    5.70
   1  -2  14  303.77    6.00
   1  -2  15  163.88    3.90
  -1   2 -15  164.88    3.90
   1  -2  15  164.08    3.80
  -1   2 -15  163.28    3.70
  -1   2 -15  162.08    3.80
  -1   2 -16    7.20    0.70
   1  -2  16    6.20    0.70
  -1   2 -16    7.60    0.80
   1  -2  16    7.20    0.80
   1  -1 -17    2.30    0.40
  -1   1  17    2.50    0.50
   1  -1 -16    0.80    0.30
  -1   1  16    1.40    0.40
   1  -1 -16    1.60    0.50
  -1   1  16    1.50    0.50
  -1   1  15    1.20    0.50
   1  -1 -15    0.90    0.50
  -1   1  15    0.70    0.50
   1  -1 -15    0.90    0.40
   1  -1 -14    7.50    1.00
   1  -1 -14    7.20    1.00
   1  -1 -14    5.70    0.90
  -1   1  14    7.80    1.10
  -1   1  14    7.90    1.10
   1  -1 -13   70.49    3.00
   1  -1 -13   73.89    3.10
  -1   1  13   74.99    3.10
   1  -1 -13   74.19    3.00
  -1   1  13   71.39    3.10
  -1   1  12  188.48    4.90
   1  -1 -12  184.88    4.90
   1  -1 -12  181.48    4.70
  -1   1  12  177.18    4.50
   1  -1 -12  185.68    4.80
   1  -1 -11 1077.49   11.10
  -1   1  11 1072.49   10.90
   1  -1 -11 1100.49   11.50
  -1   1  11 1078.09   11.10
   1  -1 -11 1114.69   11.60
  -1   1  11 1092.99   11.60
   1  -1 -11 1089.79   11.30
   1  -1 -11 1077.09   22.80
   1  -1 -10  851.11   19.00
  -1   1  10  839.72   18.90
   1  -1  -9  287.17   11.10
  -1   1   9  313.77   11.90
  -1   1   9  313.97   10.90
   1  -1  -8  169.28    6.50
  -1   1   8  159.28    8.00
  -1   1   8  154.68    7.20
   1  -1  -8  155.58    7.60
   1  -1  -7    0.90    0.80
  -1   1   7    1.60    1.00
  -1   1   7    1.30    1.00
  -1   1   6   94.49    5.30
  -1   1   6  103.09    5.10
   1  -1  -6  109.39    5.60
   1  -1  -5  183.48    6.80
  -1   1   5  185.78    5.70
  -1   1   5  176.38    6.50
  -1   1   5  180.18    5.90
  -1   1   4  448.46    7.90
   1  -1  -4  464.85    9.90
  -1   1   3   56.39    2.40
  -1   1   3   57.99    2.60
   1  -1  -3   59.89    3.20
  -1   1   2  238.38    4.20
   1  -1  -2  239.58    5.60
  -1   1   2  228.28    4.70
   1  -1  -1  767.52    8.40
  -1   1   1  752.22    7.50
   1  -1  -1  753.02    7.40
  -1   1   1  764.32    6.80
  -1   1   0  229.98    3.90
   1  -1   0  233.28    4.00
   1  -1   1  221.58    2.20
   1  -1   1  239.58    4.60
  -1   1  -1  233.88    4.20
   1  -1   1  233.38    3.00
   1  -1   1  235.18    4.30
  -1   1  -1  232.78    4.40
   1  -1   1  236.98    4.00
  -1   1  -1  233.78    2.80
  -1   1  -2   95.19    3.30
   1  -1   2   97.39    2.50
   1  -1   2   96.79    3.40
  -1   1  -2   95.89    2.20
  -1   1  -2   92.89    2.90
   1  -1   3  193.98    5.50
  -1   1  -3  199.28    4.10
   1  -1   3  200.48    3.60
  -1   1  -3  206.48    5.60
   1  -1   4  701.03   12.00
   1  -1   4  691.73    7.30
  -1   1  -4  703.23    9.40
  -1   1  -4  713.23   11.90
   1  -1   4  718.83    7.20
   1  -1   5 3088.49   15.70
   1  -1   5 3142.79   28.40
  -1   1  -5 3100.69   27.40
   1  -1   6  126.49    6.30
  -1   1  -6  126.29    6.00
  -1   1  -6  126.19    5.30
  -1   1  -7   26.60    3.00
   1  -1   7   25.60    3.20
  -1   1  -7   19.90    2.30
  -1   1  -8  126.49    6.20
  -1   1  -8  127.49    6.70
   1  -1   8  125.99    7.20
   1  -1   9  715.83   18.30
  -1   1  -9  730.43   15.60
   1  -1  10  218.78    5.10
  -1   1 -10  211.18    4.90
  -1   1 -10  215.88    5.00
   1  -1  10  204.98    4.60
   1  -1  10  225.08   10.80
   1  -1  10  214.48    5.00
   1  -1  11  107.79    3.80
  -1   1 -11  106.09    3.60
  -1   1 -11  108.99    3.60
  -1   1 -11  106.29    3.60
   1  -1  11  111.59    3.80
   1  -1  11  106.09    3.30
   1  -1  11  101.59    7.70
   1  -1  12    3.60    0.90
   1  -1  12    3.60    0.70
   1  -1  12    4.00    1.00
  -1   1 -12    3.90    0.80
  -1   1 -12    4.30    0.80
  -1   1 -12    4.60    0.80
  -1   1 -13   15.50    1.40
   1  -1  13   13.50    1.40
  -1   1 -13   16.80    1.50
   1  -1  13   14.20    1.50
  -1   1 -13   14.60    1.30
  -1   1 -14   17.10    1.50
  -1   1 -14   18.90    1.60
  -1   1 -14   18.20    1.30
   1  -1  14   17.40    1.50
  -1   1 -14   17.70    1.40
   1  -1  14   17.60    1.40
  -1   1 -15   50.39    2.00
  -1   1 -15   50.99    2.20
   1  -1  15   51.89    2.10
   1  -1  15   52.99    2.20
   1  -1  16   15.40    1.00
  -1   1 -16   18.90    1.10
   1  -1  16   17.40    1.10
  -1   1 -16   17.80    1.00
   1   0 -17   31.30    1.30
   1   0 -17   31.50    1.20
  -1   0  17   33.50    1.40
  -1   0  16   -0.10    0.50
   1   0 -16    1.30    0.40
  -1   0  16    0.20    0.40
   1   0 -16    0.90    0.50
   1   0 -15   65.39    2.50
  -1   0  15   69.19    2.50
   1   0 -15   67.29    2.60
  -1   0  15   62.39    2.40
   1   0 -15   67.99    2.70
  -1   0  15   70.89    2.90
  -1   0  14    3.20    0.70
  -1   0  14    3.50    0.80
   1   0 -14    2.90    0.70
   1   0 -14    4.50    0.80
   1   0 -14    4.00    0.90
  -1   0  14    3.60    0.90
   1   0 -13   15.40    1.50
  -1   0  13   15.60    1.40
   1   0 -13   16.60    1.50
   1   0 -13   15.00    1.40
  -1   0  13   14.90    1.40
  -1   0  13   14.50    1.50
   1   0 -13   15.70    1.50
  -1   0  12  281.27    5.70
   1   0 -12  277.37   11.50
   1   0 -12  292.77    6.00
   1   0 -12  281.67    5.80
  -1   0  12  290.47    5.90
   1   0 -12  288.97    6.00
  -1   0  12  287.77    6.30
   1   0 -12  283.47    5.90
   1   0 -11  294.17    5.70
   1   0 -11  300.47    5.80
   1   0 -11  307.17   11.60
  -1   0  11  275.87    5.50
  -1   0  11  287.97    5.70
  -1   0  11  293.67    6.10
  -1   0  10  145.49    7.50
   1   0 -10  134.59    7.50
   1   0 -10  146.09    7.30
  -1   0   9   49.80    4.10
   1   0  -9   53.89    4.30
   1   0  -9   48.70    4.30
   1   0  -8  166.88    7.10
  -1   0   8  164.48    6.80
  -1   0   8  176.48    6.20
   1   0  -8  162.48    7.30
   1   0  -7  703.93   14.20
  -1   0   7  718.03   12.90
  -1   0   7  694.63   14.40
  -1   0   7  719.03   12.10
  -1   0   6 2128.29   23.10
  -1   0   6 2152.28   20.20
   1   0  -6 2199.08   23.00
   1   0  -5   20.70    2.20
  -1   0   5   23.40    1.90
  -1   0   5   19.60    2.10
  -1   0   4    4.90    0.90
  -1   0   4    4.20    1.00
  -1   0   4    3.60    1.00
   1   0  -4    4.90    1.10
   1   0  -3   99.69    3.50
  -1   0   3   99.49    3.40
  -1   0   3   91.89    3.30
  -1   0   3   94.69    2.60
  -1   0   2    1.20    0.50
   1   0  -2    0.30    0.40
  -1   0   2    0.40    0.20
  -1   0   1  360.26    3.30
   1   0  -1  368.26    4.80
  -1   0   1  355.46    4.50
  -1   0   1  365.06    4.60
   1   0  -1  375.46    3.50
  -1   0   0  393.26    4.70
  -1   0   0  385.46    4.40
   1   0   1  378.16    5.90
  -1   0  -1  386.66    5.10
  -1   0  -1  397.76    5.00
  -1   0  -2   25.00    1.50
  -1   0  -2   23.80    1.00
   1   0   2   23.10    1.90
   1   0   3  797.32   11.90
  -1   0  -3  764.92    9.80
  -1   0  -4  113.59    4.40
  -1   0  -4  109.39    4.30
   1   0   4  115.79    5.10
   1   0   5   31.80    3.00
  -1   0  -5   30.40    2.60
  -1   0  -5   30.30    2.70
  -1   0  -6  183.28    6.70
  -1   0  -6  184.58    7.00
   1   0   6  176.28    7.40
   1   0   7   97.39    6.00
  -1   0  -7  100.29    5.50
   1   0   8  858.91   18.90
  -1   0  -8  922.61   17.60
  -1   0  -9 1965.70   27.20
   1   0   9 1907.81   30.10
   1   0  10  506.15    7.90
   1   0  10  503.55   16.40
   1   0  10  513.85    7.60
  -1   0 -10  488.45   14.30
   1   0  10  500.25    7.20
  -1   0 -10  512.35    7.70
   1   0  10  499.45    7.40
  -1   0 -10  497.65    7.60
   1   0  10  501.65    7.40
  -1   0 -10  517.75    7.80
   1   0  11   13.50    1.40
  -1   0 -11   14.30    1.40
   1   0  11   11.70    1.30
  -1   0 -11   11.50    2.50
   1   0  11   13.20    1.40
   1   0  11   11.10    2.80
   1   0  11   13.00    1.30
   1   0  11   11.80    1.30
   1   0  11   11.80    1.20
  -1   0 -11   13.30    1.40
  -1   0 -11   13.40    1.30
   1   0  12   28.40    1.80
   1   0  12   30.00    2.00
  -1   0 -12   28.60    1.80
   1   0  12   28.90    2.10
  -1   0 -12   29.80    2.00
  -1   0 -12   28.80    1.90
  -1   0 -12   29.50    2.00
   1   0  12   26.20    1.70
  -1   0 -13    6.10    0.90
   1   0  13    6.70    1.00
   1   0  13    6.70    1.00
   1   0  13    6.30    0.90
  -1   0 -13    5.40    0.90
  -1   0 -13    6.70    1.00
  -1   0 -13    4.90    0.80
  -1   0 -14    3.20    0.60
  -1   0 -14    3.20    0.80
   1   0  14    2.20    0.60
  -1   0 -14    2.70    0.50
  -1   0 -15   10.60    0.90
   1   0  15    9.30    1.00
  -1   0 -15   10.20    1.00
   1   0  15   10.20    0.90
  -1   0 -16   22.60    1.20
   1   0  16   23.40    1.20
   1   1 -17   54.39    1.70
  -1  -1  17   54.59    2.00
   1   1 -17   55.19    1.90
   1   1 -16  326.87    5.30
   1   1 -16  319.17    4.60
  -1  -1  16  307.57    5.00
   1   1 -16  315.07    4.80
   1   1 -16  327.77    5.10
  -1  -1  16  330.27    5.60
   1   1 -15  184.98    4.50
  -1  -1  15  179.88    4.40
   1   1 -15  194.08    4.50
   1   1 -15  184.18    4.30
  -1  -1  15  184.68    4.60
   1   1 -15  186.68    4.20
  -1  -1  14  104.19    3.60
   1   1 -14  107.99    3.50
   1   1 -14  105.89    3.50
  -1  -1  14  104.39    3.70
   1   1 -14  107.99    3.60
   1   1 -14  105.89    3.60
  -1  -1  13  193.78    5.10
  -1  -1  13  199.48    5.00
   1   1 -13  193.18    4.70
  -1  -1  13  189.08    4.60
  -1  -1  13  196.18    5.20
   1   1 -13  196.78    4.90
   1   1 -12    3.00    0.70
  -1  -1  12    2.50    0.70
  -1  -1  12    2.00    0.70
  -1  -1  12    2.00    0.60
   1   1 -12    2.70    0.80
   1   1 -12    3.00    1.80
   1   1 -12    2.90    1.30
  -1  -1  11    5.90    0.90
   1   1 -11    4.70    1.60
  -1  -1  11    4.30    0.80
   1   1 -11    4.60    0.70
  -1  -1  10   68.89    5.00
   1   1 -10   69.59    5.40
   1   1 -10   70.59    5.10
   1   1  -9  223.78    9.10
   1   1  -9  211.38    8.40
  -1  -1   9  231.78    7.70
  -1  -1   9  222.58    8.50
  -1  -1   8  914.51   15.80
  -1  -1   8  919.61   14.80
   1   1  -8  887.81   17.30
   1   1  -8  896.61   16.30
  -1  -1   7 2787.72   24.90
   1   1  -7 2770.82   26.50
  -1  -1   6 1575.94   16.70
   1   1  -6 1594.84   18.20
  -1  -1   6 1627.34   18.40
  -1  -1   5    5.00    0.90
   1   1  -5    4.00    1.10
  -1  -1   5    3.30    1.00
  -1  -1   4  248.78    4.70
   1   1  -4  248.68    5.70
  -1  -1   4  247.88    6.30
   1   1  -3  155.98    4.00
  -1  -1   2   93.79    2.70
   1   1  -2   90.99    2.80
   1   1  -2   92.39    2.60
  -1  -1   1  102.59    3.00
   1   1  -1  100.89    2.20
  -1  -1   1   97.79    2.70
   1   1   0   36.60    1.70
  -1  -1   0   40.70    1.90
  -1  -1   0   38.10    1.50
  -1  -1   0   37.20    1.80
  -1  -1  -1   49.50    1.90
  -1  -1  -1   49.90    1.60
  -1  -1  -1   49.80    1.60
   1   1   1   49.30    2.00
   1   1   1   49.90    2.40
  -1  -1  -1   49.30    2.30
   1   1   2  758.12    9.70
  -1  -1  -2  747.63    7.00
   1   1   2  772.92   11.10
  -1  -1  -2  788.32    9.90
  -1  -1  -3  282.97    5.10
   1   1   3  272.97    7.60
   1   1   3  294.97    7.00
  -1  -1  -3  286.47    7.00
  -1  -1  -4  299.87    6.10
  -1  -1  -4  298.67    8.10
   1   1   4  308.07    8.00
   1   1   4  292.27    8.60
  -1  -1  -5   27.10    2.80
  -1  -1  -5   27.80    2.20
   1   1   5   25.30    2.90
  -1  -1  -6  225.58    8.30
   1   1   6  209.28    8.60
  -1  -1  -6  219.88    6.60
   1   1   7   83.49    5.80
  -1  -1  -7   85.69    5.50
  -1  -1  -8    0.50    0.80
   1   1   8    2.20    1.40
  -1  -1  -9   82.99    6.00
   1   1   9   89.99    6.80
   1   1  10    3.20    0.70
   1   1  10    3.90    0.90
   1   1  10    2.90    0.70
  -1  -1 -10    3.00    0.80
  -1  -1 -10    3.60    0.80
  -1  -1 -10    3.60    0.80
   1   1  10    3.00    0.70
  -1  -1 -10    5.90    1.80
   1   1  10    3.20    0.70
  -1  -1 -10    2.40    0.60
   1   1  10    2.40    1.40
   1   1  11   32.50    2.00
  -1  -1 -11   31.00    2.00
  -1  -1 -11   32.90    2.10
   1   1  11   32.90    2.00
   1   1  11   34.10    2.10
  -1  -1 -11   30.20    2.00
   1   1  11   33.80    2.10
   1   1  11   32.60    2.00
  -1  -1 -11   31.40    1.80
  -1  -1 -12  353.36    6.10
   1   1  12  356.66    6.40
   1   1  12  366.56    6.50
  -1  -1 -12  357.36    6.80
   1   1  12  357.36    6.20
  -1  -1 -12  361.46    6.70
   1   1  13  620.74    7.90
   1   1  13  607.04    7.90
  -1  -1 -13  621.34    7.50
  -1  -1 -13  624.04    8.20
  -1  -1 -13  636.84    8.70
   1   1  13  618.04    7.70
  -1  -1 -14   84.79    2.60
  -1  -1 -14   86.59    2.50
   1   1  14   90.59    2.70
   1   1  14   84.39    2.50
  -1  -1 -14   90.79    3.00
   1   1  15   37.50    1.70
  -1  -1 -15   37.70    1.70
  -1  -1 -16   25.80    1.10
   1   1  16   25.70    1.10
   1   2 -18    5.10    0.50
   1   2 -17    3.60    0.50
   1   2 -17    3.70    0.60
  -1  -2  17    2.80    0.50
   1   2 -17    3.70    0.50
  -1  -2  16   18.20    1.40
   1   2 -16   17.60    1.30
   1   2 -16   19.70    1.30
   1   2 -16   18.30    1.20
  -1  -2  16   18.70    1.40
   1   2 -16   19.50    1.40
   1   2 -15   17.70    1.50
   1   2 -15   18.90    1.50
   1   2 -15   16.90    1.40
  -1  -2  15   17.90    1.50
  -1  -2  15   16.20    1.40
   1   2 -15   15.90    1.20
   1   2 -14   71.49    2.90
  -1  -2  14   69.49    3.00
   1   2 -14   68.49    2.70
  -1  -2  14   69.79    3.00
  -1  -2  14   64.79    2.90
  -1  -2  13    6.00    1.10
   1   2 -13    4.70    0.90
   1   2 -13    5.60    0.90
  -1  -2  13    5.40    1.00
  -1  -2  13    5.30    1.00
   1   2 -12  110.49    3.60
  -1  -2  12  111.59    3.80
   1   2 -12  107.69    7.70
   1   2 -12  110.09    3.40
  -1  -2  12  109.69    3.80
  -1  -2  12  107.59    3.80
  -1  -2  11   80.89    3.20
  -1  -2  11   80.89    3.10
  -1  -2  11   83.09    3.20
   1   2 -11   84.39    6.60
   1   2 -10  183.38    9.20
   1   2  -9  261.07   10.40
  -1  -2   9  262.37    8.60
  -1  -2   8   98.19    5.20
   1   2  -8   90.29    5.00
   1   2  -8   99.09    6.10
   1   2  -7   81.79    4.30
  -1  -2   7   84.29    4.70
   1   2  -6    4.80    1.10
  -1  -2   6    1.40    0.90
   1   2  -5    0.50    0.50
  -1  -2   5    1.70    0.80
  -1  -2   4 1831.42   10.80
   1   2  -4 1815.42   15.50
  -1  -2   4 1827.62   18.40
  -1  -2   3 4968.40   13.80
   1   2  -3 4968.50   21.40
   1   2  -3 4999.70   24.40
  -1  -2   3 5005.30   29.40
  -1  -2   2    7.60    1.20
   1   2  -2    7.00    0.80
  -1  -2   2    6.90    1.10
  -1  -2   2    7.30    0.90
   1   2  -1   19.50    1.10
  -1  -2   1   17.20    1.50
  -1  -2   1   19.50    1.80
  -1  -2   1   18.00    1.40
  -1  -2   0  244.38    5.80
   1   2   0  243.88    4.30
   1   2   0  244.18    5.50
  -1  -2   0  244.28    5.10
  -1  -2   0  241.48    5.20
   1   2   1  136.29    4.70
  -1  -2  -1  138.99    3.80
  -1  -2  -1  141.89    4.40
  -1  -2  -1  135.29    4.30
   1   2   2   39.50    2.90
  -1  -2  -2   35.80    2.20
  -1  -2  -2   38.70    2.60
  -1  -2  -3   58.49    3.60
   1   2   3   56.49    3.90
   1   2   3   55.39    3.30
  -1  -2  -3   58.99    2.60
   1   2   4   15.30    2.00
  -1  -2  -4   15.50    2.20
   1   2   4   15.60    2.40
  -1  -2  -5  944.71   17.30
   1   2   5  945.41   18.70
   1   2   5  972.00   16.70
   1   2   6 1977.60   25.90
   1   2   6 1938.71   28.70
  -1  -2  -6 1975.50   26.70
   1   2   7  366.56   13.20
  -1  -2  -7  359.16   12.00
  -1  -2  -8    1.40    1.20
   1   2   8    0.90    1.00
  -1  -2  -9  101.79    3.50
   1   2   9  103.29    3.50
   1   2   9  104.19    3.50
  -1  -2  -9  106.29    3.70
   1   2   9  105.09    7.80
   1   2   9  105.19    3.50
  -1  -2  -9  106.99    7.20
  -1  -2 -10   16.90    1.50
   1   2  10   16.70    1.50
   1   2  10   15.80    1.60
   1   2  10   14.70    1.40
  -1  -2 -10   16.20    1.50
   1   2  10   14.00    1.40
   1   2  11   35.30    2.10
  -1  -2 -11   35.70    2.20
   1   2  11   36.10    2.20
   1   2  11   36.70    2.10
  -1  -2 -11   38.80    2.30
   1   2  11   36.00    2.00
   1   2  11   37.00    2.20
   1   2  12  197.38    4.80
   1   2  12  186.48    4.60
   1   2  12  186.08    4.30
  -1  -2 -12  193.68    4.90
   1   2  12  188.48    4.70
  -1  -2 -12  196.08    4.80
   1   2  13   35.10    1.90
   1   2  13   36.10    1.90
  -1  -2 -13   35.90    1.90
   1   2  13   34.70    1.70
  -1  -2 -14  113.89    3.10
   1   2  14  114.79    2.90
  -1  -2 -14  106.69    2.70
   1   2  14  117.19    3.00
   1   2  15    7.30    0.70
  -1  -2 -15    8.30    0.70
   1   2  15    6.80    0.60
   1   3 -18  114.49    2.00
  -1  -3  17   45.80    1.70
   1   3 -17   46.90    1.70
   1   3 -17   45.70    1.70
   1   3 -16    4.70    0.70
   1   3 -16    5.00    0.80
   1   3 -16    6.30    0.80
  -1  -3  16    5.20    0.80
  -1  -3  16    5.70    0.80
   1   3 -15    6.10    0.90
  -1  -3  15    7.70    1.10
  -1  -3  15    6.20    0.90
  -1  -3  15    6.60    0.90
   1   3 -14    5.40    0.90
  -1  -3  14    4.70    0.80
  -1  -3  14    6.20    1.00
  -1  -3  14    4.10    0.80
  -1  -3  13  115.29    3.90
  -1  -3  13  118.39    3.90
   1   3 -13  116.29    3.70
  -1  -3  13  118.39    4.10
  -1  -3  12   40.60    2.40
  -1  -3  12   36.30    2.20
  -1  -3  12   37.10    2.20
  -1  -3  11  178.18    4.90
  -1  -3  11  171.78    4.50
  -1  -3  11  169.58    4.60
  -1  -3  11  164.68    4.60
  -1  -3  10 1032.40   19.00
   1   3 -10 1001.50   22.30
  -1  -3   9  516.75   13.30
   1   3  -9  509.35   15.00
   1   3  -8   34.70    3.80
  -1  -3   8   30.90    3.20
   1   3  -7    0.00    0.90
  -1  -3   7    0.00    0.70
   1   3  -7    1.40    0.70
  -1  -3   6  254.57    5.60
   1   3  -6  271.47    7.20
  -1  -3   6  259.47    8.60
  -1  -3   5  187.48    7.00
  -1  -3   5  191.18    4.30
   1   3  -5  190.68    5.70
  -1  -3   4  592.24   11.80
  -1  -3   4  613.34    6.70
  -1  -3   4  625.64   12.30
  -1  -3   3  278.97    5.90
   1   3  -3  273.87    5.60
  -1  -3   3  275.67    7.90
  -1  -3   3  262.47    7.40
   1   3  -2  169.88    4.30
  -1  -3   2  163.98    6.00
  -1  -3   2  159.18    5.50
  -1  -3   2  171.88    4.60
  -1  -3   1    3.60    1.20
   1   3  -1    1.50    0.40
  -1  -3   1    3.20    0.80
  -1  -3   1    3.50    1.00
  -1  -3   0 1282.87   14.80
   1   3   0 1265.07   12.60
  -1  -3   0 1276.57   13.90
   1   3   0 1292.17   15.50
  -1  -3   0 1260.37   16.30
   1   3   0 1284.37   11.10
   1   3   1 1398.56   17.60
  -1  -3  -1 1389.66   15.60
  -1  -3  -1 1369.06   17.00
   1   3   2    3.80    1.30
  -1  -3  -2    4.10    1.10
   1   3   3  404.26   11.40
  -1  -3  -3  392.86    8.40
  -1  -3  -3  375.66   10.00
   1   3   4  137.69    7.30
   1   3   4  131.99    6.30
  -1  -3  -4  127.49    6.40
   1   3   5   38.00    3.70
   1   3   5   35.60    4.10
  -1  -3  -5   37.70    3.90
  -1  -3  -6    1.10    1.10
   1   3   6    1.10    1.00
   1   3   6   -0.20    1.10
  -1  -3  -7    2.40    1.60
   1   3   7    0.80    1.20
   1   3   8  610.74   19.30
  -1  -3  -8  602.84    8.70
  -1  -3  -8  609.44    8.20
   1   3   8  608.14    8.20
   1   3   8  610.34    8.50
  -1  -3  -8  611.34    9.10
  -1  -3  -8  613.34   17.60
   1   3   9  899.71   10.10
  -1  -3  -9  913.21   11.20
  -1  -3  -9  909.41   10.00
  -1  -3  -9  897.91   10.80
   1   3   9  911.21   10.60
   1   3   9  914.91   10.40
   1   3  10  341.57    6.40
   1   3  10  353.66    6.80
   1   3  10  334.37    6.30
   1   3  10  329.37    6.10
  -1  -3 -10  330.77    6.50
  -1  -3 -10  342.07    6.80
   1   3  11  211.28    5.10
   1   3  11  203.98    4.70
  -1  -3 -11  205.28    5.00
  -1  -3 -11  210.68    5.10
   1   3  11  203.58    4.80
   1   3  11  212.58    4.90
  -1  -3 -12   38.30    2.10
   1   3  12   37.70    2.10
   1   3  12   37.10    1.90
   1   3  12   38.40    2.10
  -1  -3 -12   36.20    2.00
  -1  -3 -13    1.00    0.50
   1   3  13    1.30    0.50
   1   3  13    0.70    0.50
  -1  -3 -13    0.30    0.40
   1   3  14   18.80    1.00
  -1  -3 -14   20.30    1.20
   1   3  14   19.80    1.10
  -1  -3 -14   17.90    0.90
   1   4 -17    2.20    0.50
  -1  -4  17    1.70    0.50
   1   4 -17    1.30    0.40
   1   4 -16  186.68    3.80
   1   4 -16  182.18    3.70
  -1  -4  16  181.18    3.50
   1   4 -16  176.48    3.50
  -1  -4  15  264.17    5.10
  -1  -4  15  271.27    5.50
  -1  -4  15  282.77    5.10
   1   4 -15  268.97    4.80
   1   4 -14   81.39    2.90
  -1  -4  14   81.79    3.10
  -1  -4  14   87.79    3.10
  -1  -4  14   85.39    3.40
  -1  -4  13    0.70    0.70
  -1  -4  13    0.30    0.40
  -1  -4  13   -0.20    0.60
  -1  -4  12    1.10    0.70
  -1  -4  12    0.00    0.40
  -1  -4  12    0.10    0.60
   1   4 -11  146.49    9.20
  -1  -4  11  134.19    4.50
  -1  -4  11  136.59    4.10
  -1  -4  10   60.09    2.90
   1   4 -10   69.59    6.10
  -1  -4  10   58.69    2.90
  -1  -4  10   66.49    5.30
   1   4  -9   10.70    2.50
  -1  -4   9    6.10    1.90
   1   4  -8   51.89    4.80
  -1  -4   8   52.79    4.60
  -1  -4   7  779.62   17.40
   1   4  -7  763.32   17.50
  -1  -4   6 1431.36   22.80
   1   4  -6 1497.15   23.50
   1   4  -5  705.73   12.10
  -1  -4   5  687.23   15.30
   1   4  -5  720.33   15.30
  -1  -4   5  698.93   15.20
  -1  -4   4   98.49    5.60
   1   4  -4  101.79    5.30
   1   4  -4  103.19    4.60
  -1  -4   4  101.59    5.60
  -1  -4   3    2.60    1.20
   1   4  -3    3.30    0.90
  -1  -4   3    1.80    0.90
   1   4  -3    1.70    0.50
   1   4  -3    1.60    0.60
  -1  -4   3    2.70    0.70
   1   4  -2   14.50    1.50
   1   4  -2   13.50    1.70
  -1  -4   2   15.30    2.10
   1   4  -2   14.90    1.50
  -1  -4   2   14.90    2.30
  -1  -4   2   15.30    1.60
  -1  -4   1 1003.50   17.40
   1   4  -1  992.50   13.00
   1   4  -1 1002.40   13.00
  -1  -4   1  984.00   15.90
  -1  -4   1 1000.80   13.30
   1   4  -1  983.80   15.50
  -1  -4   0  685.73   14.40
   1   4   0  662.63   11.10
  -1  -4   0  652.43   11.40
   1   4   0  661.23    9.70
   1   4   0  677.13   13.40
  -1  -4  -1   72.69    4.70
   1   4   1   74.59    4.80
  -1  -4  -1   73.89    4.10
  -1  -4  -2  169.68    7.00
   1   4   2  170.58    7.80
  -1  -4  -2  150.68    6.30
   1   4   3  258.87   10.30
  -1  -4  -3  241.28    8.80
   1   4   4   32.40    4.10
  -1  -4  -4   27.30    3.30
   1   4   4   31.90    3.50
   1   4   5  156.38    9.30
   1   4   5  157.58    8.00
  -1  -4  -5  151.88    8.20
  -1  -4  -6   11.40    1.20
  -1  -4  -6   10.10    2.40
   1   4   6   15.30    3.20
  -1  -4  -6   11.90    1.30
   1   4   7   50.19    5.80
  -1  -4  -7   58.99    2.70
  -1  -4  -7   56.09    2.80
  -1  -4  -7   56.89    5.60
  -1  -4  -7   57.59    2.90
   1   4   7   55.89    2.40
   1   4   8  404.46    6.90
   1   4   8  395.06    6.50
  -1  -4  -8  404.56    7.00
   1   4   8  412.46    7.10
  -1  -4  -8  390.86    7.40
  -1  -4  -8  408.26    7.70
   1   4   9  276.27    5.70
  -1  -4  -9  276.67    6.20
  -1  -4  -9  269.77    6.00
  -1  -4  -9  283.27    5.70
   1   4   9  277.37    5.70
   1   4   9  267.47    5.30
   1   4  10  154.08    4.10
   1   4  10  163.08    4.50
   1   4  10  155.68    4.20
  -1  -4 -10  161.08    4.00
  -1  -4 -10  152.98    4.40
  -1  -4 -10  155.08    4.50
   1   4  11    4.00    0.80
   1   4  11    4.40    0.90
   1   4  11    4.40    0.90
  -1  -4 -11    4.60    0.80
   1   4  11    4.10    0.80
  -1  -4 -11    4.70    0.90
  -1  -4 -12   44.10    2.00
  -1  -4 -12   44.00    2.00
   1   4  12   45.20    1.90
   1   4  12   45.50    2.00
   1   4  13  120.99    2.70
   1   4  13  112.59    2.40
  -1  -4 -13  106.29    2.50
  -1  -4 -13  115.39    2.70
   1   4  13  107.99    2.20
   1   5 -17  128.39    2.40
   1   5 -17  122.49    2.20
  -1  -5  16  271.97    4.60
   1   5 -16  265.87    4.10
   1   5 -15  109.09    2.80
  -1  -5  15  105.79    3.00
  -1  -5  14    2.30    0.60
   1   5 -14    2.00    0.60
  -1  -5  13   39.60    2.40
  -1  -5  13   39.10    2.10
  -1  -5  12   21.30    1.90
  -1  -5  12   22.30    1.70
  -1  -5  11    1.40    0.60
  -1  -5  11    1.80    0.70
  -1  -5  10   50.99    2.50
  -1  -5  10   48.60    2.70
  -1  -5  10   46.80    4.90
  -1  -5  10   43.10    2.10
   1   5 -10   51.49    5.50
  -1  -5   9   67.69    2.80
   1   5  -9   66.49    6.00
  -1  -5   9   69.39    3.10
  -1  -5   8  158.78    9.00
   1   5  -8  156.18    8.90
   1   5  -7  405.46   13.60
  -1  -5   7  395.56   14.10
  -1  -5   6  353.26   12.70
   1   5  -6  334.77   11.60
  -1  -5   5   95.39    6.40
  -1  -5   5   90.69    6.30
   1   5  -5   89.39    5.50
   1   5  -4    7.30    1.40
  -1  -5   4    7.50    1.90
   1   5  -4    5.50    1.10
  -1  -5   4    9.40    2.20
   1   5  -4    5.20    1.40
  -1  -5   3  559.04   15.10
   1   5  -3  526.45   11.00
  -1  -5   3  528.35   14.10
   1   5  -3  528.15   12.30
   1   5  -2  570.64   13.40
  -1  -5   2  591.04   15.60
   1   5  -2  591.64   12.20
   1   5  -1  264.37    9.40
  -1  -5   1  278.67   10.80
  -1  -5   0   49.90    4.50
  -1  -5   0   43.40    3.30
   1   5   0   44.10    4.00
  -1  -5  -1    2.10    1.20
  -1  -5  -1    3.40    1.10
   1   5   1    3.90    1.50
   1   5   2    2.30    1.50
  -1  -5  -2    1.10    1.00
   1   5   3  147.19    8.80
  -1  -5  -3  147.19    7.50
   1   5   4  266.17   12.50
  -1  -5  -4  274.97    6.20
  -1  -5  -4  286.27    6.10
  -1  -5  -4  275.67   11.00
  -1  -5  -5   99.59    3.60
  -1  -5  -5   94.29    3.80
   1   5   5   94.69    7.90
  -1  -5  -5   97.09    3.60
  -1  -5  -5   92.69    6.80
  -1  -5  -6  172.68    5.00
  -1  -5  -6  165.68    5.10
   1   5   6  162.18    4.10
  -1  -5  -6  172.58    4.80
   1   5   7  247.58    5.40
  -1  -5  -7  249.97    6.20
  -1  -5  -7  262.37    5.80
   1   5   7  244.48    5.20
  -1  -5  -7  240.18    5.90
  -1  -5  -8   32.60    2.10
  -1  -5  -8   29.70    2.10
  -1  -5  -8   33.10    2.20
   1   5   8   33.40    1.90
   1   5   8   31.90    1.90
  -1  -5  -9    3.50    0.80
   1   5   9    2.60    0.60
  -1  -5  -9    2.20    0.60
   1   5   9    3.10    0.80
  -1  -5  -9    2.70    0.90
   1   5   9    3.40    0.70
   1   5  10    0.80    0.60
   1   5  10    1.00    0.50
  -1  -5 -10    0.80    0.40
  -1  -5 -10    0.60    0.50
   1   5  10    1.30    0.70
   1   5  10    1.40    0.50
  -1  -5 -10    0.30    0.60
   1   5  11   33.10    1.70
   1   5  11   30.40    1.60
  -1  -5 -11   30.40    1.70
  -1  -5 -11   30.10    1.60
  -1  -5 -11   27.70    1.30
   1   5  12  410.46    4.90
  -1  -5 -12  386.96    4.70
  -1  -5 -12  389.46    4.70
   1   5  12  404.76    4.60
   1   6 -16    3.10    0.40
  -1  -6  16    2.70    0.50
  -1  -6  15   15.00    1.20
  -1  -6  15   13.70    0.90
   1   6 -15   14.20    0.90
  -1  -6  15   12.70    0.90
  -1  -6  14    2.30    0.60
  -1  -6  14    1.40    0.40
   1   6 -14    1.80    0.50
  -1  -6  13  108.69    3.80
  -1  -6  13  102.29    3.10
  -1  -6  12  379.86    7.50
  -1  -6  12  357.96    6.10
  -1  -6  11  143.39    4.70
  -1  -6  11  136.39    3.90
  -1  -6  10    3.30    0.80
  -1  -6  10    0.40    0.80
  -1  -6   9   65.99    3.00
  -1  -6   9   67.79    3.10
  -1  -6   8   24.20    1.90
  -1  -6   8   24.00    3.90
  -1  -6   8   22.70    1.80
   1   6  -8   21.60    3.70
  -1  -6   7    0.50    0.40
  -1  -6   7   -0.30    1.00
  -1  -6   7    1.40    0.60
  -1  -6   7    0.60    0.40
   1   6  -7    2.10    1.30
  -1  -6   6    1.80    0.70
  -1  -6   6   -0.50    0.80
  -1  -6   6    1.70    0.60
   1   6  -6    1.40    0.90
  -1  -6   6    2.20    1.50
  -1  -6   5    2.90    1.50
   1   6  -5    3.60    1.50
  -1  -6   4  374.76   14.30
   1   6  -4  384.16   12.10
  -1  -6   3 2052.19   33.10
   1   6  -3 1932.81   27.90
   1   6  -2  497.15   14.40
  -1  -6   2  517.35   16.80
  -1  -6   1   65.89    6.10
   1   6  -1   62.19    5.30
  -1  -6   0   42.80    4.80
   1   6   0   40.40    4.40
  -1  -6  -1    0.70    0.60
   1   6   1   -0.40    1.00
  -1  -6  -1   -0.40    0.60
  -1  -6  -1    1.10    0.60
  -1  -6  -1    0.50    0.50
  -1  -6  -2   28.80    1.90
  -1  -6  -2   28.50    2.00
   1   6   2   30.60    4.30
  -1  -6  -2   26.30    1.90
  -1  -6  -2   27.40    2.00
   1   6   3   43.00    5.40
  -1  -6  -3   47.30    2.50
  -1  -6  -3   48.90    2.50
  -1  -6  -3   47.40    2.60
  -1  -6  -3   51.29    2.80
  -1  -6  -4   45.70    2.60
  -1  -6  -4   45.80    2.80
  -1  -6  -4   42.30    2.30
  -1  -6  -4   45.40    2.60
  -1  -6  -5  113.49    3.60
  -1  -6  -5  117.69    4.40
  -1  -6  -5  120.89    4.10
  -1  -6  -5  111.29    4.00
  -1  -6  -6  281.77    6.10
  -1  -6  -6  273.27    6.60
  -1  -6  -6  260.97    6.10
  -1  -6  -7   20.70    1.70
  -1  -6  -7   19.50    1.80
   1   6   7   19.70    1.40
  -1  -6  -7   17.10    1.60
   1   6   8   19.80    1.30
  -1  -6  -8   22.30    1.80
  -1  -6  -8   18.10    1.50
  -1  -6  -8   20.40    1.60
   1   6   8   19.30    1.30
   1   6   8   21.90    1.60
  -1  -6  -9    6.40    0.90
   1   6   9    7.50    1.00
  -1  -6  -9    6.60    0.90
   1   6   9    7.50    0.90
   1   6   9    6.30    0.70
   1   6  10   79.09    2.30
   1   6  10   77.49    2.40
  -1  -6 -10   75.09    2.30
  -1  -6 -10   77.39    2.10
  -1  -6 -10   78.99    2.50
   1   6  11    3.30    0.50
   1   6  11    2.90    0.50
   1   6  11    3.30    0.50
  -1  -6 -11    3.30    0.50
  -1  -7  15   10.60    0.80
  -1  -7  15    8.30    0.70
  -1  -7  14    8.50    0.90
  -1  -7  13    1.20    0.50
  -1  -7  12   55.49    2.10
  -1  -7  12   53.09    2.50
  -1  -7  11    0.90    0.60
  -1  -7  11   -0.90    0.70
  -1  -7  10   39.50    2.20
  -1  -7  10   46.80    2.50
  -1  -7   9    5.00    0.90
  -1  -7   9    3.40    0.80
  -1  -7   8  109.59    3.90
  -1  -7   8  111.79    3.80
  -1  -7   8  119.69    3.40
  -1  -7   7   23.80    1.90
  -1  -7   7   24.60    1.80
  -1  -7   7   26.30    1.80
  -1  -7   7   26.80    1.70
  -1  -7   6  154.88    4.40
  -1  -7   6  155.28    4.80
  -1  -7   5   53.49    2.50
  -1  -7   5   50.59    2.40
  -1  -7   5   53.39    2.60
  -1  -7   5   54.19    2.90
  -1  -7   4   67.69    2.80
  -1  -7   4   62.19    2.80
  -1  -7   4   61.39    2.80
  -1  -7   4   61.09    3.10
  -1  -7   3  145.69    4.00
  -1  -7   3  136.29    4.20
   1   7  -3  128.89    8.10
  -1  -7   3  141.79    4.60
  -1  -7   3  138.69    4.40
   1   7  -2    5.80    1.90
  -1  -7   2    5.50    1.00
  -1  -7   2    6.00    0.80
  -1  -7   2    5.90    1.10
  -1  -7   2    6.80    1.20
  -1  -7   2    5.30    2.20
  -1  -7   1   40.60    5.20
  -1  -7   1   38.30    2.50
  -1  -7   1   44.30    2.20
  -1  -7   1   42.90    2.30
  -1  -7   1   37.90    2.20
  -1  -7   1   39.20    2.10
   1   7  -1   35.60    4.30
  -1  -7   0  383.26    6.90
  -1  -7   0  397.86    7.20
  -1  -7   0  391.56    7.60
  -1  -7   0  398.76    7.00
  -1  -7   0  387.16    6.20
  -1  -7  -1  576.54    8.40
  -1  -7  -1  588.84    8.90
  -1  -7  -1  599.24    9.00
  -1  -7  -1  590.94    9.10
  -1  -7  -2  139.89    4.40
  -1  -7  -2  138.99    4.60
  -1  -7  -2  142.39    4.40
  -1  -7  -2  141.79    4.50
  -1  -7  -3   28.10    2.00
  -1  -7  -3   27.80    2.00
  -1  -7  -3   33.50    2.10
  -1  -7  -3   28.10    2.20
  -1  -7  -4    3.10    0.70
  -1  -7  -4    3.90    0.80
  -1  -7  -4    4.70    1.00
  -1  -7  -4    5.20    1.00
  -1  -7  -5    1.40    0.60
  -1  -7  -5    2.90    0.80
  -1  -7  -5    1.40    0.80
  -1  -7  -5    0.80    0.50
   1   7   6    4.50    0.70
  -1  -7  -6    4.70    0.90
  -1  -7  -6    5.00    0.90
  -1  -7  -6    4.20    1.00
   1   7   7   83.49    2.60
  -1  -7  -7   83.89    3.10
  -1  -7  -7   81.89    2.90
   1   7   8   13.50    1.00
  -1  -7  -8   12.50    1.00
  -1  -7  -8   13.20    1.00
   1   7   8   15.40    1.20
   1   7   9  353.56    4.40
  -1  -7  -9  305.17    3.90
  -1  -7  -9  339.67    4.20
   1   7   9  296.57    3.60
  -1  -8  14  126.89    2.50
  -1  -8  13    2.70    0.50
  -1  -8  13    2.70    0.60
  -1  -8  12   50.29    1.70
  -1  -8  11    7.00    0.90
  -1  -8  10    3.60    0.80
  -1  -8   9   56.29    2.50
  -1  -8   9   62.69    2.60
  -1  -8   8    7.80    1.00
  -1  -8   8    9.90    1.10
  -1  -8   7   64.59    3.00
  -1  -8   7   59.79    2.50
  -1  -8   7   66.09    2.70
  -1  -8   6  308.17    6.70
  -1  -8   6  312.27    5.80
  -1  -8   6  277.37    5.40
  -1  -8   6  290.67    5.80
  -1  -8   5  171.68    4.40
  -1  -8   5  177.38    5.10
  -1  -8   5  168.08    4.60
  -1  -8   5  182.48    4.50
  -1  -8   5  179.68    4.40
  -1  -8   5  162.18    4.20
  -1  -8   4   -0.10    0.40
  -1  -8   4    0.50    0.80
  -1  -8   4   -1.10    0.80
  -1  -8   3   32.80    2.30
  -1  -8   3   27.00    1.90
  -1  -8   3   27.10    1.70
  -1  -8   3   27.60    2.00
  -1  -8   2    0.50    0.70
  -1  -8   2   -0.20    0.50
  -1  -8   1    4.60    1.00
  -1  -8   1    3.40    0.70
  -1  -8   0  234.28    5.20
  -1  -8   0  245.28    5.90
  -1  -8  -1   99.89    3.70
  -1  -8  -2    2.40    0.90
  -1  -8  -3    7.50    1.30
  -1  -8  -4   59.29    2.50
  -1  -8  -4   63.89    2.60
  -1  -8  -5  234.68    4.60
  -1  -8  -5  228.48    4.60
   1   8   6    7.80    0.80
  -1  -8  -6    7.10    0.80
  -1  -8  -7    1.80    0.40
   1   8   7    2.00    0.50
  -1  -9  12   43.50    1.50
  -1  -9  11  198.38    3.70
  -1  -9  11  198.88    3.00
  -1  -9  10   57.19    1.90
  -1  -9  10   52.99    2.10
  -1  -9   9   10.50    0.90
  -1  -9   9   10.40    1.00
  -1  -9   9   11.50    1.00
  -1  -9   8   23.10    1.50
  -1  -9   8   24.20    1.30
  -1  -9   7    7.20    0.90
  -1  -9   7    7.60    0.80
  -1  -9   6    1.00    0.80
  -1  -9   6    5.30    0.70
  -1  -9   5   23.80    1.50
  -1  -9   5   17.30    1.50
  -1  -9   4   29.80    2.20
  -1  -9   4   41.70    1.80
  -1  -9   3  153.28    4.30
  -1  -9   3  122.89    3.40
  -1  -9   2  499.45    7.80
  -1  -9   1  238.08    5.40
  -1  -9   0   23.10    1.40
  -1  -9   0   55.59    2.80
  -1  -9  -1   41.40    2.60
  -1  -9  -1    7.60    0.90
  -1  -9  -2   16.50    1.20
  -1  -9  -3  138.99    3.10
  -1  -9  -4  295.27    4.10
  -1  -9  -5   96.49    2.00
  -1 -10   9   42.90    1.40
  -1 -10   8   26.60    1.30
  -1 -10   7   16.30    1.10
  -1 -10   6   13.80    1.10
  -1 -10   6  134.39    2.60
  -1 -10   5   79.69    2.10
  -1 -10   5   24.90    1.30
  -1 -10   4   65.09    1.90
  -1 -10   4   47.80    1.50
  -1 -10   3  156.48    2.90
  -1 -10   2   84.59    2.20
  -1 -10   1    9.80    0.80
  -1 -10   0   15.60    0.90
  -1 -10  -1   36.40    1.20
   2 -10  -3   11.70    0.80
   2 -10  -2    1.70    0.40
   2 -10  -1    3.00    0.50
   2 -10   0   42.80    1.50
   2 -10   1    4.80    0.70
   2 -10   1    3.70    0.50
   2 -10   2  131.19    3.10
   2 -10   2  129.69    2.90
   2 -10   3  277.57    4.20
   2 -10   3  293.27    4.90
   2 -10   4  106.69    2.60
   2 -10   4  118.99    3.10
   2 -10   5    1.40    0.60
   2 -10   5    0.80    0.30
   2 -10   6    8.10    0.90
   2 -10   6    7.70    0.70
   2 -10   7    9.80    0.70
   2 -10   7    9.00    0.80
   2 -10   8   31.30    1.20
  -2   9   7   98.89    2.00
   2  -9  -7   98.49    2.10
   2  -9  -6  105.59    2.60
  -2   9   6  102.19    2.40
   2  -9  -5   12.90    1.10
  -2   9   5   10.30    0.90
  -2   9   4    4.80    0.70
   2  -9  -4    5.60    0.90
   2  -9  -3    0.20    0.50
   2  -9  -2  140.39    3.90
   2  -9  -1   73.79    2.70
   2  -9  -1   72.69    2.60
   2  -9   0    3.40    0.80
   2  -9   0    2.80    0.70
   2  -9   1   39.00    1.90
   2  -9   1   43.50    2.30
   2  -9   2   44.50    1.80
   2  -9   2   43.70    2.50
   2  -9   3   20.00    1.80
   2  -9   3   48.80    2.00
   2  -9   4   -0.30    0.90
   2  -9   4    1.60    0.50
   2  -9   5    2.80    0.90
   2  -9   5    2.80    0.70
   2  -9   6  103.19    3.20
   2  -9   6  106.49    3.40
   2  -9   7  260.27    4.90
   2  -9   7  267.57    5.10
   2  -9   8   49.20    2.00
   2  -9   8   48.20    2.10
   2  -9   9    0.60    0.40
   2  -9   9   -1.40    0.60
   2  -9  10   -0.20    0.30
  -2   9 -10   -0.20    0.30
   2  -9  11    5.70    0.50
   2  -8  -9  163.08    2.70
  -2   8   9  153.78    2.70
   2  -8  -8  147.29    3.20
   2  -8  -8  141.39    3.50
  -2   8   8  138.49    3.00
  -2   8   8  149.29    3.20
  -2   8   7    3.70    0.60
   2  -8  -7    4.30    0.70
   2  -8  -7    4.80    0.80
   2  -8  -7    4.10    0.80
   2  -8  -6    3.60    0.70
   2  -8  -6    2.30    0.70
   2  -8  -6    2.70    0.80
  -2   8   6    2.60    0.70
   2  -8  -5   24.00    1.70
  -2   8   5   24.90    1.60
   2  -8  -5   24.60    1.90
   2  -8  -5   24.10    1.90
   2  -8  -4   50.99    2.50
   2  -8  -4   51.69    2.70
   2  -8  -4   55.39    2.90
   2  -8  -3  320.17    6.90
   2  -8  -3  307.57    6.30
   2  -8  -3  321.87    6.70
   2  -8  -2  281.97    6.10
   2  -8  -2  292.97    6.20
   2  -8  -1    7.10    1.10
   2  -8  -1    8.90    1.20
   2  -8   0   78.09    3.00
   2  -8   0   85.99    3.70
   2  -8   1  205.48    5.80
   2  -8   1  199.08    4.70
   2  -8   2   -1.20    0.50
   2  -8   2    0.50    0.70
   2  -8   3    2.70    0.80
   2  -8   3    2.10    0.60
   2  -8   4   17.20    1.80
   2  -8   4   14.90    1.70
   2  -8   5  112.69    3.70
   2  -8   5  120.09    4.20
   2  -8   5  111.29    4.20
   2  -8   6  413.66    7.50
   2  -8   6  394.06    5.60
   2  -8   6  411.86    7.00
   2  -8   6  414.86    8.00
   2  -8   7  490.25    7.70
   2  -8   7  486.05    7.90
   2  -8   7  483.75    8.40
   2  -8   8    0.50    0.50
   2  -8   8    1.00    0.70
   2  -8   9    4.30    0.80
   2  -8  10   48.70    1.90
   2  -8  10   55.99    2.40
  -2   8 -11   38.70    1.70
   2  -8  11   46.10    2.00
   2  -8  12    1.80    0.50
  -2   8 -12    0.80    0.30
   2  -8  13    8.70    0.60
  -2   8 -13    8.70    0.60
  -2   7  11   31.40    1.30
  -2   7  11   29.10    1.10
   2  -7 -11   30.70    1.40
   2  -7 -10  230.08    4.40
  -2   7  10  243.28    4.20
   2  -7 -10  228.88    3.60
  -2   7  10  242.68    4.00
   2  -7 -10  217.38    3.50
  -2   7   9  127.69    3.10
   2  -7  -9  126.39    3.20
   2  -7  -9  134.69    3.30
  -2   7   9  137.89    3.50
   2  -7  -9  129.79    3.80
  -2   7   9  141.69    3.60
   2  -7  -8    0.20    0.50
   2  -7  -8    0.90    0.50
   2  -7  -8    1.40    0.80
  -2   7   8    0.80    0.60
  -2   7   8    0.00    0.50
   2  -7  -7   14.90    1.60
   2  -7  -7   13.20    1.40
   2  -7  -7   12.80    1.30
  -2   7   7   17.00    1.50
  -2   7   7   13.50    1.20
   2  -7  -6   53.69    2.90
   2  -7  -6   51.79    2.60
   2  -7  -6   57.99    2.90
   2  -7  -5   78.09    3.30
   2  -7  -5   80.19    3.60
   2  -7  -5   84.99    3.60
   2  -7  -4  156.78    4.90
   2  -7  -4  157.08    4.90
   2  -7  -4  151.28    4.50
   2  -7  -3    1.80    0.50
   2  -7  -3    2.40    0.80
   2  -7  -3    2.70    0.80
   2  -7  -2   36.90    2.30
   2  -7  -2   35.00    2.30
   2  -7  -2   34.10    2.20
   2  -7  -2   34.50    2.20
   2  -7  -1   12.50    1.30
   2  -7  -1   11.50    1.30
  -2   7   1   10.10    2.40
   2  -7  -1   14.80    3.20
   2  -7  -1   10.80    1.40
   2  -7  -1   11.90    1.40
  -2   7   1    8.80    2.40
  -2   7   0   -0.20    0.90
   2  -7   0    1.30    0.50
   2  -7   0    1.60    0.70
  -2   7   0    2.80    1.50
   2  -7   0    0.10    0.50
   2  -7   0    0.00    0.90
   2  -7   0    1.50    0.60
   2  -7   1  221.98   11.60
   2  -7   1  218.98    5.00
  -2   7  -1  221.78   10.90
   2  -7   1  230.48    6.10
   2  -7   1  210.98    5.20
  -2   7  -2  191.98   10.10
   2  -7   2  195.88    5.50
   2  -7   2  176.08    4.90
   2  -7   2  194.08   10.70
   2  -7   2  188.58    4.50
   2  -7   3   31.00    1.70
   2  -7   3   37.20    4.70
  -2   7  -3   41.30    4.80
   2  -7   3   40.00    2.50
   2  -7   3   38.10    2.60
   2  -7   3   39.20    2.40
  -2   7  -4  251.27   11.70
   2  -7   4  247.28    6.10
   2  -7   4  251.77    6.50
   2  -7   5   68.69    2.60
   2  -7   5   60.19    3.00
   2  -7   5   58.79    3.20
   2  -7   6   30.30    2.00
   2  -7   6   29.50    2.10
   2  -7   6   26.40    2.10
   2  -7   7    7.50    1.20
   2  -7   7    6.60    1.20
   2  -7   7    8.30    1.20
   2  -7   7    6.40    1.00
   2  -7   8    1.30    0.60
   2  -7   8    2.20    0.70
   2  -7   8    1.00    0.60
   2  -7   8    2.20    0.90
   2  -7   9  361.46    7.40
   2  -7   9  358.66    6.70
   2  -7   9  361.66    6.90
   2  -7  10  590.74    8.30
   2  -7  10  610.54    8.70
   2  -7  11  308.67    5.80
  -2   7 -11  291.27    5.40
   2  -7  12    3.80    0.70
  -2   7 -12    2.60    0.50
   2  -7  13    4.20    0.60
  -2   7 -13    3.70    0.50
   2  -7  14    1.30    0.40
  -2   7 -14    1.20    0.40
   2  -6 -13    0.60    0.40
  -2   6  13   -0.60    0.30
  -2   6  12  153.38    2.90
   2  -6 -12  155.28    2.80
  -2   6  12  171.28    3.30
   2  -6 -12  167.98    3.40
  -2   6  12  149.39    2.60
  -2   6  11   26.90    1.50
  -2   6  11   25.70    1.40
  -2   6  11   24.80    1.40
  -2   6  11   26.90    1.60
   2  -6 -11   24.90    1.60
   2  -6 -11   26.40    1.50
   2  -6 -10    7.40    1.10
  -2   6  10    7.50    1.00
   2  -6 -10    7.90    1.00
  -2   6  10    7.90    1.00
   2  -6 -10    7.50    0.80
  -2   6  10    7.30    0.90
  -2   6  10    8.30    1.10
  -2   6   9    0.70    0.40
   2  -6  -9    1.60    0.60
  -2   6   9    1.90    0.70
  -2   6   9    0.60    0.60
   2  -6  -9    1.40    0.50
   2  -6  -9    1.30    0.70
  -2   6   8   35.00    2.10
   2  -6  -8   38.10    2.20
   2  -6  -8   35.70    2.20
   2  -6  -8   37.70    2.50
  -2   6   7  290.97    5.90
   2  -6  -7  314.77    6.60
   2  -6  -7  303.07    6.90
   2  -6  -7  302.57    6.50
  -2   6   6 1639.44   13.90
   2  -6  -6 1694.33   16.10
   2  -6  -6 1651.83   15.10
   2  -6  -6 1695.93   15.70
   2  -6  -5  608.44    9.30
   2  -6  -5  595.84    8.80
  -2   6   5  609.64   19.10
   2  -6  -5  588.04    9.40
   2  -6  -4   33.40    2.10
  -2   6   4   32.40    4.20
   2  -6  -4   39.70    2.40
   2  -6  -4   32.30    2.10
   2  -6  -4   25.60    3.80
  -2   6   3    0.20    0.90
   2  -6  -3    0.20    0.90
   2  -6  -3    0.50    0.50
   2  -6  -3    0.50    0.40
   2  -6  -3   -0.40    0.50
  -2   6   2    2.30    1.20
   2  -6  -2    2.00    0.70
  -2   6   2    1.00    1.20
   2  -6  -2    0.50    1.00
   2  -6  -1    1.90    1.40
  -2   6   1    0.80    0.90
   2  -6   0   64.49    5.70
  -2   6   0   71.69    5.70
   2  -6   1    4.90    1.80
  -2   6  -1    5.00    1.50
  -2   6  -2  307.27   11.60
   2  -6   2  280.87   11.60
  -2   6  -3  455.75   14.30
   2  -6   3  442.56   14.50
   2  -6   4   87.59    6.50
  -2   6  -4   83.39    6.30
   2  -6   4   82.29    5.80
   2  -6   5   18.30    1.60
  -2   6  -5   21.90    3.60
   2  -6   5   17.90    3.00
  -2   6  -5   14.10    2.60
   2  -6   5   21.30    1.40
   2  -6   5   11.50    2.30
   2  -6   5   18.30    1.80
   2  -6   6   53.79    2.60
   2  -6   6   49.90    5.00
   2  -6   6   51.09    4.80
   2  -6   6   49.80    2.70
   2  -6   6   51.49    3.00
   2  -6   6   51.69    2.50
  -2   6  -6   46.80    5.00
  -2   6  -6   51.89    5.70
  -2   6  -7    3.50    2.00
   2  -6   7    2.40    0.70
   2  -6   7    2.10    0.90
   2  -6   7    1.70    0.70
   2  -6   7    2.30    0.70
  -2   6  -7    0.20    1.10
   2  -6   8    7.70    1.30
   2  -6   8    5.80    0.90
   2  -6   8    6.10    1.00
   2  -6   8    5.20    0.90
   2  -6   9   13.60    1.50
   2  -6   9   13.40    1.40
   2  -6   9   15.60    1.70
  -2   6  -9   13.20    1.30
   2  -6  10  207.48    5.50
   2  -6  10  198.38    5.50
   2  -6  10  200.58    5.10
   2  -6  11    4.80    0.90
   2  -6  11    5.00    1.00
   2  -6  11    4.60    0.90
  -2   6 -11    5.70    1.00
   2  -6  12    2.80    0.80
   2  -6  12    1.00    0.60
   2  -6  12    2.70    0.70
  -2   6 -12    1.90    0.60
   2  -6  13  161.28    3.40
   2  -6  13  172.78    4.00
  -2   6 -13  170.78    3.70
  -2   6 -13  165.38    3.40
  -2   6 -14  139.49    3.00
   2  -6  14  143.49    3.10
  -2   6 -14  137.39    2.80
   2  -6  15  112.39    2.20
  -2   6 -15  115.69    2.20
  -2   5  14    3.90    0.50
  -2   5  14    3.50    0.50
   2  -5 -14    4.90    0.60
  -2   5  13  141.19    3.10
   2  -5 -13  131.29    2.90
  -2   5  13  138.59    3.00
   2  -5 -13  138.59    3.30
   2  -5 -12   20.00    1.50
  -2   5  12   20.30    1.50
  -2   5  12   18.40    1.40
  -2   5  12   19.80    1.20
  -2   5  12   18.50    1.40
  -2   5  11  259.77    5.20
  -2   5  11  271.17    5.50
  -2   5  11  261.27    5.00
  -2   5  11  269.17    5.40
   2  -5 -11  247.58    5.10
   2  -5 -11  267.07    5.80
   2  -5 -10   75.69    3.10
  -2   5  10   78.39    3.10
   2  -5 -10   81.29    3.40
  -2   5  10   78.69    3.20
  -2   5  10   79.69    3.10
   2  -5 -10   76.39    2.70
   2  -5  -9    0.20    0.60
  -2   5   9    1.10    0.60
   2  -5  -9   -0.10    0.50
   2  -5  -9    0.40    0.40
  -2   5   9    0.20    0.70
  -2   5   8    3.90    0.80
   2  -5  -8    2.80    0.80
   2  -5  -8    4.10    0.80
  -2   5   8    3.50    0.90
   2  -5  -8    3.30    0.80
   2  -5  -8    2.40    0.70
   2  -5  -7   27.70    2.10
  -2   5   7   23.00    3.80
   2  -5  -7   28.80    2.00
   2  -5  -7   27.20    2.00
   2  -5  -7   22.90    1.90
  -2   5   7   25.30    1.90
  -2   5   7   26.90    1.90
   2  -5  -6    0.10    0.50
  -2   5   6    1.20    1.10
  -2   5   6    2.80    0.80
   2  -5  -6    0.10    0.50
   2  -5  -6    1.20    0.60
   2  -5  -6    0.90    0.50
  -2   5   5  106.99    7.20
   2  -5  -5  102.99    7.00
  -2   5   4   33.30    3.40
   2  -5  -4   35.10    4.00
  -2   5   4   32.20    3.80
  -2   5   3  464.35   13.60
   2  -5  -3  460.45   14.40
   2  -5  -2 1978.20   29.00
  -2   5   2 2002.90   27.20
  -2   5   2 1933.41   27.30
  -2   5   1  622.84   15.00
   2  -5  -1  629.34   16.00
  -2   5   0   96.59    5.80
   2  -5   0   97.19    6.10
  -2   5  -1    1.50    1.20
   2  -5   1    1.70    1.20
  -2   5  -2   63.29    4.00
   2  -5   2   61.29    4.50
  -2   5  -2   63.39    4.70
   2  -5   2   64.89    4.90
   2  -5   3   80.79    5.50
   2  -5   3   77.89    5.20
  -2   5  -3   73.39    4.70
  -2   5  -3   72.39    5.30
  -2   5  -4  133.19    6.90
   2  -5   4  142.29    7.30
  -2   5  -4  135.89    7.60
   2  -5   4  137.59    7.00
   2  -5   5   44.40    4.10
   2  -5   5   46.60    4.10
  -2   5  -5   47.50    4.60
  -2   5  -5   47.50    4.80
   2  -5   6  239.78    9.80
   2  -5   6  234.18    9.50
  -2   5  -6  243.08   11.30
  -2   5  -6  229.38   10.80
   2  -5   7  572.74    8.20
   2  -5   7  542.45    9.20
  -2   5  -7  554.54   17.90
  -2   5  -7  542.05   17.70
   2  -5   7  561.04   15.80
   2  -5   7  546.85    8.10
   2  -5   8  516.15    8.20
   2  -5   8  498.45    7.90
   2  -5   8  515.75   15.90
  -2   5  -8  536.15   17.80
   2  -5   8  518.45    9.10
  -2   5  -8  517.35   18.00
   2  -5   9  222.08    5.90
   2  -5   9  215.08    5.30
   2  -5   9  215.58    5.10
  -2   5  -9  213.78    5.20
   2  -5   9  217.38    5.60
   2  -5  10    9.40    1.20
   2  -5  10    8.90    1.20
   2  -5  10   10.10    1.30
  -2   5 -10    7.50    1.00
   2  -5  10    8.60    1.40
   2  -5  11    4.00    0.90
   2  -5  11    3.50    0.80
   2  -5  11    2.10    0.80
   2  -5  11    3.40    0.80
  -2   5 -11    2.50    0.70
   2  -5  12  109.49    3.50
  -2   5 -12  111.69    3.70
   2  -5  12  110.09    3.70
  -2   5 -12  112.49    3.60
   2  -5  12  116.29    3.90
  -2   5 -13  312.67    5.50
   2  -5  13  310.37    5.50
  -2   5 -13  310.57    5.20
   2  -5  13  315.67    5.90
   2  -5  13  301.17    5.60
   2  -5  14  210.38    4.10
   2  -5  14  219.48    4.30
  -2   5 -14  216.88    4.20
  -2   5 -14  214.98    4.00
   2  -5  15    3.50    0.60
   2  -5  15    3.40    0.50
  -2   5 -15    4.00    0.60
  -2   5 -15    2.60    0.50
   2  -4 -15    2.70    0.50
  -2   4  15    3.10    0.50
   2  -4 -15    3.10    0.50
   2  -4 -14   12.70    1.10
  -2   4  14   11.50    0.90
  -2   4  14   12.80    1.10
  -2   4  13   43.80    2.00
   2  -4 -13   42.70    2.10
   2  -4 -13   42.20    2.00
  -2   4  13   42.80    2.10
   2  -4 -12  116.99    3.80
  -2   4  12  117.39    3.70
  -2   4  12  120.09    3.70
  -2   4  12  118.09    3.60
   2  -4 -12  117.99    3.60
  -2   4  12  113.49    3.10
  -2   4  11   27.00    1.70
  -2   4  11   27.20    1.90
  -2   4  11   23.70    1.80
   2  -4 -11   25.70    1.80
   2  -4 -11   26.50    2.00
  -2   4  11   26.70    1.90
   2  -4 -10    8.30    1.20
  -2   4  10    7.90    1.10
  -2   4  10    9.40    1.30
   2  -4 -10    9.80    1.30
  -2   4   9  895.61   10.70
   2  -4  -9  866.91   10.90
  -2   4   9  916.01   24.70
   2  -4  -9  886.81   21.20
   2  -4  -9  896.61   11.50
  -2   4   9  904.41   10.50
  -2   4   8  542.35   18.40
  -2   4   8  499.95   16.50
  -2   4   8  530.15    8.10
   2  -4  -8  519.25    8.30
   2  -4  -8  532.75    8.60
   2  -4  -8  502.95    7.50
  -2   4   8  519.15    7.80
   2  -4  -8  538.95   15.90
   2  -4  -7    1.10    1.10
  -2   4   7    3.20    1.60
   2  -4  -6    7.60    1.80
   2  -4  -6    8.50    2.10
  -2   4   6    7.90    2.00
   2  -4  -5   70.19    4.90
   2  -4  -5   71.29    5.30
  -2   4   5   66.39    5.00
  -2   4   5   73.99    4.80
   2  -4  -4  152.68    7.60
  -2   4   4  150.88    7.00
   2  -4  -4  147.69    6.40
  -2   4   3 1091.19   18.10
   2  -4  -3 1091.79   19.60
  -2   4   3 1055.19   18.60
   2  -4  -3 1109.09   15.80
  -2   4   2  807.42   15.50
   2  -4  -2  814.42   11.70
   2  -4  -2  810.82   16.50
   2  -4  -1   61.49    4.40
  -2   4   1   56.69    3.00
  -2   4   1   53.79    3.90
  -2   4   0   18.60    2.30
   2  -4   0   18.30    2.40
   2  -4   0   15.60    2.10
  -2   4   0   17.80    1.80
  -2   4  -1  159.68    5.60
  -2   4  -1  161.18    6.50
   2  -4   1  155.18    6.30
   2  -4   1  160.58    6.70
  -2   4  -2   52.99    3.50
   2  -4   2   56.89    3.90
   2  -4   2   62.49    4.20
  -2   4  -2   58.79    4.10
   2  -4   3   18.30    2.40
  -2   4  -3   17.00    2.30
   2  -4   3   18.50    2.30
  -2   4  -3   15.10    2.30
   2  -4   4    4.40    1.40
  -2   4  -4    3.70    1.20
   2  -4   4    3.00    1.10
  -2   4  -4    4.50    1.50
  -2   4  -5   10.70    2.20
   2  -4   5    8.60    1.70
   2  -4   5   10.10    1.90
  -2   4  -5   11.90    2.20
   2  -4   6  196.18    7.50
  -2   4  -6  201.38    9.40
   2  -4   6  187.58    8.30
  -2   4  -6  201.38    9.80
  -2   4  -7  410.46   14.90
  -2   4  -7  411.26   14.10
   2  -4   7  411.56   13.10
   2  -4   8   35.80    4.20
  -2   4  -8   45.70    5.20
  -2   4  -8   35.60    4.30
   2  -4   8   38.80    2.20
   2  -4   8   35.30    2.10
   2  -4   9   10.40    1.20
  -2   4  -9   10.20    2.60
   2  -4   9   11.10    2.60
  -2   4  -9   11.90    1.30
   2  -4   9    8.90    1.10
  -2   4  -9    6.00    1.90
   2  -4   9   10.90    1.40
   2  -4  10  246.28    5.90
   2  -4  10  240.18    5.60
   2  -4  10  236.88    5.50
  -2   4 -10  237.58    5.40
  -2   4 -10  242.98    5.80
   2  -4  10  231.08    5.70
   2  -4  11  166.88    4.70
   2  -4  11  177.08    5.00
  -2   4 -11  177.38    4.90
   2  -4  11  171.18    4.70
  -2   4 -11  168.18    4.40
   2  -4  11  159.68    4.50
   2  -4  12   35.40    2.20
  -2   4 -12   38.00    2.20
   2  -4  12   37.70    2.20
  -2   4 -12   34.30    2.10
   2  -4  12   37.60    2.30
   2  -4  13   10.50    1.20
   2  -4  13    9.30    1.10
  -2   4 -13    8.30    1.00
  -2   4 -13    9.60    1.10
   2  -4  13    8.80    1.10
  -2   4 -13    8.80    1.10
   2  -4  14    2.20    0.70
   2  -4  14    0.80    0.50
   2  -4  14    1.70    0.60
  -2   4 -14    1.90    0.50
  -2   4 -14    1.80    0.60
  -2   4 -14    1.60    0.60
  -2   4 -15   -0.10    0.40
   2  -4  15    0.00    0.40
   2  -4  15    0.00    0.50
  -2   4 -15    0.40    0.40
   2  -4  16   38.50    1.30
  -2   4 -16   39.10    1.30
  -2   4 -16   37.50    1.20
   2  -3 -16    3.50    0.50
  -2   3  16    4.90    0.60
  -2   3  15   22.60    1.40
   2  -3 -15   22.60    1.30
   2  -3 -15   20.80    1.20
  -2   3  15   19.20    1.10
   2  -3 -14  162.28    4.00
  -2   3  14  158.48    3.40
   2  -3 -14  163.08    3.90
  -2   3  14  155.98    3.50
   2  -3 -13  135.09    4.00
   2  -3 -13  131.59    3.80
  -2   3  13  128.09    3.50
  -2   3  13  140.49    4.10
  -2   3  13  131.39    3.60
   2  -3 -12    3.80    0.90
  -2   3  12    3.50    0.90
   2  -3 -12    4.30    0.90
  -2   3  12    2.40    0.70
  -2   3  12    4.00    0.90
  -2   3  12    3.30    0.70
   2  -3 -11   20.60    1.70
  -2   3  11   21.70    1.80
   2  -3 -11   20.40    1.80
  -2   3  11   19.70    1.60
  -2   3  11   20.40    1.70
  -2   3  11   20.40    1.50
  -2   3  10   36.50    4.90
  -2   3  10   41.20    2.40
   2  -3 -10   43.50    2.50
  -2   3  10   46.20    2.40
   2  -3 -10   40.20    2.30
   2  -3 -10   35.40    4.40
   2  -3  -9    9.10    1.10
  -2   3   9    9.80    1.10
  -2   3   9    6.50    2.10
   2  -3  -9    8.40    2.10
  -2   3   9    9.10    1.20
   2  -3  -9    9.70    1.30
   2  -3  -9    9.70    1.20
  -2   3   8   11.30    2.40
  -2   3   8   13.40    2.80
   2  -3  -7    0.20    1.00
  -2   3   7    1.90    1.20
   2  -3  -7   -0.50    0.80
  -2   3   7    1.60    0.80
  -2   3   6  183.58    7.40
   2  -3  -6  191.58    8.00
   2  -3  -6  188.88    8.90
  -2   3   6  182.88    7.80
  -2   3   5  818.42   14.60
   2  -3  -5  804.82   16.00
  -2   3   5  786.22   14.80
   2  -3  -5  821.12   17.70
  -2   3   4  898.21   14.60
   2  -3  -4  928.71   16.70
   2  -3  -4  948.51   17.90
  -2   3   4  887.81   14.50
   2  -3  -3   93.29    5.20
  -2   3   3   88.09    4.70
  -2   3   3   94.89    4.50
   2  -3  -3   95.49    5.20
  -2   3   2  141.09    5.60
   2  -3  -2  139.89    5.80
   2  -3  -2  130.89    5.80
   2  -3  -1    3.20    0.90
  -2   3   1    3.00    0.90
   2  -3  -1    4.30    1.10
  -2   3   1    4.30    0.90
   2  -3  -1    3.90    1.30
   2  -3   0  136.09    5.50
  -2   3   0  132.19    5.10
   2  -3   0  124.79    4.90
  -2   3   0  130.89    4.60
   2  -3   1 1466.05   17.20
  -2   3  -1 1454.65   16.20
   2  -3   2 1368.96   16.70
   2  -3   2 1380.86   17.00
  -2   3  -2 1347.07   16.60
  -2   3  -3    0.40    0.70
   2  -3   3   -0.10    0.70
  -2   3  -3    0.00    0.80
   2  -3   3    0.20    0.60
  -2   3  -4  247.88    8.70
   2  -3   4  250.27    7.90
   2  -3   4  255.97    7.20
  -2   3  -4  243.58    8.10
   2  -3   5  101.29    4.50
  -2   3  -5   95.19    6.00
  -2   3  -5   95.59    5.50
   2  -3   5   91.19    5.10
   2  -3   6    2.30    1.10
  -2   3  -6    2.50    1.10
   2  -3   7    8.00    1.80
  -2   3  -7    8.00    1.90
  -2   3  -7    9.70    2.30
   2  -3   8    7.00    1.80
  -2   3  -8    7.40    2.30
  -2   3  -8    7.80    1.80
   2  -3   9  214.48    5.10
   2  -3   9  222.48    5.30
   2  -3   9  211.58    5.00
  -2   3  -9  210.88    5.00
   2  -3   9  214.08   10.50
  -2   3  -9  212.98    5.30
  -2   3  -9  213.48   10.80
   2  -3  10  623.04   18.40
  -2   3 -10  600.44   18.40
  -2   3 -10  618.24    8.60
   2  -3  10  622.14    8.90
   2  -3  10  631.54    9.10
   2  -3  10  630.34    8.80
  -2   3 -10  633.04    9.10
   2  -3  11  542.75    8.50
   2  -3  11  540.65    8.20
  -2   3 -11  546.75    8.40
  -2   3 -11  540.75    8.30
   2  -3  11  549.65    8.50
   2  -3  12  110.69    3.60
   2  -3  12  115.99    3.90
   2  -3  12  108.39    3.80
  -2   3 -12  106.79    3.60
  -2   3 -12  109.79    3.70
  -2   3 -12  109.99    3.70
  -2   3 -13    3.30    0.80
   2  -3  13    2.90    0.80
  -2   3 -13    2.30    0.70
   2  -3  13    3.10    0.80
   2  -3  13    2.70    0.70
  -2   3 -13    1.70    0.60
   2  -3  14   15.70    1.20
  -2   3 -14   17.90    1.20
  -2   3 -14   18.70    1.40
   2  -3  14   18.50    1.50
   2  -3  14   18.10    1.40
  -2   3 -14   18.80    1.40
  -2   3 -15   49.99    1.70
  -2   3 -15   51.29    1.90
  -2   3 -15   52.49    2.00
  -2   3 -15   46.30    1.60
   2  -3  15   51.29    2.00
   2  -3  16    4.00    0.60
  -2   3 -16    4.00    0.50
   2  -2 -16   62.99    1.90
  -2   2  16   64.69    2.10
   2  -2 -16   59.79    1.90
  -2   2  16   60.39    1.90
  -2   2  15  308.07    5.10
  -2   2  15  329.57    5.50
   2  -2 -15  326.07    5.30
   2  -2 -15  311.57    5.20
  -2   2  14  320.87    6.10
   2  -2 -14  316.67    5.90
  -2   2  14  310.07    5.70
   2  -2 -14  317.87    5.90
   2  -2 -13   72.49    3.00
   2  -2 -13   79.69    3.10
  -2   2  13   73.09    2.70
   2  -2 -13   71.79    2.60
  -2   2  13   77.29    3.20
  -2   2  13   69.69    2.90
   2  -2 -12   81.79    2.90
   2  -2 -12   76.99    3.20
  -2   2  12   83.99    3.20
   2  -2 -12   80.89    3.20
  -2   2  12   85.19    3.10
  -2   2  12   78.59    3.10
  -2   2  12   84.19    3.40
   2  -2 -11   90.79    3.10
  -2   2  11   93.59    3.50
   2  -2 -11   91.29    3.40
  -2   2  11   90.19    3.40
  -2   2  11   92.49    3.30
   2  -2 -11   93.29    3.40
   2  -2 -11   94.79    7.00
  -2   2  11   89.99    3.30
  -2   2  10   55.19    5.70
   2  -2 -10   49.30    2.50
   2  -2 -10   54.19    2.60
  -2   2  10   51.89    2.50
  -2   2  10   51.69    2.50
   2  -2 -10   53.19    2.50
  -2   2  10   52.09    2.60
  -2   2  10   52.39    2.50
   2  -2 -10   45.40    5.10
   2  -2  -9   63.69    5.70
  -2   2   9   55.49    5.50
   2  -2  -8   15.80    2.80
  -2   2   8   17.40    3.00
  -2   2   8   15.70    2.40
  -2   2   7  637.64   13.90
   2  -2  -7  634.14   16.20
  -2   2   7  613.04   13.80
  -2   2   7  593.14   15.50
   2  -2  -6 1212.68   21.20
  -2   2   6 1239.08   17.80
  -2   2   6 1266.27   18.20
   2  -2  -5  758.12   15.60
  -2   2   5  760.42   13.30
  -2   2   5  733.93   12.20
   2  -2  -4   17.40    2.40
  -2   2   4   18.20    1.80
  -2   2   4   19.20    2.10
  -2   2   3   94.89    3.70
   2  -2  -3   95.99    4.90
  -2   2   3   93.59    4.30
   2  -2  -2    2.20    1.00
  -2   2   2    2.10    0.80
  -2   2   1  524.55    8.20
   2  -2  -1  516.35    8.90
   2  -2  -1  524.35    9.30
  -2   2   1  514.25    8.60
   2  -2   0 1153.38   13.00
   2  -2   0 1171.68   11.70
  -2   2   0 1159.28   12.80
   2  -2   0 1181.68   13.70
   2  -2   1  233.28    5.90
   2  -2   1  234.68    3.90
   2  -2   1  233.48    6.10
  -2   2  -1  227.08    6.10
  -2   2  -2  188.78    6.00
   2  -2   2  211.68    5.50
  -2   2  -2  197.48    3.50
   2  -2   2  200.48    5.90
  -2   2  -2  195.28    5.70
   2  -2   3   15.00    1.80
  -2   2  -3   11.60    1.00
  -2   2  -3   12.00    1.90
  -2   2  -3   12.30    1.60
   2  -2   3   13.20    1.40
  -2   2  -4   22.40    1.60
   2  -2   4   22.50    2.60
  -2   2  -4   25.90    2.80
  -2   2  -4   24.50    2.40
   2  -2   4   22.80    2.40
   2  -2   4   24.80    1.80
  -2   2  -5  208.48    8.30
  -2   2  -5  215.08    7.40
   2  -2   5  222.38    8.60
   2  -2   6  838.42   18.30
  -2   2  -6  807.32   15.20
   2  -2   7    7.40    2.00
  -2   2  -7    8.70    2.20
  -2   2  -7    8.50    1.70
  -2   2  -8  359.96   12.80
   2  -2   8  368.46   13.80
  -2   2  -9   25.30    3.70
   2  -2   9   22.70    1.70
   2  -2   9   25.30    1.80
   2  -2   9   22.80    3.80
  -2   2  -9   23.10    1.80
   2  -2  10   62.29    2.70
   2  -2  10   63.69    2.90
  -2   2 -10   68.39    3.00
  -2   2 -10   59.59    5.50
   2  -2  10   66.39    6.40
   2  -2  10   68.89    3.00
  -2   2 -10   65.09    2.90
   2  -2  11   11.00    1.30
   2  -2  11    9.90    1.20
   2  -2  11   10.40    1.20
  -2   2 -11    9.70    1.20
  -2   2 -11   10.20    1.20
  -2   2 -11   10.50    1.20
   2  -2  12   10.40    1.20
  -2   2 -12    9.70    1.20
   2  -2  12   11.60    1.30
   2  -2  12   11.10    1.30
  -2   2 -12   10.00    1.20
  -2   2 -12    9.40    1.20
   2  -2  13  284.17    5.80
  -2   2 -13  283.67    5.50
   2  -2  13  298.27    6.00
  -2   2 -13  284.37    5.60
  -2   2 -13  292.17    5.70
   2  -2  14  776.72    8.80
  -2   2 -14  723.73    7.50
  -2   2 -14  761.92    8.50
  -2   2 -14  748.03    8.30
  -2   2 -14  730.13    7.80
   2  -2  14  727.23    8.40
   2  -2  14  759.12    8.00
  -2   2 -15  443.56    4.90
  -2   2 -15  453.85    5.60
   2  -2  15  440.96    5.20
  -2   2 -15  462.35    5.80
   2  -2  15  452.75    5.80
   2  -2  16   28.20    1.20
  -2   2 -16   29.20    1.20
   2  -1 -17   73.79    1.80
   2  -1 -17   77.29    1.90
  -2   1  17   78.29    2.00
  -2   1  17   73.59    1.80
  -2   1  16  110.19    2.90
   2  -1 -16  112.39    2.90
   2  -1 -16  111.39    2.90
  -2   1  16  112.89    3.00
  -2   1  15    1.20    0.70
  -2   1  15    1.00    0.50
   2  -1 -15    1.10    0.60
   2  -1 -15    2.30    0.60
   2  -1 -15    2.30    0.50
   2  -1 -15    2.00    0.60
   2  -1 -14   38.50    2.00
   2  -1 -14   38.20    2.20
   2  -1 -14   37.80    2.20
  -2   1  14   38.00    2.20
  -2   1  14   38.00    2.20
  -2   1  13    6.80    1.10
   2  -1 -13    6.70    0.90
   2  -1 -13    6.80    1.10
   2  -1 -13    6.30    0.90
  -2   1  13    7.20    1.10
   2  -1 -13    7.20    1.00
   2  -1 -12   63.29    2.90
   2  -1 -12   65.99    2.80
   2  -1 -12   64.49    2.90
  -2   1  12   66.39    3.00
  -2   1  12   64.19    3.00
   2  -1 -11  532.35    8.00
  -2   1  11  538.95    8.30
   2  -1 -11  522.65    8.00
   2  -1 -11  519.45    7.80
  -2   1  11  509.75    7.60
  -2   1  11  522.25    8.10
  -2   1  10 1013.70   22.70
   2  -1 -10  973.50   22.30
  -2   1   9   10.50    2.50
   2  -1  -9   11.50    2.40
   2  -1  -8    5.70    1.70
  -2   1   8    4.90    1.10
  -2   1   8    7.80    1.90
  -2   1   7  380.66   11.40
  -2   1   7  403.76   10.90
  -2   1   7  391.76    9.40
   2  -1  -7  386.16   12.00
  -2   1   6    2.00    1.00
  -2   1   6    2.40    0.80
  -2   1   6    1.70    1.00
   2  -1  -6    0.70    1.10
  -2   1   5   48.60    3.30
   2  -1  -5   47.60    3.80
  -2   1   5   47.10    2.70
  -2   1   4  129.19    3.70
   2  -1  -4  134.89    5.50
  -2   1   4  137.09    5.10
  -2   1   3 2210.48   13.00
  -2   1   3 2222.98   18.90
   2  -1  -2 6086.49   26.40
  -2   1   2 6052.69   25.90
   2  -1  -2 6088.49   29.70
   2  -1  -1 9985.30   33.20
  -2   1   1 9999.00   34.90
  -2   1   1 9902.51   30.20
   2  -1  -1 9972.10   32.70
  -2   1   0  224.98    4.50
   2  -1   0  220.78    5.00
  -2   1   0  217.38    5.30
   2  -1   0  224.58    4.40
   2  -1   1  102.69    3.60
  -2   1  -1  107.39    3.20
   2  -1   1  106.49    3.80
   2  -1   1  107.29    3.30
   2  -1   1  100.49    2.70
   2  -1   2    2.60    0.50
   2  -1   2    2.60    0.90
  -2   1  -2    1.70    0.90
  -2   1  -2    2.20    0.60
   2  -1   2    2.20    0.60
   2  -1   2    1.90    0.60
   2  -1   3    8.90    1.60
   2  -1   3   10.10    0.90
  -2   1  -3    9.80    1.60
  -2   1  -3   11.50    1.30
  -2   1  -3   10.20    1.20
  -2   1  -4 1283.67   17.70
   2  -1   4 1308.57   19.10
  -2   1  -4 1299.87   14.30
  -2   1  -4 1304.77   14.30
   2  -1   5   42.90    3.90
  -2   1  -5   43.00    3.60
  -2   1  -5   36.20    2.80
  -2   1  -5   40.30    2.80
   2  -1   6  551.84   14.70
  -2   1  -6  552.84   13.60
  -2   1  -6  516.15   11.70
  -2   1  -7  206.08    8.70
   2  -1   7  205.88    9.60
  -2   1  -7  216.08    8.30
  -2   1  -8  582.24   15.30
   2  -1   8  589.54   17.20
  -2   1  -8  595.14   14.50
   2  -1   9   -0.20    0.50
   2  -1   9    0.90    0.50
  -2   1  -9    0.20    0.30
  -2   1  -9    1.20    0.60
   2  -1   9    2.10    1.70
  -2   1  -9    3.10    1.30
   2  -1  10   11.70    2.70
   2  -1  10   12.50    1.20
   2  -1  10   12.00    1.30
   2  -1  10   11.70    1.20
  -2   1 -10   13.40    1.30
  -2   1 -10   12.60    1.30
  -2   1 -10   13.30    1.40
   2  -1  10   13.00    1.30
   2  -1  10   14.00    1.30
   2  -1  11    4.10    0.90
   2  -1  11    4.00    0.90
  -2   1 -11    5.20    1.00
  -2   1 -11    3.80    0.80
   2  -1  11    3.90    0.80
  -2   1 -11    5.70    0.90
   2  -1  11    4.40    0.90
  -2   1 -12    1.00    0.50
   2  -1  12    0.50    0.50
  -2   1 -12   -0.10    0.50
   2  -1  12    0.80    0.50
  -2   1 -12    1.70    0.60
   2  -1  12    0.80    0.70
  -2   1 -13  214.28    4.80
  -2   1 -13  211.88    4.30
   2  -1  13  227.18    5.10
   2  -1  13  210.68    4.80
  -2   1 -13  213.48    4.80
  -2   1 -13  219.58    5.00
  -2   1 -14  175.88    4.10
  -2   1 -14  171.98    3.90
  -2   1 -14  166.78    3.40
  -2   1 -14  165.08    3.70
   2  -1  14  171.48    4.00
   2  -1  14  166.48    3.80
   2  -1  15   18.40    1.20
  -2   1 -15   17.90    1.00
   2  -1  15   21.70    1.20
  -2   1 -15   19.70    1.20
  -2   1 -16    1.10    0.40
  -2   0  17  378.36    4.20
   2   0 -17  391.06    4.40
  -2   0  17  417.26    5.30
   2   0 -17  413.36    4.90
   2   0 -16   87.09    2.50
   2   0 -16   88.19    2.80
   2   0 -16   88.89    2.80
  -2   0  16   88.19    2.90
  -2   0  16   88.99    2.70
  -2   0  15    1.20    0.60
   2   0 -15    0.70    0.60
   2   0 -15    0.90    0.60
  -2   0  15    0.80    0.50
   2   0 -15    0.40    0.40
  -2   0  14    4.00    1.00
   2   0 -14    3.60    0.80
  -2   0  14    3.70    0.80
   2   0 -14    3.60    0.80
   2   0 -14    3.70    0.70
  -2   0  13    8.40    1.20
   2   0 -13    8.40    1.10
   2   0 -13    7.20    1.00
  -2   0  13    8.50    1.20
   2   0 -13    8.10    1.10
   2   0 -13    7.80    1.00
   2   0 -12    7.80    1.00
   2   0 -12    8.50    1.10
  -2   0  12    8.30    1.10
  -2   0  12    8.80    1.20
   2   0 -12    7.60    1.00
   2   0 -12    8.30    1.10
   2   0 -11  404.56   14.30
  -2   0  11  418.96    7.10
   2   0 -11  411.26    6.90
   2   0 -11  414.86    6.90
   2   0 -11  397.86    6.50
  -2   0  11  412.06    7.30
   2   0 -10    3.60    1.10
   2   0 -10    1.80    1.30
  -2   0   9  360.96   10.90
   2   0  -9  328.97   11.90
  -2   0   8  272.97    9.70
   2   0  -8  272.27   10.30
  -2   0   8  286.87    9.20
   2   0  -7  302.67   10.00
  -2   0   7  298.07    9.30
  -2   0   7  307.07    7.20
  -2   0   6  138.59    5.80
   2   0  -6  145.99    6.40
  -2   0   6  141.99    4.20
  -2   0   5    0.50    0.70
   2   0  -5    0.90    0.80
  -2   0   5    0.40    0.30
  -2   0   5    1.00    0.90
  -2   0   4  236.28    6.00
  -2   0   4  243.48    6.70
  -2   0   4  238.08    3.10
   2   0  -3  389.26    7.70
  -2   0   3  390.26    7.70
   2   0  -2 2920.61   19.30
   2   0  -2 2886.11   14.00
   2   0  -1  649.24    8.60
  -2   0   1  634.94    8.20
  -2   0   1  632.74    8.30
  -2   0   1  650.43    5.40
   2   0  -1  659.23    6.80
   2   0  -1  636.04    8.70
   2   0  -1  628.14    5.80
   2   0   0    2.40    0.60
   2   0   0    3.10    0.80
  -2   0   0    2.90    0.70
  -2   0   0    2.40    0.70
   2   0   0    2.20    0.50
  -2   0  -1  924.01   10.30
  -2   0  -1  923.01   10.80
   2   0   1  900.01   11.20
  -2   0  -2 1601.14   14.90
   2   0   2 1613.04   17.40
  -2   0  -2 1597.64   14.50
  -2   0  -3 1527.95   16.20
   2   0   3 1576.04   19.40
  -2   0  -3 1550.24   16.00
  -2   0  -4  101.69    4.70
  -2   0  -4  101.39    4.70
   2   0   4  105.09    5.60
  -2   0  -5  255.37    8.00
   2   0   5  256.17    9.30
  -2   0  -5  241.88    8.00
  -2   0  -6    2.30    1.00
  -2   0  -6    2.60    1.20
   2   0   6    1.90    1.10
   2   0   7   11.40    2.30
  -2   0  -7   12.20    2.30
  -2   0  -7   12.80    2.10
  -2   0  -8  181.38    8.00
   2   0   8  196.88    9.90
  -2   0  -8  196.38    9.00
   2   0   9   42.90    5.00
   2   0   9   41.10    2.20
   2   0   9   36.70    2.10
   2   0   9   41.90    2.30
  -2   0  -9   40.80    2.10
  -2   0  -9   42.40    2.20
   2   0   9   40.40    2.10
  -2   0  -9   39.00    2.20
  -2   0  -9   40.50    4.30
   2   0  10  132.69    3.90
   2   0  10  139.19    3.90
   2   0  10  140.29    4.10
   2   0  10  125.69    8.80
  -2   0 -10  140.59    4.10
   2   0  10  141.79    4.10
  -2   0 -10  151.18    4.40
   2   0  10  141.89    4.30
  -2   0 -10  142.79    4.20
   2   0  11  425.86    7.00
   2   0  11  432.86    7.30
   2   0  11  414.16    6.70
   2   0  11  433.66    7.30
  -2   0 -11  421.86    7.20
  -2   0 -11  426.16    7.40
   2   0  11  420.86    7.00
  -2   0 -11  441.26    7.50
   2   0  12  203.08    4.90
  -2   0 -12  205.98    4.90
   2   0  12  201.38    4.50
  -2   0 -12  207.08    5.00
  -2   0 -12  207.98    5.00
   2   0  13   40.80    1.90
   2   0  13   38.80    2.00
  -2   0 -13   41.80    2.20
  -2   0 -13   39.60    2.10
  -2   0 -14   11.00    1.00
   2   0  14   11.60    1.00
  -2   0 -14   11.90    1.10
   2   0  15    3.00    0.60
  -2   0 -15    3.20    0.60
   2   0  15    2.50    0.40
  -2   0 -15    2.80    0.40
   2   1 -18   32.90    1.10
  -2  -1  18   33.90    1.30
   2   1 -17    0.60    0.40
   2   1 -17   -0.10    0.40
   2   1 -17    0.20    0.30
  -2  -1  17    0.10    0.40
   2   1 -16    2.90    0.60
   2   1 -16    3.30    0.70
  -2  -1  16    2.60    0.50
   2   1 -16    3.40    0.70
  -2  -1  16    2.90    0.70
  -2  -1  15  192.88    4.50
  -2  -1  15  211.58    5.10
  -2  -1  15  206.28    4.50
   2   1 -15  206.38    4.80
   2   1 -15  211.98    4.90
  -2  -1  14  444.66    7.10
   2   1 -14  458.65    7.50
   2   1 -14  449.66    7.10
  -2  -1  14  441.36    7.30
  -2  -1  14  442.66    7.70
   2   1 -14  445.56    7.30
   2   1 -13  458.65    7.60
  -2  -1  13  451.85    7.60
  -2  -1  13  440.46    7.30
   2   1 -13  447.96    7.10
   2   1 -13  448.96    7.40
  -2  -1  13  446.06    7.90
  -2  -1  12  175.08    4.60
  -2  -1  12  173.48    4.70
   2   1 -12  170.98    4.30
   2   1 -12  187.58   10.00
  -2  -1  12  173.18    4.70
  -2  -1  12  180.58    5.00
   2   1 -11   11.20    2.50
   2   1 -11   10.00    2.30
  -2  -1  11   12.50    1.40
  -2  -1  10  100.09    6.00
   2   1 -10   94.69    6.50
   2   1  -9   35.90    3.90
  -2  -1   9   41.90    3.90
  -2  -1   8  329.97   10.30
   2   1  -8  298.37   10.10
  -2  -1   7  481.25   11.70
   2   1  -7  464.75   11.60
  -2  -1   6   36.90    3.20
   2   1  -6   31.10    2.90
  -2  -1   5  960.40   15.20
   2   1  -5  960.40   14.00
   2   1  -4 1358.66   15.50
  -2  -1   4 1357.76   17.00
  -2  -1   3  171.48    5.60
   2   1  -3  168.28    5.10
   2   1  -2   41.30    1.50
  -2  -1   2   45.40    2.50
  -2  -1   2   44.70    2.70
   2   1  -2   48.40    2.70
  -2  -1   2   45.00    2.70
   2   1  -2   45.90    2.50
  -2  -1   1   47.10    2.50
  -2  -1   1   46.20    2.40
  -2  -1   1   43.40    2.40
   2   1  -1   48.60    2.60
   2   1  -1   41.70    2.10
   2   1  -1   45.60    1.40
  -2  -1   0   96.19    3.70
  -2  -1   0   95.79    3.20
   2   1   0   88.29    3.60
  -2  -1   0   97.89    2.90
  -2  -1  -1 1993.90   15.30
   2   1   1 1988.20   19.40
  -2  -1  -1 2045.40   11.80
  -2  -1  -2 1347.17   13.10
   2   1   2 1371.86   17.70
   2   1   3  148.79    6.40
  -2  -1  -3  144.89    4.60
  -2  -1  -3  139.69    5.50
   2   1   4    4.40    1.50
  -2  -1  -4    3.90    0.90
  -2  -1  -4    6.30    1.60
  -2  -1  -5   62.99    3.70
   2   1   5   61.59    4.80
  -2  -1  -5   68.99    4.80
   2   1   6   44.90    4.40
  -2  -1  -6   42.50    4.00
   2   1   7   26.20    3.60
  -2  -1  -7   32.80    3.90
   2   1   8    3.30    1.60
  -2  -1  -8    1.80    1.20
   2   1   9    1.90    0.60
  -2  -1  -9    1.60    1.30
   2   1   9    1.40    0.50
  -2  -1  -9    4.50    0.80
  -2  -1  -9    1.30    0.60
   2   1   9   -0.80    1.10
   2   1   9    2.30    0.70
  -2  -1  -9    0.90    0.50
   2   1   9    1.60    0.50
   2   1  10  183.58    4.70
   2   1  10  181.28    4.60
   2   1  10  185.18    4.70
  -2  -1 -10  183.38    4.70
   2   1  10  188.98    4.70
  -2  -1 -10  189.28    4.90
  -2  -1 -10  191.58    5.10
   2   1  11  148.49    4.10
   2   1  11  143.89    4.20
   2   1  11  148.89    4.10
  -2  -1 -11  152.68    4.40
   2   1  11  143.19    4.10
  -2  -1 -11  157.98    4.60
   2   1  11  144.19    4.00
   2   1  12   24.60    1.60
   2   1  12   22.50    1.70
   2   1  12   20.90    1.50
  -2  -1 -12   23.10    1.70
  -2  -1 -12   25.50    1.90
   2   1  12   23.40    1.60
  -2  -1 -13    6.40    0.90
   2   1  13    6.90    0.80
   2   1  13    6.50    0.80
   2   1  13    6.60    0.90
  -2  -1 -13    6.80    0.90
   2   1  14   88.39    2.30
  -2  -1 -14   92.19    2.50
  -2  -1 -15  115.29    2.20
   2   1  15  123.29    2.50
  -2  -2  18    0.40    0.40
   2   2 -18    0.30    0.30
   2   2 -18   -0.20    0.30
   2   2 -17    4.40    0.60
   2   2 -17    4.00    0.60
   2   2 -17    3.70    0.60
  -2  -2  17    4.70    0.70
   2   2 -16   23.30    1.50
  -2  -2  16   22.10    1.50
   2   2 -16   21.90    1.40
   2   2 -15  196.98    4.60
   2   2 -15  192.68    4.30
   2   2 -15  200.08    4.70
  -2  -2  15  194.78    4.80
  -2  -2  15  191.58    4.70
   2   2 -14   75.29    3.00
  -2  -2  14   72.99    3.00
  -2  -2  14   77.99    3.20
  -2  -2  14   76.59    3.20
   2   2 -14   76.89    2.90
  -2  -2  13   47.50    2.50
   2   2 -13   49.80    2.30
  -2  -2  13   50.79    2.70
  -2  -2  13   49.80    2.70
  -2  -2  12   87.49    3.60
  -2  -2  12   82.59    3.10
  -2  -2  12   87.59    3.50
   2   2 -12   83.19    3.00
   2   2 -12   91.49    7.30
   2   2 -11    1.70    1.30
  -2  -2  11    1.90    0.80
  -2  -2  11    0.90    0.50
   2   2 -10  563.34   16.80
  -2  -2  10  577.04   14.60
  -2  -2   9  230.38    9.10
   2   2  -9  195.68    8.70
   2   2  -8   72.09    4.90
  -2  -2   8   81.79    5.30
   2   2  -7    0.90    0.90
  -2  -2   7    0.50    0.80
   2   2  -6    1.10    0.90
  -2  -2   6    0.70    0.90
  -2  -2   5   24.10    2.70
   2   2  -5   23.00    2.30
   2   2  -4   21.60    2.10
  -2  -2   4   22.40    2.40
   2   2  -3    2.20    0.80
   2   2  -3    3.00    1.00
   2   2  -3    2.00    0.50
  -2  -2   3    2.30    0.80
  -2  -2   3    2.00    0.90
   2   2  -2   44.70    2.20
   2   2  -2   42.20    2.60
  -2  -2   2   44.90    2.80
  -2  -2   2   45.00    2.70
  -2  -2   1 1742.13   16.80
   2   2  -1 1695.33   15.30
  -2  -2   1 1720.33   15.80
  -2  -2   0 1920.31   15.60
   2   2   0 1861.11   18.40
  -2  -2   0 1865.21   18.20
  -2  -2  -1  206.18    4.80
   2   2   1  194.78    6.70
  -2  -2  -1  194.18    6.20
   2   2   2  160.78    6.70
  -2  -2  -2  159.98    6.00
   2   2   3   18.50    2.70
  -2  -2  -3   19.40    2.40
   2   2   4  105.59    6.40
  -2  -2  -4  112.89    6.10
   2   2   5 1255.67   23.20
  -2  -2  -5 1252.37   22.00
   2   2   6 1561.44   27.50
  -2  -2  -6 1583.34   26.40
  -2  -2  -7    9.50    2.30
   2   2   7    8.80    2.10
  -2  -2  -8  406.96    7.00
   2   2   8  405.16   15.40
  -2  -2  -8  402.36    7.20
   2   2   8  420.96    6.90
   2   2   8  411.86    7.00
  -2  -2  -8  408.96    7.30
  -2  -2  -8  405.96    6.90
  -2  -2  -8  409.56   14.50
   2   2   9    2.80    0.70
  -2  -2  -9    1.40    0.60
  -2  -2  -9    1.40    0.60
   2   2   9    1.30    0.60
  -2  -2  -9    1.20    0.60
   2   2   9    2.30    0.70
   2   2  10    9.90    1.20
   2   2  10   11.00    1.30
   2   2  10   10.60    1.20
  -2  -2 -10   10.50    1.20
  -2  -2 -10   10.20    1.30
   2   2  10    8.40    1.10
   2   2  11    0.90    0.50
   2   2  11    0.50    0.50
   2   2  11    0.70    0.60
  -2  -2 -11    0.90    0.60
   2   2  11    1.40    0.70
  -2  -2 -11    0.50    0.70
   2   2  11    0.60    0.60
  -2  -2 -12    6.90    0.90
  -2  -2 -12    5.00    0.80
   2   2  12    5.80    0.90
   2   2  12    5.90    1.00
   2   2  12    6.00    0.80
   2   2  12    5.30    0.90
  -2  -2 -12    7.00    1.00
   2   2  13  177.58    3.60
  -2  -2 -13  180.48    3.80
   2   2  13  189.78    3.90
  -2  -2 -13  179.28    3.90
  -2  -2 -14  379.26    4.40
   2   2  14  398.76    4.80
   2   3 -18    0.10    0.30
   2   3 -18    0.30    0.30
   2   3 -18    0.00    0.30
  -2  -3  18   -0.20    0.30
   2   3 -17  223.68    3.80
  -2  -3  17  216.08    3.80
   2   3 -17  218.28    3.70
   2   3 -16  336.57    5.30
   2   3 -16  338.27    5.50
   2   3 -16  323.67    4.70
  -2  -3  16  331.17    5.50
   2   3 -15   37.70    2.00
   2   3 -15   34.80    1.70
  -2  -3  15   37.50    2.10
  -2  -3  14    0.30    0.40
   2   3 -14    0.90    0.50
  -2  -3  14   -0.10    0.80
  -2  -3  14    0.70    0.60
  -2  -3  13   61.19    3.00
  -2  -3  13   59.39    2.60
   2   3 -13   60.79    2.50
  -2  -3  13   60.19    2.90
  -2  -3  12  143.89    4.10
  -2  -3  12  151.28    4.80
  -2  -3  12  151.28    4.60
   2   3 -11 1209.18   26.10
  -2  -3  11 1170.68   22.30
  -2  -3  11 1102.59   12.20
  -2  -3  11 1101.99   12.80
   2   3 -10  891.81   21.60
  -2  -3  10  881.81   19.10
   2   3  -9  209.68   10.10
  -2  -3   9  204.58    9.00
   2   3  -9  210.88    8.80
  -2  -3   8  366.66   11.90
   2   3  -8  375.86   11.10
   2   3  -7   40.30    3.40
  -2  -3   7   38.20    3.80
   2   3  -6   51.29    3.70
  -2  -3   6   58.09    4.50
  -2  -3   5   54.89    4.00
   2   3  -5   47.40    3.40
  -2  -3   4  177.08    6.80
   2   3  -4  174.78    6.30
   2   3  -4  179.28    5.80
  -2  -3   3  128.49    5.00
   2   3  -3  125.49    4.30
   2   3  -3  125.39    4.80
  -2  -3   3  127.09    5.50
  -2  -3   2 1349.07   16.20
  -2  -3   2 1364.76   16.90
   2   3  -2 1390.26   16.50
  -2  -3   1 1780.52   19.10
   2   3  -1 1794.12   18.90
  -2  -3   1 1800.32   18.90
   2   3   0 1499.05   19.10
  -2  -3   0 1506.45   18.30
  -2  -3   0 1509.35   16.70
  -2  -3  -1  137.99    5.80
   2   3   1  134.49    6.30
   2   3   2  142.49    7.10
  -2  -3  -2  145.09    6.40
   2   3   3  142.49    7.70
  -2  -3  -3  127.29    6.50
   2   3   4   90.29    6.60
  -2  -3  -4   87.49    5.90
   2   3   5    2.00    1.30
  -2  -3  -5    1.90    1.20
   2   3   6   20.10    3.50
  -2  -3  -6   24.90    3.60
  -2  -3  -7  232.48    5.50
  -2  -3  -7  238.28    5.70
   2   3   7  228.98   11.90
  -2  -3  -7  238.08    5.30
   2   3   7  232.38    5.30
  -2  -3  -7  233.18    5.40
  -2  -3  -7  233.08   11.30
  -2  -3  -8   19.50    1.70
   2   3   8   20.90    1.70
  -2  -3  -8   19.20    1.60
  -2  -3  -8   22.50    1.80
   2   3   9  103.99    3.60
  -2  -3  -9  100.39    3.40
   2   3   9  102.09    3.50
  -2  -3  -9  101.49    3.60
   2   3   9   99.29    3.50
  -2  -3  -9   98.09    3.50
  -2  -3  -9  100.09    3.70
  -2  -3 -10  380.96    6.70
   2   3  10  368.76    6.30
   2   3  10  381.76    6.70
   2   3  10  372.36    6.50
  -2  -3 -10  395.06    7.20
  -2  -3 -10  378.26    6.00
  -2  -3 -11    0.90    0.60
   2   3  11    0.90    0.70
  -2  -3 -11    0.00    0.40
   2   3  11    0.50    0.60
   2   3  11    0.80    0.60
   2   3  11    0.50    0.40
   2   3  12   31.90    1.50
   2   3  12   32.30    1.70
   2   3  12   33.70    1.70
  -2  -3 -12   32.20    1.80
  -2  -3 -12   33.80    1.70
   2   3  13    0.80    0.40
  -2  -3 -13    0.20    0.30
  -2  -3 -13    0.80    0.40
   2   4 -17  222.18    3.30
   2   4 -17  227.28    3.70
  -2  -4  17  215.18    3.70
   2   4 -16    1.50    0.50
   2   4 -16    1.80    0.50
  -2  -4  15   -0.10    0.40
  -2  -4  15    0.80    0.60
  -2  -4  14    0.50    0.50
  -2  -4  14    0.70    0.60
  -2  -4  13  233.48    5.00
  -2  -4  13  250.47    5.80
  -2  -4  12    0.20    0.60
  -2  -4  12    1.60    0.80
  -2  -4  11   35.50    2.40
   2   4 -11   35.00    4.60
  -2  -4  11   35.40    4.20
  -2  -4  11   36.40    2.30
  -2  -4  10   13.50    1.40
  -2  -4  10   13.40    1.40
   2   4 -10   13.60    3.00
  -2  -4  10   11.50    2.50
  -2  -4  10    9.70    0.90
   2   4  -9    9.70    2.30
  -2  -4   9    8.80    1.90
   2   4  -8   74.79    5.90
  -2  -4   8   76.69    6.00
  -2  -4   7  959.40   20.40
   2   4  -7 1001.10   17.90
  -2  -4   6  733.13   17.10
   2   4  -6  741.63   14.90
   2   4  -5  244.78    8.30
  -2  -4   5  247.78    9.40
   2   4  -4    8.50    1.50
   2   4  -4    9.70    1.50
   2   4  -4    7.10    1.40
  -2  -4   4    9.80    2.00
   2   4  -3    3.40    0.90
  -2  -4   3    4.10    1.30
  -2  -4   3    2.90    1.00
   2   4  -3    1.50    0.70
  -2  -4   2    5.00    1.20
   2   4  -2    1.20    0.60
  -2  -4   2    5.20    1.30
  -2  -4   1   16.20    2.10
  -2  -4   1   15.00    2.10
   2   4  -1   13.30    2.00
   2   4   0   11.50    2.10
  -2  -4   0   11.10    1.90
  -2  -4  -1  312.57    9.80
   2   4   1  326.67   11.10
  -2  -4  -2 1512.45   22.60
   2   4   2 1586.14   26.30
   2   4   3 2019.10   31.80
  -2  -4  -3 1893.51   27.20
   2   4   4  459.05   16.10
  -2  -4  -4  447.26   14.20
  -2  -4  -5   23.10    1.80
   2   4   5   28.90    4.30
  -2  -4  -5   28.00    2.00
  -2  -4  -5   26.10    3.80
  -2  -4  -6   55.19    2.80
   2   4   6   52.89    5.90
   2   4   6   59.19    2.70
  -2  -4  -6   61.49    2.80
  -2  -4  -6   56.29    2.90
  -2  -4  -6   60.39    5.90
  -2  -4  -7   85.69    3.40
  -2  -4  -7   87.89    3.40
  -2  -4  -7   88.09    3.60
   2   4   7   88.59    3.20
   2   4   8   49.60    2.60
  -2  -4  -8   54.79    2.60
   2   4   8   49.99    2.40
  -2  -4  -8   53.79    2.80
  -2  -4  -8   49.70    2.60
  -2  -4  -9  258.07    5.50
   2   4   9  266.97    5.60
  -2  -4  -9  275.87    5.50
   2   4   9  267.17    5.50
   2   4   9  261.37    5.20
  -2  -4  -9  266.97    6.00
   2   4  10   13.80    1.30
  -2  -4 -10   15.50    1.30
  -2  -4 -10   16.20    1.20
   2   4  10   14.60    1.30
   2   4  10   16.20    1.30
  -2  -4 -10   15.30    1.40
   2   4  10   16.00    1.50
   2   4  11  295.47    4.70
  -2  -4 -11  288.07    4.80
   2   4  11  293.77    4.90
   2   4  11  301.37    4.90
   2   4  11  303.97    5.20
  -2  -4 -11  301.17    5.30
   2   4  12  138.59    2.60
   2   4  12  143.89    3.00
  -2  -4 -12  136.29    2.70
   2   5 -17    1.30    0.40
  -2  -5  17    1.70    0.40
  -2  -5  16    6.70    0.80
   2   5 -16    5.40    0.60
  -2  -5  15   44.50    2.20
  -2  -5  15   38.50    1.70
  -2  -5  14  420.96    7.50
  -2  -5  13  602.24    9.50
  -2  -5  12  223.08    6.00
  -2  -5  11    1.70    0.80
  -2  -5  11    0.00    0.50
  -2  -5  10   -1.70    0.90
  -2  -5  10    0.30    0.50
  -2  -5   9    9.20    1.20
  -2  -5   9    4.80    0.70
   2   5  -9    8.40    2.30
  -2  -5   9    9.70    2.60
   2   5  -8  218.88   10.50
  -2  -5   8  233.88    5.50
  -2  -5   8  202.98    4.90
  -2  -5   8  228.68   11.20
   2   5  -7  556.84   16.20
  -2  -5   7  576.44   17.30
   2   5  -6    3.80    1.20
  -2  -5   6    3.40    1.50
   2   5  -6    4.60    1.20
  -2  -5   5  157.58    8.40
   2   5  -5  147.99    7.10
  -2  -5   4   42.50    4.20
   2   5  -4   42.30    3.80
   2   5  -3   -0.40    0.50
  -2  -5   3   -0.30    0.80
  -2  -5   2   69.29    4.50
   2   5  -2   66.29    4.70
   2   5  -2   68.79    4.60
  -2  -5   2   69.49    5.20
   2   5  -1    4.10    1.30
  -2  -5   1    1.80    0.90
   2   5   0   40.60    4.20
  -2  -5   0   33.90    3.40
  -2  -5  -1  330.47   11.00
   2   5   1  347.77   13.00
  -2  -5  -2  261.77   10.30
   2   5   2  262.97   12.00
  -2  -5  -3   36.10    4.20
  -2  -5  -3   33.80    1.90
   2   5   3   38.20    5.00
  -2  -5  -3   36.70    2.20
  -2  -5  -4    6.00    2.00
  -2  -5  -4    6.90    1.10
  -2  -5  -4   10.40    1.10
  -2  -5  -4    8.80    1.20
   2   5   4    7.60    2.60
  -2  -5  -5  105.99    3.70
  -2  -5  -5  112.19    3.90
  -2  -5  -5  106.09    4.10
  -2  -5  -6  318.97    6.60
  -2  -5  -6  328.47    6.60
  -2  -5  -6  312.07    6.90
   2   5   7  394.76    6.80
   2   5   7  386.26    6.50
  -2  -5  -7  403.36    7.20
  -2  -5  -7  391.66    7.10
   2   5   7  383.66    6.10
  -2  -5  -7  380.86    7.40
   2   5   8   63.19    2.50
  -2  -5  -8   61.09    2.90
   2   5   8   62.49    2.60
  -2  -5  -8   61.49    2.70
  -2  -5  -8   66.19    2.80
   2   5   8   59.39    2.30
   2   5   9    2.40    0.60
  -2  -5  -9    2.70    0.60
  -2  -5  -9    2.00    0.60
   2   5   9    3.20    0.80
   2   5   9    2.60    0.70
  -2  -5  -9    2.40    0.80
   2   5  10    1.50    0.60
   2   5  10    2.10    0.60
  -2  -5 -10    1.60    0.40
  -2  -5 -10    1.20    0.50
   2   5  10    1.50    0.50
   2   5  10    1.80    0.50
  -2  -5 -10    1.80    0.60
   2   5  11    2.90    0.50
   2   5  11    2.70    0.50
  -2  -5 -11    2.50    0.40
  -2  -5 -11    2.30    0.50
  -2  -6  16    0.70    0.40
   2   6 -16    0.40    0.30
  -2  -6  15   17.30    1.10
  -2  -6  15   20.30    1.40
  -2  -6  14   33.30    1.80
  -2  -6  14   34.30    2.00
  -2  -6  13    3.20    1.00
  -2  -6  12   32.00    1.90
  -2  -6  12    3.30    0.90
  -2  -6  11   57.79    2.60
  -2  -6  11   59.49    3.10
  -2  -6  10  295.37    6.00
  -2  -6  10  345.07    7.30
  -2  -6   9  947.61   11.70
  -2  -6   9  864.11   10.50
  -2  -6   8  138.19    4.30
  -2  -6   8  150.18    4.50
  -2  -6   8  136.09    3.50
   2   6  -8  149.69    9.10
  -2  -6   7    0.80    0.90
  -2  -6   7   -0.40    0.60
  -2  -6   7   -2.20    1.50
  -2  -6   7    2.30    0.70
   2   6  -7    3.50    1.50
  -2  -6   6   10.70    1.20
  -2  -6   6   11.30    1.30
  -2  -6   6   10.80    1.20
  -2  -6   6   11.70    2.70
   2   6  -6    9.40    2.10
  -2  -6   5   23.30    1.70
  -2  -6   5   23.60    1.90
  -2  -6   5   22.70    1.60
  -2  -6   5   26.40    3.90
  -2  -6   4  315.17    6.00
  -2  -6   4  307.07    5.90
  -2  -6   4  301.67    6.60
  -2  -6   4  297.97    5.90
  -2  -6   4  306.27    6.20
  -2  -6   4  319.67   12.80
   2   6  -3  497.85   14.70
  -2  -6   3  488.85    7.50
  -2  -6   3  472.65    8.00
  -2  -6   3  511.05    7.60
   2   6  -2  108.29    7.00
  -2  -6   2  115.69    3.60
  -2  -6   2  116.69    3.70
  -2  -6   1  288.67    5.80
  -2  -6   1  275.87    5.50
  -2  -6   1  271.67    5.60
   2   6   0  507.15   16.50
  -2  -6   0  515.45    7.50
  -2  -6   0  532.75    8.10
  -2  -6   0  523.65    8.50
  -2  -6   0  517.75    8.10
  -2  -6   0  522.95    7.90
  -2  -6  -1   23.20    1.80
   2   6   1   26.60    4.00
  -2  -6  -1   25.20    1.90
  -2  -6  -1   21.70    1.70
  -2  -6  -1   22.30    1.70
  -2  -6  -2    8.50    1.20
   2   6   2    5.90    2.20
  -2  -6  -2    7.80    1.10
  -2  -6  -2    8.30    1.10
  -2  -6  -3    7.40    1.10
  -2  -6  -3    7.70    1.10
  -2  -6  -3    7.20    1.10
  -2  -6  -4  136.29    4.30
  -2  -6  -4  131.39    4.50
  -2  -6  -4  133.39    4.00
  -2  -6  -5  359.96    6.80
  -2  -6  -5  351.36    6.60
  -2  -6  -5  346.57    7.30
  -2  -6  -5  351.36    6.00
  -2  -6  -6  513.25    7.90
  -2  -6  -6  495.05    7.60
   2   6   6  501.75    7.20
  -2  -6  -6  493.25    8.40
   2   6   7   70.89    2.60
  -2  -6  -7   74.49    2.90
   2   6   7   68.69    2.40
  -2  -6  -7   72.39    3.10
  -2  -6  -7   74.49    2.80
   2   6   8   14.40    1.20
  -2  -6  -8   13.90    1.30
   2   6   8   14.00    1.10
   2   6   8   14.30    1.00
  -2  -6  -8   14.00    1.20
  -2  -6  -8   14.30    1.10
   2   6   9    3.40    0.60
   2   6   9    2.60    0.50
  -2  -6  -9    3.10    0.70
   2   6   9    2.50    0.50
   2   6  10    6.10    0.60
  -2  -6 -10    6.00    0.60
   2   6  10    5.80    0.60
  -2  -7  15   12.40    0.80
  -2  -7  14    0.80    0.40
  -2  -7  14    0.40    0.40
  -2  -7  13    0.50    0.50
  -2  -7  13    0.30    0.50
  -2  -7  12   36.80    2.20
  -2  -7  12   40.20    2.20
  -2  -7  11  122.29    4.10
  -2  -7  11  123.09    3.50
  -2  -7  10  492.35    7.30
  -2  -7  10  552.54    8.70
  -2  -7   9  119.49    3.60
  -2  -7   9  107.79    3.60
  -2  -7   9  115.59    4.00
  -2  -7   8   14.00    1.40
  -2  -7   8   14.40    1.40
  -2  -7   8   15.60    1.50
  -2  -7   7   25.50    1.90
  -2  -7   7   25.20    1.90
  -2  -7   7   23.80    1.60
  -2  -7   6   39.10    2.20
  -2  -7   6   40.10    2.30
  -2  -7   6   38.30    2.30
  -2  -7   6   33.10    2.30
  -2  -7   6   34.70    1.90
  -2  -7   5   73.49    3.30
  -2  -7   5   78.79    3.10
  -2  -7   5   81.89    3.20
  -2  -7   5   81.89    3.20
  -2  -7   5   79.89    3.20
  -2  -7   4   39.30    2.40
  -2  -7   4   39.80    2.20
  -2  -7   4   35.80    2.20
  -2  -7   4   33.30    2.20
  -2  -7   4   39.30    2.10
  -2  -7   3  119.39    4.00
  -2  -7   3  128.39    4.40
  -2  -7   3  126.49    4.00
  -2  -7   3  131.69    4.00
  -2  -7   2   16.30    1.40
  -2  -7   2   14.30    1.50
  -2  -7   2   16.10    1.50
  -2  -7   1   86.59    3.60
  -2  -7   1   82.69    3.10
  -2  -7   1   83.99    3.30
  -2  -7   0    0.00    0.50
  -2  -7   0    0.10    0.60
  -2  -7  -1   56.09    2.80
  -2  -7  -1   55.69    2.80
  -2  -7  -2   17.60    1.60
  -2  -7  -2   17.10    1.60
  -2  -7  -2   16.10    1.60
  -2  -7  -3  235.98    5.20
  -2  -7  -3  239.28    5.60
  -2  -7  -3  235.28    5.80
  -2  -7  -4  282.37    5.80
  -2  -7  -4  282.47    5.40
  -2  -7  -4  270.87    6.20
  -2  -7  -5    3.30    0.70
  -2  -7  -5    3.80    0.80
  -2  -7  -5    4.20    1.00
   2   7   6    0.30    0.40
  -2  -7  -6    0.80    0.60
  -2  -7  -6   -0.50    0.60
  -2  -7  -7    0.80    0.50
   2   7   7    1.50    0.40
   2   7   8    8.00    0.60
  -2  -7  -8    9.10    0.70
  -2  -8  14    0.50    0.30
  -2  -8  14    0.60    0.30
  -2  -8  13   79.49    2.30
  -2  -8  13   73.69    2.20
  -2  -8  12  128.89    3.20
  -2  -8  12  136.59    3.50
  -2  -8  11   49.50    2.30
  -2  -8  11   48.70    2.10
  -2  -8  10    2.30    0.60
  -2  -8  10    4.40    0.90
  -2  -8   9   11.20    1.30
  -2  -8   9   12.20    1.20
  -2  -8   8   65.49    2.60
  -2  -8   8   69.49    2.80
  -2  -8   8   67.89    2.80
  -2  -8   8   69.49    3.00
  -2  -8   7  291.67    6.00
  -2  -8   7  320.97    6.20
  -2  -8   7  289.77    5.10
  -2  -8   7  312.97    5.90
  -2  -8   7  284.07    5.80
  -2  -8   6  918.01   10.60
  -2  -8   6  915.51    9.60
  -2  -8   6 1014.10   10.60
  -2  -8   6  864.91    9.10
  -2  -8   6  975.20   10.50
  -2  -8   6  921.61   10.90
  -2  -8   5  106.09    3.70
  -2  -8   5  105.69    3.70
  -2  -8   5  114.89    3.50
  -2  -8   5  105.69    3.50
  -2  -8   5  106.89    3.50
  -2  -8   4    0.90    0.50
  -2  -8   4   -0.80    0.90
  -2  -8   4    0.80    0.50
  -2  -8   4    1.50    0.70
  -2  -8   3   13.50    1.50
  -2  -8   3    9.10    1.00
  -2  -8   3   15.90    1.60
  -2  -8   3   20.50    1.80
  -2  -8   2    1.20    0.80
  -2  -8   2   15.60    1.90
  -2  -8   1    5.40    1.00
  -2  -8   1   56.99    2.80
  -2  -8   0   17.40    1.60
  -2  -8  -1   17.60    1.50
  -2  -8  -2  363.36    6.10
  -2  -8  -3  553.64    7.00
  -2  -8  -4   81.79    2.50
  -2  -8  -5   14.90    1.10
  -2  -8  -6   19.20    1.00
   2   8   6   17.60    1.00
  -2  -9  12   23.30    1.10
  -2  -9  11   16.80    1.10
  -2  -9  11   14.30    0.90
  -2  -9  10    9.80    0.90
  -2  -9  10    8.50    0.80
  -2  -9   9   41.40    1.80
  -2  -9   9   41.80    1.70
  -2  -9   8    0.50    0.30
  -2  -9   8    1.40    0.40
  -2  -9   7   26.70    1.50
  -2  -9   7   25.90    1.40
  -2  -9   6   17.30    1.50
  -2  -9   6   17.70    1.30
  -2  -9   5   14.70    1.30
  -2  -9   5   17.80    1.50
  -2  -9   4   20.20    1.40
  -2  -9   4   85.99    3.30
  -2  -9   4    2.60    0.60
  -2  -9   4   95.19    2.80
  -2  -9   4   15.00    1.50
  -2  -9   3  210.18    4.70
  -2  -9   2  293.37    5.50
  -2  -9   1   64.39    2.60
  -2  -9   0   11.80    1.40
  -2  -9  -1   23.70    1.60
  -2  -9  -1    4.00    0.60
  -2  -9  -2   10.00    0.80
  -2  -9  -3    0.70    0.30
  -2 -10   7  171.98    2.50
  -2 -10   6  115.19    2.00
  -2 -10   6  109.29    2.10
  -2 -10   5   73.89    1.70
  -2 -10   4  124.39    2.30
  -2 -10   3  191.18    2.80
  -2 -10   2   27.40    1.10
  -2 -10   1   38.10    1.20
  -3  10   3   24.00    1.10
   3 -10  -3   31.10    1.30
   3 -10  -2    0.70    0.40
   3 -10  -1   12.90    0.80
   3 -10   0    1.40    0.40
   3 -10   0    0.80    0.40
   3 -10   0    1.20    0.30
  -3  10   0    0.40    0.30
   3 -10   1   39.30    1.60
   3 -10   1   39.30    1.60
   3 -10   2   49.20    1.90
   3 -10   2   47.30    1.80
   3 -10   3  301.27    4.80
   3 -10   3  285.37    4.20
   3 -10   4   53.39    1.80
   3 -10   4   55.49    2.00
   3 -10   5    9.90    0.80
   3 -10   5   11.50    0.90
  -3  10  -5    9.10    0.70
   3 -10   6    6.80    0.70
   3 -10   7    0.30    0.30
  -3   9   7    2.00    0.40
  -3   9   7    2.60    0.50
  -3   9   7    2.00    0.40
   3  -9  -7    2.40    0.50
  -3   9   6    8.70    0.80
  -3   9   6    7.30    0.70
   3  -9  -6    8.10    0.80
   3  -9  -5  111.89    3.00
  -3   9   5  106.39    2.80
  -3   9   5  106.39    2.60
   3  -9  -4  145.29    3.70
  -3   9   4  133.99    3.00
  -3   9   3   37.90    1.70
   3  -9  -3   43.20    2.10
  -3   9   3   41.00    1.90
   3  -9  -2    5.50    0.80
  -3   9   2    4.50    0.80
   3  -9  -2    5.30    0.80
   3  -9  -1   21.30    1.50
   3  -9  -1   22.70    1.60
   3  -9   0   25.50    1.80
   3  -9   0   26.20    1.60
   3  -9   1    2.00    0.50
   3  -9   1    1.60    0.80
   3  -9   2   34.40    2.20
   3  -9   3   41.20    2.40
   3  -9   3   39.70    2.00
   3  -9   4   14.70    1.30
   3  -9   4   18.00    1.50
   3  -9   5    0.70    0.60
   3  -9   5    0.00    0.40
   3  -9   6    9.00    1.00
   3  -9   6    7.50    0.90
   3  -9   7   59.29    2.20
   3  -9   7   59.99    2.30
   3  -9   8   -0.50    0.40
   3  -9   9   -0.10    0.50
   3  -9   9    7.70    0.80
   3  -9  10    4.40    0.60
  -3   8   9  204.78    3.20
  -3   8   9  183.88    2.90
   3  -8  -9  190.58    3.00
   3  -8  -9  181.08    2.90
  -3   8   9  204.48    3.20
   3  -8  -8   29.80    1.50
  -3   8   8   30.70    1.50
  -3   8   8   28.70    1.40
   3  -8  -8   27.60    1.40
  -3   8   7   24.70    1.40
   3  -8  -7   25.60    1.60
  -3   8   7   26.90    1.50
   3  -8  -7   27.40    1.60
   3  -8  -6   15.30    1.40
  -3   8   6   14.30    1.30
   3  -8  -6   13.50    1.30
  -3   8   6   13.40    1.10
   3  -8  -5   20.70    1.70
   3  -8  -5   21.50    1.80
  -3   8   5   20.80    1.60
   3  -8  -4    5.20    1.00
  -3   8   4    4.10    0.80
   3  -8  -4    5.40    1.10
   3  -8  -3   -0.20    0.60
  -3   8   3   -0.20    0.50
   3  -8  -3    0.20    0.60
   3  -8  -2  269.57    6.10
   3  -8  -2  284.87    6.00
  -3   8   2  258.77    5.30
   3  -8  -2  277.17    6.10
   3  -8  -2  265.67    5.70
   3  -8  -1  282.67    5.90
   3  -8  -1  273.77    6.00
   3  -8   0  476.65    7.50
   3  -8   0  460.25    7.90
   3  -8   1  175.68    4.50
   3  -8   1  187.18    5.50
   3  -8   1  173.58    4.90
   3  -8   2   10.80    1.20
   3  -8   2   10.80    1.50
   3  -8   3   19.70    1.90
   3  -8   3   16.10    1.70
   3  -8   4    3.90    1.00
   3  -8   4    4.10    1.10
   3  -8   5   14.40    1.50
   3  -8   5   13.60    1.30
   3  -8   5   12.80    1.50
   3  -8   6   32.60    2.00
   3  -8   6   33.50    2.10
   3  -8   6   32.50    2.30
   3  -8   7    2.10    0.70
   3  -8   7    2.30    0.70
  -3   8  -7    2.40    0.60
   3  -8   7    1.80    0.90
   3  -8   8   91.39    3.20
   3  -8   8   84.49    2.80
  -3   8  -8   91.19    2.90
   3  -8   8   91.49    3.40
   3  -8   9   81.79    2.40
  -3   8  -9   84.19    2.50
   3  -8   9   89.79    3.00
   3  -8  10   11.80    1.10
  -3   8 -10   11.10    1.10
   3  -8  11    0.10    0.40
  -3   8 -11    0.20    0.30
   3  -8  12    5.00    0.50
  -3   8 -12    4.90    0.50
   3  -7 -11   17.20    1.00
  -3   7  11   19.00    1.00
  -3   7  11   19.40    1.00
   3  -7 -11   17.40    0.90
  -3   7  11   16.30    0.90
   3  -7 -10   96.09    2.60
   3  -7 -10   93.29    2.80
  -3   7  10  101.39    2.60
   3  -7 -10   92.49    2.30
  -3   7  10  101.49    2.70
  -3   7   9   22.50    1.50
  -3   7   9   23.70    1.50
   3  -7  -9   22.20    1.60
   3  -7  -9   20.60    1.30
   3  -7  -9   21.30    1.50
  -3   7   8    3.30    0.80
   3  -7  -8    3.20    0.80
   3  -7  -8    2.90    0.70
  -3   7   8    4.20    0.90
   3  -7  -8    3.20    0.70
   3  -7  -7  116.99    4.10
  -3   7   7  123.79    3.80
   3  -7  -7  129.49    4.00
  -3   7   7  126.39    3.90
   3  -7  -7  122.29    4.00
   3  -7  -6    8.10    1.20
   3  -7  -6    9.30    1.30
   3  -7  -6    9.10    1.30
  -3   7   6    8.60    1.20
   3  -7  -5   76.99    3.50
   3  -7  -5   71.49    3.20
   3  -7  -5   74.09    3.40
  -3   7   5   73.79    3.10
   3  -7  -4   32.70    2.20
   3  -7  -4   32.60    2.30
   3  -7  -4   33.80    2.40
   3  -7  -4   31.00    2.00
   3  -7  -3   11.80    1.40
   3  -7  -3   11.60    1.40
   3  -7  -3   13.30    1.50
   3  -7  -3   10.10    1.30
   3  -7  -3   11.10    1.30
   3  -7  -2   81.89    3.40
   3  -7  -2   87.29    3.60
   3  -7  -2   79.29    3.40
   3  -7  -2   80.69    3.30
   3  -7  -1  376.46    7.70
   3  -7  -1  352.96    7.10
   3  -7  -1  368.36    6.90
   3  -7  -1  360.46    6.90
   3  -7   0   65.39    3.10
   3  -7   0   68.19    3.40
   3  -7   0   67.79    2.90
   3  -7   0   67.89    3.10
   3  -7   1   23.90    2.10
   3  -7   1   22.90    1.70
   3  -7   1   21.30    1.80
   3  -7   2   25.60    2.10
   3  -7   2   22.60    1.70
   3  -7   2   22.90    2.10
   3  -7   2   25.40    2.00
   3  -7   3  441.76    8.20
   3  -7   3  424.96    8.60
   3  -7   3  423.96    8.00
   3  -7   4  245.48    6.10
   3  -7   4  236.48    6.50
   3  -7   5   49.40    2.80
   3  -7   5   51.19    2.60
   3  -7   5   47.90    2.90
   3  -7   6   18.70    1.60
   3  -7   6   18.40    1.70
   3  -7   6   18.80    1.90
   3  -7   7   23.90    1.80
   3  -7   7   22.80    2.10
   3  -7   7   22.10    1.70
   3  -7   7   21.90    1.70
   3  -7   8    3.50    0.90
   3  -7   8    2.10    0.50
   3  -7   8    3.90    0.90
   3  -7   8    2.40    1.00
   3  -7   9   20.50    1.60
  -3   7  -9   21.30    1.50
   3  -7   9   21.70    1.90
   3  -7  10    0.50    0.60
   3  -7  10    0.30    0.50
  -3   7 -10    0.30    0.40
   3  -7  10    0.00    0.70
   3  -7  11   11.10    1.10
   3  -7  11   10.30    1.10
  -3   7 -11    9.30    1.00
   3  -7  12  109.29    2.70
  -3   7 -12  101.99    2.50
  -3   7 -12  109.09    2.60
   3  -7  13  132.69    2.50
  -3   7 -13  134.89    2.40
  -3   7 -13  132.09    2.30
  -3   6  13   55.19    1.50
   3  -6 -12  248.58    4.00
  -3   6  12  259.67    4.10
  -3   6  12  250.07    3.70
   3  -6 -12  253.17    4.00
   3  -6 -11   59.29    2.30
  -3   6  11   54.79    1.90
   3  -6 -11   55.59    2.30
  -3   6  11   61.19    2.20
  -3   6  11   61.89    2.40
   3  -6 -10   28.60    1.90
  -3   6  10   30.40    1.60
   3  -6 -10   32.20    1.90
  -3   6  10   31.30    1.80
   3  -6 -10   29.10    1.60
  -3   6  10   33.50    1.90
  -3   6   9    7.70    1.00
   3  -6  -9    9.00    1.20
  -3   6   9    6.80    1.00
   3  -6  -9    7.80    1.00
   3  -6  -9    7.60    1.20
  -3   6   9    8.60    1.20
  -3   6   8   11.60    1.30
   3  -6  -8   11.60    1.40
   3  -6  -8   12.20    1.30
  -3   6   8   13.90    1.50
   3  -6  -8   12.30    1.40
   3  -6  -7   30.70    2.10
   3  -6  -7   29.50    2.10
   3  -6  -7   30.40    2.30
  -3   6   7   30.80    2.00
  -3   6   7   30.20    2.20
   3  -6  -6  306.57    6.60
   3  -6  -6  311.67    6.80
  -3   6   6  309.47    6.90
   3  -6  -6  313.37    6.90
   3  -6  -6  304.47    6.10
   3  -6  -5   47.80    2.80
   3  -6  -5   47.10    2.60
   3  -6  -5   47.60    2.60
  -3   6   5   48.00    2.70
   3  -6  -5   46.70    2.40
  -3   6   4   61.09    5.60
   3  -6  -4   65.79    3.20
   3  -6  -4   66.09    3.00
  -3   6   4   69.69    3.10
   3  -6  -4   66.09    6.30
   3  -6  -4   62.79    2.90
   3  -6  -4   68.09    2.90
  -3   6   3  390.76   13.80
   3  -6  -3  402.46    7.10
   3  -6  -3  412.56    7.60
   3  -6  -3  411.06    7.30
   3  -6  -3  406.56   15.60
   3  -6  -3  391.06    6.90
  -3   6   2   72.19    6.20
   3  -6  -2   75.29    6.60
  -3   6   2   74.59    6.00
   3  -6  -2   69.69    2.90
   3  -6  -2   70.79    3.00
   3  -6  -2   73.89    3.10
   3  -6  -2   72.79    3.00
   3  -6  -1    1.30    0.50
   3  -6  -1    1.10    0.50
   3  -6  -1    1.90    0.60
   3  -6  -1    2.00    0.70
  -3   6   1    1.30    1.20
   3  -6  -1   -0.40    1.00
  -3   6   0   73.09    6.10
   3  -6   0   67.79    2.80
   3  -6   0   71.09    3.00
   3  -6   0   66.99    6.00
   3  -6   0   69.09    2.90
   3  -6   1   27.70    3.90
   3  -6   1   33.20    2.10
  -3   6  -1   32.00    4.00
   3  -6   1   32.40    2.00
  -3   6  -2  483.35   15.60
   3  -6   2  456.95   15.20
   3  -6   2  468.85    8.30
   3  -6   2  487.75    7.90
   3  -6   3  813.22   19.70
   3  -6   3  799.92   10.10
   3  -6   3  816.32   10.50
   3  -6   3  825.12   20.40
  -3   6  -3  861.31   20.90
   3  -6   3  804.42   11.10
   3  -6   3  822.82   10.60
  -3   6  -4  508.05   16.30
   3  -6   4  504.25   15.70
   3  -6   4  489.35    8.20
   3  -6   4  485.55    8.20
   3  -6   4  487.35    8.90
   3  -6   4  498.45    8.50
   3  -6   4  494.55   15.50
  -3   6  -5    1.50    1.20
   3  -6   5    3.70    1.50
   3  -6   5    0.80    0.80
   3  -6   5    0.40    0.80
   3  -6   5   -0.10    0.60
   3  -6   5    1.10    0.70
  -3   6  -5    0.80    1.20
   3  -6   5    1.10    0.80
   3  -6   6    0.90    0.70
   3  -6   6    0.30    0.40
   3  -6   6    0.70    0.70
   3  -6   6    0.60    0.70
   3  -6   7   62.69    2.90
   3  -6   7   63.49    2.80
   3  -6   7   61.79    2.90
   3  -6   7   63.69    3.40
   3  -6   8    0.90    0.60
   3  -6   8    0.70    0.60
   3  -6   8    2.30    0.90
   3  -6   9   10.70    1.30
  -3   6  -9   11.30    1.20
   3  -6   9   11.70    1.50
   3  -6  10    1.30    0.70
   3  -6  10    2.00    0.80
  -3   6 -10    1.50    0.60
  -3   6 -10    1.60    0.80
   3  -6  10    1.80    0.90
   3  -6  11  128.59    3.70
  -3   6 -11  127.29    3.70
   3  -6  11  127.79    3.80
  -3   6 -11  118.49    3.20
   3  -6  12  106.79    3.10
   3  -6  12  107.39    3.10
  -3   6 -12  105.39    3.10
  -3   6 -12  105.49    3.00
   3  -6  13   78.09    2.30
  -3   6 -13   78.29    2.20
  -3   6 -13   77.39    2.20
  -3   6 -13   75.49    2.10
   3  -6  14    2.20    0.40
  -3   6 -14    2.70    0.40
  -3   6 -14    2.30    0.40
  -3   5  14   87.19    2.00
  -3   5  14   91.39    2.00
   3  -5 -14   84.69    1.90
  -3   5  13  313.57    4.60
   3  -5 -13  311.57    4.70
  -3   5  13  319.07    4.70
  -3   5  12  178.38    3.90
  -3   5  12  174.78    3.70
   3  -5 -12  178.08    4.10
  -3   5  12  185.08    4.10
  -3   5  11  129.29    3.60
  -3   5  11  123.49    3.60
   3  -5 -11  127.29    3.90
  -3   5  11  132.79    3.80
   3  -5 -11  123.09    3.90
   3  -5 -10   25.30    1.90
  -3   5  10   27.80    1.90
   3  -5 -10   26.80    2.00
  -3   5  10   27.30    1.90
  -3   5  10   27.50    1.90
  -3   5  10   26.00    1.80
   3  -5  -9    4.00    0.90
  -3   5   9    3.60    0.90
  -3   5   9    2.30    0.70
   3  -5  -9    3.90    0.70
   3  -5  -9    3.20    0.80
  -3   5   9    4.80    0.90
  -3   5   9    3.70    0.80
   3  -5  -8   17.00    1.50
   3  -5  -8   17.20    1.70
   3  -5  -8   16.40    1.50
  -3   5   8   17.10    1.70
   3  -5  -8   16.70    1.70
  -3   5   8   15.90    1.50
  -3   5   8   14.50    1.50
  -3   5   7   24.00    1.80
   3  -5  -7   24.00    1.70
  -3   5   7   24.10    2.00
   3  -5  -7   25.40    2.00
   3  -5  -7   25.10    1.90
   3  -5  -7   22.80    1.90
   3  -5  -6   50.09    2.40
  -3   5   6   53.09    5.20
   3  -5  -6   50.89    5.30
   3  -5  -6   54.89    2.70
   3  -5  -6   52.49    2.80
  -3   5   6   52.69    2.90
   3  -5  -6   51.09    2.70
  -3   5   5   10.20    2.20
  -3   5   5   11.50    2.40
   3  -5  -5   11.60    1.30
   3  -5  -5   12.60    2.60
   3  -5  -5   12.50    1.20
   3  -5  -5   14.40    1.50
  -3   5   5   15.20    1.60
  -3   5   4  546.75   15.00
  -3   5   4  580.94   15.50
   3  -5  -4  570.24   17.40
  -3   5   3   91.09    6.40
   3  -5  -3   89.59    6.80
  -3   5   3   92.89    6.00
  -3   5   2  107.09    6.70
   3  -5  -2  113.99    7.40
  -3   5   1   41.30    4.10
   3  -5  -1   44.10    4.50
  -3   5   0  218.68    9.30
   3  -5   0  224.58    9.80
   3  -5   1  190.78    8.80
  -3   5  -1  186.48    8.60
  -3   5  -1  186.98    7.50
   3  -5   1  181.98    8.50
  -3   5  -2   21.40    2.70
   3  -5   2   22.50    3.10
  -3   5  -2   21.00    3.00
   3  -5   2   19.40    2.80
  -3   5  -3  108.29    6.40
   3  -5   3  111.09    6.60
  -3   5  -3  113.29    6.90
   3  -5   3  108.99    6.70
   3  -5   4   65.09    5.10
  -3   5  -4   59.09    5.00
   3  -5   4   61.79    5.20
  -3   5  -5   18.40    3.10
   3  -5   5   16.70    2.80
   3  -5   5   18.40    1.50
   3  -5   5   19.70    1.80
   3  -5   5   20.50    1.70
   3  -5   6  704.73   18.70
   3  -5   6  739.63    9.40
   3  -5   6  696.13   10.00
  -3   5  -6  678.73   20.00
   3  -5   6  708.23   10.50
   3  -5   6  708.23    9.40
   3  -5   7  743.93    9.80
  -3   5  -7  725.93   21.80
   3  -5   7  757.52   10.00
  -3   5  -7  734.83    9.20
   3  -5   7  748.13   11.10
   3  -5   7  740.73   20.10
   3  -5   8  153.38    4.60
   3  -5   8  144.79    4.40
   3  -5   8  151.98    5.00
   3  -5   9   71.49    3.10
  -3   5  -9   71.19    3.20
   3  -5   9   68.89    3.40
   3  -5  10   62.19    2.70
   3  -5  10   63.49    2.90
   3  -5  10   67.79    3.10
  -3   5 -10   63.39    3.10
  -3   5 -10   69.39    3.00
   3  -5  10   62.29    3.00
   3  -5  11    0.10    0.60
   3  -5  11    0.90    0.60
   3  -5  11    0.40    0.50
  -3   5 -11    0.00    0.50
  -3   5 -11    0.50    0.60
   3  -5  11    1.10    0.60
   3  -5  12   18.80    1.50
   3  -5  12   16.50    1.30
   3  -5  12   17.80    1.40
  -3   5 -12   15.90    1.30
  -3   5 -12   18.60    1.40
  -3   5 -13    5.90    0.80
   3  -5  13    5.60    0.80
  -3   5 -13    5.70    0.70
   3  -5  13    4.90    0.70
  -3   5 -13    5.70    0.80
   3  -5  13    5.00    0.70
   3  -5  14    7.10    0.70
  -3   5 -14    7.20    0.60
  -3   5 -14    7.80    0.70
  -3   5 -14    7.60    0.70
   3  -5  14    8.00    0.70
  -3   4  15   94.69    2.30
   3  -4 -15   97.19    2.30
  -3   4  14   -0.20    0.40
   3  -4 -14   -0.40    0.40
   3  -4 -14   -0.30    0.40
  -3   4  13    2.60    0.70
  -3   4  13    2.00    0.50
  -3   4  13    2.60    0.70
   3  -4 -13    2.30    0.60
   3  -4 -13    2.60    0.60
  -3   4  12   14.00    1.30
  -3   4  12   15.70    1.50
  -3   4  12   14.70    1.20
   3  -4 -12   13.70    1.40
   3  -4 -12   13.50    1.30
   3  -4 -11   55.19    2.40
   3  -4 -11   55.79    2.80
  -3   4  11   54.89    2.60
  -3   4  11   54.19    2.70
  -3   4  11   55.99    2.70
   3  -4 -11   54.89    2.80
  -3   4  11   56.29    2.50
   3  -4 -10  213.68    4.90
   3  -4 -10  222.48    5.60
  -3   4  10  222.78    5.50
  -3   4  10  216.58    5.10
  -3   4  10  221.68    5.40
   3  -4 -10  219.18    5.60
  -3   4  10  205.68    5.20
   3  -4  -9  992.30   10.80
  -3   4   9 1012.90   11.30
   3  -4  -9  986.60   11.90
  -3   4   9 1031.60   11.90
  -3   4   9 1018.60   11.80
   3  -4  -9 1023.90   12.20
   3  -4  -8  354.96    6.50
  -3   4   8  362.86    7.00
   3  -4  -8  363.76    6.90
   3  -4  -8  347.07    6.30
   3  -4  -8  354.46    7.10
  -3   4   8  356.36   15.10
  -3   4   8  356.66    6.70
   3  -4  -8  365.86   13.00
  -3   4   8  376.76    7.20
   3  -4  -7    3.50    0.70
   3  -4  -7    3.40    1.50
  -3   4   7    4.30    0.90
  -3   4   7    1.20    0.90
  -3   4   6   18.10    2.70
   3  -4  -6   19.50    3.10
   3  -4  -6   15.80    2.90
  -3   4   6   17.40    2.80
  -3   4   5    0.00    0.80
  -3   4   5    0.40    0.70
   3  -4  -5   -0.10    1.10
   3  -4  -5    0.70    1.00
   3  -4  -4    0.90    0.80
  -3   4   4    0.20    0.80
   3  -4  -4    0.40    0.90
   3  -4  -3   35.40    3.60
  -3   4   3   33.50    3.20
   3  -4  -3   33.40    3.80
  -3   4   3   32.60    3.50
   3  -4  -2    7.30    1.50
  -3   4   2    7.10    1.60
   3  -4  -2    6.90    1.80
  -3   4   1  330.87    8.80
  -3   4   1  318.47    9.90
   3  -4  -1  346.97   11.20
  -3   4   0 1037.70   16.20
  -3   4   0 1039.00   17.60
   3  -4   0 1065.29   18.90
   3  -4   0 1008.60   17.70
  -3   4  -1  727.63   14.20
  -3   4  -1  742.63   15.10
   3  -4   1  734.93   15.20
   3  -4   1  746.23   15.50
   3  -4   2   26.90    3.10
  -3   4  -2   23.60    2.70
   3  -4   2   26.00    2.90
   3  -4   3   16.50    2.50
   3  -4   3   13.10    2.10
  -3   4  -3   14.20    2.20
   3  -4   4   15.90    2.20
   3  -4   4   14.70    2.50
  -3   4  -4   18.60    2.80
   3  -4   5   25.10    3.30
  -3   4  -5   21.20    3.30
   3  -4   6  202.48    9.70
  -3   4  -6  211.78   10.80
   3  -4   7  184.68    4.90
   3  -4   7  190.48    4.80
   3  -4   7  189.08   10.00
  -3   4  -7  193.48   10.90
   3  -4   7  189.48    5.00
  -3   4  -7  188.38    4.60
   3  -4   7  184.48    5.20
  -3   4  -8  187.38   11.10
   3  -4   8  195.98    4.80
   3  -4   8  193.78    5.00
   3  -4   8  193.38   10.60
  -3   4  -8  185.48    5.10
   3  -4   8  188.48    5.40
   3  -4   8  198.38    5.10
   3  -4   9    2.50    0.90
   3  -4   9    2.80    0.90
  -3   4  -9    5.30    1.00
   3  -4   9    1.80    0.70
  -3   4  -9    2.80    0.80
   3  -4   9    2.90    0.80
   3  -4  10  159.68    4.60
   3  -4  10  157.48    4.40
   3  -4  10  158.38    4.70
  -3   4 -10  155.58    4.60
  -3   4 -10  160.98    4.80
   3  -4  10  151.58    4.50
   3  -4  11   95.29    3.50
  -3   4 -11   98.19    3.60
   3  -4  11   98.19    3.40
   3  -4  11  101.99    3.60
  -3   4 -11  102.49    3.70
   3  -4  12    6.80    1.00
   3  -4  12    4.60    0.90
   3  -4  12    6.20    0.90
  -3   4 -12    5.50    0.90
  -3   4 -12    5.10    0.90
  -3   4 -12    5.90    1.00
   3  -4  13    2.10    0.60
   3  -4  13    3.60    0.70
   3  -4  13    2.30    0.70
  -3   4 -13    3.10    0.60
  -3   4 -13    2.80    0.70
  -3   4 -13    3.20    0.70
   3  -4  14    2.60    0.50
   3  -4  14    1.40    0.50
  -3   4 -14    1.50    0.40
  -3   4 -14    1.70    0.50
  -3   4 -14    1.70    0.40
   3  -4  15    8.70    0.70
  -3   4 -15   10.70    0.70
  -3   3  16  177.38    3.00
   3  -3 -16  170.18    2.80
   3  -3 -15  127.09    2.80
   3  -3 -15  132.19    3.20
  -3   3  14    9.70    1.10
  -3   3  14   11.10    1.00
   3  -3 -14   11.10    1.20
   3  -3 -14   10.80    1.00
  -3   3  13    1.30    0.70
   3  -3 -13    1.70    0.60
   3  -3 -13    1.40    0.70
   3  -3 -13    1.10    0.50
  -3   3  13    2.00    0.60
   3  -3 -12   48.70    2.30
   3  -3 -12   49.40    2.50
  -3   3  12   50.79    2.60
  -3   3  12   50.09    2.50
   3  -3 -12   50.29    2.60
  -3   3  12   47.40    2.20
   3  -3 -11    8.30    1.10
  -3   3  11    9.10    1.20
  -3   3  11    9.10    1.10
  -3   3  11    8.40    1.20
   3  -3 -11    7.10    1.10
  -3   3  11   10.50    1.30
   3  -3 -11    7.90    1.10
   3  -3 -10   88.59    3.30
  -3   3  10   81.59    7.30
  -3   3  10   89.79    3.60
  -3   3  10   86.09    3.20
   3  -3 -10   83.59    3.40
  -3   3  10   87.29    3.40
  -3   3  10   87.69    3.40
   3  -3 -10   87.69    3.50
   3  -3 -10   84.29    3.00
   3  -3  -9  107.79    3.60
  -3   3   9  110.49    3.80
  -3   3   9  108.59    8.20
  -3   3   9  106.79    3.50
   3  -3  -9  107.59    3.70
  -3   3   9  111.59    3.80
   3  -3  -9  109.99    3.90
   3  -3  -9  110.29    8.10
  -3   3   9  112.69    3.90
   3  -3  -9  107.49    3.40
   3  -3  -8    0.70    1.10
  -3   3   8   -0.50    1.10
  -3   3   8   -1.90    1.10
   3  -3  -8    1.20    1.00
   3  -3  -7    0.40    1.00
   3  -3  -7   -0.10    1.00
  -3   3   7   -1.20    1.00
  -3   3   6  152.98    6.70
   3  -3  -6  159.18    8.00
  -3   3   6  158.18    7.60
   3  -3  -6  159.08    8.50
  -3   3   5 1079.09   18.80
  -3   3   5 1073.59   16.40
   3  -3  -5 1082.69   20.30
   3  -3  -5 1073.99   21.00
   3  -3  -4   52.99    4.50
  -3   3   4   56.59    3.60
   3  -3  -4   57.29    4.60
  -3   3   4   54.79    4.10
   3  -3  -3   73.49    4.90
   3  -3  -3   64.69    4.60
  -3   3   3   67.29    4.30
   3  -3  -2  146.89    6.30
  -3   3   2  134.09    5.80
   3  -3  -2  140.69    6.60
  -3   3   1   46.40    3.30
  -3   3   1   45.50    3.20
   3  -3  -1   44.80    3.60
   3  -3  -1   49.60    3.20
   3  -3  -1   47.60    3.50
  -3   3   0    0.50    0.60
   3  -3   0    0.80    0.80
   3  -3   0    0.80    0.90
  -3   3   0    1.30    0.80
  -3   3  -1    1.30    0.90
   3  -3   1    0.70    0.80
   3  -3   1    0.80    0.80
   3  -3   2  380.96    9.60
   3  -3   2  378.46   10.30
  -3   3  -2  365.56   10.00
   3  -3   3 1041.50   17.60
   3  -3   3 1039.30   15.30
   3  -3   4 1662.83   23.30
  -3   3  -4 1606.84   24.50
   3  -3   4 1674.33   18.90
  -3   3  -5  510.85   15.00
   3  -3   5  498.75   13.60
   3  -3   6   21.30    3.10
  -3   3  -6   17.40    3.00
  -3   3  -7    7.00    2.10
   3  -3   7    5.00    1.70
   3  -3   8   89.19    3.40
  -3   3  -8   87.99    7.20
   3  -3   8   84.19    3.30
   3  -3   8   88.69    3.20
  -3   3  -8   87.19    3.40
   3  -3   8   86.89    6.90
  -3   3  -8   85.39    3.50
   3  -3   9   23.40    1.90
   3  -3   9   20.80    1.70
   3  -3   9   21.00    1.70
  -3   3  -9   19.70    1.70
  -3   3  -9   22.20    1.80
   3  -3  10  221.48    5.30
  -3   3 -10  215.18    5.30
   3  -3  10  214.58    5.30
   3  -3  10  219.78    5.30
  -3   3 -10  223.78    5.50
   3  -3  11   10.10    1.30
   3  -3  11   11.20    1.30
   3  -3  11    9.30    1.20
  -3   3 -11   11.00    1.20
  -3   3 -11    9.90    1.20
  -3   3 -11   10.20    1.30
   3  -3  12   48.40    2.30
   3  -3  12   50.69    2.50
   3  -3  12   48.90    2.30
  -3   3 -12   50.49    2.30
  -3   3 -12   50.09    2.40
  -3   3 -12   51.39    2.50
   3  -3  13  211.08    4.20
   3  -3  13  234.98    4.80
   3  -3  13  212.98    4.40
  -3   3 -13  219.88    4.30
  -3   3 -13  228.28    4.60
  -3   3 -13  222.08    4.50
  -3   3 -14   28.90    1.20
   3  -3  14   31.10    1.60
   3  -3  14   29.40    1.40
  -3   3 -14   32.10    1.50
  -3   3 -14   35.10    1.60
  -3   3 -14   30.80    1.50
   3  -3  15    1.60    0.40
  -3   3 -15    1.50    0.40
  -3   2  17    0.00    0.30
   3  -2 -17    0.00    0.30
  -3   2  16    4.40    0.70
   3  -2 -16    4.10    0.60
  -3   2  16    3.30    0.50
   3  -2 -15   18.20    1.10
  -3   2  15   17.20    1.40
   3  -2 -15   17.50    1.20
   3  -2 -15   17.70    1.40
  -3   2  15   16.60    1.20
  -3   2  14    0.10    0.50
   3  -2 -14    2.10    0.60
  -3   2  14    0.70    0.70
   3  -2 -14    1.30    0.50
  -3   2  14    1.30    0.50
   3  -2 -14    1.70    0.70
   3  -2 -13  309.77    5.80
   3  -2 -13  300.07    5.80
  -3   2  13  296.97    5.50
   3  -2 -13  309.37    6.30
  -3   2  13  300.07    5.90
   3  -2 -12  793.82    9.70
   3  -2 -12  840.22   10.10
   3  -2 -12  791.12   10.30
  -3   2  12  799.32    9.60
  -3   2  12  829.42   10.60
   3  -2 -12  802.42   10.30
  -3   2  12  803.12   10.10
   3  -2 -12  796.32    9.10
   3  -2 -11  355.86    6.50
   3  -2 -11  357.56    6.90
  -3   2  11  364.96    7.20
   3  -2 -11  357.76    6.70
  -3   2  11  361.06    6.60
  -3   2  11  342.57    5.90
   3  -2 -11  359.36    6.90
  -3   2  11  349.87    6.80
   3  -2 -11  352.26    6.20
  -3   2  10    5.10    0.90
  -3   2  10    2.80    1.50
  -3   2  10    3.40    0.80
   3  -2 -10    4.20    0.90
  -3   2  10    6.70    0.90
   3  -2 -10    2.70    0.60
   3  -2 -10    2.20    1.40
   3  -2 -10    4.20    0.80
  -3   2  10    4.30    0.80
   3  -2 -10    2.90    0.70
  -3   2  10    3.80    0.90
   3  -2  -9   30.30    4.20
  -3   2   9   29.20    4.00
  -3   2   8   42.50    4.60
   3  -2  -8   36.60    4.40
  -3   2   8   45.10    4.40
  -3   2   7  123.29    6.80
   3  -2  -7  123.19    7.60
  -3   2   6  307.97   10.20
   3  -2  -6  303.27   11.20
   3  -2  -5  328.77   10.80
  -3   2   5  342.67    7.70
  -3   2   5  345.87   10.10
   3  -2  -4    0.60    1.00
  -3   2   4    0.60    0.40
  -3   2   4    0.80    0.90
   3  -2  -3    2.30    1.20
  -3   2   3    2.00    0.80
  -3   2   2  259.17    7.00
   3  -2  -2  271.37    7.40
   3  -2  -2  269.57    7.90
   3  -2  -1  175.48    5.80
  -3   2   1  177.18    6.00
   3  -2  -1  171.38    5.70
  -3   2   1  171.98    5.50
  -3   2   0    0.40    0.60
  -3   2   0    1.70    0.90
   3  -2   0    0.30    0.40
   3  -2   0    0.40    0.70
   3  -2   0    0.20    0.60
   3  -2   1   86.99    3.20
  -3   2  -1   88.59    4.50
   3  -2   1   89.39    4.40
   3  -2   1   83.99    4.10
  -3   2  -2  142.39    4.40
  -3   2  -2  140.19    6.00
   3  -2   2  148.39    5.10
   3  -2   2  143.89    5.80
   3  -2   3  630.44    9.90
   3  -2   3  598.94   12.50
  -3   2  -3  591.34   13.10
  -3   2  -4 1077.99   19.30
   3  -2   4 1089.19   19.60
   3  -2   4 1077.19   18.00
   3  -2   5   -0.50    1.20
   3  -2   5    1.40    1.00
  -3   2  -5    0.00    1.10
   3  -2   6   87.49    6.60
   3  -2   6   87.39    6.10
  -3   2  -6   86.79    6.40
   3  -2   7  330.37   13.50
  -3   2  -7  318.57   12.70
   3  -2   7  309.57   12.40
   3  -2   8  488.35   16.20
   3  -2   8  486.15    7.70
   3  -2   8  486.85   17.20
   3  -2   8  465.55    7.30
  -3   2  -8  471.05   15.70
   3  -2   8  470.55    7.70
  -3   2  -8  482.95    7.80
  -3   2  -8  480.45    7.90
   3  -2   9  101.79    7.60
   3  -2   9  105.09    3.70
   3  -2   9  103.39    3.60
   3  -2   9  104.39    3.60
  -3   2  -9   97.49    3.50
  -3   2  -9  102.99    3.70
   3  -2   9   95.99    3.20
  -3   2  -9  102.29    3.70
   3  -2  10   34.60    2.10
   3  -2  10   35.70    2.20
   3  -2  10   32.80    2.00
  -3   2 -10   34.00    2.00
  -3   2 -10   32.90    2.10
   3  -2  10   34.20    1.90
  -3   2 -10   34.60    2.20
   3  -2  11    1.50    0.70
   3  -2  11    0.40    0.40
   3  -2  11    1.60    0.60
  -3   2 -11    1.10    0.50
  -3   2 -11    1.10    0.70
   3  -2  12    0.80    0.70
   3  -2  12    1.00    0.50
   3  -2  12    1.20    0.50
  -3   2 -12    1.60    0.70
  -3   2 -12    2.10    0.60
  -3   2 -12    1.50    0.70
   3  -2  13    2.10    0.60
   3  -2  13    1.70    0.60
   3  -2  13    1.90    0.70
  -3   2 -13    1.00    0.50
  -3   2 -13    0.60    0.50
  -3   2 -13    0.30    0.50
  -3   2 -14   44.50    1.80
   3  -2  14   46.00    1.90
  -3   2 -14   45.70    1.80
   3  -2  14   44.50    1.60
   3  -2  15    3.20    0.50
  -3   2 -15    2.80    0.50
  -3   1  17    7.30    0.70
   3  -1 -17    8.20    0.70
  -3   1  17    7.10    0.70
   3  -1 -16   68.59    2.10
  -3   1  16   72.39    2.50
   3  -1 -16   71.29    2.40
  -3   1  16   67.79    2.40
   3  -1 -15    7.60    0.90
  -3   1  15    7.00    1.00
   3  -1 -15    6.00    0.80
   3  -1 -15    7.20    1.00
  -3   1  15    5.10    0.90
   3  -1 -14   44.70    2.20
   3  -1 -14   43.00    2.30
  -3   1  14   42.60    2.40
   3  -1 -14   43.20    2.10
   3  -1 -14   44.20    2.30
  -3   1  14   41.30    2.30
   3  -1 -13  186.78    4.70
   3  -1 -13  193.58    5.00
  -3   1  13  197.68    5.20
   3  -1 -13  199.48    5.10
  -3   1  13  191.18    5.00
   3  -1 -13  197.08    4.60
   3  -1 -12  149.19    4.30
   3  -1 -12  152.68    4.50
  -3   1  12  151.68    4.60
  -3   1  12  147.29    3.90
   3  -1 -12  148.39    4.40
  -3   1  12  147.19    4.50
   3  -1 -12  151.38    4.10
   3  -1 -11   12.10    1.20
   3  -1 -11   13.70    1.40
  -3   1  11   12.00    1.20
  -3   1  11   11.80    1.30
   3  -1 -11   12.00    1.30
  -3   1  11   10.10    1.30
   3  -1 -11    7.50    2.20
  -3   1  10   56.79    5.40
   3  -1 -10   55.99    5.70
  -3   1   9  243.98   10.60
   3  -1  -9  247.68   11.50
   3  -1  -8  734.33   18.60
  -3   1   8  710.03   17.00
   3  -1  -7  991.50   20.40
  -3   1   7 1045.00   19.30
  -3   1   7 1001.90   18.70
  -3   1   6  120.09    6.20
   3  -1  -6  123.49    6.70
  -3   1   5  175.08    7.00
   3  -1  -5  167.18    7.20
  -3   1   4    0.40    0.80
   3  -1  -4    0.70    0.80
   3  -1  -3   29.20    2.60
  -3   1   3   48.70    3.30
  -3   1   2  787.02   12.50
  -3   1   2  773.92   10.10
   3  -1  -2  784.42   10.80
   3  -1  -2  775.42   12.20
   3  -1  -1   73.09    3.30
  -3   1   1   73.29    3.00
  -3   1   1   75.89    3.90
   3  -1  -1   71.69    3.50
  -3   1   0  301.97    6.90
  -3   1   0  303.27    7.80
   3  -1   0  298.27    7.00
   3  -1   0  284.17    6.50
  -3   1  -1  445.36    9.70
  -3   1  -1  445.46    8.50
   3  -1   1  437.66    9.10
   3  -1   1  440.36    7.70
   3  -1   1  447.46    9.00
   3  -1   1  440.36    8.70
   3  -1   2  109.39    4.80
  -3   1  -2  106.39    4.20
   3  -1   2  106.39    3.70
   3  -1   2  112.79    5.20
  -3   1  -2  111.09    5.10
   3  -1   2  110.79    3.70
   3  -1   2  111.39    4.50
  -3   1  -3  127.39    4.90
   3  -1   3  131.09    5.70
  -3   1  -3  130.59    5.90
   3  -1   3  130.29    5.00
   3  -1   3  123.99    6.00
  -3   1  -4    5.90    1.50
   3  -1   4    7.80    1.90
  -3   1  -4    4.70    1.20
   3  -1   4    4.10    1.10
  -3   1  -5   84.19    4.80
   3  -1   5   85.29    6.10
  -3   1  -5   74.89    5.20
   3  -1   5   83.49    4.60
  -3   1  -6  614.54   14.10
   3  -1   6  625.24   17.40
  -3   1  -6  586.24   15.50
   3  -1   7 1554.54   28.90
  -3   1  -7 1483.05   25.50
  -3   1  -8  693.13   17.80
   3  -1   8  714.03   20.50
   3  -1   8  688.23    8.80
   3  -1   8  743.33    9.60
  -3   1  -8  708.53    9.60
  -3   1  -8  692.23    8.50
   3  -1   8  698.53    9.00
  -3   1  -8  713.73    9.00
   3  -1   8  715.03    8.80
  -3   1  -8  712.83    9.50
   3  -1   9   61.19    2.70
   3  -1   9   57.99    2.40
   3  -1   9   61.69    2.70
   3  -1   9   58.69    6.20
   3  -1   9   51.89    2.60
   3  -1   9   59.49    2.60
  -3   1  -9   62.29    2.60
  -3   1  -9   59.49    2.70
  -3   1  -9   58.99    2.80
   3  -1  10   40.60    2.10
   3  -1  10   42.50    2.10
  -3   1 -10   44.60    2.50
   3  -1  10   45.10    2.50
   3  -1  10   42.60    2.20
  -3   1 -10   43.30    2.20
  -3   1 -10   43.80    2.30
   3  -1  10   41.60    2.20
   3  -1  11    0.90    0.60
   3  -1  11    2.50    0.70
  -3   1 -11    1.80    0.60
  -3   1 -11    1.70    0.70
   3  -1  11    1.90    0.60
  -3   1 -11    2.30    0.80
   3  -1  12   14.80    1.40
   3  -1  12    9.50    1.00
  -3   1 -12   11.80    1.10
  -3   1 -12   12.70    1.30
  -3   1 -12   12.20    1.30
   3  -1  13   10.20    1.10
  -3   1 -13    9.40    1.00
  -3   1 -13   10.20    1.10
   3  -1  14    2.40    0.50
   3  -1  14    2.50    0.60
  -3   1 -14    2.60    0.50
  -3   1 -14    2.70    0.50
  -3   1 -15   95.89    1.90
   3  -1  15   97.49    2.00
   3   0 -18  180.58    2.50
   3   0 -17  174.38    3.00
   3   0 -17  182.68    3.40
  -3   0  17  174.88    3.50
  -3   0  17  170.98    3.10
   3   0 -16    0.60    0.40
  -3   0  16    0.10    0.50
   3   0 -16    0.30    0.40
   3   0 -16    0.30    0.50
  -3   0  16    0.20    0.50
   3   0 -15  116.29    3.40
   3   0 -15  115.09    3.50
  -3   0  15  113.59    3.50
   3   0 -15  120.69    3.70
  -3   0  15  116.29    3.70
   3   0 -15  117.79    3.20
   3   0 -14   15.00    1.40
   3   0 -14   15.60    1.50
  -3   0  14   16.30    1.50
   3   0 -14   17.30    1.50
  -3   0  14   15.50    1.50
   3   0 -14   17.30    1.40
  -3   0  13    1.10    0.70
   3   0 -13    1.00    0.60
  -3   0  13    0.30    0.50
   3   0 -13    0.90    0.50
  -3   0  12    1.00    0.80
   3   0 -12    1.00    0.60
  -3   0  12    0.70    0.50
   3   0 -12    0.40    0.50
  -3   0  11   11.60    1.40
   3   0 -11   10.10    1.20
  -3   0  11   10.50    1.20
   3   0 -11    9.50    1.10
  -3   0  11    7.80    2.10
   3   0 -11    6.90    2.30
   3   0 -10  356.76   13.90
  -3   0  10  399.66   13.30
   3   0  -9 1232.08   24.60
  -3   0   9 1394.96   23.80
  -3   0   8  988.60   18.40
   3   0  -8 1022.00   21.00
  -3   0   7  230.28    8.20
   3   0  -7  222.68    9.20
  -3   0   6    5.70    1.30
   3   0  -6    4.90    1.60
  -3   0   6    4.40    1.30
  -3   0   5    2.30    1.20
  -3   0   5    3.10    1.00
   3   0  -5    3.10    1.20
   3   0  -4  446.76   10.40
  -3   0   4  441.06   10.20
  -3   0   3    6.30    1.30
   3   0  -3    7.00    1.40
   3   0  -2  501.15    7.40
  -3   0   2  514.15    9.60
  -3   0   2  527.25    9.90
   3   0  -2  527.35   10.00
   3   0  -1  223.98    4.70
  -3   0   1  228.88    3.80
   3   0  -1  229.38    5.20
  -3   0   1  231.28    6.40
  -3   0   1  227.98    6.20
   3   0  -1  237.78    6.50
   3   0  -1  232.68    6.70
  -3   0   0  259.47    6.30
   3   0   0  260.37    6.10
  -3   0   0  271.27    7.20
   3   0   0  262.87    6.70
  -3   0   0  261.57    6.90
   3   0   0  265.87    7.10
   3   0   0  273.27    6.00
  -3   0  -1   32.10    2.50
   3   0   1   36.20    2.50
  -3   0  -1   37.70    2.30
   3   0   1   36.30    2.80
  -3   0  -1   39.50    2.90
   3   0   1   36.60    2.70
  -3   0  -2    6.90    1.30
   3   0   2    4.80    1.30
  -3   0  -2    6.30    1.30
   3   0   2    6.70    1.30
  -3   0  -3  145.99    5.80
  -3   0  -3  148.69    6.00
   3   0   3  150.38    6.90
   3   0   4  148.19    7.50
  -3   0  -4  143.09    6.40
  -3   0  -4  154.98    6.60
  -3   0  -5  315.97   10.10
   3   0   5  341.57   12.00
  -3   0  -5  341.07   10.60
   3   0   6   12.20    2.60
  -3   0  -6   14.30    2.50
  -3   0  -6   12.30    2.20
   3   0   7  117.29    8.00
  -3   0  -7  125.79    7.60
  -3   0  -8    2.20    1.60
   3   0   8    1.50    0.60
   3   0   8    0.40    1.10
   3   0   8    1.50    0.70
  -3   0  -8    0.90    0.60
  -3   0  -8    1.30    0.60
  -3   0  -8    1.60    0.50
  -3   0  -8    1.30    0.50
   3   0   8    0.40    0.50
  -3   0  -8    2.70    0.70
  -3   0  -8    1.50    0.60
  -3   0  -9    9.60    1.10
   3   0   9    9.10    1.10
   3   0   9    9.10    1.10
  -3   0  -9    9.70    1.10
  -3   0  -9    7.90    1.00
   3   0   9    9.10    1.10
  -3   0  -9    8.90    1.20
   3   0  10  472.05    7.30
   3   0  10  502.85    8.00
  -3   0 -10  480.35    7.30
   3   0  10  481.05    7.20
  -3   0 -10  482.95    7.60
   3   0  10  493.15    7.60
  -3   0 -10  496.15    8.10
   3   0  11  411.96    6.60
   3   0  11  436.66    7.20
  -3   0 -11  427.26    6.70
   3   0  11  425.46    6.50
  -3   0 -11  422.46    7.00
   3   0  11  419.16    6.80
  -3   0 -11  439.16    7.40
   3   0  12  333.47    5.90
   3   0  12  323.37    5.20
  -3   0 -12  326.87    5.70
  -3   0 -12  333.87    6.10
   3   0  13    1.60    0.60
   3   0  13    1.60    0.50
  -3   0 -13    1.60    0.50
  -3   0 -13    1.90    0.60
   3   0  14   34.00    1.40
  -3   0 -14   30.80    1.20
  -3   0 -14   33.70    1.40
  -3   0 -14   33.40    1.40
   3   0  14   35.80    1.50
  -3  -1  18    7.30    0.60
   3   1 -18   12.30    0.80
   3   1 -17    4.20    0.60
  -3  -1  17    4.50    0.50
   3   1 -17    4.80    0.70
   3   1 -17    5.10    0.60
  -3  -1  17    5.00    0.80
   3   1 -16   67.79    2.40
   3   1 -16   62.89    2.40
   3   1 -16   67.09    2.50
  -3  -1  16   67.09    2.40
  -3  -1  16   62.09    2.60
   3   1 -16   65.49    2.20
   3   1 -15    7.60    1.00
  -3  -1  15    6.20    0.90
   3   1 -15    9.10    1.10
  -3  -1  15    8.90    1.20
   3   1 -14  172.78    4.40
   3   1 -14  179.58    4.70
  -3  -1  14  174.28    4.60
  -3  -1  14  176.58    5.00
   3   1 -13   58.89    2.70
   3   1 -13   59.29    2.80
  -3  -1  13   57.19    2.70
  -3  -1  13   58.29    3.00
   3   1 -12   52.89    5.70
   3   1 -12   53.99    2.50
  -3  -1  12   53.59    2.70
  -3  -1  12   50.69    2.60
   3   1 -12   47.40    5.30
  -3  -1  12   54.29    2.90
   3   1 -11   66.79    2.70
  -3  -1  11   66.89    3.00
  -3  -1  11   59.49    2.90
   3   1 -11   64.99    6.00
  -3  -1  11   76.59    6.00
  -3  -1  11   67.49    3.10
   3   1 -10    4.20    1.80
  -3  -1  10   -0.70    1.00
   3   1  -9   31.50    3.90
  -3  -1   9   37.20    4.10
   3   1  -8   12.60    2.30
  -3  -1   8   10.40    2.20
   3   1  -7    0.60    1.00
  -3  -1   7    1.10    1.00
   3   1  -6 1114.89   18.40
  -3  -1   6 1161.18   19.70
   3   1  -5 1970.20   23.00
  -3  -1   5 1959.70   24.50
  -3  -1   4  455.75   11.10
   3   1  -4  466.05   10.60
  -3  -1   3  103.09    4.90
  -3  -1   3   95.29    4.50
   3   1  -3  101.39    4.80
  -3  -1   3  104.79    5.00
   3   1  -2    9.00    0.80
   3   1  -2   10.40    1.60
  -3  -1   2   11.40    1.70
   3   1  -2   10.70    0.80
   3   1  -2   11.20    1.60
  -3  -1   2   11.10    1.60
  -3  -1   2   11.00    1.60
   3   1  -1    4.40    1.20
  -3  -1   1    6.60    1.20
   3   1  -1    4.40    0.70
  -3  -1   1    4.30    0.90
   3   1  -1    5.00    0.90
  -3  -1   1    4.90    1.20
   3   1  -1    5.20    1.20
   3   1   0   79.29    3.10
  -3  -1   0   76.99    4.10
  -3  -1   0   79.19    3.20
   3   1   0   78.99    3.90
   3   1   0   77.69    4.20
  -3  -1   0   86.69    3.60
   3   1   1    9.30    1.60
  -3  -1  -1    9.50    1.50
  -3  -1  -1   10.20    1.00
  -3  -1  -2   33.50    3.00
  -3  -1  -2   35.20    2.70
   3   1   2   34.40    3.30
  -3  -1  -3  309.67    9.40
   3   1   3  310.67   10.30
  -3  -1  -3  316.27    8.50
   3   1   4 1188.78   21.40
  -3  -1  -4 1208.48   17.60
  -3  -1  -4 1216.38   20.30
   3   1   5  813.92   18.90
  -3  -1  -5  802.32   18.00
   3   1   6   83.09    6.50
  -3  -1  -6   82.29    6.20
  -3  -1  -7   81.99    3.20
   3   1   7   79.49    3.20
  -3  -1  -7   80.49    3.30
  -3  -1  -7   77.99    3.10
   3   1   7   78.29    6.60
   3   1   7   78.49    3.10
  -3  -1  -7   78.19    3.10
  -3  -1  -7   68.89    6.00
   3   1   8   81.39    7.10
  -3  -1  -8   90.49    3.40
   3   1   8   90.69    3.40
   3   1   8   93.19    3.50
  -3  -1  -8   94.29    3.70
  -3  -1  -8   89.09    3.10
  -3  -1  -8   88.59    3.20
   3   1   8   92.99    3.40
  -3  -1  -8   89.89    3.50
  -3  -1  -8   93.19    7.10
  -3  -1  -9   35.40    2.10
   3   1   9   33.30    2.00
   3   1   9   36.30    2.20
  -3  -1  -9   35.10    2.10
   3   1   9   34.60    2.10
  -3  -1  -9   37.40    2.30
  -3  -1 -10  246.58    5.20
   3   1  10  250.87    5.50
   3   1  10  251.17    5.40
   3   1  10  255.97    5.40
   3   1  10  263.67    5.60
  -3  -1 -10  255.37    5.40
  -3  -1 -10  264.67    5.90
   3   1  11   97.89    3.20
   3   1  11   96.19    3.00
   3   1  11   96.89    3.20
   3   1  11  100.09    3.30
  -3  -1 -11   98.79    3.30
   3   1  11   95.79    3.30
  -3  -1 -11  102.19    3.60
   3   1  12   16.80    1.30
   3   1  12   18.30    1.30
  -3  -1 -12   17.10    1.30
  -3  -1 -12   20.70    1.50
   3   1  13   42.70    1.70
  -3  -1 -13   39.30    1.50
   3   1  13   45.30    1.70
  -3  -1 -13   44.20    1.80
  -3  -1 -14   10.00    0.70
   3   1  14   10.70    0.80
   3   2 -18    6.10    0.60
  -3  -2  18    4.50    0.50
   3   2 -18    5.50    0.60
  -3  -2  17    0.00    0.30
   3   2 -17   -0.40    0.40
   3   2 -17    0.10    0.40
   3   2 -17    0.60    0.40
  -3  -2  17    0.50    0.50
   3   2 -17    0.30    0.30
   3   2 -16    0.50    0.50
   3   2 -16    0.20    0.50
  -3  -2  16    0.30    0.60
   3   2 -15   48.00    2.20
   3   2 -15   48.80    2.40
  -3  -2  15   46.30    2.10
  -3  -2  15   48.80    2.50
  -3  -2  14   74.79    2.90
   3   2 -14   72.39    2.80
   3   2 -14   73.09    3.00
  -3  -2  14   72.89    3.20
   3   2 -13    1.50    0.60
  -3  -2  13    0.80    0.50
  -3  -2  13    0.80    0.70
  -3  -2  12  608.84    9.60
  -3  -2  12  620.84    9.00
   3   2 -11  332.17   13.60
  -3  -2  11  339.17    6.60
  -3  -2  11  312.97    6.80
  -3  -2  11  328.97    6.90
   3   2 -10    7.30    2.10
  -3  -2  10    6.40    1.70
   3   2  -9   46.30    4.60
  -3  -2   9   52.49    4.90
   3   2  -8    1.20    1.10
  -3  -2   8    2.10    1.20
  -3  -2   7    7.20    1.80
   3   2  -7   10.30    2.00
  -3  -2   6  500.05   13.80
   3   2  -6  438.36   11.70
   3   2  -5  414.86   10.80
  -3  -2   5  457.75   12.50
   3   2  -4   14.00    2.00
  -3  -2   4   15.80    2.30
  -3  -2   3   17.80    2.10
  -3  -2   3   15.90    2.10
   3   2  -3   18.50    2.20
   3   2  -3   14.80    1.90
  -3  -2   2 1084.19   15.30
  -3  -2   2 1041.50   15.50
   3   2  -2 1053.19   15.70
   3   2  -2 1051.49   16.30
  -3  -2   1  761.22   13.60
   3   2  -1  725.83   12.70
  -3  -2   1  773.82   11.90
   3   2  -1  748.63   13.50
  -3  -2   0  177.88    6.80
   3   2   0  189.48    7.20
  -3  -2   0  192.08    5.50
  -3  -2  -1    0.20    0.80
   3   2   1    1.70    1.00
  -3  -2  -2   22.30    2.70
   3   2   2   22.10    2.90
   3   2   3    8.10    1.90
  -3  -2  -3    9.10    2.00
   3   2   4    6.60    1.90
  -3  -2  -4    8.70    2.10
  -3  -2  -5   15.50    2.90
   3   2   5   19.30    3.00
  -3  -2  -6   36.10    2.20
   3   2   6   35.10    4.50
   3   2   6   39.10    2.20
  -3  -2  -6   36.60    2.20
  -3  -2  -6   35.40    2.10
  -3  -2  -6   36.40    4.50
  -3  -2  -7  970.30   11.40
  -3  -2  -7  950.20   11.50
   3   2   7  974.40   11.20
  -3  -2  -7  934.01   10.30
   3   2   7  952.70   10.30
  -3  -2  -7  959.20   11.30
  -3  -2  -7  971.80   23.40
  -3  -2  -8  541.95    8.40
   3   2   8  559.94    8.40
  -3  -2  -8  524.05    8.60
  -3  -2  -8  531.25    7.90
   3   2   8  549.54    8.40
  -3  -2  -8  547.45    8.70
  -3  -2  -9  331.57    6.40
   3   2   9  344.27    6.40
   3   2   9  341.57    6.60
  -3  -2  -9  324.37    6.10
   3   2   9  342.17    6.50
  -3  -2  -9  344.87    6.90
  -3  -2 -10   43.30    2.20
   3   2  10   45.10    2.40
   3   2  10   47.30    2.30
  -3  -2 -10   44.80    2.20
   3   2  10   44.30    2.30
  -3  -2 -10   42.70    2.10
   3   2  10   46.80    2.40
  -3  -2 -10   47.40    2.50
   3   2  11    0.90    0.60
   3   2  11    0.70    0.50
  -3  -2 -11    1.00    0.50
   3   2  11    0.60    0.50
   3   2  11    1.10    0.60
  -3  -2 -11    1.30    0.50
   3   2  11    1.30    0.60
  -3  -2 -11    0.90    0.60
   3   2  12    0.50    0.40
  -3  -2 -12    1.40    0.40
   3   2  12    1.30    0.40
   3   2  12    2.00    0.60
  -3  -2 -12    1.50    0.60
  -3  -2 -13   69.99    2.00
   3   3 -18   15.00    0.80
   3   3 -18   14.40    0.80
   3   3 -17  204.98    3.60
   3   3 -17  193.78    3.20
   3   3 -17  204.68    3.60
   3   3 -16  210.48    3.90
  -3  -3  16  207.88    4.30
   3   3 -16  215.38    4.30
  -3  -3  16  203.78    4.40
   3   3 -15   10.90    1.10
  -3  -3  15   11.30    1.20
   3   3 -15   10.40    1.00
   3   3 -14   22.70    1.60
  -3  -3  14   22.40    1.80
  -3  -3  13   12.80    1.50
  -3  -3  12   71.29    3.30
   3   3 -11   82.39    7.30
  -3  -3  11   85.49    6.60
  -3  -3  11   73.79    3.40
   3   3 -10    1.50    1.20
  -3  -3  10    0.60    0.70
   3   3  -9  328.47   12.30
  -3  -3   9  346.07   12.90
  -3  -3   8 1350.46   24.80
   3   3  -8 1310.27   23.20
  -3  -3   7  484.35   14.40
   3   3  -7  502.65   13.60
  -3  -3   6  168.68    8.10
   3   3  -6  158.98    7.30
   3   3  -5    3.70    1.30
  -3  -3   5    2.80    1.20
  -3  -3   4   17.70    2.30
  -3  -3   4   20.10    2.50
   3   3  -4   18.60    2.40
   3   3  -4   17.20    2.20
  -3  -3   3  382.66   10.20
  -3  -3   3  379.36   10.20
   3   3  -3  390.06   10.90
   3   3  -3  390.16   10.20
  -3  -3   2 1205.48   18.20
  -3  -3   2 1236.88   17.60
   3   3  -2 1190.28   18.40
   3   3  -1  320.27    9.70
   3   3  -1  314.37    9.70
  -3  -3   1  333.27    8.80
  -3  -3   1  316.07    9.60
  -3  -3   0   42.50    3.70
   3   3   0   43.00    3.90
  -3  -3   0   43.30    3.00
  -3  -3  -1  309.47   10.20
   3   3   1  325.57   11.10
   3   3   2    1.50    1.10
  -3  -3  -2    1.90    1.10
   3   3   3    2.10    0.90
  -3  -3  -3    1.80    1.20
  -3  -3  -4   87.79    6.60
   3   3   4   91.79    7.00
  -3  -3  -5   93.69    7.20
  -3  -3  -5   84.19    3.30
   3   3   5   87.09    7.10
  -3  -3  -5   87.09    3.30
  -3  -3  -5   92.69    3.50
  -3  -3  -6  217.08   11.40
  -3  -3  -6  217.68    5.50
   3   3   6  202.88   11.10
   3   3   6  224.78    5.30
  -3  -3  -6  215.18    5.40
  -3  -3  -6  231.58    5.70
  -3  -3  -7  315.07    6.60
   3   3   7  330.27    6.30
  -3  -3  -7  316.37    6.50
   3   3   7  316.97    6.40
  -3  -3  -7  321.37    6.80
  -3  -3  -8  140.29    4.30
   3   3   8  152.38    4.50
   3   3   8  148.09    4.00
   3   3   8  143.69    4.20
  -3  -3  -8  143.39    4.50
   3   3   9   64.09    2.90
   3   3   9   63.59    2.50
  -3  -3  -9   65.39    2.70
   3   3   9   63.99    2.70
  -3  -3  -9   65.19    2.90
   3   3  10   23.00    1.40
   3   3  10   21.20    1.60
  -3  -3 -10   19.10    1.30
   3   3  10   23.00    1.70
   3   3  10   21.10    1.60
   3   3  10   21.60    1.50
  -3  -3 -10   20.90    1.60
   3   3  11   72.09    2.50
   3   3  11   68.79    2.40
   3   3  11   69.49    2.40
  -3  -3 -11   67.49    2.50
   3   3  12  140.09    2.80
  -3  -3 -12  136.19    3.00
  -3  -4  17  102.19    2.40
   3   4 -17  117.29    2.60
  -3  -4  17   98.19    2.50
   3   4 -17  116.59    2.50
   3   4 -16   30.80    1.60
   3   4 -16   26.50    1.30
  -3  -4  16   29.40    1.60
  -3  -4  16   28.70    1.60
   3   4 -15    1.20    0.50
  -3  -4  15    1.10    0.60
   3   4 -14   30.40    1.60
  -3  -4  14   31.70    2.10
  -3  -4  13   53.09    2.40
  -3  -4  13   51.69    2.80
  -3  -4  13   49.00    2.70
  -3  -4  12   17.20    1.70
  -3  -4  12   16.40    1.50
  -3  -4  11   76.79    2.90
  -3  -4  11   59.89    3.00
   3   4 -10   50.39    5.50
  -3  -4  10   59.49    3.00
  -3  -4  10   62.59    2.50
  -3  -4  10   64.59    5.90
  -3  -4  10   55.09    2.80
  -3  -4   9  185.58    5.00
  -3  -4   9  199.58   10.40
  -3  -4   8  425.46   14.90
   3   4  -8  428.46   13.70
  -3  -4   7  105.29    7.10
   3   4  -7  105.29    6.50
  -3  -4   6   -0.20    1.00
   3   4  -6    1.90    1.00
   3   4  -5   56.99    4.60
  -3  -4   5   60.59    4.90
  -3  -4   4 1355.76   20.60
  -3  -4   4 1295.57   22.00
   3   4  -4 1350.66   22.20
   3   4  -4 1291.67   19.80
  -3  -4   3  275.47    9.40
  -3  -4   3  280.07    9.80
   3   4  -3  279.67   10.30
   3   4  -3  285.87    9.60
  -3  -4   2   48.10    4.00
   3   4  -2   50.19    4.20
  -3  -4   2   43.00    3.80
   3   4  -1    6.20    1.60
  -3  -4   1    7.50    1.70
  -3  -4   1    5.80    1.40
   3   4  -1    5.20    1.60
   3   4   0    2.50    1.20
  -3  -4   0    0.70    1.00
  -3  -4  -1  169.98    8.30
   3   4   1  168.68    8.90
  -3  -4  -2  373.96   12.80
   3   4   2  368.06   13.80
  -3  -4  -3  285.97   11.90
  -3  -4  -3  277.77    6.10
   3   4   3  294.37   12.90
  -3  -4  -3  280.47    6.00
  -3  -4  -4   34.00    4.50
  -3  -4  -4   34.70    2.30
   3   4   4   27.30    4.10
  -3  -4  -4   34.20    2.00
  -3  -4  -4   34.70    2.20
  -3  -4  -5  244.98    5.90
  -3  -4  -5  242.18    5.60
  -3  -4  -5  248.68    6.00
  -3  -4  -6   56.79    2.90
  -3  -4  -6   57.19    2.70
  -3  -4  -6   59.69    3.00
  -3  -4  -7    0.70    0.50
   3   4   7    0.70    0.50
  -3  -4  -7    1.50    0.70
   3   4   8    0.20    0.70
  -3  -4  -8    1.10    0.50
   3   4   8    0.70    0.60
  -3  -4  -8    0.30    0.60
   3   4   9   22.40    1.70
   3   4   9   22.10    1.50
  -3  -4  -9   19.70    1.40
   3   4   9   21.40    1.50
  -3  -4  -9   21.00    1.60
   3   4  10  236.08    4.50
   3   4  10  229.58    3.90
   3   4  10  237.48    4.40
  -3  -4 -10  220.68    3.80
   3   4  10  232.08    4.20
   3   4  10  223.08    3.90
  -3  -4 -10  232.78    4.60
   3   4  11  592.54    5.70
  -3  -4 -11  591.24    6.20
   3   5 -17    1.20    0.40
  -3  -5  17    0.60    0.30
   3   5 -17    0.70    0.30
  -3  -5  16    3.00    0.50
  -3  -5  16    3.50    0.60
   3   5 -16    3.80    0.60
  -3  -5  15   38.20    2.00
  -3  -5  15   33.80    1.80
  -3  -5  14  279.17    5.80
  -3  -5  14  268.67    5.50
  -3  -5  13  224.98    5.40
  -3  -5  13  223.08    5.70
  -3  -5  13  216.68    5.00
  -3  -5  12   31.10    2.20
  -3  -5  12   32.70    2.30
  -3  -5  12   31.60    2.10
  -3  -5  11   24.20    2.00
  -3  -5  11   23.70    1.90
  -3  -5  10   57.59    2.90
  -3  -5  10   52.49    2.70
  -3  -5  10   60.49    2.70
  -3  -5   9    0.20    0.40
  -3  -5   9    0.30    0.40
   3   5  -8   -0.20    1.10
  -3  -5   8   -0.30    0.60
  -3  -5   8    0.40    0.40
  -3  -5   8    2.20    1.40
  -3  -5   8    0.60    0.50
  -3  -5   7    5.20    0.90
  -3  -5   7    1.90    0.80
   3   5  -7    1.50    1.10
  -3  -5   7    4.80    0.90
  -3  -5   7    5.30    1.80
   3   5  -6  130.19    7.50
  -3  -5   6  119.39    4.00
  -3  -5   6  130.59    4.00
  -3  -5   6  129.79    8.20
  -3  -5   6  134.79    4.10
   3   5  -5  693.43   17.30
  -3  -5   5  714.23   18.40
   3   5  -4 1613.74   26.50
  -3  -5   4 1626.24   26.80
  -3  -5   3  230.28    9.20
  -3  -5   3  205.38    9.30
   3   5  -3  223.58   10.10
   3   5  -3  225.58    9.20
  -3  -5   2   67.59    5.10
  -3  -5   2   67.59    5.30
   3   5  -2   69.79    5.30
  -3  -5   1   42.80    2.20
   3   5  -1   44.30    4.40
  -3  -5   1   42.70    4.20
  -3  -5   0  123.99    7.30
  -3  -5   0  122.79    3.60
   3   5   0  117.49    7.40
  -3  -5   0  127.99    3.80
  -3  -5  -1   56.39    5.20
  -3  -5  -1   53.99    2.40
  -3  -5  -1   52.19    2.50
  -3  -5  -2   93.59    6.90
  -3  -5  -2   86.19    2.90
  -3  -5  -2   90.19    3.40
  -3  -5  -3   15.00    1.50
  -3  -5  -4  202.88    4.90
  -3  -5  -4  198.48    5.40
  -3  -5  -5   91.79    3.50
  -3  -5  -5   87.99    3.60
  -3  -5  -6   76.69    3.20
   3   5   6   77.29    2.90
  -3  -5  -6   74.99    3.30
   3   5   7    5.50    0.80
   3   5   7    5.50    1.00
  -3  -5  -7    5.40    1.00
   3   5   7    4.80    0.70
  -3  -5  -7    4.50    1.00
   3   5   8  108.49    3.10
  -3  -5  -8  109.79    3.20
   3   5   8  106.99    3.00
   3   5   8  103.39    2.70
  -3  -5  -8  110.69    3.50
   3   5   9   31.30    1.50
  -3  -5  -9   32.40    1.50
   3   5   9   32.60    1.70
   3   5   9   33.00    1.50
  -3  -5  -9   31.70    1.70
   3   5  10   58.29    1.70
   3   5  10   57.19    1.80
   3   5  10   61.19    1.70
  -3  -5 -10   58.59    1.90
  -3  -6  16   12.70    0.90
   3   6 -16   11.20    0.70
  -3  -6  15    0.60    0.30
  -3  -6  15    0.20    0.40
  -3  -6  14   31.50    1.80
  -3  -6  14   30.70    1.70
  -3  -6  13    8.40    1.20
  -3  -6  13    8.30    1.10
  -3  -6  13    7.10    0.90
  -3  -6  12    4.60    0.90
  -3  -6  12    4.50    0.70
  -3  -6  11    0.90    0.70
  -3  -6  11    0.50    0.60
  -3  -6  10   29.50    2.20
  -3  -6  10   29.90    2.20
  -3  -6   9   31.20    2.30
  -3  -6   9   34.30    2.30
  -3  -6   9   37.30    2.30
  -3  -6   8   90.09    3.60
  -3  -6   8   81.49    3.30
  -3  -6   8   87.69    2.80
  -3  -6   8   90.19    3.80
  -3  -6   7  105.89    3.80
  -3  -6   7  113.99    4.10
  -3  -6   6   -0.40    1.00
  -3  -6   6    0.70    0.50
  -3  -6   6    0.40    0.50
  -3  -6   5  212.98    5.60
  -3  -6   5  234.08    5.40
  -3  -6   5  238.38    5.50
  -3  -6   5  254.77    5.70
   3   6  -5  229.38   10.60
   3   6  -4    0.40    0.70
  -3  -6   4   -1.40    1.10
  -3  -6   4    0.20    0.40
  -3  -6   4    0.40    0.50
  -3  -6   4    1.00    0.60
   3   6  -3   10.30    2.30
  -3  -6   3   15.70    1.50
  -3  -6   3    9.90    1.00
  -3  -6   3   14.40    1.40
  -3  -6   3   15.30    1.40
  -3  -6   2  377.66    6.80
  -3  -6   2  386.36    6.90
  -3  -6   1  436.66    7.20
  -3  -6   1  433.66    7.30
  -3  -6   1  426.36    7.10
  -3  -6   0  538.95    8.10
  -3  -6   0  551.64    8.60
  -3  -6   0  551.94    7.90
  -3  -6   0  555.94    8.20
  -3  -6  -1   20.00    1.70
  -3  -6  -1   18.10    1.50
  -3  -6  -1   19.60    1.70
  -3  -6  -2    1.00    0.70
  -3  -6  -2    1.20    0.60
  -3  -6  -2    0.60    0.50
  -3  -6  -3    2.60    0.80
  -3  -6  -3    2.10    0.70
  -3  -6  -3    1.90    0.70
  -3  -6  -4    1.70    0.60
  -3  -6  -4    1.60    0.70
  -3  -6  -4    0.60    0.60
  -3  -6  -5   38.10    2.20
   3   6   5   36.10    1.80
  -3  -6  -5   37.20    2.20
   3   6   6   25.10    1.60
  -3  -6  -6   24.20    1.70
   3   6   6   23.30    1.30
  -3  -6  -6   24.30    1.70
   3   6   7  155.18    3.30
  -3  -6  -7  157.08    3.60
   3   6   7  151.48    3.00
  -3  -6  -7  155.58    3.80
  -3  -6  -8  520.35    5.60
   3   6   8  518.45    5.60
  -3  -6  -8  511.15    6.10
   3   6   9  113.29    2.00
   3   6   9  111.99    2.10
  -3  -7  15   24.30    1.00
  -3  -7  15   21.00    1.00
  -3  -7  14    2.30    0.50
  -3  -7  13   14.40    1.20
  -3  -7  12    1.60    0.60
  -3  -7  12  204.48    3.90
  -3  -7  11   43.90    2.40
  -3  -7  11  134.19    3.50
  -3  -7  10   44.20    2.60
  -3  -7  10   44.20    2.10
  -3  -7   9  159.88    4.40
  -3  -7   9  167.18    4.90
  -3  -7   9  173.58    4.40
  -3  -7   9  167.98    4.60
  -3  -7   8  125.89    4.20
  -3  -7   8  128.19    4.00
  -3  -7   8  118.29    3.90
  -3  -7   8  124.39    3.20
  -3  -7   8  127.19    4.10
  -3  -7   7   73.89    3.10
  -3  -7   7   70.39    3.10
  -3  -7   7   63.99    2.40
  -3  -7   7   76.39    3.20
  -3  -7   7   76.49    3.10
  -3  -7   6   59.79    2.80
  -3  -7   6   59.19    2.90
  -3  -7   6   56.89    2.60
  -3  -7   6   63.49    2.80
  -3  -7   6   58.19    2.80
  -3  -7   5    0.10    0.50
  -3  -7   5    0.40    0.40
  -3  -7   5   -0.30    0.50
  -3  -7   5    0.90    0.70
  -3  -7   4    9.20    1.30
  -3  -7   4    6.50    1.00
  -3  -7   4    6.20    1.10
  -3  -7   4    6.70    1.00
  -3  -7   4    7.50    1.00
  -3  -7   3    6.10    1.00
  -3  -7   3    9.10    1.30
  -3  -7   3    8.30    1.20
  -3  -7   2   50.59    2.60
  -3  -7   2   47.90    2.70
  -3  -7   1  205.68    4.70
  -3  -7   1  215.18    5.50
  -3  -7   1  203.28    5.00
  -3  -7   0   16.70    1.50
  -3  -7   0   17.40    1.60
  -3  -7  -1    0.80    0.70
  -3  -7  -1    0.10    0.50
  -3  -7  -2   41.20    2.20
  -3  -7  -2   43.50    2.30
  -3  -7  -3  166.78    4.30
  -3  -7  -3  166.08    4.00
  -3  -7  -3  163.38    4.40
  -3  -7  -4  130.29    3.60
  -3  -7  -4  126.49    3.20
  -3  -7  -4  124.39    3.70
   3   7   5    6.30    0.70
  -3  -7  -5    7.20    0.90
  -3  -7  -5    7.20    0.90
  -3  -7  -6    6.00    0.70
   3   7   6    5.20    0.60
   3   7   6    4.00    0.50
   3   7   7   22.40    0.90
   3   7   7   29.60    1.20
  -3  -8  13  121.39    2.60
  -3  -8  13  117.29    2.50
  -3  -8  12  190.88    3.80
  -3  -8  12  183.78    3.70
  -3  -8  11    9.60    1.00
  -3  -8  11   10.50    1.10
  -3  -8  10    4.60    0.80
  -3  -8  10    6.40    0.70
  -3  -8   9    8.00    1.00
  -3  -8   9    9.00    1.00
  -3  -8   8    6.20    0.90
  -3  -8   8   77.49    2.50
  -3  -8   8    7.50    1.00
  -3  -8   8    8.60    1.00
  -3  -8   8   54.69    2.70
  -3  -8   7   33.60    2.50
  -3  -8   7    7.50    1.00
  -3  -8   7   32.10    1.70
  -3  -8   7    8.30    1.00
  -3  -8   7    7.60    1.00
  -3  -8   6   23.00    1.70
  -3  -8   6   21.80    1.40
  -3  -8   6   22.10    1.60
  -3  -8   6   26.20    1.70
  -3  -8   6   22.80    1.60
  -3  -8   5  150.78    3.80
  -3  -8   5  118.99    3.20
  -3  -8   5  136.59    3.90
  -3  -8   5  131.69    3.80
  -3  -8   5  136.09    3.80
  -3  -8   4  249.88    5.30
  -3  -8   4  257.37    5.10
  -3  -8   4  239.88    4.40
  -3  -8   4  259.97    5.60
  -3  -8   3  342.47    6.50
  -3  -8   3  331.57    6.00
  -3  -8   2   74.99    2.90
  -3  -8   2   57.79    2.70
  -3  -8   1   65.49    2.80
  -3  -8   1    8.10    1.10
  -3  -8   0    6.00    1.00
  -3  -8  -1  137.59    3.60
  -3  -8  -2  272.87    4.60
  -3  -8  -3  310.37    4.30
  -3  -8  -4    3.60    0.50
  -3  -8  -5   45.30    1.30
  -3  -9  11    2.50    0.50
  -3  -9  10    3.20    0.60
  -3  -9   9   47.20    1.50
  -3  -9   9    4.70    0.70
  -3  -9   8   32.20    1.50
  -3  -9   8   12.20    1.00
  -3  -9   7  138.39    3.20
  -3  -9   7  104.19    2.20
  -3  -9   6   57.89    1.80
  -3  -9   6   54.49    2.10
  -3  -9   5   73.99    2.30
  -3  -9   5   74.09    2.10
  -3  -9   4  232.58    4.30
  -3  -9   4  194.98    3.40
  -3  -9   3   37.10    1.80
  -3  -9   3   28.10    1.30
  -3  -9   2    5.90    0.90
  -3  -9   2    1.20    0.40
  -3  -9   1   85.29    2.50
  -3  -9   0  117.99    2.70
  -3  -9  -1   19.20    1.20
  -4  10   2    6.50    0.60
   4 -10  -2    8.20    0.70
  -4  10   1    4.90    0.60
   4 -10  -1    5.00    0.60
  -4  10   1    3.60    0.50
  -4  10   0    7.60    0.70
   4 -10   0    8.50    0.70
   4 -10   0    8.60    0.80
  -4  10  -1   17.80    0.90
   4 -10   1   19.90    1.10
   4 -10   1   20.50    1.10
   4 -10   2    0.20    0.50
   4 -10   2    0.20    0.30
   4 -10   3    2.90    0.50
  -4  10  -3    4.00    0.60
   4 -10   4   42.30    1.50
   4 -10   4   42.40    1.50
  -4  10  -4   37.90    1.30
   4 -10   5   51.19    1.50
   4 -10   5   51.09    1.50
   4  -9  -6    9.10    0.80
  -4   9   6    8.60    0.80
  -4   9   6    8.90    0.70
  -4   9   5  106.49    2.70
   4  -9  -5  107.69    2.80
  -4   9   5  103.09    2.60
   4  -9  -4  223.78    4.40
  -4   9   4  213.08    3.90
   4  -9  -3   43.70    2.10
  -4   9   3   39.60    1.70
   4  -9  -2   28.70    1.70
   4  -9  -2   28.30    1.50
  -4   9   2   27.50    1.40
   4  -9  -1   23.60    1.60
   4  -9  -1   23.60    1.50
  -4   9   0    9.00    1.00
   4  -9   0    8.20    1.10
   4  -9   0    7.80    0.90
  -4   9  -1    2.00    0.60
   4  -9   1    1.60    0.80
   4  -9   1    0.70    0.40
  -4   9  -2    2.20    0.50
  -4   9  -2    4.00    0.70
   4  -9   2    4.70    0.80
   4  -9   2    5.30    1.00
  -4   9  -3   36.30    1.60
   4  -9   3   41.90    2.10
   4  -9   3   38.30    1.90
   4  -9   4  157.38    3.90
   4  -9   4  155.08    3.60
   4  -9   5  198.08    4.00
   4  -9   5  196.48    4.00
  -4   9  -5  186.98    3.70
   4  -9   5  181.38    4.00
   4  -9   6   61.99    2.10
   4  -9   6   66.39    2.30
  -4   9  -6   61.99    2.00
   4  -9   7    1.90    0.40
  -4   9  -7    1.50    0.40
   4  -9   8    2.10    0.50
  -4   9  -8    1.40    0.50
   4  -8  -9    0.50    0.40
  -4   8   9    0.20    0.40
  -4   8   9    0.20    0.30
  -4   8   8    7.20    0.70
   4  -8  -8    6.50    0.80
  -4   8   8    7.50    0.80
   4  -8  -8    6.60    0.70
  -4   8   8    6.40    0.60
  -4   8   8    9.00    0.90
   4  -8  -7   55.29    2.30
  -4   8   7   60.69    2.20
   4  -8  -7   57.59    2.20
  -4   8   7   62.69    2.30
   4  -8  -6   65.69    2.70
  -4   8   6   66.89    2.50
   4  -8  -6   66.19    2.70
  -4   8   6   69.49    2.70
   4  -8  -5    1.50    0.50
   4  -8  -5    2.20    0.80
  -4   8   5    2.90    0.70
  -4   8   5    3.00    0.90
   4  -8  -5    1.80    0.70
   4  -8  -4    4.60    0.80
   4  -8  -4    4.50    1.00
  -4   8   4    4.10    0.80
   4  -8  -4    4.30    1.00
  -4   8   4    5.20    1.00
   4  -8  -3    3.20    0.80
   4  -8  -3    3.70    0.80
   4  -8  -3    4.60    0.90
   4  -8  -3    5.50    1.10
  -4   8   3    5.60    0.90
  -4   8   3    3.60    0.80
   4  -8  -2    1.80    0.60
   4  -8  -2    2.30    0.80
  -4   8   2    1.40    0.50
   4  -8  -2    1.50    0.70
   4  -8  -1   19.80    1.60
   4  -8  -1   23.60    1.90
  -4   8   1   20.70    1.50
   4  -8  -1   18.50    1.60
   4  -8   0  274.37    6.50
   4  -8   0  262.87    5.60
   4  -8   0  259.37    5.90
   4  -8   1    6.60    1.10
   4  -8   1    9.30    1.40
   4  -8   1    8.30    1.10
  -4   8  -2  186.48    4.30
   4  -8   2  189.08    4.50
   4  -8   2  194.88    5.40
   4  -8   3   25.90    2.10
   4  -8   3   23.10    2.00
   4  -8   4   16.30    1.70
   4  -8   4   17.90    1.70
   4  -8   4   13.30    1.60
   4  -8   5    9.70    1.30
   4  -8   5   10.50    1.30
   4  -8   5    7.00    1.30
   4  -8   6    0.00    0.60
   4  -8   6    0.60    0.50
  -4   8  -6    0.50    0.50
   4  -8   6    1.10    0.80
   4  -8   7   89.89    2.70
   4  -8   7   96.69    3.10
  -4   8  -7   96.09    2.80
   4  -8   7  100.69    3.50
  -4   8  -8  381.26    5.50
   4  -8   8  381.76    6.20
   4  -8   9  209.88    3.90
  -4   8  -9  198.28    3.40
  -4   8  -9  204.08    3.90
   4  -8  10   35.80    1.40
  -4   8 -10   36.50    1.50
   4  -7 -11    8.70    0.80
  -4   7  11    8.50    0.70
  -4   7  11    7.90    0.60
  -4   7  10    0.40    0.40
   4  -7 -10    0.60    0.40
  -4   7  10    1.00    0.50
   4  -7 -10    0.10    0.30
  -4   7  10    0.80    0.40
  -4   7   9   92.49    2.40
   4  -7  -9   96.99    3.10
   4  -7  -9   87.49    2.80
  -4   7   9   96.89    2.80
   4  -7  -9   90.09    2.60
  -4   7   9   96.69    2.80
  -4   7   9   98.89    2.90
   4  -7  -8  425.26    7.10
   4  -7  -8  435.16    6.50
  -4   7   8  442.06    6.60
  -4   7   8  434.86    6.50
   4  -7  -7  471.25    7.90
   4  -7  -7  448.46    7.40
   4  -7  -7  479.65    7.60
  -4   7   7  469.15    7.20
   4  -7  -7  461.05    6.70
   4  -7  -6  146.79    4.50
   4  -7  -6  144.69    4.40
  -4   7   6  155.58    4.50
   4  -7  -6  154.18    4.70
  -4   7   6  145.29    4.10
   4  -7  -6  142.89    4.10
   4  -7  -5    1.40    0.70
   4  -7  -5    0.30    0.60
  -4   7   5    0.40    0.70
   4  -7  -5    1.40    0.90
  -4   7   5    0.80    0.50
   4  -7  -4   18.10    1.70
   4  -7  -4   17.70    1.50
  -4   7   4   15.60    1.50
   4  -7  -4   17.70    1.80
   4  -7  -4   17.70    1.60
   4  -7  -3   10.70    1.40
  -4   7   3   11.10    1.20
   4  -7  -3   12.30    1.50
   4  -7  -3   10.60    1.30
   4  -7  -2   12.80    1.40
   4  -7  -2   12.60    1.40
   4  -7  -2   12.50    1.40
   4  -7  -1   42.20    2.50
   4  -7  -1   40.10    2.40
  -4   7   1   44.10    2.30
   4  -7  -1   40.20    2.40
  -4   7   0   17.70    1.50
   4  -7   0   14.10    1.60
   4  -7   0   12.20    1.50
   4  -7   0   15.50    1.60
   4  -7   1  209.88    5.40
   4  -7   1  202.48    5.10
   4  -7   1  220.88    5.80
   4  -7   1  207.38    5.90
   4  -7   1  207.38    5.50
  -4   7  -2  129.69    3.80
   4  -7   2  131.49    4.30
   4  -7   2  134.89    4.50
   4  -7   2  126.19    3.90
   4  -7   2  131.19    4.80
   4  -7   2  136.69    4.60
   4  -7   3    1.70    0.90
   4  -7   3    0.60    0.90
   4  -7   3    1.60    0.90
   4  -7   3    2.30    0.70
   4  -7   3    1.50    0.90
  -4   7  -4   44.20    2.30
   4  -7   4   46.20    2.70
   4  -7   4   44.20    2.40
   4  -7   4   43.00    2.80
   4  -7   5    5.50    1.10
   4  -7   5    5.90    1.00
  -4   7  -5    4.40    0.80
   4  -7   5    6.20    1.30
   4  -7   6   17.20    1.50
   4  -7   6   18.80    1.60
   4  -7   6   16.60    1.50
  -4   7  -6   17.70    1.50
   4  -7   6   16.60    1.80
   4  -7   7   32.60    2.00
   4  -7   7   28.60    1.80
   4  -7   7   35.30    2.10
  -4   7  -7   36.90    2.10
   4  -7   7   30.10    2.30
   4  -7   8   46.80    2.30
  -4   7  -8   52.19    2.50
  -4   7  -8   49.40    2.10
   4  -7   8   47.60    2.70
   4  -7   9   39.80    1.90
  -4   7  -9   41.70    2.00
   4  -7   9   41.10    2.10
  -4   7  -9   42.50    2.20
   4  -7   9   40.10    2.20
   4  -7  10    1.70    0.60
   4  -7  10    1.80    0.50
  -4   7 -10    1.10    0.40
  -4   7 -10    2.10    0.60
   4  -7  11   48.60    1.70
   4  -7  11   46.50    1.70
  -4   7 -11   49.40    1.70
  -4   7 -11   47.00    1.70
  -4   7 -12  184.68    2.60
   4  -6 -13   66.79    1.70
  -4   6  13   62.69    1.60
   4  -6 -12  110.69    2.70
  -4   6  12  108.59    2.60
   4  -6 -11    8.10    0.90
  -4   6  11    7.40    0.80
   4  -6 -11    5.30    0.70
  -4   6  11    7.30    0.90
  -4   6  11    6.80    0.80
  -4   6  10    0.60    0.60
   4  -6 -10   -0.10    0.30
   4  -6 -10    1.80    0.60
   4  -6 -10   -0.10    0.60
  -4   6  10    0.90    0.70
  -4   6  10    0.60    0.40
   4  -6  -9   -0.90    0.60
  -4   6   9    0.70    0.80
   4  -6  -9    0.40    0.40
   4  -6  -9    0.30    0.50
   4  -6  -9    1.10    0.70
  -4   6   9    2.30    0.80
   4  -6  -8   60.19    3.00
  -4   6   8   61.59    2.80
   4  -6  -8   62.99    2.80
   4  -6  -8   56.59    2.80
  -4   6   8   64.59    3.00
   4  -6  -8   60.59    2.70
   4  -6  -7    9.40    1.30
   4  -6  -7    9.10    1.20
  -4   6   7   11.70    1.40
   4  -6  -7    9.90    1.30
  -4   6   7    9.40    1.40
   4  -6  -7    8.80    1.20
   4  -6  -6   41.10    2.50
   4  -6  -6   39.10    2.40
  -4   6   6   41.10    2.60
   4  -6  -6   39.50    2.60
  -4   6   6   41.50    2.50
   4  -6  -6   39.90    2.30
   4  -6  -5  285.27    6.30
   4  -6  -5  276.57    6.10
  -4   6   5  276.77    6.50
   4  -6  -5  282.57    6.70
  -4   6   5  285.27    6.30
   4  -6  -5  284.57    6.20
   4  -6  -4  286.57    6.30
   4  -6  -4  280.97    6.10
  -4   6   4  294.27    6.50
   4  -6  -4  306.97    6.90
  -4   6   4  287.87    5.90
   4  -6  -4  289.07    6.20
   4  -6  -3  624.44    9.10
  -4   6   3  611.54    8.90
   4  -6  -3  631.44    9.60
   4  -6  -3  626.14    9.00
  -4   6   2  248.48   11.80
  -4   6   2  243.58   10.70
   4  -6  -2  246.78    5.80
   4  -6  -2  255.47    5.90
   4  -6  -2  251.37   12.50
   4  -6  -2  247.08    5.70
   4  -6  -1    5.10    2.10
   4  -6  -1    2.50    0.90
   4  -6  -1    1.10    0.70
   4  -6  -1    1.70    0.80
  -4   6   1   -0.50    1.60
   4  -6  -1    1.50    0.90
  -4   6   1    3.10    1.00
   4  -6  -1    2.10    0.70
   4  -6   0    0.40    0.70
   4  -6   0    0.90    0.60
  -4   6   0    0.60    1.20
   4  -6   0    0.70    0.60
  -4   6   0    1.00    0.60
   4  -6   0   -0.30    0.60
   4  -6   0    1.00    0.80
   4  -6   1    3.60    0.90
   4  -6   1    5.20    1.50
   4  -6   1    3.70    1.00
   4  -6   1    6.00    1.10
  -4   6  -1    2.70    2.00
   4  -6   1    3.50    1.00
  -4   6  -2   99.89    3.40
   4  -6   2   99.79    3.50
   4  -6   2   96.39    7.20
   4  -6   2   98.29    3.60
  -4   6  -2  100.09    7.50
   4  -6   2  102.19    7.50
   4  -6   2  104.29    4.10
   4  -6   2  105.59    3.90
   4  -6   3   39.70    4.60
   4  -6   3   44.00    2.50
   4  -6   3   42.40    2.30
   4  -6   3   44.50    2.80
   4  -6   3   42.90    2.60
   4  -6   4    3.60    1.00
   4  -6   4    3.90    1.00
   4  -6   4    4.40    1.00
   4  -6   4    4.10    1.10
  -4   6  -4    3.70    0.70
   4  -6   5  215.48    5.20
   4  -6   5  215.38    5.80
   4  -6   5  218.98    5.40
   4  -6   5  212.68    5.20
   4  -6   5  219.98    6.10
  -4   6  -5  214.08    4.90
   4  -6   6  395.16    7.10
   4  -6   6  399.46    7.00
   4  -6   6  392.26    7.10
  -4   6  -6  404.76    7.20
   4  -6   6  408.76    8.50
   4  -6   7  167.88    4.70
   4  -6   7  165.28    4.60
  -4   6  -7  167.98    4.50
   4  -6   7  172.38    5.40
   4  -6   8    8.10    1.20
  -4   6  -8    6.00    1.30
  -4   6  -8    8.40    1.10
   4  -6   8    5.30    1.30
   4  -6   9    5.30    0.90
   4  -6   9    7.10    1.10
  -4   6  -9    4.60    0.90
  -4   6  -9    6.30    1.10
   4  -6   9    5.50    1.10
   4  -6  10   19.10    1.40
   4  -6  10   20.90    1.50
  -4   6 -10   19.90    1.40
  -4   6 -10   22.40    1.60
   4  -6  10   17.20    1.50
   4  -6  11  181.28    3.90
   4  -6  11  178.38    3.70
  -4   6 -11  183.78    3.80
  -4   6 -11  179.98    3.80
   4  -6  12  173.48    3.30
   4  -6  12  164.38    3.00
  -4   6 -12  163.18    2.80
  -4   6 -12  170.28    3.10
  -4   6 -12  176.48    3.20
  -4   6 -13   52.39    1.40
   4  -5 -14   48.00    1.60
  -4   5  14   44.70    1.40
   4  -5 -13  122.69    3.00
  -4   5  13  120.39    2.80
   4  -5 -12    1.00    0.60
  -4   5  12    0.40    0.40
  -4   5  12    1.10    0.50
   4  -5 -12    0.50    0.40
  -4   5  12    1.10    0.60
   4  -5 -11  112.59    3.20
  -4   5  11  108.89    3.30
   4  -5 -11  115.89    3.80
  -4   5  11  114.99    3.40
  -4   5  11  117.49    3.60
   4  -5 -11  109.59    3.40
  -4   5  11  112.19    3.10
   4  -5 -10  316.77    5.80
   4  -5 -10  316.27    6.20
  -4   5  10  311.87    6.00
  -4   5  10  324.67    6.10
  -4   5  10  324.67    6.40
   4  -5 -10  325.37    6.70
   4  -5  -9   40.40    2.30
   4  -5  -9   38.30    2.30
   4  -5  -9   41.90    2.20
  -4   5   9   45.30    2.60
   4  -5  -9   39.50    2.50
  -4   5   9   42.00    2.40
   4  -5  -8   15.10    1.50
   4  -5  -8   15.50    1.50
  -4   5   8   15.60    1.60
   4  -5  -8   16.80    1.60
  -4   5   8   18.60    1.80
   4  -5  -8   15.80    1.70
   4  -5  -7   23.20    1.80
   4  -5  -7   23.70    1.90
   4  -5  -7   24.60    1.80
  -4   5   7   24.80    2.00
   4  -5  -7   24.90    2.00
  -4   5   7   24.30    2.10
   4  -5  -7   23.50    1.90
   4  -5  -6   40.10    2.30
   4  -5  -6   41.70    2.40
  -4   5   6   37.00    2.40
   4  -5  -6   36.20    2.40
  -4   5   6   41.60    2.60
   4  -5  -6   36.50    4.70
   4  -5  -5  355.56    6.70
  -4   5   5  333.27   13.00
   4  -5  -5  361.86    6.80
  -4   5   5  344.47    7.00
   4  -5  -5  354.46    7.20
  -4   5   5  350.06    6.90
   4  -5  -5  347.97   14.50
   4  -5  -4  475.25    7.50
   4  -5  -4  493.05   17.10
  -4   5   4  494.15   15.70
   4  -5  -4  498.25    7.70
  -4   5   4  488.65    8.00
   4  -5  -4  501.75    8.30
  -4   5   4  489.25    7.50
  -4   5   3   54.59    4.60
   4  -5  -3   62.59    2.70
   4  -5  -3   63.39    2.80
   4  -5  -3   63.69    6.10
  -4   5   3   59.89    5.50
   4  -5  -3   61.99    2.70
   4  -5  -2   27.40    4.00
  -4   5   2   28.80    3.70
   4  -5  -1   15.40    2.90
  -4   5   1   17.60    2.90
   4  -5   0   46.00    4.70
  -4   5   0   48.10    4.70
   4  -5   1   42.20    4.40
   4  -5   1   49.10    4.90
  -4   5  -1   51.19    4.80
  -4   5  -1   43.50    4.20
   4  -5   2   16.50    2.90
   4  -5   2   14.40    2.70
  -4   5  -2   14.50    2.50
  -4   5  -2   16.80    2.90
   4  -5   2   15.10    1.50
   4  -5   2   16.50    1.50
   4  -5   3    1.50    0.70
   4  -5   3   -1.30    1.00
   4  -5   3    1.30    0.70
  -4   5  -3   -0.30    1.10
   4  -5   3    0.30    0.40
   4  -5   3    4.30    1.60
  -4   5  -3    2.10    1.30
   4  -5   3    0.40    0.60
   4  -5   4   17.20    1.60
   4  -5   4   15.60    1.50
  -4   5  -4   19.40    1.60
   4  -5   4   20.40    1.60
   4  -5   4   20.70    3.40
   4  -5   4   17.60    1.50
  -4   5  -4   18.90    3.10
   4  -5   4   20.30    1.70
  -4   5  -4   17.10    3.00
   4  -5   4   17.60    1.70
   4  -5   4   19.30    1.70
   4  -5   5  137.69    4.30
   4  -5   5  143.29    4.60
   4  -5   5  136.59    8.70
  -4   5  -5  137.79    9.10
   4  -5   5  144.79    4.20
   4  -5   5  140.59    4.10
   4  -5   5  140.79    4.40
  -4   5  -5  141.99    4.10
   4  -5   5  145.79    4.90
   4  -5   6  140.19    4.70
   4  -5   6  152.88    4.40
  -4   5  -6  146.79    4.10
   4  -5   6  143.19    4.60
  -4   5  -6  142.59    4.30
   4  -5   6  148.59    5.00
   4  -5   6  145.29    4.50
   4  -5   7    4.00    0.90
   4  -5   7    4.70    0.90
  -4   5  -7    3.70    0.80
   4  -5   7    3.40    1.20
   4  -5   8    2.80    0.80
  -4   5  -8    1.50    0.80
  -4   5  -8    1.80    0.70
   4  -5   8    2.00    1.00
   4  -5   9  201.18    5.00
   4  -5   9  200.18    5.00
  -4   5  -9  203.58    5.20
  -4   5  -9  198.98    5.20
   4  -5   9  202.48    5.30
   4  -5  10  148.59    4.10
   4  -5  10  145.89    4.00
  -4   5 -10  144.99    4.00
  -4   5 -10  148.19    4.30
   4  -5  10  136.69    4.00
   4  -5  11    8.60    1.20
   4  -5  11    7.50    0.90
   4  -5  11    7.60    0.90
  -4   5 -11    7.20    1.00
  -4   5 -11    6.80    1.10
   4  -5  12    2.30    0.60
   4  -5  12    1.40    0.40
   4  -5  12    2.00    0.40
  -4   5 -12    1.70    0.50
  -4   5 -12    2.00    0.60
  -4   5 -12    2.00    0.60
   4  -5  13    0.30    0.40
   4  -5  13    0.90    0.30
  -4   5 -13    0.40    0.20
  -4   5 -13    0.80    0.40
  -4   5 -13    0.10    0.30
   4  -4 -15  106.79    2.30
  -4   4  15   97.39    2.20
  -4   4  14   20.90    1.30
  -4   4  14   21.40    1.20
   4  -4 -14   23.20    1.40
   4  -4 -13    0.80    0.40
  -4   4  13    0.70    0.50
  -4   4  13    0.80    0.50
   4  -4 -13    1.10    0.60
   4  -4 -12   26.30    1.60
  -4   4  12   27.30    1.80
  -4   4  12   25.90    1.60
  -4   4  12   29.60    1.80
   4  -4 -12   26.60    1.90
   4  -4 -11   51.59    2.40
  -4   4  11   53.79    2.70
  -4   4  11   52.39    2.50
  -4   4  11   52.59    2.60
   4  -4 -11   57.09    2.80
  -4   4  11   50.89    2.30
   4  -4 -10    2.70    0.70
  -4   4  10    4.00    0.90
  -4   4  10    3.80    0.80
  -4   4  10    3.90    0.90
   4  -4 -10    3.00    0.90
   4  -4  -9  115.39    3.90
  -4   4   9  113.79    4.00
  -4   4   9  112.09    3.90
  -4   4   9  118.29    4.20
   4  -4  -9  120.19    4.30
   4  -4  -8   17.20    1.50
   4  -4  -8   13.20    2.80
  -4   4   8   15.00    2.90
  -4   4   8   16.20    1.60
  -4   4   8   16.60    1.60
   4  -4  -8   15.10    1.40
  -4   4   8   16.70    1.70
   4  -4  -8   13.30    3.00
   4  -4  -8   16.30    1.60
   4  -4  -7  392.56    7.10
   4  -4  -7  376.76   14.70
   4  -4  -7  401.06   14.90
  -4   4   7  401.86   14.40
  -4   4   7  392.66    7.40
   4  -4  -7  379.46    7.00
  -4   4   7  397.26    7.60
   4  -4  -7  405.26    7.40
   4  -4  -6  444.16    7.20
   4  -4  -6  436.96   15.50
  -4   4   6  445.66   14.70
  -4   4   6  428.16    7.60
   4  -4  -6  416.96    7.40
  -4   4   6  455.35    7.80
   4  -4  -6  423.16   15.00
   4  -4  -6  441.86    7.30
   4  -4  -5   38.20    4.50
  -4   4   5   41.50    4.50
   4  -4  -5   30.70    4.30
   4  -4  -4   16.90    3.00
  -4   4   4   22.20    3.30
   4  -4  -4   18.30    3.20
   4  -4  -3    2.50    1.50
  -4   4   3    2.60    1.40
  -4   4   2   58.99    4.70
   4  -4  -2   65.59    5.40
   4  -4  -1  430.36   13.30
  -4   4   1  429.16   12.40
   4  -4  -1  438.56   12.90
  -4   4   0 1044.70   19.00
  -4   4   0 1056.69   19.40
   4  -4   0 1075.39   20.50
   4  -4   0 1050.39   20.10
   4  -4   1   92.79    5.90
  -4   4  -1   89.89    5.90
   4  -4   1   95.49    6.20
  -4   4  -1   92.49    5.80
   4  -4   2  110.79    6.40
  -4   4  -2   97.89    6.30
   4  -4   2  109.99    6.80
  -4   4  -2  105.99    6.30
   4  -4   3    6.50    2.10
  -4   4  -3    7.30    2.00
  -4   4  -4    9.80    2.70
   4  -4   4   21.70    3.40
   4  -4   5    4.80    1.40
   4  -4   5    2.50    1.00
   4  -4   5    6.50    1.00
   4  -4   5    1.40    1.90
  -4   4  -5    9.90    1.10
   4  -4   5    4.90    1.20
  -4   4  -5    8.20    1.40
  -4   4  -5    2.80    1.80
   4  -4   5    3.70    1.10
  -4   4  -6    0.20    1.10
   4  -4   6    0.10    0.70
   4  -4   6    1.00    0.50
   4  -4   6    0.50    0.60
   4  -4   6    1.80    1.20
  -4   4  -6    0.10    0.40
   4  -4   6   -0.30    0.60
  -4   4  -6    0.10    0.50
   4  -4   6   -0.20    0.70
  -4   4  -7   41.30    2.30
   4  -4   7   44.80    2.50
   4  -4   7   40.40    2.30
   4  -4   7   42.90    2.50
  -4   4  -7   38.90    2.40
  -4   4  -7   39.90    2.30
   4  -4   7   41.10    2.60
   4  -4   8  289.17    6.30
   4  -4   8  275.57    5.60
   4  -4   8  287.07    6.10
  -4   4  -8  292.67    6.50
  -4   4  -8  272.27    5.80
  -4   4  -8  282.77    6.40
   4  -4   8  275.17    6.40
   4  -4   9  381.46    6.50
   4  -4   9  394.86    6.90
  -4   4  -9  395.46    7.40
  -4   4  -9  398.06    7.50
   4  -4   9  384.56    7.30
   4  -4   9  392.66    7.20
   4  -4  10  147.29    4.20
   4  -4  10  145.69    3.90
   4  -4  10  146.39    4.00
  -4   4 -10  148.69    4.20
  -4   4 -10  148.69    4.30
  -4   4 -10  145.59    4.30
   4  -4  11   17.00    1.50
   4  -4  11   18.50    1.40
   4  -4  11   17.10    1.30
  -4   4 -11   20.00    1.40
  -4   4 -11   18.50    1.40
  -4   4 -11   18.70    1.50
   4  -4  12    5.00    0.80
   4  -4  12    4.10    0.60
   4  -4  12    3.70    0.60
  -4   4 -12    3.20    0.50
  -4   4 -12    4.10    0.70
  -4   4 -12    3.90    0.70
   4  -4  13   31.90    1.40
   4  -4  13   32.90    1.40
   4  -4  13   29.30    1.20
  -4   4 -13   31.00    1.20
  -4   4 -13   33.70    1.40
  -4   4 -13   31.30    1.40
  -4   3  16  195.28    3.10
   4  -3 -16  193.98    3.00
   4  -3 -15  116.59    2.40
  -4   3  15  119.89    3.00
  -4   3  15  112.09    2.40
   4  -3 -15  119.09    3.00
   4  -3 -14    7.80    0.80
  -4   3  14    7.60    1.00
  -4   3  14    7.50    0.90
   4  -3 -14    6.80    1.00
   4  -3 -13   69.59    2.60
  -4   3  13   70.69    2.90
  -4   3  13   66.59    2.60
   4  -3 -13   70.69    3.00
  -4   3  12    3.00    1.00
  -4   3  12    2.70    0.70
  -4   3  12    2.40    0.70
   4  -3 -12    2.80    0.80
   4  -3 -12    2.50    0.70
   4  -3 -11   59.29    2.80
  -4   3  11   62.79    3.00
  -4   3  11   61.89    2.70
  -4   3  11   61.29    2.90
   4  -3 -11   64.09    3.00
   4  -3 -11   61.49    2.70
  -4   3  10    7.90    1.30
  -4   3  10    9.20    1.20
   4  -3 -10    8.40    1.10
  -4   3  10    9.10    1.20
   4  -3 -10    7.20    1.10
   4  -3 -10    7.90    1.10
   4  -3  -9    5.00    1.90
   4  -3  -9    3.60    1.50
  -4   3   9    4.10    1.70
  -4   3   9    2.10    1.50
  -4   3   9    4.90    1.00
  -4   3   9    5.40    1.00
   4  -3  -9    6.00    1.00
  -4   3   9    4.90    1.00
   4  -3  -9    4.80    1.00
   4  -3  -9    5.00    0.90
   4  -3  -8  467.45    7.60
   4  -3  -8  456.45   16.50
   4  -3  -8  456.65   15.20
  -4   3   8  452.25   15.30
  -4   3   8  467.15    7.90
  -4   3   8  475.05    7.70
  -4   3   8  476.05    8.10
   4  -3  -8  464.45    7.80
  -4   3   8  460.85   16.10
   4  -3  -8  473.05    7.70
   4  -3  -7  553.94   17.40
  -4   3   7  592.34   16.90
   4  -3  -7  566.44   16.90
  -4   3   6  124.19    7.50
   4  -3  -6  119.29    7.80
  -4   3   5   78.79    5.70
   4  -3  -5   80.79    6.10
   4  -3  -4   61.49    5.10
  -4   3   4   62.79    5.00
   4  -3  -3  249.08    9.90
  -4   3   3  250.27    8.80
   4  -3  -3  270.87   10.00
   4  -3  -2  154.68    7.10
   4  -3  -2  154.58    6.90
  -4   3   2  159.08    6.90
   4  -3  -2  171.68    8.00
   4  -3  -1   30.10    3.60
  -4   3   1   40.80    3.80
   4  -3  -1   38.00    3.90
  -4   3   0  100.39    5.80
   4  -3   0  100.89    5.70
   4  -3   0  106.09    5.80
  -4   3   0   97.79    5.40
   4  -3   1   41.10    3.80
   4  -3   1   40.80    3.60
  -4   3  -1   38.30    3.70
  -4   3  -1   36.30    3.30
  -4   3  -2    5.10    1.60
   4  -3   2    4.90    1.50
   4  -3   2    5.10    1.30
  -4   3  -3  229.28    9.80
   4  -3   3  237.68    9.60
  -4   3  -4  478.45   15.10
   4  -3   4  488.65   14.40
  -4   3  -5    3.40    1.80
   4  -3   5    3.30    1.50
  -4   3  -6   29.30    1.90
   4  -3   6   27.80    2.00
   4  -3   6   29.00    2.00
  -4   3  -6   29.00    4.30
   4  -3   6   29.20    1.80
   4  -3   6   25.00    3.80
   4  -3   6   26.80    1.90
  -4   3  -6   31.50    2.10
  -4   3  -6   29.90    2.00
   4  -3   6   29.50    2.00
  -4   3  -7   35.60    2.20
   4  -3   7   35.10    2.30
  -4   3  -7   29.90    4.50
   4  -3   7   32.90    2.00
   4  -3   7   35.60    2.10
   4  -3   7   30.40    4.50
   4  -3   7   37.10    2.40
  -4   3  -7   34.70    2.30
  -4   3  -7   39.40    2.30
  -4   3  -7   32.80    2.30
   4  -3   7   30.10    2.10
   4  -3   8   11.20    1.80
   4  -3   8   11.40    1.50
   4  -3   8    8.80    1.40
   4  -3   8   11.00    1.90
  -4   3  -8    9.20    1.70
   4  -3   9   14.50    1.60
   4  -3   9   14.90    1.40
   4  -3   9   15.80    1.40
  -4   3  -9   15.20    1.50
  -4   3  -9   14.30    1.60
  -4   3  -9   15.70    1.40
   4  -3  10    1.00    0.80
   4  -3  10    0.40    0.50
   4  -3  10    1.20    0.80
  -4   3 -10    1.10    0.50
  -4   3 -10    0.80    0.70
  -4   3 -10    2.00    0.80
   4  -3  11   93.99    3.10
   4  -3  11   93.59    3.20
   4  -3  11   88.19    2.80
  -4   3 -11   89.39    2.80
  -4   3 -11   92.49    3.10
  -4   3 -11   99.39    3.40
   4  -3  12  507.65    6.40
   4  -3  12  531.75    6.80
   4  -3  12  486.35    5.90
  -4   3 -12  506.35    5.90
  -4   3 -12  509.85    6.50
  -4   3 -12  536.25    6.90
   4  -3  13  400.16    4.60
   4  -3  13  441.06    5.30
  -4   3 -13  392.16    4.20
  -4   3 -13  440.16    5.20
  -4   3 -13  437.76    5.40
   4  -3  14   66.49    1.60
  -4   3 -14   67.09    1.60
  -4   3 -14   66.19    1.60
   4  -2 -17    0.40    0.30
   4  -2 -16    0.60    0.30
  -4   2  16    1.50    0.60
   4  -2 -16    0.60    0.40
  -4   2  15    4.40    0.80
   4  -2 -15    2.80    0.70
   4  -2 -15    2.90    0.50
  -4   2  15    3.50    0.60
   4  -2 -14   29.50    1.70
  -4   2  14   31.10    2.00
  -4   2  14   30.60    1.70
   4  -2 -14   31.50    1.90
  -4   2  14   25.50    1.60
   4  -2 -14   31.30    1.60
   4  -2 -13  172.38    4.40
  -4   2  13  185.08    4.90
  -4   2  13  169.68    4.20
   4  -2 -13  173.88    4.70
  -4   2  13  178.18    4.60
   4  -2 -13  174.38    4.30
   4  -2 -12  442.26    7.50
  -4   2  12  461.95    8.10
  -4   2  12  441.26    7.20
   4  -2 -12  457.25    7.80
  -4   2  12  446.06    7.60
   4  -2 -12  441.36    7.20
   4  -2 -11  312.77    6.40
  -4   2  11  330.47    7.00
  -4   2  11  310.47    5.90
  -4   2  11  309.37    6.30
   4  -2 -11  318.67    6.60
   4  -2 -11  320.17    6.30
   4  -2 -10   24.50    1.90
  -4   2  10   25.80    2.10
  -4   2  10   24.10    1.70
   4  -2 -10   19.60    3.80
  -4   2  10   24.80    1.90
   4  -2 -10   24.60    1.90
  -4   2  10   24.30    3.80
   4  -2 -10   25.30    1.80
   4  -2  -9   21.80    1.70
  -4   2   9   22.40    3.50
  -4   2   9   24.30    3.70
  -4   2   9   21.60    1.90
  -4   2   9   23.70    1.80
  -4   2   9   22.10    1.70
   4  -2  -9   18.70    3.60
   4  -2  -9   20.20    1.70
   4  -2  -9   22.00    1.70
   4  -2  -8   37.10    4.90
  -4   2   8   43.10    4.80
  -4   2   8   38.00    4.40
  -4   2   7   26.30    3.70
   4  -2  -7   19.90    3.60
   4  -2  -6   14.00    2.70
  -4   2   6   13.20    2.50
   4  -2  -5  244.58   10.10
  -4   2   5  259.27    9.90
   4  -2  -4 1365.56   22.30
  -4   2   4 1380.56   21.90
  -4   2   3 3465.05   33.00
  -4   2   3 3423.76   28.60
   4  -2  -3 3467.75   33.30
   4  -2  -2 1661.33   20.30
  -4   2   2 1705.23   19.60
   4  -2  -2 1697.23   22.00
  -4   2   1  205.78    6.70
   4  -2  -1  200.98    7.10
   4  -2  -1  202.78    7.20
   4  -2   0   12.60    1.90
   4  -2   0   14.60    2.00
  -4   2   0   10.10    1.90
  -4   2   0   12.50    1.70
   4  -2   1   21.00    2.40
  -4   2  -1   23.90    2.90
   4  -2   1   23.20    2.70
  -4   2  -2   99.19    6.00
   4  -2   2   98.79    5.60
  -4   2  -3  350.76   11.80
   4  -2   3  362.46   11.10
   4  -2   4    4.40    1.50
  -4   2  -4    4.20    1.70
  -4   2  -5  593.44   17.40
   4  -2   5  566.34   16.10
  -4   2  -6  134.49    4.10
   4  -2   6  140.39    4.30
  -4   2  -6  139.49    8.90
   4  -2   6  151.48    9.00
   4  -2   6  146.09    4.20
   4  -2   6  144.69    4.30
   4  -2   6  143.39    4.20
  -4   2  -6  146.09    4.40
  -4   2  -6  137.89    4.20
  -4   2  -6  139.69    4.30
  -4   2  -7    6.50    1.10
  -4   2  -7    3.40    1.40
   4  -2   7    7.60    1.30
   4  -2   7    4.90    1.10
  -4   2  -7    2.90    0.70
   4  -2   7    4.80    1.20
   4  -2   7    5.20    1.10
  -4   2  -7    8.30    1.20
  -4   2  -7    4.50    1.10
   4  -2   7    4.90    1.90
  -4   2  -8    8.80    1.10
   4  -2   8    8.00    1.10
   4  -2   8    7.70    1.30
   4  -2   8    7.80    1.20
  -4   2  -8    8.70    1.10
  -4   2  -8    8.40    1.20
  -4   2  -8    8.30    1.20
  -4   2  -8    9.00    1.20
   4  -2   9    1.30    0.80
   4  -2   9    2.20    0.70
  -4   2  -9    1.50    0.50
  -4   2  -9    1.70    0.60
  -4   2  -9    1.60    0.70
  -4   2  -9    1.40    0.60
   4  -2  10    1.10    0.60
  -4   2 -10    1.20    0.50
  -4   2 -10    1.40    0.60
   4  -2  10    1.10    0.60
  -4   2 -10    0.40    0.60
   4  -2  11   49.00    2.20
  -4   2 -11   51.59    2.10
  -4   2 -11   53.89    2.30
   4  -2  11   56.09    2.50
  -4   2 -11   56.49    2.60
   4  -2  12  179.18    3.60
   4  -2  12  201.28    4.30
  -4   2 -12  184.78    3.50
  -4   2 -12  191.98    4.00
  -4   2 -12  193.78    4.20
   4  -2  13   63.69    2.10
  -4   2 -13   60.69    1.90
  -4   2 -13   61.89    2.10
   4  -2  14    0.50    0.40
  -4   2 -14    0.40    0.30
   4  -1 -17    1.30    0.30
  -4   1  17    1.80    0.50
   4  -1 -17    1.40    0.40
  -4   1  16    5.70    0.80
   4  -1 -16    4.70    0.70
   4  -1 -16    5.20    0.80
  -4   1  16    4.10    0.70
   4  -1 -15    8.40    0.90
  -4   1  15    8.60    1.10
   4  -1 -15    8.80    1.10
   4  -1 -15    8.50    0.90
  -4   1  15    7.60    1.00
   4  -1 -14   66.39    2.70
  -4   1  14   66.59    2.90
   4  -1 -14   68.19    2.90
  -4   1  14   65.39    2.80
   4  -1 -14   65.29    2.60
   4  -1 -13  112.99    3.70
  -4   1  13  108.99    3.90
  -4   1  13  104.99    3.30
   4  -1 -13  118.09    3.90
  -4   1  13  113.59    3.90
   4  -1 -13  112.89    3.60
   4  -1 -12   57.49    2.80
   4  -1 -12   59.29    2.80
  -4   1  12   57.59    2.90
  -4   1  12   55.79    2.50
   4  -1 -12   56.49    2.80
  -4   1  12   54.39    2.90
   4  -1 -12   59.19    2.70
   4  -1 -11   49.20    2.60
   4  -1 -11   48.10    2.60
  -4   1  11   49.30    2.70
  -4   1  11   46.10    2.40
   4  -1 -11   50.89    2.70
   4  -1 -11   41.90    5.40
  -4   1  11   46.30    2.70
   4  -1 -11   52.59    2.60
   4  -1 -10   42.10    2.40
   4  -1 -10   48.20    5.70
   4  -1 -10   42.20    2.30
  -4   1  10   44.00    4.80
  -4   1  10   39.90    2.50
  -4   1  10   42.50    2.30
   4  -1 -10   42.30    2.40
  -4   1  10   44.20    2.20
  -4   1  10   39.30    2.40
  -4   1   9    3.30    1.50
   4  -1  -9    4.70    1.80
   4  -1  -8  201.78   10.50
  -4   1   8  225.88   10.50
  -4   1   8  212.98    9.40
  -4   1   7   44.90    4.50
  -4   1   7   42.30    3.90
   4  -1  -7   47.00    4.90
  -4   1   6    3.50    1.60
   4  -1  -6    4.40    1.80
   4  -1  -5  531.55   14.10
  -4   1   5  525.45   13.70
   4  -1  -4  150.68    7.10
  -4   1   4  153.48    7.10
  -4   1   3  265.17    8.80
   4  -1  -3  264.47    9.00
  -4   1   2    4.30    1.40
  -4   1   2    6.30    1.20
   4  -1  -2    4.70    1.60
   4  -1  -2    3.40    1.20
  -4   1   1    7.80    1.60
   4  -1  -1    7.90    1.50
  -4   1   1    9.40    1.20
   4  -1  -1    8.10    1.40
   4  -1   0  815.22   13.40
  -4   1   0  827.32   14.00
  -4   1   0  814.42   15.20
  -4   1   0  856.31   11.40
   4  -1   0  825.12   13.60
  -4   1  -1 1428.16   18.50
  -4   1  -1 1409.36   20.70
   4  -1   1 1415.96   18.70
   4  -1   1 1439.56   17.50
   4  -1   2  252.97    8.70
  -4   1  -2  242.18    9.00
   4  -1   2  239.08    8.10
  -4   1  -2  262.27    8.20
   4  -1   2  258.87    8.40
   4  -1   3   45.00    4.20
  -4   1  -3   38.90    3.90
   4  -1   3   46.90    4.00
  -4   1  -3   42.40    3.60
   4  -1   3   41.00    3.50
  -4   1  -4   52.39    4.10
   4  -1   4   45.20    4.60
  -4   1  -4   45.80    4.50
   4  -1   4   44.60    4.20
  -4   1  -5   26.40    3.70
   4  -1   5   29.60    4.10
   4  -1   5   28.00    3.80
  -4   1  -6   46.00    2.50
   4  -1   6   44.40    4.90
   4  -1   6   50.19    2.50
   4  -1   6   47.10    5.30
  -4   1  -6   45.90    4.90
   4  -1   6   50.39    2.60
  -4   1  -6   49.90    2.60
   4  -1   6   46.70    2.40
   4  -1   6   48.20    2.50
  -4   1  -6   49.00    2.50
  -4   1  -6   45.80    2.40
  -4   1  -6   48.70    2.50
  -4   1  -7  111.69    3.90
   4  -1   7  109.49    3.80
   4  -1   7  107.99    8.00
   4  -1   7  103.09    8.00
  -4   1  -7  105.09    7.30
   4  -1   7  119.99    4.10
  -4   1  -7  114.69    4.00
   4  -1   7  105.99    3.70
   4  -1   7  114.59    3.90
  -4   1  -7  111.39    3.50
  -4   1  -7  118.49    4.00
   4  -1   7  115.59    3.60
  -4   1  -7  117.29    3.90
  -4   1  -7  116.59    3.90
  -4   1  -8   -0.60    0.50
   4  -1   8    0.30    0.60
   4  -1   8    1.00    0.70
  -4   1  -8   -0.30    0.80
   4  -1   8    0.50    0.60
  -4   1  -8    0.50    0.40
   4  -1   8    0.30    0.50
  -4   1  -8    0.10    0.50
  -4   1  -8    0.10    0.50
  -4   1  -9  292.87    5.90
   4  -1   9  295.87    5.90
   4  -1   9  301.57    6.30
  -4   1  -9  285.37    5.70
   4  -1   9  295.17    5.70
  -4   1  -9  292.27    6.20
  -4   1  -9  287.97    5.70
   4  -1  10  263.87    5.10
   4  -1  10  276.97    5.80
  -4   1 -10  262.77    5.30
   4  -1  10  265.37    5.20
  -4   1 -10  270.27    5.80
   4  -1  11   18.50    1.60
  -4   1 -11   18.90    1.40
  -4   1 -11   18.20    1.50
   4  -1  12    2.80    0.70
  -4   1 -12    2.50    0.50
  -4   1 -12    2.00    0.60
   4  -1  13    2.40    0.40
   4  -1  13    2.00    0.50
  -4   1 -13    2.10    0.40
  -4   1 -13    1.90    0.50
   4   0 -17   23.70    1.20
  -4   0  17   23.40    1.20
   4   0 -17   22.60    1.20
   4   0 -16  210.08    4.00
  -4   0  16  204.98    4.20
   4   0 -16  207.58    4.20
  -4   0  16  198.78    4.20
   4   0 -16  202.08    3.70
   4   0 -15  349.77    5.90
   4   0 -15  351.16    6.00
  -4   0  15  349.07    6.20
  -4   0  15  334.27    6.20
   4   0 -15  349.37    5.70
   4   0 -14  165.88    4.40
   4   0 -14  165.18    4.20
  -4   0  14  168.98    4.60
   4   0 -14  168.68    4.50
  -4   0  14  169.28    4.80
   4   0 -14  162.08    4.30
   4   0 -13   10.80    1.30
   4   0 -13   10.60    1.20
  -4   0  13   11.30    1.40
   4   0 -13   10.50    1.30
  -4   0  13   11.50    1.50
   4   0 -12    7.70    1.10
   4   0 -12    9.50    1.10
  -4   0  12    9.00    1.20
   4   0 -12    9.50    1.20
  -4   0  12    8.20    1.30
   4   0 -11   30.60    2.00
  -4   0  11   29.60    2.20
  -4   0  11   29.40    1.80
  -4   0  11   37.30    4.50
   4   0 -11   30.80    2.00
  -4   0  11   28.00    2.20
   4   0 -11   25.50    4.20
  -4   0  10   63.89    3.00
   4   0 -10   65.69    6.40
  -4   0  10   73.59    6.30
   4   0 -10   67.39    2.90
  -4   0  10   65.49    3.10
   4   0  -9  534.15   17.30
  -4   0   9  588.84   17.30
   4   0  -8   45.40    4.90
   4   0  -7  330.57   12.20
  -4   0   7  327.67   11.90
  -4   0   6  515.45   14.20
   4   0  -6  522.45   14.50
  -4   0   5  165.38    7.80
   4   0  -5  157.18    7.50
  -4   0   4    9.20    2.50
   4   0  -4    4.80    1.50
  -4   0   3   10.80    1.90
   4   0  -3    9.40    1.70
  -4   0   2  244.08    8.10
  -4   0   2  248.88    8.10
   4   0  -2  244.98    6.00
   4   0  -2  242.68    8.10
  -4   0   1  716.03   13.30
  -4   0   1  721.73   13.70
   4   0  -1  714.43   13.50
   4   0  -1  704.73   13.90
   4   0  -1  714.83   11.00
  -4   0   0  685.03   13.40
  -4   0   0  692.13   12.40
   4   0   0  672.43   11.30
   4   0   0  699.03   13.20
   4   0   0  694.33   11.50
  -4   0   0  687.73   11.60
   4   0   0  680.43   13.80
  -4   0  -1  522.55   12.00
   4   0   1  508.05   11.40
   4   0   1  500.25   10.50
   4   0   1  517.45   11.50
   4   0   1  499.85   12.10
   4   0   2   41.00    3.40
   4   0   2   40.10    3.70
  -4   0  -2   37.90    3.50
   4   0   2   38.20    3.50
   4   0   2   40.10    3.30
  -4   0  -2   40.70    3.60
  -4   0  -3   14.90    2.30
   4   0   3    8.70    2.10
   4   0   3   11.20    1.90
  -4   0  -3   10.30    2.10
   4   0   3    9.70    2.00
  -4   0  -4   64.59    5.00
   4   0   4   61.69    5.00
   4   0   4   63.09    5.10
   4   0   4   57.99    5.30
  -4   0  -4   59.49    4.80
  -4   0  -5   48.90    4.70
   4   0   5   51.89    5.00
   4   0   5   48.30    5.20
  -4   0  -5   49.00    4.60
   4   0   5   48.60    4.70
   4   0   6   38.70    4.70
  -4   0  -6   39.00    2.30
   4   0   6   33.70    2.00
   4   0   6   39.40    4.90
  -4   0  -6   27.70    3.70
   4   0   6   37.40    2.30
  -4   0  -6   37.90    2.30
   4   0   6   39.30    2.30
  -4   0  -6   37.10    2.20
  -4   0  -6   36.80    2.20
  -4   0  -7   16.30    1.60
   4   0   7   14.80    1.40
   4   0   7   17.30    3.10
   4   0   7   15.70    1.60
   4   0   7   16.10    3.30
  -4   0  -7   16.30    1.70
  -4   0  -7   16.50    1.40
   4   0   7   15.30    1.50
  -4   0  -7   14.50    1.40
  -4   0  -7   17.10    1.60
  -4   0  -8   13.00    1.40
   4   0   8   13.60    1.30
   4   0   8   13.80    1.50
  -4   0  -8   13.10    1.50
  -4   0  -8   12.70    1.20
   4   0   8   13.30    1.40
  -4   0  -8   12.80    1.40
  -4   0  -8   14.50    1.40
  -4   0  -9  125.39    3.90
   4   0   9  126.29    3.70
   4   0   9  134.49    4.20
  -4   0  -9  125.89    3.70
   4   0   9  124.09    3.80
  -4   0  -9  130.89    4.20
  -4   0 -10   54.49    2.40
   4   0  10   54.49    2.30
   4   0  10   61.49    2.80
   4   0  10   56.29    2.40
  -4   0 -10   59.09    2.50
   4   0  10   59.79    2.50
  -4   0 -10   59.29    2.70
   4   0  11    3.50    0.80
   4   0  11    4.10    0.70
  -4   0 -11    3.50    0.60
   4   0  11    3.50    0.70
  -4   0 -11    3.50    0.80
   4   0  12    8.70    0.90
   4   0  12   10.20    0.80
  -4   0 -12    8.90    0.80
  -4   0 -12    9.80    1.00
   4   0  13  168.78    3.00
  -4   0 -13  166.28    3.00
   4   1 -18    7.90    0.60
   4   1 -17   28.60    1.30
  -4  -1  17   25.90    1.20
   4   1 -17   28.50    1.40
   4   1 -17   25.90    1.10
   4   1 -16  142.39    3.50
  -4  -1  16  138.49    3.40
   4   1 -16  140.69    3.50
  -4  -1  16  132.59    3.60
   4   1 -16  138.39    3.30
   4   1 -15   51.59    2.30
   4   1 -15   47.80    2.10
  -4  -1  15   47.60    2.30
   4   1 -15   49.30    2.30
  -4  -1  15   50.59    2.50
   4   1 -15   49.90    2.30
   4   1 -14    5.10    0.90
   4   1 -14    3.90    0.70
  -4  -1  14    4.50    0.90
   4   1 -14    4.40    0.90
  -4  -1  14    4.90    1.10
  -4  -1  13   49.50    2.60
   4   1 -13   48.70    2.30
   4   1 -13   48.40    2.50
  -4  -1  13   50.79    2.90
   4   1 -12   65.09    2.70
  -4  -1  12   63.49    3.10
   4   1 -12   62.19    2.80
  -4  -1  12   68.29    3.30
  -4  -1  11  315.97    6.80
   4   1 -11  309.07    6.10
  -4  -1  11  315.87    7.00
   4   1 -11  304.17   14.00
   4   1 -10  101.79    7.80
  -4  -1  10   99.89    3.70
   4   1 -10   94.89    3.30
  -4  -1  10  102.79    3.90
   4   1  -9    6.50    2.10
  -4  -1   9    8.70    2.90
   4   1  -8   14.30    2.70
  -4  -1   8   15.60    2.90
  -4  -1   7  147.69    8.30
   4   1  -7  135.49    7.70
   4   1  -6    3.40    1.60
  -4  -1   6    5.10    1.70
   4   1  -5   90.19    5.70
  -4  -1   5   95.69    6.10
   4   1  -4    0.50    1.00
  -4  -1   4    0.30    0.70
  -4  -1   3  225.58    8.40
  -4  -1   3  230.68    8.20
   4   1  -3  226.58    8.40
  -4  -1   3  239.78    8.60
  -4  -1   2 1236.48   18.20
  -4  -1   2 1252.77   19.00
   4   1  -2 1245.28   19.40
   4   1  -2 1252.27   19.40
  -4  -1   1  348.17   10.30
  -4  -1   1  334.77    9.00
   4   1  -1  344.87   10.50
   4   1  -1  370.16   10.50
  -4  -1   0   19.00    3.20
   4   1   0   18.00    3.40
   4   1   0   18.30    3.30
   4   1   1   46.60    3.80
   4   1   1   48.30    3.20
   4   1   1   49.00    4.10
  -4  -1  -1   54.29    4.20
   4   1   1   55.89    4.50
   4   1   2    1.30    1.30
  -4  -1  -2    1.10    0.80
   4   1   2    1.00    0.70
   4   1   2    0.30    0.70
  -4  -1  -3 1047.60   20.30
   4   1   3 1053.49   21.50
   4   1   3 1079.99   21.40
  -4  -1  -4 1042.30   21.80
   4   1   4 1022.10   22.50
   4   1   4 1034.20   22.40
  -4  -1  -5  168.88    9.40
  -4  -1  -5  185.88    5.00
   4   1   5  183.28   10.00
   4   1   5  176.18    9.70
  -4  -1  -5  187.78    5.00
   4   1   5  185.88    4.70
  -4  -1  -5  183.28    4.70
  -4  -1  -5  176.48    4.70
  -4  -1  -6   22.60    1.80
   4   1   6   24.40    4.00
  -4  -1  -6   13.80    2.90
   4   1   6   22.00    1.90
  -4  -1  -6   20.50    1.80
   4   1   6   21.40    1.80
  -4  -1  -6   21.50    1.70
  -4  -1  -6   19.20    1.70
   4   1   6   18.00    3.30
  -4  -1  -7  184.88    5.10
   4   1   7  185.28    5.20
  -4  -1  -7  182.28    5.20
   4   1   7  187.88    5.00
  -4  -1  -7  177.08    4.90
  -4  -1  -8    5.50    1.10
   4   1   8    4.10    0.80
   4   1   8    5.20    1.10
  -4  -1  -8    4.70    1.10
   4   1   8    4.10    0.90
  -4  -1  -8    6.00    1.10
  -4  -1  -9    4.00    0.80
   4   1   9    3.50    0.80
   4   1   9    3.10    0.90
  -4  -1  -9    3.60    0.70
   4   1   9    2.90    0.80
  -4  -1  -9    2.80    0.80
   4   1  10    0.30    0.50
  -4  -1 -10    0.30    0.40
   4   1  10    0.40    0.50
  -4  -1 -10    0.30    0.40
   4   1  10    0.50    0.60
  -4  -1 -10    0.20    0.60
   4   1  10   -0.10    0.60
   4   1  11    8.80    0.90
   4   1  11   10.10    1.00
   4   1  11   11.90    1.00
  -4  -1 -11   10.20    0.90
   4   1  11    9.70    1.00
  -4  -1 -11    9.60    1.10
   4   1  12  286.07    4.20
   4   1  12  285.77    3.90
  -4  -1 -12  289.17    4.50
  -4  -1 -13  216.28    3.00
   4   1  13  215.88    2.90
   4   2 -18  166.18    2.40
  -4  -2  18  116.09    2.10
   4   2 -17   85.89    2.30
  -4  -2  17   76.99    2.40
   4   2 -17   84.69    2.30
   4   2 -17   76.99    2.10
   4   2 -16   19.20    1.40
  -4  -2  16   19.80    1.20
  -4  -2  16   18.50    1.50
   4   2 -16   17.00    1.10
   4   2 -16   19.40    1.30
   4   2 -16   18.70    1.30
   4   2 -15   30.70    1.80
   4   2 -15   28.50    1.50
  -4  -2  15   25.50    1.50
   4   2 -15   31.10    1.80
  -4  -2  15   28.50    1.90
  -4  -2  15   30.70    1.80
   4   2 -14  196.78    4.30
  -4  -2  14  195.78    4.80
   4   2 -14  204.98    4.70
  -4  -2  14  204.68    5.40
  -4  -2  14  194.08    4.70
  -4  -2  13  152.18    4.50
   4   2 -13  144.79    4.10
  -4  -2  13  149.88    4.90
   4   2 -12 1110.99   11.40
  -4  -2  12 1099.39   13.40
  -4  -2  11  285.67    6.40
  -4  -2  11  277.87    6.60
   4   2 -11  270.57   13.10
  -4  -2  10    6.20    1.10
   4   2 -10    7.10    2.40
  -4  -2  10    7.40    2.20
  -4  -2  10    4.10    1.00
  -4  -2   9  225.68   11.00
   4   2  -9  207.48   10.50
   4   2  -8    3.60    2.20
  -4  -2   8    6.80    2.70
   4   2  -7  134.39    7.60
  -4  -2   7  157.98    8.80
  -4  -2   6   17.50    2.90
   4   2  -6   18.00    2.70
  -4  -2   5   19.30    2.90
   4   2  -5   19.50    2.80
   4   2  -4  496.75   13.30
  -4  -2   4  525.55   13.70
   4   2  -3 1690.43   24.10
  -4  -2   3 1677.53   23.40
   4   2  -3 1638.24   23.20
  -4  -2   2  365.06   11.00
   4   2  -2  368.16   11.20
  -4  -2   2  396.96   10.20
   4   2  -2  357.36   10.90
  -4  -2   1   73.19    4.10
   4   2  -1   73.59    5.10
  -4  -2   1   75.29    5.20
   4   2  -1   74.99    5.20
  -4  -2   0   10.40    2.10
   4   2   0    9.50    2.00
  -4  -2  -1  163.58    7.90
   4   2   1  163.08    8.00
  -4  -2  -2   37.70    4.00
   4   2   2   35.20    3.90
   4   2   2   38.10    4.20
  -4  -2  -3  180.88    9.30
   4   2   3  177.78    9.20
  -4  -2  -4   72.69    6.30
  -4  -2  -4   77.69    3.20
   4   2   4   67.29    6.00
  -4  -2  -4   75.69    3.30
  -4  -2  -4   79.09    3.20
   4   2   4   79.39    3.00
  -4  -2  -4   74.99    3.10
  -4  -2  -4   75.99    3.10
  -4  -2  -5  163.58    9.90
  -4  -2  -5  169.08    4.90
   4   2   5  158.98    9.50
  -4  -2  -5  171.98    4.90
  -4  -2  -5  176.28    5.00
   4   2   5  172.78    4.60
  -4  -2  -5  170.58    4.80
  -4  -2  -6   56.09    2.90
   4   2   6   58.99    3.00
  -4  -2  -6   55.09    2.90
   4   2   6   51.59    2.60
  -4  -2  -6   56.39    2.80
  -4  -2  -7  290.57    6.30
   4   2   7  300.37    6.40
  -4  -2  -7  283.77    6.50
   4   2   7  287.27    5.90
  -4  -2  -7  277.57    6.20
  -4  -2  -8  102.89    3.70
   4   2   8  101.49    3.60
   4   2   8  109.39    3.70
  -4  -2  -8  102.69    3.80
   4   2   8  105.29    3.70
  -4  -2  -8  103.49    3.70
  -4  -2  -9  106.49    3.50
   4   2   9  107.29    3.40
   4   2   9  113.69    3.50
   4   2   9  109.99    3.50
  -4  -2  -9  105.99    3.60
   4   2  10   14.90    1.20
   4   2  10   13.30    1.10
  -4  -2 -10   13.80    1.00
   4   2  10   13.60    1.10
   4   2  10   15.80    1.30
   4   2  10   15.80    1.30
  -4  -2 -10   15.00    1.30
   4   2  11    4.20    0.70
   4   2  11    2.10    0.40
   4   2  11    3.00    0.50
   4   2  11    3.50    0.60
  -4  -2 -11    3.50    0.70
   4   2  12   11.30    0.80
  -4  -2 -12   11.00    0.80
   4   3 -17   57.89    1.80
  -4  -3  17   54.89    1.90
   4   3 -17   56.39    1.70
   4   3 -17   58.69    1.80
   4   3 -16    2.70    0.60
  -4  -3  16    3.00    0.50
  -4  -3  16    2.00    0.60
   4   3 -16    2.10    0.50
  -4  -3  15   55.49    2.30
  -4  -3  15   54.99    2.60
   4   3 -15   51.29    2.20
  -4  -3  14   18.40    1.50
  -4  -3  14   19.00    1.60
   4   3 -14   21.40    1.50
  -4  -3  13   27.20    1.90
  -4  -3  13   24.50    1.90
   4   3 -13   26.90    1.80
  -4  -3  12    8.50    1.30
  -4  -3  12    8.80    1.20
  -4  -3  12    7.30    1.40
  -4  -3  11    1.80    0.70
  -4  -3  11    1.50    0.80
  -4  -3  11    0.70    0.60
  -4  -3  10   13.80    1.40
   4   3 -10   13.50    2.90
  -4  -3  10   13.10    1.40
  -4  -3  10   15.10    1.40
  -4  -3  10   19.50    3.40
  -4  -3   9  348.27    7.10
  -4  -3   9  356.26    6.80
  -4  -3   9  364.96    7.00
   4   3  -9  370.46   14.20
  -4  -3   9  362.26    6.60
  -4  -3   8  898.81   21.90
   4   3  -8  843.22   20.50
   4   3  -7  243.68   10.60
  -4  -3   7  243.38   10.90
  -4  -3   6   78.89    6.00
   4   3  -6   82.79    6.00
   4   3  -5   36.90    3.90
  -4  -3   5   34.70    3.80
  -4  -3   4   26.50    3.20
   4   3  -4   31.40    3.80
   4   3  -3    8.70    2.50
   4   3  -3   10.10    2.60
  -4  -3   3    8.50    2.50
  -4  -3   3   10.10    1.90
  -4  -3   2    0.40    1.20
  -4  -3   2    1.00    0.70
   4   3  -2    1.00    0.90
   4   3  -2    1.60    1.10
   4   3  -1   13.00    2.50
  -4  -3   1   13.60    2.40
   4   3  -1   12.80    2.30
  -4  -3   0 1118.29   21.60
   4   3   0 1112.99   21.80
  -4  -3  -1 1695.73   27.50
   4   3   1 1752.32   28.60
  -4  -3  -2  401.46   14.10
  -4  -3  -2  431.46    8.00
   4   3   2  411.56   14.80
  -4  -3  -3  142.39    4.40
  -4  -3  -3  142.29    8.90
  -4  -3  -3  145.99    4.70
  -4  -3  -3  152.18    4.30
  -4  -3  -3  149.59    4.30
   4   3   4    6.40    2.00
  -4  -3  -4    7.70    1.20
  -4  -3  -4    4.40    2.00
  -4  -3  -4    8.80    1.20
  -4  -3  -4    8.70    1.30
   4   3   4    8.40    1.00
  -4  -3  -4    8.00    1.10
  -4  -3  -5   11.90    1.40
   4   3   5   10.20    1.30
  -4  -3  -5   11.20    1.40
   4   3   5   12.30    1.30
  -4  -3  -5   11.40    1.30
  -4  -3  -6  145.09    4.50
  -4  -3  -6  136.99    4.50
   4   3   6  146.19    4.50
  -4  -3  -6  143.89    4.50
  -4  -3  -7  249.68    5.80
   4   3   7  250.77    5.50
  -4  -3  -7  246.18    5.80
   4   3   7  251.57    5.70
  -4  -3  -7  254.97    5.80
  -4  -3  -8   58.59    2.70
   4   3   8   60.59    2.70
   4   3   8   60.09    2.50
   4   3   8   61.09    2.70
  -4  -3  -8   59.99    2.70
   4   3   9   52.59    2.30
  -4  -3  -9   49.70    2.00
   4   3   9   48.80    2.00
   4   3   9   49.10    2.20
   4   3   9   49.70    2.20
  -4  -3  -9   49.20    2.30
   4   3  10  143.59    3.20
   4   3  10  131.99    3.00
  -4  -3 -10  127.89    2.60
   4   3  10  132.59    2.70
   4   3  10  145.29    3.20
   4   3  10  148.99    3.20
  -4  -3 -10  142.89    3.40
   4   3  11   12.90    0.90
  -4  -3 -11   14.30    0.90
   4   4 -17    4.00    0.50
   4   4 -17    3.00    0.50
  -4  -4  17    3.50    0.50
   4   4 -17    3.00    0.40
   4   4 -16  145.39    3.10
  -4  -4  16  140.09    3.30
   4   4 -16  138.49    2.90
  -4  -4  15  457.25    6.40
   4   4 -15  463.35    5.90
  -4  -4  14  124.49    3.80
  -4  -4  14  127.59    4.10
   4   4 -14  119.49    3.30
  -4  -4  13   10.90    1.30
  -4  -4  13    9.70    1.10
  -4  -4  13   11.60    1.40
  -4  -4  12   11.20    1.30
  -4  -4  12   13.80    1.30
  -4  -4  12   10.20    1.40
  -4  -4  11    4.50    0.90
  -4  -4  11    4.20    1.00
  -4  -4  11    3.60    0.90
  -4  -4  10   71.99    3.10
  -4  -4  10   73.49    3.20
  -4  -4  10   75.39    3.40
  -4  -4  10   76.89    3.40
   4   4  -9  296.77   12.80
  -4  -4   9  266.87    5.90
  -4  -4   9  282.27    6.10
  -4  -4   9  268.97    5.30
  -4  -4   9  276.37    6.60
  -4  -4   9  293.37    6.30
  -4  -4   8  151.08    4.20
  -4  -4   8  129.79    4.00
   4   4  -8  134.09    8.40
  -4  -4   8  141.59    4.60
  -4  -4   8  139.29    9.00
  -4  -4   8  141.99    4.20
   4   4  -7   24.80    3.60
  -4  -4   7   26.00    1.90
  -4  -4   7   22.30    1.60
  -4  -4   7   23.10    3.50
  -4  -4   7   24.00    1.70
   4   4  -6    9.90    2.20
  -4  -4   6   13.50    1.30
  -4  -4   6   13.80    2.70
   4   4  -5    6.70    1.90
  -4  -4   5    3.90    1.40
   4   4  -4    1.20    1.20
  -4  -4   4    2.20    1.40
  -4  -4   4    0.00    0.50
   4   4  -3   10.20    2.10
   4   4  -3   10.70    2.40
  -4  -4   3   12.20    2.40
  -4  -4   3   10.80    2.10
   4   4  -2   65.29    5.70
  -4  -4   2   64.69    5.40
   4   4  -2   66.09    5.50
   4   4  -1   99.99    7.20
  -4  -4   1  104.99    6.90
  -4  -4   1   98.79    3.20
  -4  -4   1   99.59    3.80
   4   4  -1  105.19    7.00
  -4  -4   0  106.49    7.20
  -4  -4   0   96.69    3.90
  -4  -4   0  111.49    3.40
   4   4   0  103.49    7.20
  -4  -4  -1  354.56    7.00
  -4  -4  -1  381.76   14.00
  -4  -4  -1  366.36    7.60
  -4  -4  -1  381.16    6.40
   4   4   1  387.86   14.60
  -4  -4  -2    8.20    1.20
  -4  -4  -2   10.50    2.50
  -4  -4  -2    8.80    1.10
  -4  -4  -2    8.30    1.20
  -4  -4  -2    8.20    1.10
   4   4   2    5.90    2.10
  -4  -4  -3    2.60    0.80
  -4  -4  -3    3.70    0.80
  -4  -4  -3    3.80    0.90
  -4  -4  -4  275.27    6.20
  -4  -4  -4  280.57    6.10
  -4  -4  -4  289.17    6.30
  -4  -4  -5  339.17    6.90
   4   4   5  375.16    6.80
  -4  -4  -5  350.16    6.80
  -4  -4  -5  364.06    7.10
  -4  -4  -6  208.38    5.20
   4   4   6  213.98    4.80
  -4  -4  -6  205.98    5.00
   4   4   6  213.18    5.00
  -4  -4  -6  211.28    5.30
  -4  -4  -7    0.60    0.60
   4   4   7    0.50    0.40
   4   4   7    0.70    0.60
  -4  -4  -7    1.30    0.60
   4   4   8    0.50    0.60
  -4  -4  -8    0.10    0.40
   4   4   8   -0.30    0.60
   4   4   8    0.10    0.50
  -4  -4  -8    0.80    0.60
   4   4   9    5.30    0.60
   4   4   9    4.70    0.70
  -4  -4  -9    6.50    0.70
   4   4   9    5.50    0.70
   4   4   9    5.50    0.70
   4   4   9    5.80    0.70
  -4  -4  -9    6.40    0.80
   4   4  10   18.80    1.00
   4   4  10   19.20    1.00
  -4  -4 -10   17.50    1.00
   4   5 -16   40.90    1.40
  -4  -5  16   40.90    1.50
  -4  -5  16   35.00    1.40
   4   5 -16   36.30    1.20
  -4  -5  15    8.40    0.90
  -4  -5  15    8.50    0.90
   4   5 -15    9.30    0.80
  -4  -5  14    5.40    0.90
  -4  -5  14    4.30    0.80
   4   5 -14    4.40    0.60
  -4  -5  14    5.60    0.80
  -4  -5  13    9.90    1.10
  -4  -5  13   11.30    1.30
  -4  -5  13   11.30    1.30
  -4  -5  12  249.58    5.80
  -4  -5  12  247.08    5.70
  -4  -5  12  253.37    5.90
  -4  -5  11  351.36    7.10
  -4  -5  11  360.76    7.30
  -4  -5  11  370.16    7.20
  -4  -5  10  434.66    7.80
  -4  -5  10  433.16    8.30
  -4  -5  10  444.26    7.80
  -4  -5  10  439.66    7.00
  -4  -5   9    6.40    1.20
  -4  -5   9    5.40    1.00
  -4  -5   8    3.40    0.80
  -4  -5   8    1.80    0.60
   4   5  -7   20.00    3.40
  -4  -5   7   21.20    1.80
  -4  -5   7   21.40    1.60
   4   5  -6  180.58    9.80
  -4  -5   6  173.48    4.90
  -4  -5   6  199.28    5.20
  -4  -5   6  196.98    4.90
  -4  -5   6  189.68    4.70
  -4  -5   6  185.88    5.30
  -4  -5   5  327.67   12.80
  -4  -5   5  307.77    6.40
  -4  -5   5  309.77    6.10
  -4  -5   5  308.77    5.90
   4   5  -5  307.77   12.90
  -4  -5   5  290.57    6.70
   4   5  -4  100.59    7.40
  -4  -5   4  104.79    3.60
  -4  -5   4   97.89    6.80
  -4  -5   4  102.39    3.50
  -4  -5   4  100.99    3.30
  -4  -5   4  102.69    3.60
   4   5  -3  277.57   12.40
  -4  -5   3  278.87   11.50
  -4  -5   3  268.87    5.70
  -4  -5   3  265.97    5.40
   4   5  -3  258.87   11.10
   4   5  -2  196.88   10.60
  -4  -5   2  202.98   10.00
  -4  -5   2  207.38    4.90
  -4  -5   2  206.78    4.90
   4   5  -2  203.68   10.00
   4   5  -1  134.89    8.90
  -4  -5   1  125.49    8.00
  -4  -5   1  133.59    3.90
  -4  -5   1  138.29    4.10
   4   5  -1  135.49    8.50
  -4  -5   0    3.60    1.00
  -4  -5   0    4.40    0.80
  -4  -5   0    5.10    0.90
  -4  -5  -1    4.60    1.00
  -4  -5  -1    6.00    0.90
  -4  -5  -1    5.60    0.90
  -4  -5  -2   41.30    2.20
  -4  -5  -2   45.00    2.40
  -4  -5  -3  242.48    5.40
  -4  -5  -3  256.47    5.80
  -4  -5  -4  349.47    6.00
  -4  -5  -4  339.67    6.20
  -4  -5  -4  355.96    6.80
  -4  -5  -5  341.87    6.40
   4   5   5  323.67    5.70
  -4  -5  -5  336.07    6.40
  -4  -5  -6   29.50    1.80
   4   5   6   28.00    1.60
  -4  -5  -6   29.10    1.80
   4   5   7   -0.10    0.50
  -4  -5  -7    1.00    0.50
   4   5   7    0.30    0.40
   4   5   7    0.50    0.40
  -4  -5  -7    0.90    0.50
   4   5   8    0.00    0.40
  -4  -5  -8    0.30    0.40
   4   5   8    0.80    0.40
   4   5   8   -0.30    0.40
   4   5   8    0.40    0.30
  -4  -5  -8    0.30    0.40
   4   5   9   37.90    1.20
  -4  -5  -9   38.00    1.30
  -4  -6  15   10.70    0.80
  -4  -6  15    8.10    0.60
  -4  -6  14    0.80    0.40
  -4  -6  14    1.00    0.30
  -4  -6  13   72.89    2.70
  -4  -6  13   66.09    2.40
  -4  -6  12  313.27    6.10
  -4  -6  12  296.07    5.40
  -4  -6  11  347.57    7.00
  -4  -6  11  351.86    6.10
  -4  -6  10    3.50    0.80
  -4  -6  10    2.50    0.90
  -4  -6   9    5.90    1.10
  -4  -6   9    5.40    0.90
  -4  -6   8   62.29    3.10
  -4  -6   8   63.29    2.80
  -4  -6   8   59.19    2.50
  -4  -6   7  136.59    4.40
  -4  -6   7  137.59    4.10
  -4  -6   6   20.10    1.70
  -4  -6   6   21.10    1.70
  -4  -6   5    2.50    0.90
  -4  -6   5    1.20    0.70
  -4  -6   4  314.37    6.30
  -4  -6   4  321.07    6.40
  -4  -6   3    1.20    0.70
  -4  -6   3    4.20    1.00
  -4  -6   2    0.90    0.60
  -4  -6   2   22.90    1.90
  -4  -6   1   24.90    1.80
  -4  -6   1   23.00    1.70
  -4  -6   0   14.10    1.40
  -4  -6   0   12.00    1.20
  -4  -6  -1  112.29    3.80
  -4  -6  -1  107.29    3.30
  -4  -6  -2  247.98    5.50
  -4  -6  -2  248.78    5.40
  -4  -6  -2  246.68    5.30
  -4  -6  -3   69.79    2.80
  -4  -6  -3   66.99    2.60
  -4  -6  -3   69.89    2.80
  -4  -6  -4   14.20    1.30
  -4  -6  -4   13.00    1.10
  -4  -6  -4   13.60    1.30
  -4  -6  -5    4.60    0.80
   4   6   5    4.00    0.60
  -4  -6  -5    5.50    0.80
   4   6   6   39.10    1.60
  -4  -6  -6   37.80    1.70
   4   6   6   34.90    1.30
  -4  -6  -6   39.40    1.70
   4   6   7  107.59    2.20
  -4  -6  -7  110.89    2.30
   4   6   7  103.69    2.30
  -4  -6  -7  100.09    2.20
  -4  -7  14   54.09    1.70
  -4  -7  13  107.19    2.80
  -4  -7  13  106.49    2.80
  -4  -7  12    6.70    0.90
  -4  -7  12    4.90    1.00
  -4  -7  11    5.40    0.80
  -4  -7  11    4.30    0.90
  -4  -7  11    4.10    0.80
  -4  -7  10   12.30    1.20
  -4  -7  10   12.30    1.40
  -4  -7  10   11.30    1.20
  -4  -7   9  285.47    6.10
  -4  -7   9  290.67    5.80
  -4  -7   9  277.07    5.60
  -4  -7   8  553.64    7.60
  -4  -7   8  533.95    7.90
  -4  -7   8  553.64    8.50
  -4  -7   8  566.24    8.20
  -4  -7   7  546.85    8.20
  -4  -7   7  518.85    7.00
  -4  -7   7  563.84    8.30
  -4  -7   7  556.94    8.20
  -4  -7   7  533.75    7.80
  -4  -7   6   10.80    1.30
  -4  -7   6    8.60    1.20
  -4  -7   5   25.00    1.80
  -4  -7   5   24.40    1.80
  -4  -7   5   24.50    1.80
  -4  -7   4    4.60    1.00
  -4  -7   4    1.90    0.80
  -4  -7   3   11.90    1.30
  -4  -7   3   12.30    1.40
  -4  -7   2   32.80    2.00
  -4  -7   2   35.40    2.20
  -4  -7   1    2.50    0.80
  -4  -7   1   -0.20    0.70
  -4  -7   0  250.27    4.90
  -4  -7   0  253.67    4.70
  -4  -7   0  249.18    5.30
  -4  -7  -1  374.66    5.90
  -4  -7  -1  375.06    6.10
  -4  -7  -2  176.38    3.90
  -4  -7  -2  174.88    3.90
  -4  -7  -3    6.80    0.80
  -4  -7  -3    7.00    0.70
   4   7   4    9.90    0.80
  -4  -7  -4   10.90    0.90
  -4  -7  -4    9.00    0.70
  -4  -7  -5   28.70    1.20
   4   7   5   24.00    1.00
  -4  -8  12    0.40    0.30
  -4  -8  11    2.10    0.40
  -4  -8  11    2.80    0.60
  -4  -8  10   15.70    1.00
  -4  -8  10   15.50    1.10
  -4  -8   9   13.90    1.10
  -4  -8   9   12.30    1.10
  -4  -8   8   46.00    2.00
  -4  -8   8   46.20    2.10
  -4  -8   7    6.50    0.90
  -4  -8   7    4.90    0.60
  -4  -8   6    6.70    1.00
  -4  -8   6   30.60    1.40
  -4  -8   6   27.20    1.80
  -4  -8   5  116.09    3.30
  -4  -8   5  116.59    3.30
  -4  -8   4  266.07    4.90
  -4  -8   4  279.67    5.30
  -4  -8   3  203.08    4.20
  -4  -8   3  207.48    4.50
  -4  -8   2   35.90    2.10
  -4  -8   2    2.60    0.70
  -4  -8   1   14.00    1.20
  -4  -8   0   20.20    1.30
  -4  -8  -1   11.40    0.90
  -4  -8  -2   16.40    0.90
  -4  -8  -2   14.90    0.80
  -4  -9   9   70.09    1.70
  -4  -9   8   37.10    1.40
  -4  -9   7   41.30    1.60
  -4  -9   6   69.89    2.00
  -4  -9   5  216.58    3.20
  -4  -9   4   98.29    2.30
  -4  -9   3    3.30    0.60
  -4  -9   2   47.70    1.60
  -4  -9   1    9.90    0.80
  -5   9   5    0.30    0.40
   5  -9  -5    0.20    0.40
  -5   9   5    0.30    0.30
  -5   9   4   11.10    0.90
   5  -9  -4   10.10    0.90
  -5   9   4    9.20    0.70
  -5   9   3  168.48    3.50
   5  -9  -3  133.19    2.60
   5  -9  -3  167.68    3.60
  -5   9   3  145.79    2.70
  -5   9   2  197.18    3.80
   5  -9  -2  199.68    3.90
  -5   9   1   75.49    2.40
   5  -9  -1   80.79    2.60
   5  -9  -1   75.89    2.40
  -5   9   1   78.49    2.50
  -5   9   0   11.00    0.90
   5  -9   0   12.40    1.20
   5  -9   0   12.40    1.00
  -5   9   0   11.90    1.00
  -5   9  -1   20.60    1.20
  -5   9  -1   18.90    1.10
   5  -9   1   20.80    1.50
   5  -9   1   21.00    1.30
  -5   9  -2   25.10    1.30
   5  -9   2   27.10    1.60
   5  -9   2   25.60    1.40
   5  -9   3    1.40    0.60
   5  -9   3    0.80    0.40
  -5   9  -3    0.90    0.40
  -5   9  -3    1.40    0.60
   5  -9   3    0.60    0.40
   5  -9   4   14.40    1.00
   5  -9   4   14.00    1.00
  -5   9  -4   14.30    1.00
   5  -9   5   24.80    1.20
   5  -9   5   26.70    1.30
  -5   9  -5   28.10    1.30
  -5   9  -5   26.20    1.20
   5  -9   5   24.30    1.30
   5  -9   6   14.60    0.90
  -5   9  -6   14.20    0.90
  -5   8   8   12.70    0.80
   5  -8  -8   14.20    0.90
  -5   8   7   25.90    1.30
   5  -8  -7   24.40    1.30
  -5   8   7   25.20    1.40
  -5   8   6   29.50    1.60
   5  -8  -6   29.30    1.70
  -5   8   6   26.70    1.60
   5  -8  -5    5.90    0.80
  -5   8   5    6.50    0.90
   5  -8  -5    6.10    1.00
  -5   8   5    5.50    0.90
  -5   8   4    7.70    1.10
   5  -8  -4    8.40    0.90
   5  -8  -4    8.30    1.10
  -5   8   4    8.80    1.00
   5  -8  -4    7.40    1.00
  -5   8   3   35.00    2.20
   5  -8  -3   30.60    1.90
   5  -8  -3   36.40    2.20
  -5   8   3   32.50    1.80
   5  -8  -3   33.30    2.00
  -5   8   2  137.69    4.10
   5  -8  -2  138.59    4.10
   5  -8  -2  134.29    4.00
  -5   8   2  127.39    3.40
   5  -8  -2  130.89    4.00
  -5   8   1   19.40    1.60
   5  -8  -1   16.40    1.60
   5  -8  -1   18.00    1.50
  -5   8   1   15.00    1.20
   5  -8  -1   16.50    1.50
   5  -8   0    2.60    0.80
  -5   8   0    2.70    0.80
   5  -8   0    3.40    1.00
   5  -8   0    2.40    0.70
  -5   8  -1   89.89    3.10
  -5   8  -1   85.39    2.80
   5  -8   1   86.09    3.00
   5  -8   1   87.29    3.40
   5  -8   1   83.69    3.30
  -5   8  -2  201.78    4.50
  -5   8  -2  191.38    3.90
   5  -8   2  217.18    5.10
   5  -8   2  212.08    4.60
   5  -8   2  193.88    4.30
   5  -8   2  206.18    5.30
  -5   8  -3   80.99    2.70
   5  -8   3   86.39    3.10
   5  -8   3   85.29    2.90
   5  -8   3   85.99    3.40
  -5   8  -4    9.60    0.90
   5  -8   4    8.70    1.10
   5  -8   4    8.60    1.00
  -5   8  -4   10.00    1.20
   5  -8   4   10.60    1.30
   5  -8   5    0.10    0.50
   5  -8   5    1.10    0.50
  -5   8  -5    0.90    0.40
  -5   8  -5    0.70    0.50
   5  -8   5    0.80    0.80
   5  -8   6    6.80    0.70
   5  -8   6    7.90    0.90
  -5   8  -6    8.60    1.00
  -5   8  -6    7.40    0.90
   5  -8   6    7.20    1.00
   5  -8   7    4.30    0.60
  -5   8  -7    4.10    0.60
  -5   8  -7    2.90    0.50
  -5   8  -7    4.60    0.70
   5  -8   7    4.10    0.80
   5  -8   8   23.40    1.10
  -5   8  -8   22.80    1.10
  -5   8  -8   22.60    1.20
   5  -8   8   21.60    1.30
  -5   8  -9    2.90    0.40
  -5   8  -9    2.60    0.50
   5  -7 -10    1.00    0.50
  -5   7  10    0.00    0.30
  -5   7  10    0.10    0.30
   5  -7  -9    3.60    0.50
  -5   7   9    4.00    0.50
   5  -7  -9    4.50    0.80
  -5   7   9    3.90    0.70
   5  -7  -9    3.10    0.50
  -5   7   9    4.20    0.60
  -5   7   9    4.70    0.70
  -5   7   8  115.69    2.90
   5  -7  -8  110.89    3.50
  -5   7   8  124.49    3.40
   5  -7  -8  111.99    3.10
  -5   7   8  113.49    3.10
  -5   7   8  124.89    3.40
   5  -7  -8  112.89    3.00
  -5   7   7   99.29    3.10
   5  -7  -7   95.39    3.40
  -5   7   7  100.29    3.30
   5  -7  -7   95.89    3.30
  -5   7   7   91.29    3.00
  -5   7   7  103.29    3.50
   5  -7  -7   96.29    3.20
   5  -7  -6    1.80    0.70
  -5   7   6    2.00    0.80
   5  -7  -6    0.90    0.60
  -5   7   6    3.30    0.90
   5  -7  -6    1.00    0.70
  -5   7   6    1.80    0.50
  -5   7   6    1.60    0.80
   5  -7  -5  155.88    4.80
   5  -7  -5  153.38    4.50
   5  -7  -5  150.78    4.00
  -5   7   5  154.08    4.30
  -5   7   5  165.98    4.80
   5  -7  -5  159.98    4.50
   5  -7  -4   47.40    2.60
  -5   7   4   48.10    2.40
   5  -7  -4   51.49    2.80
  -5   7   4   50.49    2.70
   5  -7  -4   48.00    2.60
   5  -7  -3    6.60    1.10
   5  -7  -3    7.60    1.20
   5  -7  -3    5.50    1.10
  -5   7   3    6.70    1.20
   5  -7  -2    0.60    0.60
  -5   7   2    1.40    0.80
   5  -7  -2    1.60    0.80
  -5   7   2    1.70    0.60
  -5   7   1   50.69    2.70
   5  -7  -1   49.40    2.50
   5  -7  -1   47.40    2.60
  -5   7   1   52.09    2.40
   5  -7  -1   49.70    2.70
   5  -7  -1   48.90    2.60
  -5   7   0  113.19    3.70
   5  -7   0  115.99    3.90
   5  -7   0  113.69    3.90
  -5   7   0  116.49    3.40
   5  -7   0  112.59    4.20
   5  -7   0  109.99    3.90
  -5   7  -1  376.26    6.50
   5  -7   1  382.06    7.20
   5  -7   1  388.56    7.00
   5  -7   1  386.56    7.80
   5  -7   1  380.46    7.30
  -5   7  -2  241.98    5.00
   5  -7   2  241.48    5.80
   5  -7   2  249.58    5.50
   5  -7   2  260.57    6.00
   5  -7   2  248.28    6.40
   5  -7   2  252.47    6.00
  -5   7  -2  257.17    5.70
  -5   7  -3   80.79    3.10
   5  -7   3   77.29    3.30
   5  -7   3   82.49    3.40
   5  -7   3   79.19    3.00
   5  -7   3   81.79    3.70
  -5   7  -4    0.70    0.60
   5  -7   4    1.40    0.80
   5  -7   4    0.10    0.50
  -5   7  -4    0.90    0.80
   5  -7   4    0.80    0.80
  -5   7  -5    7.10    0.90
   5  -7   5    6.70    1.00
   5  -7   5    4.70    0.80
  -5   7  -5    6.50    1.10
   5  -7   5    6.30    1.20
   5  -7   6   36.50    1.90
  -5   7  -6   34.60    1.70
   5  -7   6   33.30    1.70
   5  -7   6   37.30    2.00
  -5   7  -6   34.30    2.00
   5  -7   6   34.90    2.30
   5  -7   7    0.90    0.50
  -5   7  -7   -0.20    0.60
  -5   7  -7    0.30    0.50
   5  -7   7    0.60    0.70
   5  -7   8    0.70    0.50
   5  -7   8    0.90    0.40
  -5   7  -8    1.20    0.50
  -5   7  -8    0.40    0.50
   5  -7   8    1.50    0.70
   5  -7   9    2.40    0.50
   5  -7   9    3.20    0.50
  -5   7  -9    3.40    0.60
  -5   7  -9    3.30    0.60
   5  -7   9    2.20    0.60
  -5   7 -10   77.49    1.90
  -5   7 -10   74.59    1.90
   5  -6 -12   27.90    1.30
  -5   6  12   26.90    1.20
   5  -6 -11    1.80    0.40
   5  -6 -11    1.90    0.60
  -5   6  11    1.70    0.50
  -5   6  11    2.50    0.50
   5  -6 -10   29.90    1.80
  -5   6  10   26.50    1.60
  -5   6  10   30.90    1.70
  -5   6  10   29.30    1.60
   5  -6 -10   27.70    1.50
  -5   6   9    7.60    0.90
   5  -6  -9    6.60    1.10
  -5   6   9    7.90    1.00
   5  -6  -9    7.80    0.90
  -5   6   9   10.20    1.20
  -5   6   9    9.10    1.10
   5  -6  -9    8.30    1.00
  -5   6   8   32.60    1.90
   5  -6  -8   31.40    2.20
  -5   6   8   35.10    2.10
   5  -6  -8   28.40    1.80
  -5   6   8   30.50    2.00
  -5   6   8   34.00    2.10
   5  -6  -8   32.10    2.00
   5  -6  -7    2.00    0.70
  -5   6   7    2.70    0.80
   5  -6  -7    2.00    0.80
  -5   6   7    2.80    0.90
   5  -6  -7    2.00    0.80
  -5   6   7    2.50    0.80
  -5   6   7    2.00    0.80
   5  -6  -6   51.89    2.70
  -5   6   6   47.50    2.70
   5  -6  -6   46.20    2.70
  -5   6   6   51.69    2.60
  -5   6   6   48.80    2.80
   5  -6  -6   45.50    2.60
   5  -6  -5  100.89    3.80
  -5   6   5   98.99    3.80
   5  -6  -5   95.19    4.00
  -5   6   5  100.99    3.50
  -5   6   5  100.29    4.00
   5  -6  -5  101.99    3.80
   5  -6  -4   33.40    2.20
  -5   6   4   33.70    2.20
   5  -6  -4   33.70    2.40
  -5   6   4   34.70    2.30
   5  -6  -4   35.70    2.30
   5  -6  -3   81.19    3.40
  -5   6   3   77.09    3.00
   5  -6  -3   81.19    3.50
  -5   6   3   82.79    3.40
   5  -6  -3   76.69    3.30
   5  -6  -2   28.00    2.10
   5  -6  -2   28.10    2.10
  -5   6   2   26.80    2.00
   5  -6  -2   28.40    2.10
   5  -6  -2   29.20    2.10
  -5   6   1  142.99    4.40
   5  -6  -1  137.69    4.20
   5  -6  -1  142.29    4.50
   5  -6  -1  142.79    4.50
  -5   6   1  144.89    4.20
   5  -6  -1  131.59    4.40
   5  -6  -1  143.89    4.50
   5  -6   0    0.40    0.50
  -5   6   0    0.10    0.70
   5  -6   0    1.60    0.70
   5  -6   0    1.90    0.80
  -5   6   0    0.00    0.40
   5  -6   0    0.30    0.60
  -5   6  -1   12.50    1.30
   5  -6   1   11.10    1.30
   5  -6   1   10.90    1.30
   5  -6   1   11.80    1.50
   5  -6   1   11.70    1.40
  -5   6  -2   11.00    1.20
   5  -6   2   12.20    1.40
  -5   6  -2   12.00    1.40
   5  -6   2   12.30    1.40
   5  -6   2   12.10    1.60
   5  -6   2   11.10    1.40
   5  -6   3   40.80    2.50
   5  -6   3   38.90    2.20
  -5   6  -3   41.60    2.40
   5  -6   3   37.80    2.60
   5  -6   3   40.30    2.50
  -5   6  -4  276.97    5.80
   5  -6   4  265.17    6.30
   5  -6   4  274.87    5.70
   5  -6   4  264.77    5.80
   5  -6   4  266.97    5.60
  -5   6  -4  275.47    6.10
   5  -6   4  270.77    6.70
  -5   6  -5  382.26    6.60
   5  -6   5  384.46    6.70
   5  -6   5  388.66    7.60
   5  -6   5  376.76    6.60
   5  -6   5  380.86    6.60
  -5   6  -5  396.06    7.30
   5  -6   5  394.56    8.00
  -5   6  -6  180.58    4.40
   5  -6   6  179.28    4.50
   5  -6   6  177.28    4.50
  -5   6  -6  181.88    4.80
   5  -6   6  193.78    5.60
   5  -6   7    7.70    1.10
  -5   6  -7    8.40    1.20
  -5   6  -7    7.30    1.00
   5  -6   7    8.90    1.40
   5  -6   8   71.99    2.70
   5  -6   8   68.59    2.60
  -5   6  -8   72.59    2.90
  -5   6  -8   73.19    2.90
   5  -6   8   71.09    3.00
   5  -6   9   -0.40    0.50
   5  -6   9    0.20    0.30
  -5   6  -9   -0.50    0.50
  -5   6  -9    0.20    0.50
  -5   6  -9    0.30    0.40
   5  -6   9    0.40    0.50
   5  -6  10    0.70    0.50
   5  -6  10    0.60    0.30
  -5   6 -10    0.50    0.30
  -5   6 -10    0.70    0.40
   5  -6  11    1.20    0.50
  -5   6 -11    1.50    0.40
  -5   6 -11    1.10    0.40
   5  -5 -13   11.30    0.90
  -5   5  13   11.70    0.90
   5  -5 -13   10.60    0.70
   5  -5 -12   91.09    2.80
  -5   5  12   96.09    2.80
   5  -5 -12   90.19    2.50
   5  -5 -11  273.17    5.00
   5  -5 -11  274.67    5.50
  -5   5  11  273.87    5.00
  -5   5  11  273.57    5.20
  -5   5  11  266.97    4.60
   5  -5 -10  243.68    5.20
   5  -5 -10  238.88    5.50
  -5   5  10  240.48    5.20
  -5   5  10  250.77    5.50
  -5   5  10  237.78    4.90
   5  -5  -9   76.69    3.20
  -5   5   9   78.99    2.80
   5  -5  -9   80.69    3.40
  -5   5   9   82.69    3.30
   5  -5  -9   78.39    2.90
  -5   5   9   83.69    3.40
  -5   5   9   82.89    3.20
   5  -5  -8   28.90    2.10
  -5   5   8   27.50    1.80
   5  -5  -8   31.30    2.20
  -5   5   8   29.20    2.10
   5  -5  -8   29.40    2.00
  -5   5   8   29.50    2.20
  -5   5   8   26.70    2.00
   5  -5  -7   26.80    2.00
   5  -5  -7   26.60    2.10
  -5   5   7   27.70    2.10
   5  -5  -7   24.60    2.00
  -5   5   7   27.60    2.20
  -5   5   7   25.90    2.10
   5  -5  -6   29.20    2.10
   5  -5  -6   28.10    2.00
  -5   5   6   27.90    2.20
   5  -5  -6   29.10    2.20
  -5   5   6   30.50    2.20
  -5   5   6   29.00    2.20
   5  -5  -5    0.00    0.60
   5  -5  -5    1.00    0.70
  -5   5   5   -0.10    0.70
   5  -5  -5    0.40    0.70
  -5   5   5    0.60    0.50
  -5   5   5    0.20    0.70
   5  -5  -4   68.69    3.00
  -5   5   4   70.79    3.10
   5  -5  -4   68.39    3.20
  -5   5   4   71.29    2.90
  -5   5   4   72.59    3.30
   5  -5  -4   64.69    2.90
   5  -5  -4   71.39    3.10
   5  -5  -3   84.79    7.30
  -5   5   3   79.19    6.80
   5  -5  -3   84.69    3.30
  -5   5   3   82.89    3.10
   5  -5  -3   84.99    3.50
  -5   5   3   87.99    3.50
   5  -5  -3   80.79    3.20
   5  -5  -3   86.49    3.30
   5  -5  -2  494.55   16.90
  -5   5   2  523.45    8.30
   5  -5  -2  525.25    8.10
   5  -5  -2  506.55    8.30
  -5   5   2  507.05   16.20
  -5   5   2  524.15    8.10
   5  -5  -2  501.45    8.10
   5  -5  -2  506.35    8.00
   5  -5  -1  213.78   10.80
  -5   5   1  215.88    5.20
   5  -5  -1  216.18    5.20
   5  -5  -1  207.28    5.30
  -5   5   1  210.98   10.30
  -5   5   1  213.28    5.10
   5  -5  -1  214.48    5.40
   5  -5  -1  219.38    5.40
  -5   5   0   28.40    1.90
   5  -5   0   26.50    3.70
   5  -5   0   27.40    2.00
  -5   5   0   24.20    3.50
  -5   5   0   30.40    1.90
   5  -5   0   29.20    2.10
   5  -5   0   30.10    2.00
   5  -5   1   47.80    4.90
  -5   5  -1   48.70    2.50
   5  -5   1   48.30    2.60
   5  -5   1   54.39    5.60
  -5   5  -1   47.40    5.00
  -5   5  -1   48.60    2.30
   5  -5   1   47.70    2.70
   5  -5   1   52.99    2.70
  -5   5  -2    2.80    1.50
   5  -5   2    3.00    0.90
  -5   5  -2    2.20    0.80
  -5   5  -2    1.30    0.50
   5  -5   2    1.50    0.70
   5  -5   2    1.40    0.80
   5  -5   2    1.60    0.60
  -5   5  -2    0.70    0.90
   5  -5   2    2.70    0.70
   5  -5   2    2.30    0.80
  -5   5  -3   19.20    1.70
  -5   5  -3   18.00    1.50
   5  -5   3   17.70    1.60
   5  -5   3   18.20    1.60
   5  -5   3   19.00    1.50
   5  -5   3   17.10    1.60
   5  -5   3   19.30    1.80
   5  -5   3   18.90    1.70
  -5   5  -4   89.59    3.40
   5  -5   4   86.19    3.40
   5  -5   4   91.29    3.70
   5  -5   4   89.99    3.20
   5  -5   4   83.39    3.50
  -5   5  -4   91.19    3.60
   5  -5   4   95.49    3.90
   5  -5   4   88.89    3.60
  -5   5  -5  112.59    3.80
   5  -5   5  106.89    3.80
   5  -5   5  113.29    4.20
   5  -5   5  106.89    3.50
   5  -5   5  107.79    4.00
  -5   5  -5  106.49    3.90
   5  -5   5  111.29    4.30
  -5   5  -6    6.60    1.00
   5  -5   6    7.10    1.30
   5  -5   6    5.10    0.80
   5  -5   6    5.20    1.00
   5  -5   6    7.50    1.20
  -5   5  -6    6.20    1.10
  -5   5  -6    6.70    1.20
   5  -5   6    6.90    1.30
  -5   5  -7   21.90    1.60
   5  -5   7   23.50    1.80
   5  -5   7   21.40    1.60
  -5   5  -7   22.30    1.90
  -5   5  -7   23.80    1.80
  -5   5  -7   22.80    1.80
   5  -5   7   20.30    1.90
   5  -5   8   51.69    2.50
   5  -5   8   51.09    2.30
  -5   5  -8   52.49    2.60
  -5   5  -8   52.79    2.60
   5  -5   8   51.59    2.60
   5  -5   9  142.59    3.80
   5  -5   9  136.39    3.40
  -5   5  -9  135.29    3.80
  -5   5  -9  142.99    3.90
   5  -5   9  131.99    3.70
  -5   5  -9  130.89    3.30
   5  -5  10   26.60    1.60
   5  -5  10   23.00    1.20
  -5   5 -10   23.50    1.40
  -5   5 -10   25.90    1.50
   5  -5  11    3.90    0.70
  -5   5 -11    4.40    0.60
  -5   5 -11    3.90    0.60
   5  -5  12    1.40    0.50
  -5   5 -12    1.90    0.40
   5  -4 -14    0.20    0.30
  -5   4  14    0.00    0.30
   5  -4 -14   -0.20    0.40
  -5   4  14    0.30    0.40
   5  -4 -13    2.40    0.50
  -5   4  13    2.70    0.60
   5  -4 -13    2.20    0.60
  -5   4  13    3.00    0.60
   5  -4 -13    1.50    0.60
   5  -4 -12    6.70    0.90
  -5   4  12    7.60    1.00
  -5   4  12    7.30    1.00
   5  -4 -12    7.10    1.10
   5  -4 -11   98.89    3.40
  -5   4  11   95.69    3.50
  -5   4  11  101.29    3.40
  -5   4  11  100.59    3.50
   5  -4 -11   98.89    3.60
  -5   4  11  100.99    3.10
   5  -4 -10   13.80    1.50
  -5   4  10   14.50    1.50
  -5   4  10   14.60    1.50
  -5   4  10   14.40    1.60
   5  -4 -10   14.00    1.60
  -5   4  10   15.20    1.40
   5  -4  -9    1.80    0.70
  -5   4   9    1.90    0.60
  -5   4   9    1.10    0.70
  -5   4   9    2.00    0.80
   5  -4  -9    2.10    0.80
  -5   4   9    1.60    0.70
   5  -4  -8   88.09    3.30
   5  -4  -8   85.79    3.50
  -5   4   8   87.99    3.20
  -5   4   8   86.99    3.60
   5  -4  -8   83.49    3.30
  -5   4   8   83.49    3.60
   5  -4  -8   85.29    3.50
  -5   4   8   87.89    3.60
   5  -4  -7  156.38    4.40
   5  -4  -7  153.58    4.60
  -5   4   7  154.58    4.50
   5  -4  -7  159.68    4.60
  -5   4   7  148.19    4.80
   5  -4  -7  143.59    4.50
  -5   4   7  155.98    4.90
   5  -4  -7  150.88    4.50
  -5   4   7  154.18    4.80
   5  -4  -6  328.07    6.40
   5  -4  -6  330.17    6.50
  -5   4   6  322.37    6.70
  -5   4   6  314.17   13.60
   5  -4  -6  334.07    6.40
  -5   4   6  325.27    6.90
   5  -4  -6  311.17    6.70
  -5   4   6  341.47    6.80
   5  -4  -6  323.47   14.40
  -5   4   6  342.87    7.10
   5  -4  -5   15.20    1.40
   5  -4  -5   17.00    1.50
  -5   4   5   17.00    1.60
   5  -4  -5   16.90    3.40
  -5   4   5   17.00    3.10
   5  -4  -5   15.90    1.40
  -5   4   5   16.40    1.60
   5  -4  -5   17.90    1.70
  -5   4   5   16.90    1.50
  -5   4   5   16.50    1.60
   5  -4  -5   16.80    1.50
   5  -4  -4   26.20    1.80
   5  -4  -4   25.30    1.70
  -5   4   4   25.00    1.90
   5  -4  -4   25.60    4.00
  -5   4   4   23.40    3.60
   5  -4  -4   23.80    1.70
  -5   4   4   23.20    1.70
   5  -4  -4   25.20    1.90
  -5   4   4   23.60    1.70
  -5   4   4   24.20    1.80
   5  -4  -4   24.30    1.70
   5  -4  -3    2.70    0.60
   5  -4  -3    2.70    0.70
   5  -4  -3    3.30    1.70
  -5   4   3    2.70    0.70
  -5   4   3    3.80    1.50
  -5   4   3    1.60    0.60
   5  -4  -3    2.90    0.70
  -5   4   3    0.10    0.80
  -5   4   3    2.60    0.70
   5  -4  -2    1.10    0.50
   5  -4  -2    1.10    0.60
   5  -4  -2    1.70    1.60
  -5   4   2    1.50    0.70
   5  -4  -2    0.80    0.50
  -5   4   2    0.70    0.90
  -5   4   1    0.10    0.60
   5  -4  -1   -0.40    0.80
   5  -4  -1    0.50    0.50
   5  -4  -1    2.30    0.60
  -5   4   1    0.30    0.80
  -5   4   0    0.80    0.50
   5  -4   0    0.40    0.50
   5  -4   0    0.10    0.40
  -5   4   0   -0.40    0.70
   5  -4   0   -1.40    1.10
  -5   4   0    0.80    0.60
   5  -4   0    0.50    0.60
   5  -4   1  499.25   14.40
  -5   4  -1  485.85    7.30
  -5   4  -1  471.45   14.90
   5  -4   1  481.25    7.70
  -5   4  -1  493.45   14.20
  -5   4  -1  496.85    7.70
   5  -4   1  501.15   15.50
  -5   4  -1  498.45    7.20
   5  -4   1  482.65    7.70
   5  -4   1  498.85    7.60
  -5   4  -2  627.24    8.70
  -5   4  -2  625.84    8.30
   5  -4   2  601.44    8.80
  -5   4  -2  580.74   17.20
   5  -4   2  624.74    8.90
  -5   4  -2  607.34   16.10
   5  -4   2  646.64   17.90
   5  -4   2  625.94    9.00
   5  -4   2  625.24    8.60
  -5   4  -3  704.23    9.50
   5  -4   3  677.43    9.50
   5  -4   3  693.23    9.30
  -5   4  -3  654.23   19.00
   5  -4   3  703.83   19.30
  -5   4  -3  673.73   17.40
   5  -4   3  686.63    9.40
  -5   4  -3  685.83    9.50
   5  -4   3  705.33    9.80
   5  -4   3  682.43    9.20
   5  -4   4   31.70    4.20
   5  -4   4   34.70    2.30
   5  -4   4   34.20    2.20
  -5   4  -4   34.70    4.70
  -5   4  -4   35.40    2.20
   5  -4   4   32.30    2.20
  -5   4  -4   31.50    2.20
   5  -4   4   37.40    2.40
   5  -4   4   31.60    2.10
  -5   4  -5   51.49    2.70
   5  -4   5   51.79    2.80
   5  -4   5   53.59    2.80
   5  -4   5   43.80    2.60
  -5   4  -5   48.70    2.70
   5  -4   5   52.79    2.90
   5  -4   6    3.70    1.00
   5  -4   6    4.70    1.00
  -5   4  -6    5.10    0.90
   5  -4   6    4.60    1.10
  -5   4  -6    3.80    0.90
  -5   4  -6    5.10    1.10
  -5   4  -6    4.00    0.90
   5  -4   6    4.30    1.00
  -5   4  -7   78.69    3.20
   5  -4   7   79.49    3.30
   5  -4   7   75.89    3.30
  -5   4  -7   79.99    3.50
  -5   4  -7   79.49    3.30
   5  -4   7   71.99    3.30
  -5   4  -8  136.89    3.90
   5  -4   8  142.99    4.20
  -5   4  -8  135.69    4.30
  -5   4  -8  142.69    4.30
   5  -4   8  135.29    4.20
   5  -4   9   45.80    2.30
   5  -4   9   39.70    1.90
  -5   4  -9   42.00    2.10
  -5   4  -9   42.60    2.30
  -5   4  -9   41.20    2.20
  -5   4  -9   40.90    2.00
   5  -4  10   13.90    1.20
   5  -4  10   13.60    1.10
  -5   4 -10   14.40    1.10
  -5   4 -10   15.30    1.30
   5  -4  11   44.70    1.80
   5  -4  11   44.20    1.60
  -5   4 -11   47.40    1.70
  -5   4 -11   47.40    1.90
   5  -4  12   41.10    1.40
  -5   4 -12   40.20    1.30
  -5   4 -12   40.20    1.40
   5  -3 -15   53.19    1.70
  -5   3  15   52.59    1.80
   5  -3 -15   53.39    1.80
  -5   3  15   49.90    1.50
   5  -3 -15   52.09    1.80
   5  -3 -14  383.86    5.40
  -5   3  14  382.86    5.70
  -5   3  14  380.36    5.30
   5  -3 -14  385.16    5.70
   5  -3 -13  161.18    4.00
  -5   3  13  160.48    4.20
  -5   3  13  162.38    4.00
   5  -3 -13  161.58    4.20
   5  -3 -12   37.60    2.10
  -5   3  12   38.80    2.30
  -5   3  12   37.50    2.10
   5  -3 -12   36.00    2.20
   5  -3 -11    0.10    0.60
  -5   3  11   -0.10    0.70
  -5   3  11    0.90    0.70
   5  -3 -11    0.90    0.70
   5  -3 -10    1.20    0.60
   5  -3 -10    0.70    0.60
  -5   3  10    0.90    0.70
  -5   3  10    1.20    0.70
  -5   3  10    0.20    0.60
   5  -3 -10    0.90    0.70
  -5   3  10   -0.20    0.50
   5  -3 -10    0.50    0.50
   5  -3  -9  112.39    3.80
   5  -3  -9  111.59    4.00
  -5   3   9  118.59    4.20
  -5   3   9  113.39    4.00
  -5   3   9  114.79    4.20
   5  -3  -9  112.79    4.00
  -5   3   9  113.79    3.90
   5  -3  -9  113.69    4.00
   5  -3  -8  117.99    3.90
   5  -3  -8  118.09    4.00
   5  -3  -8  107.79    8.30
   5  -3  -8  115.29    8.40
  -5   3   8  114.89    8.30
  -5   3   8  128.69    8.60
  -5   3   8  122.69    4.10
  -5   3   8  120.49    4.20
  -5   3   8  122.49    4.30
   5  -3  -8  120.69    4.00
  -5   3   8  121.49    4.10
   5  -3  -8  121.29    4.10
   5  -3  -7  158.18    4.40
   5  -3  -7  157.68    4.40
   5  -3  -7  147.79    9.50
  -5   3   7  149.19    4.20
  -5   3   7  152.18    9.40
  -5   3   7  148.19    4.60
  -5   3   7  161.68    4.70
   5  -3  -7  154.68    4.30
   5  -3  -7  142.99    9.40
  -5   3   7  152.48    4.60
   5  -3  -7  148.89    4.10
   5  -3  -7  158.48    4.60
   5  -3  -6   74.79    3.00
   5  -3  -6   69.29    2.80
   5  -3  -6   69.69    6.30
   5  -3  -6   73.19    6.60
  -5   3   6   72.09    6.30
  -5   3   6   74.99    3.20
   5  -3  -6   66.99    2.90
  -5   3   6   76.99    3.10
  -5   3   6   76.89    3.20
   5  -3  -5   14.90    2.90
  -5   3   5   15.70    2.90
   5  -3  -5   14.10    2.80
   5  -3  -4    1.90    1.40
  -5   3   4    1.80    1.10
   5  -3  -4    4.30    1.70
  -5   3   3   22.20    3.20
   5  -3  -3   25.60    3.60
  -5   3   3   22.20    2.80
  -5   3   2  130.19    7.70
  -5   3   2  145.49    7.10
   5  -3  -2  143.49    7.90
   5  -3  -1   26.20    3.20
  -5   3   1   25.40    3.00
   5  -3  -1   29.70    3.60
  -5   3   0   48.50    4.10
   5  -3   0   46.60    4.40
   5  -3   0   50.49    4.40
   5  -3   1  154.58    8.10
  -5   3  -1  151.78    8.40
   5  -3   2  456.35   14.20
  -5   3  -2  429.66   14.50
  -5   3  -3  158.48    9.30
  -5   3  -3  167.38    4.60
   5  -3   3  163.38    4.60
   5  -3   3  166.68    4.30
  -5   3  -3  164.18    4.60
   5  -3   3  161.68    4.50
   5  -3   3  167.38    9.00
  -5   3  -4    0.80    0.50
   5  -3   4    0.90    0.60
  -5   3  -4    2.80    1.50
   5  -3   4    1.80    0.70
   5  -3   4    0.90    1.00
   5  -3   4    3.20    0.80
   5  -3   4    1.80    0.70
  -5   3  -4    1.20    0.60
  -5   3  -4    2.10    0.70
   5  -3   4    0.70    0.60
  -5   3  -5   78.89    3.40
   5  -3   5   79.49    3.40
   5  -3   5   78.79    3.20
   5  -3   5   83.59    3.50
   5  -3   5   74.89    3.10
  -5   3  -5   78.99    3.40
  -5   3  -5   74.79    3.30
   5  -3   5   74.39    6.70
  -5   3  -5   78.69    3.30
   5  -3   5   80.99    3.30
  -5   3  -6  363.66    7.10
   5  -3   6  380.96    7.40
   5  -3   6  368.36    7.10
   5  -3   6  359.36    7.30
  -5   3  -6  364.16    7.30
  -5   3  -6  370.76    7.20
  -5   3  -6  378.76    7.20
   5  -3   6  373.66    7.20
  -5   3  -7  301.67    6.30
   5  -3   7  304.77    6.50
   5  -3   7  300.87    5.80
   5  -3   7  307.27    6.70
  -5   3  -7  300.07    6.60
  -5   3  -7  300.47    6.40
  -5   3  -8   -0.10    0.50
   5  -3   8    1.50    0.80
   5  -3   8    0.50    0.50
  -5   3  -8    0.90    0.50
  -5   3  -8    0.10    0.50
  -5   3  -8    0.30    0.50
  -5   3  -8    0.00    0.60
  -5   3  -9    0.20    0.40
   5  -3   9    1.00    0.70
   5  -3   9    0.90    0.50
  -5   3  -9    0.40    0.40
  -5   3  -9    0.20    0.50
  -5   3  -9    0.50    0.40
   5  -3  10   -0.60    0.60
   5  -3  10    0.70    0.50
  -5   3 -10    0.40    0.40
  -5   3 -10    0.20    0.60
  -5   3 -10    0.20    0.40
   5  -3  11    1.00    0.50
   5  -3  11    0.60    0.50
  -5   3 -11    0.20    0.30
  -5   3 -11   -0.20    0.40
   5  -3  12   34.00    1.20
   5  -3  12   36.50    1.40
  -5   3 -12   33.20    1.20
  -5   3 -12   36.80    1.50
   5  -2 -16    5.00    0.60
  -5   2  16    5.20    0.70
   5  -2 -16    5.30    0.60
   5  -2 -15   41.00    1.70
  -5   2  15   40.70    1.90
  -5   2  15   39.70    1.50
   5  -2 -15   41.10    1.80
   5  -2 -14  130.89    3.50
  -5   2  14  140.29    3.90
  -5   2  14  131.19    3.30
   5  -2 -14  133.79    3.60
   5  -2 -13   12.00    1.30
  -5   2  13   14.90    1.50
  -5   2  13   12.80    1.20
   5  -2 -13   13.90    1.40
   5  -2 -13   11.60    1.20
   5  -2 -12   10.30    1.10
   5  -2 -12   11.40    1.30
  -5   2  12   11.80    1.50
  -5   2  12   10.80    1.30
   5  -2 -12   11.70    1.40
   5  -2 -12   10.40    1.20
   5  -2 -11  146.79    4.20
   5  -2 -11  146.99    4.50
  -5   2  11  150.38    4.90
  -5   2  11  149.69    4.50
   5  -2 -11  143.09    4.60
   5  -2 -11  142.09    4.40
   5  -2 -10  382.26    7.40
  -5   2  10  399.46    7.90
  -5   2  10  399.66    7.50
   5  -2 -10  382.16    7.30
   5  -2 -10  398.86    7.50
   5  -2  -9  251.07    5.90
  -5   2   9  255.67   12.70
  -5   2   9  268.47    6.30
  -5   2   9  255.67    6.10
   5  -2  -9  252.57    5.80
   5  -2  -9  246.88   13.00
   5  -2  -9  257.17    5.40
   5  -2  -9  258.57    6.00
   5  -2  -8   16.30    1.50
   5  -2  -8   14.20    3.30
  -5   2   8   16.70    3.40
  -5   2   8   17.20    1.60
  -5   2   8   15.70    1.60
  -5   2   8   15.70    1.50
   5  -2  -8   14.10    1.30
  -5   2   8   14.90    1.40
   5  -2  -8   17.40    1.60
   5  -2  -7   30.00    1.90
   5  -2  -7   26.40    4.10
  -5   2   7   26.20    3.80
  -5   2   7   25.10    1.90
  -5   2   7   29.10    1.90
   5  -2  -7   27.60    1.90
   5  -2  -6   43.70    5.00
  -5   2   6   45.60    4.90
   5  -2  -5   93.19    6.80
  -5   2   5   93.69    6.70
   5  -2  -4   63.89    5.40
  -5   2   4   64.39    5.40
   5  -2  -3  465.65   13.70
  -5   2   3  430.76   13.30
  -5   2   2   20.40    2.90
   5  -2  -2   22.20    2.70
   5  -2  -1  222.38    8.90
  -5   2   1  225.78    9.30
   5  -2  -1  233.08    8.70
   5  -2   0   57.89    4.40
  -5   2   0   53.09    4.60
   5  -2   0   54.99    4.30
  -5   2  -1    3.90    1.60
   5  -2   1    4.20    1.40
  -5   2  -2   98.29    6.90
   5  -2   2   95.69    6.20
  -5   2  -3   30.00    2.00
   5  -2   3   33.60    2.00
   5  -2   3   31.10    2.00
  -5   2  -3   30.50    4.00
   5  -2   3   33.40    3.90
  -5   2  -3   29.20    2.00
  -5   2  -4  142.69    4.40
   5  -2   4  141.79    4.30
   5  -2   4  144.79    4.00
  -5   2  -4  156.68    9.50
   5  -2   4  143.69    4.20
   5  -2   4  148.29    8.70
   5  -2   4  146.49    4.20
  -5   2  -4  149.99    4.40
  -5   2  -4  144.29    4.50
  -5   2  -4  141.59    4.20
   5  -2   4  147.19    4.10
  -5   2  -5  682.23    9.70
   5  -2   5  692.43    9.70
   5  -2   5  693.73    9.30
   5  -2   5  697.73   20.00
   5  -2   5  708.73    9.70
   5  -2   5  677.73    9.40
  -5   2  -5  686.83    9.70
  -5   2  -5  664.33    9.30
  -5   2  -6  908.91   11.40
   5  -2   6  927.11   11.40
   5  -2   6  950.10   10.90
  -5   2  -6  909.91   10.80
   5  -2   6  910.11   11.40
   5  -2   6  928.21   11.10
  -5   2  -6  936.71   11.40
  -5   2  -6  927.51   11.00
  -5   2  -7  120.29    4.10
   5  -2   7  119.89    4.10
   5  -2   7  120.49    3.90
   5  -2   7  118.89    4.20
  -5   2  -7  115.49    3.50
  -5   2  -7  120.29    4.10
  -5   2  -7  117.69    4.00
  -5   2  -7  120.49    4.10
  -5   2  -8    9.50    1.20
   5  -2   8    9.10    1.30
   5  -2   8    9.50    1.20
  -5   2  -8    7.60    0.90
  -5   2  -8    8.70    1.10
  -5   2  -8    9.20    1.20
  -5   2  -9    1.10    0.50
   5  -2   9    1.10    0.60
   5  -2   9    1.30    0.60
  -5   2  -9    1.50    0.60
  -5   2  -9    1.50    0.70
  -5   2  -9    1.80    0.60
   5  -2  10   16.40    1.30
  -5   2 -10   15.20    1.10
   5  -2  10   14.70    1.20
  -5   2 -10   16.00    1.30
   5  -2  11    0.90    0.50
   5  -2  11    0.20    0.50
  -5   2 -11    0.40    0.30
  -5   2 -11    1.20    0.50
   5  -2  12    3.50    0.60
  -5   2 -12    3.30    0.40
  -5   2 -12    2.70    0.50
   5  -1 -17   21.50    0.90
  -5   1  17   22.90    1.00
   5  -1 -17   20.10    0.90
   5  -1 -16   49.00    1.80
  -5   1  16   50.79    1.90
   5  -1 -16   47.60    1.80
   5  -1 -15    4.50    0.70
  -5   1  15    4.50    0.80
   5  -1 -15    4.00    0.70
   5  -1 -15    4.20    0.60
   5  -1 -14    9.90    1.00
   5  -1 -14   10.50    1.20
  -5   1  14   10.90    1.30
  -5   1  14   10.80    1.00
   5  -1 -14   10.70    1.20
   5  -1 -14   10.90    1.10
  -5   1  13    0.70    0.70
   5  -1 -13    0.30    0.50
  -5   1  13    0.90    0.50
   5  -1 -13    0.70    0.50
  -5   1  13    0.20    0.70
   5  -1 -13    0.90    0.60
   5  -1 -12   97.59    3.60
  -5   1  12   98.29    3.90
  -5   1  12   89.09    3.30
   5  -1 -12   96.29    3.60
  -5   1  12   90.19    3.70
   5  -1 -12   97.29    3.60
   5  -1 -11  430.26    7.90
  -5   1  11  432.76    8.30
  -5   1  11  424.56    7.50
   5  -1 -11  426.36    7.70
  -5   1  11  404.16    7.90
   5  -1 -11  431.76    7.70
   5  -1 -10  577.54    9.10
  -5   1  10  612.74    9.80
  -5   1  10  593.54    9.00
   5  -1 -10  576.44    8.70
  -5   1  10  599.74    9.40
   5  -1 -10  602.24    9.20
   5  -1  -9  253.87    5.80
  -5   1   9  253.37    6.10
  -5   1   9  259.57    5.90
   5  -1  -9  246.28   13.00
   5  -1  -9  255.77    5.90
   5  -1  -8   19.50    1.60
   5  -1  -8   18.70    3.70
  -5   1   8   18.20    3.40
  -5   1   8   19.40    1.70
  -5   1   8   18.20    1.60
   5  -1  -8   19.20    1.60
   5  -1  -7    3.80    1.80
  -5   1   7    5.10    1.80
  -5   1   6  218.78   10.30
   5  -1  -6  215.98   10.60
  -5   1   5    6.60    1.70
   5  -1  -5    6.10    1.90
   5  -1  -4  149.59    7.90
  -5   1   4  136.99    7.50
   5  -1  -3    0.30    0.80
  -5   1   3    0.10    0.60
   5  -1  -2  222.58    8.90
  -5   1   2  214.08    8.90
   5  -1  -2  220.48    7.50
   5  -1  -1   34.30    3.40
  -5   1   1   29.80    3.30
   5  -1  -1   27.80    2.80
   5  -1   0  158.38    6.80
  -5   1   0  151.28    7.30
  -5   1  -1   19.40    2.70
   5  -1   1   22.00    2.80
   5  -1   2   36.00    3.70
  -5   1  -3   48.40    5.00
   5  -1   3   48.80    4.50
  -5   1  -4    1.50    0.60
   5  -1   4    4.10    1.60
  -5   1  -4    1.50    1.20
   5  -1   4    1.50    0.80
   5  -1   4    1.80    0.60
  -5   1  -4    3.30    0.80
  -5   1  -4    1.30    0.50
   5  -1   4    1.60    0.60
  -5   1  -4    2.10    0.60
  -5   1  -4    3.50    0.70
   5  -1   5    6.10    2.00
  -5   1  -5    7.50    1.20
  -5   1  -5    5.10    1.80
   5  -1   5    9.40    1.30
   5  -1   5    8.40    1.20
  -5   1  -5    7.50    1.10
   5  -1   5    6.60    1.10
   5  -1   5    7.60    1.10
  -5   1  -5    7.10    1.00
  -5   1  -5    7.60    1.00
  -5   1  -5    7.30    1.20
  -5   1  -6   30.80    2.20
   5  -1   6   31.10    2.10
   5  -1   6   34.00    2.20
  -5   1  -6   30.80    2.20
   5  -1   6   32.80    2.20
   5  -1   6   32.70    2.20
  -5   1  -6   31.30    2.00
  -5   1  -6   29.60    2.10
  -5   1  -7   21.20    1.80
   5  -1   7   21.40    1.80
   5  -1   7   21.80    1.80
  -5   1  -7   21.20    1.80
   5  -1   7   22.40    1.80
   5  -1   7   21.40    1.80
   5  -1   7   19.00    1.50
  -5   1  -7   22.20    1.80
  -5   1  -7   21.20    1.80
  -5   1  -8   58.89    2.70
   5  -1   8   57.89    2.70
   5  -1   8   61.59    2.80
   5  -1   8   58.69    2.40
  -5   1  -8   57.89    2.70
  -5   1  -8   55.19    2.60
  -5   1  -9  588.44    7.80
   5  -1   9  596.04    7.60
   5  -1   9  614.94    8.30
  -5   1  -9  556.54    6.90
   5  -1   9  586.64    7.20
  -5   1  -9  605.34    8.30
  -5   1  -9  575.74    7.60
  -5   1 -10  238.48    4.30
   5  -1  10  241.48    4.20
   5  -1  10  257.47    4.90
  -5   1 -10  230.48    4.00
   5  -1  10  233.18    4.10
  -5   1 -10  250.17    4.90
   5  -1  11   23.40    1.40
  -5   1 -11   22.60    1.40
   5  -1  12    2.10    0.50
  -5   1 -12    1.80    0.50
   5   0 -17    3.40    0.50
  -5   0  17    3.50    0.60
   5   0 -17    3.20    0.50
   5   0 -16   25.40    1.20
   5   0 -16   26.10    1.40
  -5   0  16   25.90    1.50
  -5   0  16   20.70    1.10
   5   0 -16   24.70    1.30
   5   0 -16   24.10    1.30
   5   0 -15  110.19    3.20
  -5   0  15  111.09    3.40
  -5   0  15   98.59    3.00
   5   0 -15  108.59    3.10
   5   0 -15  109.69    3.20
   5   0 -14    5.30    0.90
  -5   0  14    5.80    1.00
  -5   0  14    3.90    0.80
   5   0 -14    5.70    0.90
   5   0 -14    5.40    0.90
   5   0 -13   80.39    3.20
  -5   0  13   79.09    3.40
  -5   0  13   74.49    2.70
  -5   0  13   73.69    3.30
   5   0 -13   78.69    3.10
  -5   0  13   77.29    3.40
   5   0 -13   80.19    3.20
   5   0 -12   32.40    2.20
  -5   0  12   35.60    2.40
  -5   0  12   29.90    1.90
  -5   0  12   31.20    2.30
   5   0 -12   30.30    2.00
  -5   0  12   33.00    2.40
   5   0 -12   35.80    2.30
   5   0 -11   96.79    3.80
  -5   0  11   94.59    3.90
  -5   0  11   94.39    3.50
  -5   0  11   92.59    3.80
   5   0 -11   95.69    3.50
  -5   0  11   97.39    4.00
   5   0 -10    2.70    1.80
   5   0 -10    2.10    0.70
  -5   0  10    3.80    0.90
  -5   0  10    2.60    0.70
  -5   0  10    1.20    0.60
  -5   0  10    3.20    1.00
   5   0  -9   11.00    1.20
  -5   0   9   11.80    1.30
  -5   0   9   10.30    1.20
  -5   0   9   10.70    1.20
   5   0  -9   12.90    3.00
  -5   0   9    9.40    2.50
  -5   0   8  289.87    6.10
   5   0  -8  292.17   13.30
   5   0  -7  663.93   19.10
  -5   0   7  716.23   19.80
   5   0  -6  946.91   21.80
  -5   0   6  911.81   21.10
  -5   0   5   43.50    4.40
   5   0  -5   43.20    4.50
  -5   0   4   17.80    2.80
   5   0  -4   16.40    2.70
   5   0  -3   11.10    2.20
  -5   0   3    9.10    2.00
   5   0  -2    4.10    1.50
  -5   0   2    0.10    0.70
  -5   0   2    2.70    1.10
   5   0  -1  142.69    7.20
  -5   0   1  154.18    7.40
   5   0   0    1.90    0.90
  -5   0   0    2.90    1.20
   5   0   1   11.30    2.20
  -5   0  -1   11.20    2.10
  -5   0  -2  561.14   15.20
   5   0   2  556.84   15.90
  -5   0  -3  537.75    8.60
  -5   0  -3  553.04   15.90
   5   0   3  548.65    7.80
   5   0   3  559.84    7.90
  -5   0  -3  560.14    8.10
  -5   0  -3  555.34    8.40
   5   0   3  560.74   16.50
  -5   0  -3  554.54    8.60
  -5   0  -4   69.19    3.20
  -5   0  -4   64.29    5.80
   5   0   4   65.89    2.90
  -5   0  -4   66.99    3.00
  -5   0  -4   67.49    3.00
   5   0   4   69.69    3.00
  -5   0  -4   65.19    2.80
  -5   0  -4   66.39    3.10
  -5   0  -5    0.50    0.70
   5   0   5    1.30    0.70
   5   0   5    1.20    0.70
  -5   0  -5    0.20    0.80
   5   0   5    2.50    0.80
   5   0   5    0.80    0.60
  -5   0  -5    1.60    0.70
  -5   0  -5    1.00    0.70
  -5   0  -6    0.80    0.80
   5   0   6    0.10    0.60
   5   0   6    0.20    0.70
  -5   0  -6    0.80    0.70
   5   0   6    0.50    0.60
   5   0   6    1.20    0.80
  -5   0  -6   -0.30    0.50
  -5   0  -6    0.70    1.00
  -5   0  -7    0.80    0.80
   5   0   7    0.70    0.50
   5   0   7    0.40    0.60
  -5   0  -7    0.50    0.70
   5   0   7    0.50    0.60
   5   0   7    0.10    0.60
  -5   0  -7    0.60    0.50
  -5   0  -7    1.00    0.70
  -5   0  -8  215.18    5.10
   5   0   8  218.78    4.70
   5   0   8  230.38    5.40
   5   0   8  213.58    4.80
  -5   0  -8  216.28    5.10
  -5   0  -9   53.09    2.30
   5   0   9   56.89    2.50
   5   0   9   54.09    2.30
  -5   0  -9   53.59    2.40
  -5   0 -10   21.60    1.30
   5   0  10   21.20    1.40
   5   0  10   20.90    1.20
   5   0  10   20.60    1.30
  -5   0 -10   22.70    1.50
   5   0  11   25.90    1.40
  -5   0 -11   27.20    1.40
   5   0  12    0.70    0.40
  -5   0 -12    0.90    0.40
   5   1 -17   20.80    0.90
   5   1 -17   22.00    1.10
  -5  -1  17   21.30    1.00
  -5  -1  17   18.40    0.90
   5   1 -17   20.80    1.00
   5   1 -17   22.20    1.00
   5   1 -16   59.19    2.10
  -5  -1  16   59.39    2.10
  -5  -1  16   57.19    2.10
   5   1 -16   57.49    2.00
   5   1 -16   60.19    2.10
   5   1 -15    2.90    0.70
  -5  -1  15    3.70    0.80
  -5  -1  15    2.40    0.70
   5   1 -15    2.60    0.60
   5   1 -15    3.40    0.70
   5   1 -14   43.90    2.20
  -5  -1  14   44.70    2.40
  -5  -1  14   45.30    2.50
   5   1 -14   40.50    2.00
   5   1 -14   45.80    2.30
   5   1 -13  185.98    4.80
  -5  -1  13  188.58    5.20
  -5  -1  13  184.58    5.30
   5   1 -13  182.68    4.50
   5   1 -12   72.39    3.10
  -5  -1  12   71.49    3.30
  -5  -1  12   71.49    3.50
   5   1 -12   71.19    2.90
   5   1 -11    0.10    0.70
  -5  -1  11    0.80    0.70
  -5  -1  11    1.30    0.70
  -5  -1  11    0.00    0.70
   5   1 -10    3.00    1.60
   5   1 -10   -0.30    0.70
  -5  -1  10    1.60    0.70
  -5  -1  10    0.80    0.50
  -5  -1  10    1.50    0.70
  -5  -1  10    0.00    0.60
   5   1  -9   -0.10    0.60
  -5  -1   9    0.90    0.60
  -5  -1   9    1.00    0.50
  -5  -1   9    0.60    0.60
  -5  -1   9   -0.90    1.90
  -5  -1   9    0.70    0.50
  -5  -1   8   50.29    2.60
  -5  -1   8   51.19    2.50
  -5  -1   8   52.09    5.60
   5   1  -8   50.09    5.50
   5   1  -7  208.48   10.60
  -5  -1   7  221.88   11.30
   5   1  -6   54.69    5.30
  -5  -1   6   50.59    5.30
  -5  -1   5   20.60    3.20
   5   1  -5   18.40    3.10
   5   1  -4   17.00    2.80
  -5  -1   4   17.30    2.90
   5   1  -3  796.22   18.20
  -5  -1   3  891.51   18.50
   5   1  -2  345.67   11.80
  -5  -1   2  356.86   11.90
   5   1  -1   14.20    2.70
  -5  -1   1   12.40    2.30
   5   1  -1   11.80    2.30
   5   1   0   19.30    3.00
  -5  -1   0   21.20    3.00
   5   1   0   23.50    3.20
   5   1   1    1.40    1.00
  -5  -1  -1    2.40    1.30
   5   1   1    3.30    1.50
  -5  -1  -2   11.10    1.30
   5   1   2   11.60    1.20
  -5  -1  -2    9.10    2.20
  -5  -1  -2   14.70    1.50
  -5  -1  -2   11.70    1.20
  -5  -1  -2   11.10    1.30
   5   1   2    8.30    2.10
  -5  -1  -3    0.80    0.60
   5   1   3    1.20    0.50
  -5  -1  -3    0.90    0.50
  -5  -1  -3    1.20    0.70
  -5  -1  -3    0.60    0.50
  -5  -1  -4   43.60    2.60
  -5  -1  -4   41.20    5.10
   5   1   4   42.80    2.30
  -5  -1  -4   43.40    2.50
  -5  -1  -4   42.20    2.50
   5   1   4   37.90    4.90
   5   1   4   44.40    2.40
  -5  -1  -4   41.50    2.40
  -5  -1  -4   41.90    2.50
  -5  -1  -5   77.29    3.40
   5   1   5   74.69    3.00
   5   1   5   80.59    3.50
  -5  -1  -5   75.49    3.20
  -5  -1  -5   75.59    3.40
   5   1   5   70.79    3.10
  -5  -1  -5   76.69    3.20
  -5  -1  -5   76.49    3.30
  -5  -1  -6  924.31   11.40
   5   1   6  910.01   11.50
  -5  -1  -6  909.31   11.80
   5   1   6  926.71   11.30
  -5  -1  -6  900.61   10.80
  -5  -1  -7  307.97    6.30
   5   1   7  293.47    5.70
   5   1   7  324.57    6.60
  -5  -1  -7  314.17    6.80
   5   1   7  318.67    6.40
   5   1   7  311.37    6.30
  -5  -1  -7  313.27    6.30
  -5  -1  -8   30.40    1.90
   5   1   8   27.00    1.60
   5   1   8   31.80    2.00
   5   1   8   32.00    1.90
  -5  -1  -8   29.60    1.90
   5   1   9    2.90    0.60
   5   1   9    2.90    0.70
  -5  -1  -9    3.10    0.70
   5   1   9    3.30    0.70
  -5  -1  -9    4.50    0.80
  -5  -1 -10   -0.10    0.30
   5   1  10   -0.10    0.30
   5   1  10    0.10    0.40
   5   1  10   -0.30    0.40
   5   1  10    0.90    0.50
  -5  -1 -10    0.20    0.40
   5   1  11   34.00    1.30
   5   1  11   32.30    1.10
  -5  -1 -11   33.60    1.40
   5   2 -17   34.10    1.30
  -5  -2  17   30.20    1.30
   5   2 -17   29.60    1.10
   5   2 -17   32.90    1.30
   5   2 -16    1.00    0.40
  -5  -2  16    1.20    0.40
  -5  -2  16    0.90    0.50
   5   2 -16    1.40    0.40
   5   2 -16    1.20    0.50
   5   2 -15   12.10    1.10
  -5  -2  15   12.00    1.10
  -5  -2  15   13.00    1.30
   5   2 -15   10.40    0.90
   5   2 -15   10.80    1.10
   5   2 -14   50.79    2.30
  -5  -2  14   50.49    2.40
  -5  -2  14   53.29    2.80
   5   2 -14   46.90    2.10
   5   2 -13    0.10    0.50
  -5  -2  13   -0.20    0.60
  -5  -2  13    0.10    0.60
   5   2 -13   -0.50    0.40
   5   2 -12  102.09    3.60
  -5  -2  12  105.89    4.00
  -5  -2  12  106.99    4.20
   5   2 -11  111.89    3.90
  -5  -2  11  113.59    4.20
  -5  -2  11  117.99    4.40
  -5  -2  10  458.05    8.40
  -5  -2  10  470.05    8.40
  -5  -2  10  463.25    7.70
   5   2  -9  394.76   15.60
  -5  -2   9  386.76    7.50
  -5  -2   9  375.76    6.80
  -5  -2   9  414.86    7.60
  -5  -2   9  393.16    7.20
   5   2  -8   99.59    7.60
  -5  -2   8   92.39    3.50
  -5  -2   8   93.29    3.40
  -5  -2   8   94.59    3.50
  -5  -2   8   97.89    3.70
   5   2  -7   44.60    5.00
  -5  -2   7   40.80    2.30
  -5  -2   7   43.10    2.30
  -5  -2   7   44.40    5.00
   5   2  -6   27.40    3.90
  -5  -2   6   34.50    4.40
   5   2  -5  189.08    9.60
  -5  -2   5  211.18   10.00
   5   2  -4  393.86   13.60
  -5  -2   4  457.65   13.60
   5   2  -3  453.15   14.30
  -5  -2   3  484.75   14.50
  -5  -2   3  497.35   13.20
  -5  -2   2   81.89    6.10
   5   2  -2   80.29    6.00
   5   2  -2   82.89    6.10
  -5  -2   1  115.49    7.30
   5   2  -1  109.49    7.10
   5   2  -1  111.29    7.20
   5   2   0  105.59    7.10
  -5  -2   0   90.89    6.60
   5   2   0   94.79    6.80
  -5  -2  -1   22.80    1.80
   5   2   1   18.00    3.10
  -5  -2  -1   21.30    3.40
  -5  -2  -1   22.30    1.90
  -5  -2  -1   21.00    1.70
   5   2   1   23.60    3.60
  -5  -2  -1   28.30    2.00
  -5  -2  -2  105.39    3.90
   5   2   2   94.09    7.40
  -5  -2  -2  110.69    7.80
   5   2   2  107.39    3.30
  -5  -2  -2  101.49    4.00
  -5  -2  -2  114.29    3.80
   5   2   2  108.69    8.00
  -5  -2  -2  112.49    3.90
  -5  -2  -3   76.89    3.40
  -5  -2  -3   71.09    6.60
  -5  -2  -3   78.99    3.50
  -5  -2  -3   84.19    3.40
   5   2   3   80.99    7.30
  -5  -2  -4   36.50    2.40
  -5  -2  -4   36.60    2.40
  -5  -2  -4   37.50    2.40
   5   2   4   39.10    2.30
  -5  -2  -4   34.60    2.20
  -5  -2  -5  338.87    6.90
   5   2   5  362.36    7.30
  -5  -2  -5  326.57    6.70
  -5  -2  -5  345.57    7.20
   5   2   5  339.47    6.70
  -5  -2  -5  357.46    6.90
  -5  -2  -6  165.08    4.80
   5   2   6  171.88    4.90
  -5  -2  -6  175.58    5.10
   5   2   6  161.28    4.50
  -5  -2  -6  166.78    4.60
  -5  -2  -7   47.80    2.50
   5   2   7   49.99    2.40
   5   2   7   51.69    2.60
  -5  -2  -7   52.19    2.70
   5   2   7   49.70    2.50
  -5  -2  -7   47.90    2.40
  -5  -2  -8   11.50    1.20
   5   2   8   10.10    1.10
   5   2   8    9.80    1.10
   5   2   8   10.90    1.20
  -5  -2  -8   10.10    1.10
  -5  -2  -9   37.40    1.80
   5   2   9   39.00    1.70
  -5  -2  -9   36.80    1.60
   5   2   9   39.10    1.80
   5   2   9   39.60    1.80
   5   2   9   42.80    1.90
  -5  -2  -9   41.30    1.90
   5   2  10  122.29    2.50
   5   2  10  129.79    2.60
   5   2  10  129.79    2.70
  -5  -2 -10  126.59    2.80
   5   3 -17    0.80    0.30
  -5  -3  17    1.00    0.40
   5   3 -17    0.90    0.40
   5   3 -16    0.40    0.40
   5   3 -16    1.10    0.40
  -5  -3  16    0.60    0.40
   5   3 -16    1.00    0.30
   5   3 -15    5.40    0.70
  -5  -3  15    5.00    0.70
  -5  -3  15    5.80    0.90
   5   3 -15    5.70    0.60
   5   3 -14   59.09    2.40
  -5  -3  14   56.99    2.40
  -5  -3  14   62.09    2.90
   5   3 -13   10.60    1.20
  -5  -3  13   10.70    1.20
  -5  -3  13   11.00    1.40
   5   3 -12   15.40    1.40
  -5  -3  12   16.00    1.60
  -5  -3  12   16.80    1.70
  -5  -3  11  100.59    3.90
  -5  -3  11  106.09    3.80
  -5  -3  11  109.59    4.20
  -5  -3  10  237.08    6.00
  -5  -3  10  235.18    5.90
  -5  -3  10  251.27    6.10
  -5  -3   9   56.99    2.90
  -5  -3   9   55.79    3.00
  -5  -3   9   55.69    2.80
  -5  -3   9   54.09    2.70
  -5  -3   8    9.90    1.30
   5   3  -8   10.40    2.30
  -5  -3   8   12.70    1.50
  -5  -3   8    9.90    1.20
  -5  -3   8   10.50    1.30
  -5  -3   7   51.59    2.70
   5   3  -7   44.50    5.10
  -5  -3   7   56.89    2.90
  -5  -3   7   53.49    5.50
  -5  -3   7   52.59    2.60
  -5  -3   7   53.99    2.80
   5   3  -6  343.57   13.80
  -5  -3   6  361.46   13.50
  -5  -3   6  350.66    6.60
  -5  -3   6  344.47    6.80
   5   3  -5  318.07   13.00
  -5  -3   5  323.47   12.10
  -5  -3   5  313.17    6.10
  -5  -3   5  310.77    6.50
   5   3  -4   22.60    3.50
  -5  -3   4   23.10    3.10
  -5  -3   4   22.20    1.60
  -5  -3   4   23.80    1.80
   5   3  -3   24.00    3.60
  -5  -3   3   24.50    3.50
  -5  -3   3   23.10    2.00
  -5  -3   3   21.60    1.60
  -5  -3   3   21.10    1.70
   5   3  -2    3.80    1.60
  -5  -3   2    3.20    1.60
  -5  -3   2    3.40    0.70
  -5  -3   2    4.00    0.80
  -5  -3   2    4.20    1.00
  -5  -3   2    4.20    0.90
   5   3  -2    0.90    1.10
   5   3  -1   58.99    5.70
  -5  -3   1   72.09    6.10
  -5  -3   1   72.19    2.70
  -5  -3   1   70.89    3.40
  -5  -3   1   67.09    3.10
   5   3  -1   72.19    6.10
  -5  -3   0  518.05    8.30
   5   3   0  504.15   16.80
  -5  -3   0  521.45   16.70
  -5  -3   0  519.05    9.10
  -5  -3   0  528.45    8.80
   5   3   0  518.95   16.90
  -5  -3  -1  215.58    5.50
  -5  -3  -1  203.28   10.70
  -5  -3  -1  212.48    5.90
  -5  -3  -1  224.78    5.30
   5   3   1  192.08   10.80
   5   3   1  215.68   11.30
  -5  -3  -2    8.00    1.20
  -5  -3  -2    8.60    1.10
  -5  -3  -2    8.60    1.30
  -5  -3  -3   29.50    2.10
  -5  -3  -3   26.90    2.20
  -5  -3  -3   29.00    2.10
   5   3   3   29.90    1.90
  -5  -3  -4  163.78    4.80
  -5  -3  -4  168.08    5.00
  -5  -3  -4  168.78    4.90
   5   3   4  159.28    4.30
  -5  -3  -4  165.38    4.60
  -5  -3  -5   22.50    1.80
   5   3   5   26.40    2.00
  -5  -3  -5   23.60    1.90
   5   3   5   22.30    1.60
  -5  -3  -5   23.00    1.70
  -5  -3  -6   34.40    2.10
   5   3   6   36.30    2.10
  -5  -3  -6   36.20    2.20
  -5  -3  -6   35.60    2.10
  -5  -3  -7    6.50    1.00
   5   3   7    6.90    1.00
   5   3   7    6.60    0.90
  -5  -3  -7    5.80    0.90
   5   3   7    6.90    1.00
  -5  -3  -7    6.60    0.90
   5   3   8   64.79    2.20
  -5  -3  -8   63.39    2.20
   5   3   8   65.19    2.20
   5   3   8   68.39    2.30
  -5  -3  -8   64.69    2.30
   5   3   9  387.36    4.50
  -5  -3  -9  343.87    4.00
   5   3   9  372.46    4.10
   5   3   9  409.46    4.70
   5   3   9  403.86    4.70
  -5  -3  -9  375.56    4.70
   5   4 -16   43.80    1.40
  -5  -4  16   46.70    1.70
   5   4 -15  291.67    4.20
  -5  -4  15  309.67    5.20
   5   4 -14   87.29    2.60
  -5  -4  14   83.79    2.70
   5   4 -13   15.40    1.20
  -5  -4  13   14.70    1.30
  -5  -4  13   14.80    1.50
  -5  -4  12   11.70    1.20
  -5  -4  12   13.00    1.30
  -5  -4  12   10.10    1.30
  -5  -4  11    1.50    0.60
  -5  -4  11    1.50    0.70
  -5  -4  11    1.60    0.60
  -5  -4  10    1.90    0.60
  -5  -4  10    2.40    0.90
  -5  -4  10    1.60    0.60
  -5  -4   9    2.20    1.00
  -5  -4   9    1.90    0.70
  -5  -4   8   44.40    2.70
  -5  -4   8   38.10    2.20
  -5  -4   8   38.20    2.30
  -5  -4   8   41.00    2.50
  -5  -4   7  363.86    6.50
  -5  -4   7  381.76    7.00
  -5  -4   7  365.16    7.40
   5   4  -6  915.21   23.40
  -5  -4   6  896.01   10.00
  -5  -4   6  919.01   10.80
  -5  -4   6  872.91   11.50
   5   4  -5  360.06   14.60
  -5  -4   5  355.16    7.30
  -5  -4   5  350.86    6.30
  -5  -4   5  363.36    6.80
  -5  -4   5  346.07    7.20
   5   4  -4   22.70    3.80
  -5  -4   4   19.60    1.90
  -5  -4   4   19.20    1.50
  -5  -4   4   21.90    1.70
  -5  -4   4   21.80    1.90
   5   4  -3   11.70    2.60
  -5  -4   3   12.00    2.60
  -5  -4   3   10.40    1.20
  -5  -4   3   11.50    1.30
  -5  -4   3   10.00    1.40
  -5  -4   3    8.70    1.20
   5   4  -2   23.90    3.70
  -5  -4   2   24.90    2.10
  -5  -4   2   22.90    2.00
  -5  -4   1    6.00    1.20
  -5  -4   0   93.09    3.60
  -5  -4   0   92.89    4.00
  -5  -4  -1   18.20    1.70
  -5  -4  -1   17.80    1.80
  -5  -4  -1   18.90    1.60
  -5  -4  -2  181.68    5.00
  -5  -4  -2  188.38    4.90
  -5  -4  -3   18.40    1.60
  -5  -4  -3   17.00    1.60
  -5  -4  -4   24.40    1.90
   5   4   4   25.50    1.80
  -5  -4  -4   22.90    1.80
  -5  -4  -4   21.20    1.60
  -5  -4  -5   16.30    1.50
   5   4   5   17.30    1.40
  -5  -4  -5   16.00    1.40
  -5  -4  -5   19.10    1.50
   5   4   6   15.30    1.20
  -5  -4  -6   16.40    1.30
   5   4   6   17.10    1.30
  -5  -4  -6   16.20    1.30
   5   4   7   25.40    1.40
  -5  -4  -7   23.40    1.40
   5   4   7   23.20    1.30
  -5  -4  -7   26.10    1.40
   5   4   8    0.60    0.40
  -5  -4  -8    0.40    0.30
   5   4   8    0.10    0.40
   5   4   8    0.20    0.40
   5   4   8    0.50    0.30
  -5  -4  -8    0.40    0.30
   5   5 -16    0.50    0.30
  -5  -5  15    5.40    0.50
  -5  -5  15    9.50    0.80
  -5  -5  14   10.90    0.90
  -5  -5  14   13.50    1.10
  -5  -5  13    0.50    0.40
  -5  -5  13    0.20    0.40
  -5  -5  12    2.50    0.70
  -5  -5  11   90.19    3.60
  -5  -5  11   85.09    3.10
  -5  -5  11   87.99    3.30
  -5  -5  10    1.70    0.90
  -5  -5  10    0.60    0.50
  -5  -5  10    0.90    0.50
  -5  -5   9  171.58    5.30
  -5  -5   9  164.48    4.40
  -5  -5   9  161.08    4.50
  -5  -5   8    3.90    0.70
  -5  -5   8    3.70    0.70
  -5  -5   8    3.60    0.90
  -5  -5   7   41.00    2.20
  -5  -5   7   40.00    2.20
  -5  -5   7   35.30    2.40
  -5  -5   6  131.89    4.00
  -5  -5   6  141.39    4.20
  -5  -5   6  131.69    4.60
  -5  -5   5    1.90    0.70
  -5  -5   5    3.50    0.70
  -5  -5   4   45.40    2.40
  -5  -5   4   45.60    2.40
  -5  -5   3  742.23    9.30
  -5  -5   3  690.63    8.80
  -5  -5   2  451.35    7.10
  -5  -5   2  487.25    7.40
  -5  -5   1   30.50    1.80
  -5  -5   1   29.70    1.90
  -5  -5   0    3.00    0.70
  -5  -5  -1    4.40    0.80
  -5  -5  -2   10.90    1.20
   5   5   3   18.00    1.40
  -5  -5  -3   17.60    1.40
  -5  -5  -4   50.79    2.30
  -5  -5  -4   48.80    1.90
   5   5   4   49.80    2.00
  -5  -5  -4   49.10    2.10
  -5  -5  -5   33.40    1.70
   5   5   5   35.00    1.60
  -5  -5  -5   33.40    1.60
   5   5   6  292.77    4.40
  -5  -5  -6  296.87    4.40
   5   5   6  288.47    4.00
   5   5   6  282.57    3.90
   5   5   7  197.18    2.90
  -5  -5  -7  195.08    2.90
   5   5   7  187.68    2.70
  -5  -6  14   -0.40    0.30
  -5  -6  14    0.40    0.20
  -5  -6  13   20.10    1.10
  -5  -6  13   17.70    1.20
  -5  -6  13   18.70    1.10
  -5  -6  12   19.70    1.20
  -5  -6  12   18.10    1.30
  -5  -6  12   18.40    1.30
  -5  -6  11    2.30    0.60
  -5  -6  11    3.00    0.60
  -5  -6  10  124.99    3.60
  -5  -6  10  125.09    3.50
  -5  -6   9   43.20    2.20
  -5  -6   9   39.80    2.00
  -5  -6   8   25.60    1.70
  -5  -6   8   24.30    1.60
  -5  -6   7   -0.30    0.60
  -5  -6   7    0.20    0.40
  -5  -6   6    0.50    0.70
  -5  -6   6    0.10    0.50
  -5  -6   6    0.80    0.50
  -5  -6   5    2.70    0.80
  -5  -6   5    5.70    1.10
  -5  -6   4   16.50    1.50
  -5  -6   4   39.10    2.30
  -5  -6   3   63.39    2.70
  -5  -6   3  121.99    3.90
  -5  -6   2  197.58    4.50
  -5  -6   2  193.98    4.20
  -5  -6   1    0.60    0.40
  -5  -6   1    0.90    0.40
  -5  -6   0   11.00    1.10
  -5  -6   0   14.70    1.20
  -5  -6  -1  183.58    4.30
  -5  -6  -1  178.78    4.30
  -5  -6  -2  167.88    3.90
  -5  -6  -2  164.18    3.70
  -5  -6  -3   20.50    1.30
  -5  -6  -3   22.20    1.20
   5   6   3   23.60    1.20
  -5  -6  -4    1.20    0.40
   5   6   4    1.10    0.40
   5   6   5   24.60    1.10
  -5  -6  -5   26.70    1.20
  -5  -7  13   53.29    1.50
  -5  -7  12   -0.30    0.30
  -5  -7  12    0.50    0.40
  -5  -7  11    5.90    0.70
  -5  -7  11    6.10    0.70
  -5  -7  10    3.20    0.70
  -5  -7  10    1.50    0.50
  -5  -7   9   14.30    1.20
  -5  -7   9   13.90    1.20
  -5  -7   8    3.60    0.80
  -5  -7   8    3.40    0.70
  -5  -7   7    5.30    0.90
  -5  -7   7    6.00    0.80
  -5  -7   6  148.49    3.90
  -5  -7   6  148.29    3.80
  -5  -7   6  148.99    3.80
  -5  -7   5  210.98    4.50
  -5  -7   5  218.48    4.80
  -5  -7   4  169.08    3.90
  -5  -7   4  172.68    4.40
  -5  -7   3    4.90    0.80
  -5  -7   3    5.20    0.90
  -5  -7   2   15.60    1.20
  -5  -7   2   13.70    1.30
  -5  -7   1   61.59    2.20
  -5  -7   1   41.00    2.00
  -5  -7   0  207.08    3.50
  -5  -7   0  233.88    4.30
  -5  -7  -1  256.77    3.80
  -5  -7  -1  271.97    4.20
  -5  -7  -2  115.69    2.40
  -5  -7  -2  122.79    2.40
  -5  -8  10   10.80    0.70
  -5  -8  10   29.50    1.30
  -5  -8   9    0.90    0.40
  -5  -8   9   27.90    1.40
  -5  -8   8    4.30    0.60
  -5  -8   8   72.39    2.20
  -5  -8   7   62.49    2.00
  -5  -8   6   78.49    2.30
  -5  -8   6   76.09    2.10
  -5  -8   5   64.09    2.10
  -5  -8   5   61.79    2.00
  -5  -8   4   24.40    1.40
  -5  -8   4    4.70    0.70
  -5  -8   3    0.30    0.40
  -5  -8   2   79.19    2.20
  -5  -8   1   47.40    1.60
  -6   9   3    6.90    0.70
  -6   9   3    6.30    0.70
  -6   9   2   43.70    1.50
  -6   9   1   23.30    1.20
   6  -9  -1   23.30    1.20
   6  -9  -1   21.30    1.00
  -6   9   1   25.50    1.20
  -6   9   0    2.20    0.50
   6  -9   0    2.90    0.60
   6  -9   0    2.30    0.40
  -6   9   0    2.50    0.60
  -6   9  -1   36.80    1.30
   6  -9   1   41.40    1.60
   6  -9   1   34.90    1.20
  -6   9  -1   42.50    1.60
   6  -9   2   -0.40    0.40
  -6   9  -2    0.70    0.40
  -6   9  -2    0.80    0.40
  -6   9  -3    7.50    0.70
  -6   9  -3    7.80    0.70
  -6   8   7    0.40    0.40
   6  -8  -7   -0.50    0.40
  -6   8   7    0.20    0.40
   6  -8  -6    0.00    0.40
  -6   8   6    0.50    0.40
  -6   8   6    0.70    0.50
   6  -8  -6    0.40    0.40
  -6   8   6    0.10    0.40
   6  -8  -5    0.30    0.40
  -6   8   5    0.90    0.40
  -6   8   5   -0.20    0.50
   6  -8  -5    0.20    0.30
   6  -8  -5    0.10    0.50
  -6   8   5    0.00    0.40
   6  -8  -4    1.20    0.60
  -6   8   4    0.20    0.50
  -6   8   4    1.00    0.60
   6  -8  -4    0.10    0.40
   6  -8  -4    0.20    0.50
  -6   8   4    1.60    0.50
  -6   8   4    0.70    0.40
   6  -8  -3    5.80    0.90
  -6   8   3    5.60    0.90
  -6   8   3    6.40    0.90
   6  -8  -3    7.10    1.00
   6  -8  -3    6.00    0.90
  -6   8   3    5.90    0.80
  -6   8   3    4.80    0.70
  -6   8   2   12.70    1.20
  -6   8   2   11.70    1.20
   6  -8  -2   12.70    1.20
   6  -8  -2   11.60    1.20
  -6   8   2   14.20    1.30
  -6   8   2   11.60    0.90
   6  -8  -2   10.80    1.20
  -6   8   1   39.60    2.00
  -6   8   1   38.40    1.90
   6  -8  -1   42.90    2.10
   6  -8  -1   37.40    1.90
  -6   8   1   41.80    2.10
   6  -8  -1   38.50    2.00
  -6   8   0  110.19    3.10
  -6   8   0   99.89    2.80
   6  -8   0  118.29    3.50
   6  -8   0  101.89    2.70
  -6   8   0  118.79    3.40
   6  -8   0   98.99    3.10
   6  -8   0  102.19    3.20
  -6   8  -1    3.60    0.70
   6  -8   1    3.00    0.80
   6  -8   1    3.20    0.60
  -6   8  -1    3.70    0.80
   6  -8   1    2.60    0.80
  -6   8  -2   18.40    1.20
   6  -8   2   20.50    1.40
   6  -8   2   18.80    1.20
  -6   8  -2   20.10    1.40
   6  -8   2   18.20    1.50
  -6   8  -3    3.40    0.60
   6  -8   3    1.60    0.50
   6  -8   3    3.00    0.50
  -6   8  -3    3.60    0.70
   6  -8   3    2.80    0.70
  -6   8  -4    0.00    0.30
   6  -8   4    0.90    0.40
   6  -8   4    0.20    0.30
  -6   8  -4    0.30    0.40
  -6   8  -4    0.90    0.50
  -6   8  -4    0.00    0.40
   6  -8   4    0.20    0.50
   6  -8   5    1.00    0.30
  -6   8  -5    1.30    0.50
  -6   8  -5    0.60    0.40
  -6   8  -5    0.50    0.40
   6  -8   5    0.70    0.50
  -6   8  -6   14.10    0.90
   6  -8   6   12.60    1.00
   6  -7  -9    6.00    0.70
  -6   7   9    5.90    0.60
  -6   7   9    8.00    0.70
   6  -7  -9    6.20    0.60
   6  -7  -8    5.00    0.70
  -6   7   8    3.50    0.50
  -6   7   8    5.90    0.70
   6  -7  -8    5.40    0.80
   6  -7  -8    5.20    0.70
  -6   7   8    4.40    0.60
  -6   7   8    5.80    0.80
  -6   7   7   22.60    1.40
   6  -7  -7   18.80    1.40
   6  -7  -7   19.70    1.40
  -6   7   7   16.10    1.10
  -6   7   7   22.60    1.50
   6  -7  -7   20.30    1.40
  -6   7   6  149.39    3.90
   6  -7  -6  139.89    3.80
   6  -7  -6  128.69    3.10
   6  -7  -6  138.39    3.90
  -6   7   6  140.99    3.90
   6  -7  -6  138.79    3.90
   6  -7  -5  282.17    6.00
  -6   7   5  297.97    5.90
  -6   7   5  300.87    5.80
   6  -7  -5  289.97    5.80
  -6   7   4  108.59    3.80
   6  -7  -4  112.09    3.90
  -6   7   4  115.09    3.60
   6  -7  -4  111.29    3.70
  -6   7   3   15.10    1.60
   6  -7  -3   14.80    1.30
   6  -7  -3   15.00    1.60
  -6   7   3   15.60    1.40
   6  -7  -3   14.20    1.40
   6  -7  -2   -0.20    0.70
  -6   7   2    0.30    0.70
   6  -7  -2   -0.60    0.50
   6  -7  -2    0.00    0.70
  -6   7   2    0.30    0.50
   6  -7  -2    0.10    0.60
   6  -7  -1   -0.40    0.60
  -6   7   1   -0.20    0.70
  -6   7   1   -0.20    0.60
   6  -7  -1    0.10    0.50
   6  -7  -1    0.20    0.60
  -6   7   1   -0.10    0.50
   6  -7  -1    0.60    0.60
   6  -7   0    4.20    0.90
  -6   7   0    3.20    0.80
  -6   7   0    3.40    0.80
   6  -7   0    5.00    1.00
   6  -7   0    3.90    0.80
  -6   7   0    3.50    0.60
   6  -7   0    3.60    1.00
  -6   7  -1   68.49    2.80
  -6   7  -1   64.99    2.50
   6  -7   1   65.89    2.90
   6  -7   1   69.09    2.90
   6  -7   1   66.79    2.50
  -6   7  -1   69.49    3.00
   6  -7   1   69.59    3.20
   6  -7   1   67.99    3.00
  -6   7  -2   15.50    1.40
   6  -7   2   12.80    1.40
   6  -7   2   15.80    1.40
   6  -7   2   13.10    1.10
  -6   7  -2   14.50    1.50
   6  -7   2   13.10    1.50
  -6   7  -3   80.59    2.90
   6  -7   3   74.39    3.00
   6  -7   3   74.89    2.70
   6  -7   3   73.39    2.50
  -6   7  -3   76.49    3.00
   6  -7   3   75.39    3.20
  -6   7  -4  150.68    3.70
   6  -7   4  138.89    3.40
   6  -7   4  142.69    3.40
  -6   7  -4  152.88    4.00
   6  -7   4  156.18    4.40
  -6   7  -5   38.50    1.80
   6  -7   5   32.10    1.50
  -6   7  -5   40.00    2.00
  -6   7  -5   40.20    2.00
  -6   7  -5   35.60    1.80
   6  -7   5   38.60    2.20
  -6   7  -6   16.00    1.00
   6  -7   6   17.60    1.00
  -6   7  -6   19.50    1.30
  -6   7  -6   16.70    1.20
  -6   7  -6   17.00    1.20
   6  -7   6   18.00    1.40
   6  -7   7    5.30    0.60
  -6   7  -7    7.70    0.80
  -6   7  -7    6.80    0.70
   6  -7   7    7.20    0.90
  -6   7  -8   15.80    0.90
   6  -7   8   17.40    1.00
   6  -6 -11   65.89    1.90
  -6   6  11   67.49    1.90
   6  -6 -11   66.59    1.80
   6  -6 -10    4.60    0.70
   6  -6 -10    3.20    0.60
  -6   6  10    3.50    0.60
  -6   6  10    3.90    0.60
  -6   6   9   10.90    0.90
   6  -6  -9   11.00    1.10
   6  -6  -9    9.80    0.90
  -6   6   9   10.60    1.10
  -6   6   9   11.10    1.00
   6  -6  -9   12.10    1.10
  -6   6   8   26.30    1.60
   6  -6  -8   23.60    1.70
   6  -6  -8   25.60    1.60
  -6   6   8   25.60    1.70
  -6   6   8   25.40    1.70
   6  -6  -8   24.60    1.70
  -6   6   7   94.49    3.20
   6  -6  -7   92.99    3.30
   6  -6  -7   90.89    3.30
  -6   6   7   90.39    3.20
  -6   6   7   97.89    3.60
   6  -6  -7   97.69    3.50
  -6   6   6   95.99    3.50
   6  -6  -6   90.49    3.30
   6  -6  -6   89.59    3.60
  -6   6   6   89.69    3.10
  -6   6   6   94.09    3.60
   6  -6  -6   95.79    3.60
  -6   6   5  166.08    4.90
   6  -6  -5  160.98    4.50
   6  -6  -5  162.88    5.00
  -6   6   5  179.38    5.00
   6  -6  -5  164.38    4.70
  -6   6   4   27.20    2.10
   6  -6  -4   23.50    1.80
   6  -6  -4   24.80    2.10
  -6   6   4   28.40    2.10
   6  -6  -4   23.20    1.70
   6  -6  -4   26.40    2.00
   6  -6  -3    0.10    0.60
  -6   6   3    0.20    0.80
   6  -6  -3    0.50    0.70
  -6   6   3   -0.50    0.70
   6  -6  -3   -0.30    0.70
  -6   6   2   23.50    1.90
   6  -6  -2   22.80    1.70
   6  -6  -2   25.30    2.00
  -6   6   2   25.20    1.80
   6  -6  -2   23.20    1.90
   6  -6  -2   23.50    1.90
  -6   6   1   62.39    3.00
  -6   6   1   62.39    2.90
   6  -6  -1   59.99    2.80
   6  -6  -1   63.69    3.00
  -6   6   1   61.69    2.70
   6  -6  -1   62.09    3.10
   6  -6  -1   63.09    3.00
  -6   6   0   30.00    2.00
  -6   6   0   26.00    1.90
   6  -6   0   25.80    1.90
   6  -6   0   27.10    2.00
  -6   6   0   27.10    1.70
   6  -6   0   26.00    2.10
   6  -6   0   27.60    2.00
   6  -6   1    5.20    1.00
  -6   6  -1    6.70    1.10
  -6   6  -1    4.80    0.90
   6  -6   1    5.10    1.00
   6  -6   1    6.20    0.90
  -6   6  -1    5.60    1.10
  -6   6  -1    5.70    0.80
   6  -6   1    6.00    1.20
   6  -6   2    0.50    0.60
  -6   6  -2    0.30    0.60
   6  -6   2    0.60    0.70
   6  -6   2    0.50    0.40
  -6   6  -2    0.70    0.80
   6  -6   2    0.60    0.80
  -6   6  -3   50.09    2.60
   6  -6   3   49.80    2.70
   6  -6   3   54.29    2.50
   6  -6   3   46.60    2.10
   6  -6   3   47.10    2.40
  -6   6  -3   52.39    2.70
   6  -6   3   55.89    2.90
  -6   6  -4   69.99    2.90
   6  -6   4   68.69    2.70
   6  -6   4   65.69    3.00
   6  -6   4   63.89    2.50
   6  -6   4   65.69    2.40
  -6   6  -4   72.29    3.10
   6  -6   4   71.09    3.30
  -6   6  -5    4.60    0.80
   6  -6   5    6.00    0.90
  -6   6  -5    4.90    1.00
  -6   6  -5    4.60    0.90
  -6   6  -5    5.50    0.90
   6  -6   5    5.60    1.10
  -6   6  -6    2.90    0.60
   6  -6   6    3.90    0.70
  -6   6  -6    3.80    0.90
  -6   6  -6    3.40    0.80
  -6   6  -6    3.70    0.70
   6  -6   6    4.10    1.00
  -6   6  -7   35.10    1.50
   6  -6   7   37.70    1.70
  -6   6  -7   39.70    1.90
  -6   6  -7   38.30    1.80
   6  -6   7   36.30    2.00
   6  -6   8   92.59    2.40
  -6   6  -8   92.49    2.20
  -6   6  -8   98.29    2.60
  -6   6  -8   93.49    2.50
   6  -6   8   88.79    2.50
  -6   6  -8   83.69    2.20
   6  -6   9    5.10    0.60
  -6   6  -9    4.30    0.60
  -6   5  13    0.30    0.40
   6  -5 -12    0.80    0.40
   6  -5 -12    0.40    0.40
  -6   5  12   -0.10    0.40
   6  -5 -11    7.40    0.90
  -6   5  11    7.90    0.90
  -6   5  11    8.50    0.80
   6  -5 -11    8.50    0.90
   6  -5 -10   19.80    1.50
  -6   5  10   22.60    1.70
  -6   5  10   20.20    1.40
   6  -5 -10   21.30    1.60
  -6   5   9   64.69    2.40
   6  -5  -9   61.99    2.80
  -6   5   9   64.39    2.90
  -6   5   9   67.49    2.70
   6  -5  -9   63.49    2.80
  -6   5   8  222.18    4.90
   6  -5  -8  221.18    5.20
   6  -5  -8  214.48    5.00
  -6   5   8  226.38    5.50
  -6   5   8  230.98    5.50
   6  -5  -8  226.48    5.50
  -6   5   7   37.20    2.20
   6  -5  -7   39.90    2.20
   6  -5  -7   36.80    2.30
  -6   5   7   39.70    2.40
  -6   5   7   37.20    2.40
   6  -5  -7   41.00    2.40
   6  -5  -6    6.50    1.00
  -6   5   6    7.20    1.20
   6  -5  -6    6.00    0.90
   6  -5  -6    7.50    1.20
  -6   5   6    6.40    1.00
  -6   5   6    7.40    1.20
   6  -5  -5    6.40    1.10
  -6   5   5    5.00    1.00
   6  -5  -5    6.70    1.10
   6  -5  -5    6.80    1.20
  -6   5   5    7.80    1.00
  -6   5   5    5.80    1.10
   6  -5  -5    5.80    1.00
  -6   5   4   14.00    1.60
   6  -5  -4   11.90    1.30
   6  -5  -4   12.70    1.50
  -6   5   4   11.10    1.20
  -6   5   4   14.60    1.50
   6  -5  -4   11.80    1.30
   6  -5  -4   13.40    1.40
  -6   5   3  166.68    5.00
   6  -5  -3  162.78    4.50
   6  -5  -3  160.98    5.00
  -6   5   3  165.08    4.70
   6  -5  -3  156.78    4.70
   6  -5  -3  164.68    4.70
  -6   5   2  244.48    5.90
   6  -5  -2  248.18    6.00
  -6   5   2  252.17    5.70
   6  -5  -2  253.77    6.00
   6  -5  -2  255.17    5.80
  -6   5   1  221.08    5.50
  -6   5   1  218.58    5.40
   6  -5  -1  221.48    5.60
  -6   5   1  226.48    5.30
   6  -5  -1  217.78    5.60
   6  -5  -1  224.18    5.60
   6  -5   0    4.30    1.00
  -6   5   0    3.10    0.90
  -6   5   0    4.90    1.00
   6  -5   0    2.90    0.80
   6  -5   0    3.50    0.90
  -6   5   0    4.60    1.00
  -6   5   0    3.60    0.80
   6  -5   0    4.10    1.00
  -6   5  -1   52.89    2.70
  -6   5  -1   54.89    2.60
   6  -5   1   53.49    2.70
   6  -5   1   49.10    2.60
  -6   5  -1   51.19    2.80
  -6   5  -1   52.09    2.40
   6  -5   1   55.69    2.90
   6  -5   1   54.99    2.80
   6  -5   2    0.90    0.60
  -6   5  -2    1.70    0.70
   6  -5   2    0.20    0.70
   6  -5   2    0.50    0.70
   6  -5   2    1.10    0.70
  -6   5  -2    0.80    0.70
   6  -5   2   -0.20    0.80
  -6   5  -3   26.30    1.90
   6  -5   3   23.60    1.80
   6  -5   3   26.10    2.00
   6  -5   3   24.30    1.90
  -6   5  -3   24.40    1.90
   6  -5   3   26.50    2.10
  -6   5  -4   -0.50    0.70
   6  -5   4    0.70    0.80
   6  -5   4    0.10    0.60
   6  -5   4    0.40    0.60
  -6   5  -4    0.10    0.60
  -6   5  -4   -0.60    0.70
  -6   5  -4    0.80    0.60
   6  -5   4   -0.40    0.80
  -6   5  -5    0.90    0.60
   6  -5   5    0.80    0.80
   6  -5   5    0.40    0.60
   6  -5   5    0.60    0.60
  -6   5  -5    0.80    0.60
  -6   5  -5    1.00    0.70
  -6   5  -5    0.50    0.50
   6  -5   5    0.80    0.80
  -6   5  -6   71.09    2.80
   6  -5   6   68.39    2.70
  -6   5  -6   72.49    3.00
  -6   5  -6   70.49    2.80
   6  -5   6   65.79    3.00
  -6   5  -7  200.98    4.20
   6  -5   7  205.98    4.40
  -6   5  -7  215.98    4.80
  -6   5  -7  207.78    4.40
   6  -5   7  204.68    4.70
  -6   5  -8  124.09    2.80
   6  -5   8  142.19    3.40
  -6   5  -8  130.69    2.90
  -6   5  -8  138.39    3.40
  -6   5  -8  137.09    3.30
   6  -5   8  119.79    3.10
  -6   5  -8  129.69    3.10
   6  -5   9    2.40    0.60
  -6   5  -9    1.90    0.40
  -6   5  -9    2.90    0.60
  -6   5  -9    1.50    0.40
   6  -5  10    3.40    0.60
  -6   5 -10    3.80    0.50
   6  -4 -14    2.40    0.40
  -6   4  14    1.40    0.40
   6  -4 -13   40.10    1.70
   6  -4 -13   38.30    1.60
  -6   4  13   40.90    1.70
   6  -4 -12   15.30    1.20
  -6   4  12   12.80    1.10
   6  -4 -12   14.50    1.20
  -6   4  12   15.10    1.30
   6  -4 -11    4.40    0.80
  -6   4  11    3.00    0.70
   6  -4 -11    3.10    0.70
  -6   4  11    3.30    0.80
  -6   4  11    5.70    0.80
   6  -4 -10   89.29    2.90
   6  -4 -10   89.69    3.40
  -6   4  10   83.89    3.10
   6  -4 -10   83.79    3.20
  -6   4  10   96.39    3.60
  -6   4  10   89.49    3.00
   6  -4  -9  304.27    5.80
   6  -4  -9  307.97    6.40
  -6   4   9  293.77    5.40
   6  -4  -9  302.27    6.20
  -6   4   9  307.57    6.70
  -6   4   9  309.47    6.10
   6  -4  -8   34.90    2.10
   6  -4  -8   37.80    2.30
  -6   4   8   35.30    2.10
   6  -4  -8   38.50    2.20
   6  -4  -8   32.40    2.00
  -6   4   8   37.60    2.50
  -6   4   8   35.30    2.30
   6  -4  -7   11.60    1.30
   6  -4  -7   13.60    1.40
  -6   4   7   11.70    1.30
   6  -4  -7   13.60    1.30
   6  -4  -7   13.80    1.50
  -6   4   7   12.20    1.50
  -6   4   7   12.80    1.50
   6  -4  -7   14.30    1.40
   6  -4  -6    2.20    0.80
  -6   4   6    1.50    0.60
   6  -4  -6    2.20    0.70
   6  -4  -6    1.70    0.70
  -6   4   6    1.30    0.70
   6  -4  -6    1.30    0.60
  -6   4   6    2.00    0.80
   6  -4  -6    3.60    0.80
   6  -4  -5  116.79    4.00
  -6   4   5  116.69    4.30
   6  -4  -5  116.99    4.30
  -6   4   5  119.59    3.90
  -6   4   5  122.99    4.30
   6  -4  -5  123.59    4.10
   6  -4  -5  118.39    3.90
   6  -4  -4   38.30    2.30
  -6   4   4   42.40    2.60
   6  -4  -4   41.10    2.50
  -6   4   4   40.30    2.20
  -6   4   4   42.70    2.50
   6  -4  -4   41.90    2.50
   6  -4  -4   42.10    2.40
   6  -4  -3   17.90    1.60
  -6   4   3   17.60    1.60
  -6   4   3   18.00    1.60
   6  -4  -3   16.60    1.60
  -6   4   3   18.70    1.60
   6  -4  -3   17.50    1.60
   6  -4  -3   20.70    1.70
  -6   4   2   23.40    1.80
  -6   4   2   24.70    1.90
   6  -4  -2   22.90    1.70
   6  -4  -2   23.30    1.90
  -6   4   2   25.40    1.90
   6  -4  -2   21.70    1.70
   6  -4  -2   24.20    1.80
   6  -4  -1    1.00    0.60
  -6   4   1    0.60    0.50
  -6   4   1    1.60    0.70
   6  -4  -1    0.80    0.40
   6  -4  -1    1.00    0.60
  -6   4   1    0.80    0.60
  -6   4   1    0.90    0.60
   6  -4  -1    1.00    0.70
   6  -4   0    1.00    0.50
  -6   4   0    1.10    0.60
  -6   4   0    1.60    0.70
   6  -4   0    0.80    0.70
  -6   4   0    1.30    0.70
  -6   4   0    0.90    0.70
   6  -4   0    1.30    0.70
  -6   4  -1  123.79    4.10
   6  -4   1  123.99    4.10
  -6   4  -1  118.29    4.10
  -6   4  -1  123.89    3.80
   6  -4   1  126.39    4.10
   6  -4   1  120.39    3.90
  -6   4  -2  112.89    4.00
   6  -4   2  108.79    3.80
   6  -4   2  115.49    3.90
   6  -4   2  107.59    3.90
  -6   4  -2  104.59    3.90
  -6   4  -2  109.79    3.50
   6  -4   2  111.89    4.00
   6  -4   2  106.09    3.60
  -6   4  -3   92.69    3.60
   6  -4   3   88.49    3.50
   6  -4   3   96.09    3.60
   6  -4   3   89.99    3.60
  -6   4  -3   88.39    3.50
  -6   4  -3   89.19    3.70
  -6   4  -3   85.99    3.30
   6  -4   3   89.49    3.70
  -6   4  -4    5.90    1.10
   6  -4   4    5.00    1.10
   6  -4   4    7.00    1.20
   6  -4   4    5.80    1.10
  -6   4  -4    3.70    0.90
  -6   4  -4    3.10    0.80
  -6   4  -4    4.20    0.80
   6  -4   4    4.60    1.10
  -6   4  -5   20.00    1.70
   6  -4   5   21.20    1.70
   6  -4   5   19.40    1.70
   6  -4   5   20.40    1.80
  -6   4  -5   20.40    1.80
  -6   4  -5   21.10    1.80
  -6   4  -5   19.50    1.60
   6  -4   5   21.00    1.80
  -6   4  -6    0.70    0.60
   6  -4   6   -0.50    0.70
   6  -4   6   -0.50    0.80
  -6   4  -6    0.40    0.70
  -6   4  -6    0.10    0.50
   6  -4   6   -0.70    0.90
  -6   4  -7    2.70    0.70
   6  -4   7    2.00    0.70
  -6   4  -7    2.80    0.60
  -6   4  -7    2.00    0.70
  -6   4  -7    1.50    0.60
  -6   4  -7    1.90    0.70
   6  -4   7    1.70    0.60
  -6   4  -8    2.60    0.50
   6  -4   8    2.10    0.70
  -6   4  -8    2.70    0.50
  -6   4  -8    1.90    0.50
  -6   4  -8    2.60    0.60
   6  -4   9   26.10    1.50
  -6   4  -9   25.70    1.10
  -6   4  -9   26.70    1.40
  -6   4  -9   23.00    1.20
   6  -4  10  130.99    2.70
  -6   4 -10  121.89    2.50
   6  -3 -15   48.30    1.40
  -6   3  15   42.00    1.30
  -6   3  14  207.78    3.70
   6  -3 -14  202.98    3.30
  -6   3  14  211.98    3.60
   6  -3 -13  174.48    3.90
  -6   3  13  168.18    3.90
   6  -3 -13  164.78    3.60
  -6   3  13  169.98    3.80
   6  -3 -13  161.78    3.70
   6  -3 -12   24.30    1.40
   6  -3 -12   27.40    1.80
  -6   3  12   25.50    1.80
   6  -3 -12   24.00    1.60
  -6   3  12   27.00    1.70
   6  -3 -12   23.30    1.60
   6  -3 -11   37.20    2.00
   6  -3 -11   38.00    2.30
  -6   3  11   33.40    2.10
   6  -3 -11   31.40    1.90
  -6   3  11   34.70    2.20
   6  -3 -11   32.80    2.00
   6  -3 -10    6.60    1.00
   6  -3 -10    6.60    1.10
  -6   3  10    5.10    1.00
   6  -3 -10    4.70    0.80
  -6   3  10    5.50    1.10
   6  -3 -10    5.40    0.90
  -6   3  10    6.70    1.00
   6  -3  -9    0.10    0.40
   6  -3  -9   -0.20    0.50
  -6   3   9   -0.70    0.60
  -6   3   9    0.70    0.80
   6  -3  -9   -0.10    0.50
  -6   3   9    0.90    0.60
   6  -3  -9    0.20    0.50
   6  -3  -8    6.30    1.10
   6  -3  -8    5.70    1.00
  -6   3   8    5.20    0.90
  -6   3   8    8.70    1.20
  -6   3   8    5.70    1.10
  -6   3   8    6.50    1.10
   6  -3  -8    6.30    1.00
   6  -3  -7    8.10    1.20
   6  -3  -7    7.10    1.10
  -6   3   7    7.80    1.10
  -6   3   7    7.80    1.20
  -6   3   7    8.50    1.20
   6  -3  -7    8.00    1.10
   6  -3  -6  645.44    9.30
   6  -3  -6  645.44    8.90
  -6   3   6  634.84    9.50
  -6   3   6  655.03    9.30
  -6   3   6  662.73    9.70
   6  -3  -6  638.24    9.20
   6  -3  -5 1135.59   11.60
   6  -3  -5 1150.08   12.10
  -6   3   5 1079.39   11.70
   6  -3  -5 1127.69   27.00
  -6   3   5 1128.99   12.80
  -6   3   5 1094.29   25.70
   6  -3  -5 1101.49   11.10
   6  -3  -5 1097.19   12.60
  -6   3   5 1118.89   11.70
  -6   3   5 1159.18   12.60
   6  -3  -5 1127.09   12.10
   6  -3  -4  404.96    6.80
   6  -3  -4  394.96    7.00
  -6   3   4  386.46    7.00
   6  -3  -4  410.06   15.40
  -6   3   4  396.26    7.50
  -6   3   4  384.56   14.90
   6  -3  -4  385.46    6.60
   6  -3  -4  400.06    7.50
  -6   3   4  389.06    6.70
  -6   3   4  399.36    7.20
   6  -3  -4  388.06    7.00
   6  -3  -3  116.99    3.80
  -6   3   3  107.29    3.70
   6  -3  -3  106.19    7.60
  -6   3   3  115.09    4.00
  -6   3   3  108.59    7.90
   6  -3  -3  111.29    3.60
   6  -3  -3  109.99    3.90
  -6   3   3  114.39    3.60
  -6   3   3  116.49    3.90
   6  -3  -3  108.09    3.70
   6  -3  -3  120.09    3.70
   6  -3  -2   22.10    1.70
  -6   3   2   21.40    1.70
  -6   3   2   21.90    1.80
   6  -3  -2   23.30    3.50
  -6   3   2   22.20    3.50
   6  -3  -2   21.80    1.60
   6  -3  -2   22.80    1.70
   6  -3  -2   21.60    1.70
  -6   3   2   22.00    1.80
  -6   3   2   21.30    1.70
   6  -3  -2   19.20    1.60
   6  -3  -2   20.90    1.60
   6  -3  -1    1.40    0.50
  -6   3   1    1.40    0.60
  -6   3   1    0.80    0.50
  -6   3   1    2.80    1.60
   6  -3  -1    1.10    0.50
   6  -3  -1    2.30    0.80
   6  -3  -1    0.80    1.10
  -6   3   1    1.30    0.60
  -6   3   1    0.90    0.60
   6  -3  -1    1.40    0.60
  -6   3   0   19.40    1.60
  -6   3   0   20.10    3.40
   6  -3   0   18.60    1.60
   6  -3   0   19.60    1.60
   6  -3   0   17.10    2.90
  -6   3   0   19.10    1.70
  -6   3   0   19.00    1.60
   6  -3   0   19.20    1.60
  -6   3  -1  158.18    4.60
   6  -3   1  157.08    4.60
   6  -3   1  146.79    4.30
   6  -3   1  151.58    8.60
  -6   3  -1  148.09    4.60
  -6   3  -1  159.68    4.30
   6  -3   1  157.58    4.60
  -6   3  -2   41.90    2.50
   6  -3   2   42.60    2.40
  -6   3  -2   41.10    2.40
  -6   3  -2   38.40    2.40
   6  -3   2   43.40    2.40
  -6   3  -3   87.99    3.60
   6  -3   3   86.89    3.50
   6  -3   3   86.59    3.30
  -6   3  -3   86.39    3.30
   6  -3   3   90.09    3.50
   6  -3   3   82.49    3.10
  -6   3  -3   81.99    3.30
  -6   3  -3   84.09    3.50
   6  -3   3   86.89    3.50
  -6   3  -4   62.39    3.10
   6  -3   4   62.29    3.00
   6  -3   4   62.79    2.90
   6  -3   4   63.99    3.10
   6  -3   4   61.29    2.80
  -6   3  -4   64.09    3.00
  -6   3  -4   61.29    3.00
  -6   3  -4   62.99    2.80
   6  -3   4   65.69    3.00
  -6   3  -5    5.00    1.00
   6  -3   5    3.90    0.80
   6  -3   5    5.00    1.00
   6  -3   5    6.20    1.10
  -6   3  -5    4.90    1.00
  -6   3  -5    4.50    0.90
   6  -3   5    5.30    1.00
  -6   3  -6   -0.60    0.70
   6  -3   6   -0.40    0.70
   6  -3   6    0.30    0.50
   6  -3   6    0.00    0.70
  -6   3  -6    0.30    0.60
  -6   3  -6    0.00    0.40
  -6   3  -6   -0.10    0.70
  -6   3  -7    7.40    1.00
   6  -3   7    7.90    1.10
   6  -3   7    8.30    0.90
   6  -3   7    8.20    1.20
  -6   3  -7    7.40    1.00
  -6   3  -7    9.00    1.20
  -6   3  -8    0.80    0.50
   6  -3   8    1.60    0.60
   6  -3   8    1.60    0.50
  -6   3  -8    1.20    0.50
  -6   3  -8    0.50    0.40
  -6   3  -9    7.30    0.70
   6  -3   9    7.40    0.90
   6  -3   9    6.90    0.70
  -6   3  -9    7.90    0.90
  -6   3  -9    6.30    0.70
   6  -3  10   76.99    2.00
  -6   3 -10   74.89    2.10
   6  -2 -15   40.50    1.60
  -6   2  15   40.30    1.60
  -6   2  15   35.80    1.30
   6  -2 -15   35.00    1.30
   6  -2 -14   58.19    1.80
   6  -2 -14   60.89    2.20
  -6   2  14   60.89    2.40
  -6   2  14   58.69    2.00
   6  -2 -14   56.89    2.10
  -6   2  14   52.59    1.80
   6  -2 -13    2.30    0.50
   6  -2 -13    2.30    0.70
  -6   2  13    2.50    0.80
  -6   2  13    1.80    0.60
   6  -2 -13    2.20    0.60
   6  -2 -12   22.60    1.60
   6  -2 -12   25.20    1.80
  -6   2  12   23.90    1.90
  -6   2  12   24.80    1.70
   6  -2 -12   20.80    1.60
   6  -2 -12   22.40    1.70
   6  -2 -11   -0.20    0.50
   6  -2 -11    0.60    0.70
  -6   2  11    0.40    0.70
  -6   2  11    0.90    0.60
   6  -2 -11    0.90    0.60
   6  -2 -11    0.30    0.60
   6  -2 -10   20.30    1.70
   6  -2 -10   21.40    1.90
  -6   2  10   19.70    1.80
  -6   2  10   26.00    2.10
   6  -2 -10   21.00    1.60
   6  -2 -10   19.80    1.80
   6  -2  -9   92.69    3.70
   6  -2  -9   93.49    3.60
  -6   2   9   99.99    3.80
  -6   2   9   93.79    3.80
  -6   2   9   92.99    3.40
   6  -2  -9   92.39    3.40
   6  -2  -9   91.79    3.70
   6  -2  -8   32.50    2.20
   6  -2  -8   29.60    2.00
  -6   2   8   32.20    2.10
  -6   2   8   32.40    2.30
  -6   2   8   31.70    2.10
   6  -2  -8   28.90    2.00
   6  -2  -8   30.20    2.10
   6  -2  -7   12.40    1.30
   6  -2  -7   13.80    1.30
   6  -2  -7   12.00    3.00
  -6   2   7   13.30    1.40
  -6   2   7   13.10    1.40
  -6   2   7   14.70    1.50
  -6   2   7   15.20    1.50
   6  -2  -7   11.60    1.20
   6  -2  -7   14.10    1.40
   6  -2  -6  102.19    3.60
   6  -2  -6   98.09    3.30
   6  -2  -6   86.49    7.40
  -6   2   6   98.69    3.70
  -6   2   6   96.59    7.60
  -6   2   6   95.09    3.40
  -6   2   6  104.79    3.70
  -6   2   6  106.09    3.80
   6  -2  -6  101.89    3.60
   6  -2  -5  209.38    4.70
   6  -2  -5  215.68    5.10
   6  -2  -5  189.48   10.60
  -6   2   5  211.18    5.40
  -6   2   5  197.18   10.60
  -6   2   5  206.38    5.00
  -6   2   5  215.38    5.30
   6  -2  -5  207.38    5.10
   6  -2  -4   11.90    1.20
   6  -2  -4   15.00    1.40
  -6   2   4   13.90    1.40
  -6   2   4    9.50    2.30
  -6   2   4   13.60    1.30
  -6   2   4   15.40    1.40
   6  -2  -4   13.90    1.30
   6  -2  -3   33.10    2.00
  -6   2   3   30.30    1.90
  -6   2   3   29.70    4.00
  -6   2   3   31.80    1.90
  -6   2   3   31.90    2.00
   6  -2  -3   33.40    2.00
   6  -2  -2  289.17    5.80
  -6   2   2  273.17    5.80
   6  -2  -2  272.17   11.00
  -6   2   2  262.67   11.70
   6  -2  -2  271.17    5.60
   6  -2  -2  268.27    5.40
  -6   2   2  268.27    5.40
  -6   2   2  290.07    5.90
  -6   2   2  274.47    5.70
   6  -2  -2  276.77    5.70
   6  -2  -1  606.14    8.50
  -6   2   1  600.64    8.70
   6  -2  -1  626.14    8.60
   6  -2  -1  612.94    8.30
  -6   2   1  609.84    9.10
  -6   2   1  613.14    8.60
   6  -2  -1  624.24    8.50
  -6   2   0  320.67    6.50
   6  -2   0  328.77    6.30
   6  -2   0  311.67    6.00
  -6   2   0  315.47    6.60
  -6   2   0  317.87    6.20
   6  -2   0  331.57    6.20
  -6   2  -1   13.10    1.40
   6  -2   1   13.00    1.40
   6  -2   1   11.70    1.30
  -6   2  -1   12.00    1.40
   6  -2   1   11.90    1.30
  -6   2  -2    1.00    0.60
   6  -2   2    1.10    0.60
   6  -2   2    0.40    0.70
  -6   2  -2    0.40    0.60
   6  -2   2    0.50    0.50
  -6   2  -2    0.90    0.50
  -6   2  -2   -0.20    0.60
   6  -2   2    1.50    0.60
  -6   2  -3   41.80    2.50
   6  -2   3   42.10    2.40
   6  -2   3   38.40    2.10
   6  -2   3   43.00    2.30
  -6   2  -3   41.90    2.40
   6  -2   3   41.40    2.30
  -6   2  -3   41.90    2.40
   6  -2   3   45.00    2.30
  -6   2  -4   92.99    3.80
   6  -2   4   94.29    3.70
   6  -2   4   92.69    3.40
  -6   2  -4   95.09    3.50
   6  -2   4  100.49    3.80
   6  -2   4   91.89    3.50
  -6   2  -4   92.59    3.50
  -6   2  -4   89.29    3.30
  -6   2  -5  116.59    4.20
   6  -2   5  119.79    4.10
   6  -2   5  120.89    3.80
   6  -2   5  121.79    4.20
   6  -2   5  114.19    3.90
  -6   2  -5  116.59    3.90
  -6   2  -5  114.19    3.70
  -6   2  -5  121.19    4.20
  -6   2  -6    0.20    0.60
   6  -2   6    0.30    0.70
   6  -2   6    0.70    0.60
   6  -2   6    0.10    0.70
   6  -2   6    0.50    0.60
  -6   2  -6    0.20    0.50
  -6   2  -6    0.70    0.80
  -6   2  -7   37.70    2.20
   6  -2   7   37.90    2.20
   6  -2   7   36.30    2.00
   6  -2   7   35.10    2.10
  -6   2  -7   33.20    1.90
  -6   2  -7   40.60    2.20
  -6   2  -8  121.69    3.40
   6  -2   8  122.59    3.40
   6  -2   8  116.29    3.20
  -6   2  -8  117.99    3.30
  -6   2  -8  119.69    3.40
  -6   2  -9   44.30    1.80
   6  -2   9   45.50    1.80
   6  -2   9   45.50    1.90
  -6   2  -9   44.70    1.90
   6  -2  10    0.70    0.40
   6  -2  10    0.50    0.40
  -6   2 -10    1.00    0.40
   6  -1 -16   76.59    1.90
  -6   1  16   79.29    2.10
   6  -1 -15   21.00    1.10
   6  -1 -15   22.50    1.30
  -6   1  15   22.40    1.40
   6  -1 -15   19.40    1.10
   6  -1 -14   -0.40    0.40
   6  -1 -14   -0.60    0.50
  -6   1  14    0.30    0.60
  -6   1  14    0.10    0.40
   6  -1 -14   -0.30    0.40
   6  -1 -14    0.50    0.50
   6  -1 -13   19.70    1.40
   6  -1 -13   18.70    1.50
  -6   1  13   18.80    1.70
  -6   1  13   19.00    1.40
   6  -1 -13   17.60    1.30
  -6   1  13   17.70    1.40
   6  -1 -13   18.50    1.50
   6  -1 -12   46.80    2.40
   6  -1 -12   49.90    2.60
  -6   1  12   50.99    2.80
  -6   1  12   49.70    2.40
   6  -1 -12   45.50    2.30
  -6   1  12   47.00    2.40
   6  -1 -12   47.70    2.10
   6  -1 -12   49.10    2.60
   6  -1 -11   61.39    3.00
  -6   1  11   64.19    3.30
  -6   1  11   65.69    3.00
   6  -1 -11   68.89    3.20
   6  -1 -10  211.98    5.50
  -6   1  10  219.88    5.90
  -6   1  10  205.18    5.50
   6  -1 -10  204.98    5.60
  -6   1   9    0.70    0.90
   6  -1  -9    0.90    0.70
  -6   1   9   -0.40    0.70
   6  -1  -8  350.06    7.00
   6  -1  -8  345.97    6.50
  -6   1   8  342.37    6.90
  -6   1   8  343.67    7.00
  -6   1   8  332.47    6.40
   6  -1  -8  342.97    6.80
   6  -1  -7   95.49    3.60
   6  -1  -7   91.49    3.20
   6  -1  -7   93.39    7.90
  -6   1   7   86.49    7.30
  -6   1   7   91.29    3.50
  -6   1   7   91.29    3.50
  -6   1   7   87.59    3.40
   6  -1  -7   94.89    3.50
   6  -1  -6    0.50    0.40
   6  -1  -6   -0.30    0.50
  -6   1   6    0.50    0.50
  -6   1   6    0.30    0.50
  -6   1   6    0.30    0.60
   6  -1  -6    0.60    0.40
   6  -1  -5    4.60    0.80
   6  -1  -5    5.10    2.10
  -6   1   5    4.10    1.60
  -6   1   5    3.50    0.80
  -6   1   5    3.70    0.80
  -6   1   5    4.40    0.80
   6  -1  -5    4.50    0.90
   6  -1  -5    3.70    0.70
   6  -1  -4   15.70    1.40
   6  -1  -4   18.20    3.10
  -6   1   4   16.90    3.10
  -6   1   4   14.30    1.30
  -6   1   4   15.50    1.40
  -6   1   4   17.80    1.60
  -6   1   4   15.70    1.40
   6  -1  -4   16.40    1.40
   6  -1  -3  140.29    4.00
  -6   1   3  133.19    3.90
  -6   1   3  135.39    4.10
  -6   1   3  145.89    4.20
   6  -1  -3  140.79    4.00
   6  -1  -2  464.45    7.10
  -6   1   2  477.25    7.50
  -6   1   2  465.45    7.40
   6  -1  -2  463.05    7.20
   6  -1  -1  352.06    6.10
  -6   1   1  358.86    6.80
   6  -1  -1  366.46    6.60
  -6   1   1  369.96    6.50
   6  -1  -1  362.46    6.30
  -6   1   0   80.49    3.30
   6  -1   0   86.99    3.20
   6  -1   0   81.09    3.10
  -6   1   0   83.79    3.40
   6  -1   0   77.59    2.90
  -6   1  -1   -0.20    0.60
   6  -1   1    0.30    0.50
   6  -1   1    0.10    0.50
  -6   1  -1    0.00    0.50
  -6   1  -1    0.70    0.60
   6  -1   1    0.50    0.50
  -6   1  -2   30.30    2.20
   6  -1   2   31.20    2.10
   6  -1   2   32.80    2.10
  -6   1  -2   30.70    1.90
  -6   1  -2   30.70    2.10
  -6   1  -2   29.90    1.90
  -6   1  -3  148.49    4.70
   6  -1   3  155.58    4.50
   6  -1   3  142.59    4.40
  -6   1  -3  142.39    4.30
  -6   1  -3  147.29    4.50
   6  -1   3  153.38    4.40
  -6   1  -3  149.69    4.30
  -6   1  -3  149.59    4.70
  -6   1  -4    9.30    1.30
   6  -1   4    9.50    1.30
   6  -1   4    9.70    1.20
  -6   1  -4   10.80    1.30
  -6   1  -4    9.50    1.20
   6  -1   4   11.00    1.40
   6  -1   4    8.80    1.20
  -6   1  -4    9.20    1.30
  -6   1  -5    4.60    1.00
   6  -1   5    4.20    1.10
   6  -1   5    3.50    0.90
  -6   1  -5    3.00    0.80
   6  -1   5    2.90    0.80
   6  -1   5    2.80    0.80
  -6   1  -5    4.00    0.80
  -6   1  -5    2.30    0.70
  -6   1  -6    1.70    0.70
   6  -1   6    2.50    0.90
   6  -1   6    2.00    0.70
  -6   1  -6    1.60    0.70
   6  -1   6    1.30    0.60
   6  -1   6    1.80    0.70
   6  -1   6    1.10    0.50
  -6   1  -6    1.30    0.50
  -6   1  -6    1.10    0.60
  -6   1  -7   61.49    2.70
   6  -1   7   53.39    2.40
   6  -1   7   59.99    2.60
   6  -1   7   54.89    2.40
   6  -1   7   55.99    2.20
  -6   1  -7   57.39    2.40
  -6   1  -7   59.49    2.60
  -6   1  -8   30.40    1.70
   6  -1   8   29.80    1.60
   6  -1   8   29.70    1.70
   6  -1   8   29.70    1.40
  -6   1  -8   30.90    1.70
  -6   1  -9   -0.20    0.30
   6  -1   9    0.10    0.40
   6  -1   9    0.60    0.50
  -6   1  -9    0.10    0.40
   6  -1  10    7.20    0.70
  -6   1 -10    7.20    0.70
   6   0 -16    0.30    0.30
   6   0 -16    0.70    0.30
  -6   0  16    0.60    0.40
   6   0 -15    7.10    0.80
   6   0 -15    6.20    0.80
  -6   0  15    6.70    0.90
  -6   0  15    5.20    0.60
   6   0 -15    4.80    0.60
   6   0 -15    6.20    0.80
   6   0 -14   70.89    2.60
  -6   0  14   66.49    2.40
   6   0 -14   68.09    2.30
   6   0 -14   70.29    2.20
   6   0 -14   71.19    2.70
   6   0 -13   87.89    3.20
  -6   0  13   90.39    3.50
  -6   0  13   83.69    2.80
  -6   0  13   81.39    3.10
  -6   0  13   84.69    2.80
   6   0 -13   92.09    3.30
   6   0 -12   69.49    3.10
  -6   0  12   73.89    3.40
  -6   0  12   71.49    2.90
  -6   0  12   68.19    3.10
  -6   0  12   72.29    2.90
   6   0 -12   73.99    3.20
   6   0 -11    0.10    0.60
  -6   0  11    0.50    0.70
  -6   0  11    0.10    0.60
  -6   0  11    0.60    0.50
  -6   0  11   -0.30    0.60
   6   0 -11   -0.10    0.70
   6   0 -10    7.50    1.10
  -6   0  10    6.60    1.20
  -6   0  10    7.50    1.10
  -6   0  10    7.30    1.10
  -6   0  10    8.00    1.20
   6   0 -10    7.40    1.20
   6   0  -9    4.50    0.90
  -6   0   9    3.90    0.80
  -6   0   9    4.10    0.90
  -6   0   9    4.30    0.80
  -6   0   9    3.70    0.90
   6   0  -9    4.40    1.00
   6   0  -8    4.00    0.70
  -6   0   8    1.60    0.70
  -6   0   8    3.90    0.90
  -6   0   8    2.90    0.70
  -6   0   8    3.60    0.90
   6   0  -8    5.10    0.90
   6   0  -7   12.90    3.30
  -6   0   7   14.90    1.50
  -6   0   7   15.60    1.50
  -6   0   7   14.60    1.40
  -6   0   7   16.10    3.60
  -6   0   7   14.70    1.60
  -6   0   7   14.90    1.40
   6   0  -7   14.40    1.30
   6   0  -6   65.99    2.90
   6   0  -6   67.79    6.40
  -6   0   6   66.99    3.00
  -6   0   6   63.49    2.80
  -6   0   6   63.69    2.70
  -6   0   6   66.49    3.00
  -6   0   6   70.69    6.70
  -6   0   6   65.29    3.10
  -6   0   6   63.79    2.90
   6   0  -6   64.69    2.60
   6   0  -5   32.20    2.00
   6   0  -5   36.50    4.60
  -6   0   5   34.40    2.10
  -6   0   5   36.90    2.20
  -6   0   5   34.60    2.00
  -6   0   5   35.40    4.70
  -6   0   5   36.60    2.30
  -6   0   5   36.00    2.10
   6   0  -4  336.97    6.10
   6   0  -4  344.27   13.60
  -6   0   4  353.56   13.80
  -6   0   4  341.57    6.20
  -6   0   4  352.96    7.10
  -6   0   4  358.06    6.80
  -6   0   4  343.97    6.50
   6   0  -3  259.27    5.20
   6   0  -3  273.27   11.80
  -6   0   3  263.97    5.40
  -6   0   3  280.57    6.30
  -6   0   3  287.07    6.00
   6   0  -3  266.77    5.50
  -6   0   2    8.70    1.20
   6   0  -2    6.60    1.90
  -6   0   2    5.70    0.90
  -6   0   2    6.00    1.00
  -6   0   2    8.00    1.10
   6   0  -2    7.30    0.90
  -6   0   1   34.90    2.20
   6   0  -1   36.00    2.10
  -6   0   1   37.10    2.30
  -6   0   1   34.80    2.10
  -6   0   1   34.20    2.20
   6   0  -1   36.40    2.00
  -6   0   0   39.80    2.40
   6   0   0   40.90    2.20
  -6   0   0   41.10    2.50
  -6   0   0   43.90    2.30
  -6   0   0   43.30    2.50
  -6   0  -1  111.79    4.10
  -6   0  -1  114.39    7.70
   6   0   1  113.49    3.70
   6   0   1  116.49    3.70
  -6   0  -1  113.19    3.70
  -6   0  -1  118.29    4.20
  -6   0  -1  117.39    4.10
  -6   0  -2  756.82   10.70
   6   0   2  766.42    9.70
  -6   0  -2  763.22    9.80
  -6   0  -2  785.32   10.80
  -6   0  -2  774.52   10.70
  -6   0  -3  409.76    7.90
   6   0   3  404.26    7.10
  -6   0  -3  396.36    7.60
  -6   0  -3  394.36    7.30
   6   0   3  394.76    7.20
  -6   0  -3  407.06    7.70
  -6   0  -4    0.00    0.60
   6   0   4    0.30    0.70
   6   0   4    0.50    0.60
  -6   0  -4    0.00    0.70
  -6   0  -4    0.20    0.50
   6   0   4    1.00    0.60
   6   0   4    0.30    0.60
  -6   0  -4    0.00    0.60
  -6   0  -5  135.89    4.40
   6   0   5  128.59    4.00
   6   0   5  134.79    4.40
  -6   0  -5  132.49    4.10
  -6   0  -5  133.09    4.40
   6   0   5  131.79    4.00
   6   0   5  136.79    4.40
  -6   0  -5  130.79    3.90
  -6   0  -5  136.39    4.30
  -6   0  -6    0.10    0.70
   6   0   6    0.60    0.50
   6   0   6    0.20    0.70
  -6   0  -6    0.20    0.70
   6   0   6    1.00    0.60
   6   0   6    0.30    0.60
   6   0   6    0.30    0.50
  -6   0  -6   -0.10    0.50
  -6   0  -6   -0.80    0.70
  -6   0  -7   16.40    1.40
   6   0   7   15.30    1.20
   6   0   7   18.00    1.50
  -6   0  -7   15.30    1.40
   6   0   7   15.90    1.30
  -6   0  -7   15.20    1.30
  -6   0  -8   -0.10    0.50
   6   0   8    0.20    0.50
   6   0   8    0.70    0.40
  -6   0  -8    0.60    0.40
  -6   0  -9    2.70    0.50
   6   0   9    3.40    0.60
   6   0   9    3.70    0.50
   6   0   9    2.00    0.40
  -6   0  -9    3.30    0.60
   6   0  10   29.10    1.20
  -6   0 -10   27.40    1.10
   6   1 -16   22.10    1.10
   6   1 -16   22.90    1.10
  -6  -1  16   19.90    1.10
  -6  -1  16   18.80    1.00
   6   1 -16   22.20    1.10
   6   1 -15  187.88    3.70
  -6  -1  15  195.28    4.10
  -6  -1  15  182.98    3.70
   6   1 -15  180.58    3.20
   6   1 -15  192.88    3.80
   6   1 -14  256.77    4.80
  -6  -1  14  259.57    5.40
  -6  -1  14  253.67    5.20
   6   1 -14  265.77    5.10
   6   1 -13  369.26    6.30
  -6  -1  13  378.66    7.10
  -6  -1  13  373.46    7.00
   6   1 -13  392.76    6.70
   6   1 -12   16.50    1.50
  -6  -1  12   16.30    1.70
  -6  -1  12   17.20    1.40
  -6  -1  12   19.00    1.80
  -6  -1  12   16.50    1.40
   6   1 -12   18.80    1.70
   6   1 -11   72.39    3.10
  -6  -1  11   75.89    3.50
  -6  -1  11   72.89    3.00
  -6  -1  11   76.19    3.40
  -6  -1  11   76.39    3.20
   6   1 -11   79.19    3.40
   6   1 -10   17.10    1.50
  -6  -1  10   18.10    1.70
  -6  -1  10   15.10    1.50
  -6  -1  10   18.20    1.70
  -6  -1  10   15.70    1.60
   6   1 -10   15.40    1.60
  -6  -1   9  111.99    4.10
  -6  -1   9  107.99    3.90
  -6  -1   9  114.99    4.00
  -6  -1   9  114.39    4.20
   6   1  -9  110.99    4.00
  -6  -1   8    0.90    0.60
  -6  -1   8    1.80    0.70
  -6  -1   8    1.60    0.70
  -6  -1   8    1.50    0.80
   6   1  -8    2.40    0.70
   6   1  -7   11.90    3.00
  -6  -1   7   14.90    1.50
  -6  -1   7   16.00    1.50
  -6  -1   7   14.80    1.40
  -6  -1   7   16.80    1.70
   6   1  -6  240.68   12.10
  -6  -1   6  240.38    5.70
  -6  -1   6  245.18    5.90
  -6  -1   6  236.18    5.40
  -6  -1   6  246.98    6.00
   6   1  -5  390.06    6.50
   6   1  -5  418.06   15.50
  -6  -1   5  390.96    7.70
  -6  -1   5  402.46    7.00
  -6  -1   5  399.96    7.50
   6   1  -4  291.97   12.70
  -6  -1   4  296.37    6.80
  -6  -1   4  292.37    5.90
  -6  -1   4  294.07    6.30
   6   1  -3   37.30    4.50
  -6  -1   3   45.40    2.70
  -6  -1   3   43.50    2.30
  -6  -1   3   43.10    2.40
   6   1  -3   45.50    2.20
   6   1  -2    2.60    1.40
  -6  -1   2    3.40    0.80
  -6  -1   2    3.60    0.90
  -6  -1   2    4.00    0.90
   6   1  -2    5.90    0.80
  -6  -1   1    1.80    0.80
   6   1  -1    1.40    1.20
   6   1  -1    0.90    0.60
  -6  -1   1    0.40    1.20
  -6  -1   1    1.40    0.80
  -6  -1   1    0.60    0.60
  -6  -1   1   -0.10    0.50
  -6  -1   0   79.99    3.50
  -6  -1   0   80.49    6.60
   6   1   0   80.69    3.00
  -6  -1   0   79.99    3.60
  -6  -1   0   81.09    3.30
  -6  -1   0   81.09    3.40
  -6  -1  -1   23.40    1.90
   6   1   1   23.40    1.70
   6   1   1   25.40    1.80
  -6  -1  -1   24.00    2.00
  -6  -1  -1   23.80    1.80
  -6  -1  -1   22.30    1.70
  -6  -1  -1   25.60    2.00
  -6  -1  -2   57.39    3.00
   6   1   2   61.39    2.70
   6   1   2   62.39    2.80
  -6  -1  -2   58.09    3.10
  -6  -1  -2   59.29    2.80
  -6  -1  -2   58.49    3.00
  -6  -1  -3    0.90    0.60
   6   1   3    0.90    0.60
  -6  -1  -3    1.00    0.70
  -6  -1  -3   -0.50    0.70
   6   1   3    0.90    0.50
  -6  -1  -3    0.90    0.70
  -6  -1  -4   30.60    2.20
   6   1   4   28.10    1.90
   6   1   4   32.10    2.20
  -6  -1  -4   27.40    2.00
  -6  -1  -4   28.50    2.10
   6   1   4   32.00    2.10
  -6  -1  -4   29.10    2.10
  -6  -1  -5    3.40    0.90
   6   1   5    3.90    0.80
   6   1   5    4.40    1.10
  -6  -1  -5    4.60    1.10
  -6  -1  -5    3.20    0.70
   6   1   5    3.10    0.90
  -6  -1  -5    3.10    0.70
  -6  -1  -6  381.46    6.70
   6   1   6  362.56    5.60
  -6  -1  -6  376.66    6.90
   6   1   6  371.56    6.50
   6   1   6  374.16    6.30
  -6  -1  -6  369.86    6.10
  -6  -1  -7   76.19    2.80
   6   1   7   71.89    2.20
   6   1   7   75.79    2.80
  -6  -1  -7   73.89    2.80
   6   1   7   74.09    2.60
  -6  -1  -7   72.89    2.50
  -6  -1  -8    0.40    0.50
   6   1   8    0.10    0.50
   6   1   8    0.30    0.40
  -6  -1  -8    0.70    0.40
  -6  -1  -9    1.70    0.40
   6   1   9    1.90    0.40
   6   1   9    2.30    0.40
   6   1   9    2.00    0.40
  -6  -1  -9    2.60    0.50
   6   2 -16   24.50    1.20
   6   2 -16   24.50    1.10
  -6  -2  16   24.70    1.20
   6   2 -16   22.70    0.90
   6   2 -16   26.00    1.20
   6   2 -15    5.50    0.70
  -6  -2  15    7.00    0.90
  -6  -2  15    5.00    0.70
   6   2 -15    6.40    0.80
   6   2 -14   55.79    2.10
  -6  -2  14   57.79    2.40
  -6  -2  14   58.59    2.60
   6   2 -14   56.89    2.30
   6   2 -13   18.20    1.40
  -6  -2  13   19.30    1.60
  -6  -2  13   17.40    1.60
   6   2 -13   19.20    1.50
   6   2 -12    3.00    0.80
   6   2 -12    4.20    0.80
  -6  -2  12    2.30    0.80
  -6  -2  12    3.10    0.90
  -6  -2  11  167.48    5.10
  -6  -2  11  168.58    5.10
  -6  -2  11  168.08    4.50
  -6  -2  10  324.57    7.10
  -6  -2  10  333.27    7.00
  -6  -2  10  326.97    6.80
  -6  -2   9  437.36    8.10
  -6  -2   9  440.26    7.80
  -6  -2   9  437.56    8.10
   6   2  -9  445.56    7.60
  -6  -2   8   31.00    2.20
  -6  -2   8   30.30    2.10
  -6  -2   8   29.10    2.20
  -6  -2   7    5.60    1.00
  -6  -2   7    6.10    1.10
   6   2  -6    1.10    1.40
  -6  -2   6    1.40    0.60
  -6  -2   6    1.10    0.80
  -6  -2   6    1.30    0.60
   6   2  -5   16.20    3.20
  -6  -2   5   16.40    1.70
  -6  -2   5   14.90    1.40
  -6  -2   5   15.80    1.60
   6   2  -4   24.80    4.00
  -6  -2   4   23.80    2.00
  -6  -2   4   23.80    1.80
  -6  -2   4   26.10    2.00
  -6  -2   3    0.00    0.50
  -6  -2   3    0.70    0.60
  -6  -2   3    0.80    0.70
  -6  -2   2  231.88    6.30
  -6  -2   2  225.38    5.70
  -6  -2   1  790.62   10.60
   6   2  -1  799.02    9.20
  -6  -2   1  790.62   11.60
  -6  -2   1  816.22   10.70
  -6  -2   0  514.95    8.70
   6   2   0  510.75    7.30
  -6  -2   0  501.65    9.20
  -6  -2   0  510.15    8.50
  -6  -2  -1   59.89    3.00
   6   2   1   58.89    2.60
  -6  -2  -1   56.69    3.10
  -6  -2  -1   60.99    2.80
  -6  -2  -2   25.00    2.00
   6   2   2   25.90    1.70
  -6  -2  -2   28.00    2.20
  -6  -2  -2   27.20    1.90
  -6  -2  -3   34.70    2.20
   6   2   3   35.00    2.00
  -6  -2  -3   35.90    2.40
  -6  -2  -3   33.40    2.20
   6   2   3   34.30    2.10
  -6  -2  -4   69.79    3.10
   6   2   4   74.09    3.20
  -6  -2  -4   66.69    3.00
  -6  -2  -4   70.49    3.20
   6   2   4   70.59    3.00
  -6  -2  -5  224.68    5.20
   6   2   5  225.08    5.30
  -6  -2  -5  220.18    5.40
   6   2   5  215.78    4.90
  -6  -2  -6   25.20    1.70
   6   2   6   26.40    1.60
   6   2   6   24.80    1.70
  -6  -2  -6   24.40    1.70
   6   2   6   27.10    1.70
  -6  -2  -6   25.60    1.50
  -6  -2  -7   10.10    1.00
   6   2   7   10.20    0.90
   6   2   7   10.00    1.00
   6   2   7   10.20    1.00
  -6  -2  -7    9.10    0.90
   6   2   8   32.20    1.20
  -6  -2  -8   32.20    1.30
   6   2   8   34.70    1.40
   6   2   8   34.70    1.40
   6   2   8   36.50    1.50
  -6  -2  -8   31.10    1.20
  -6  -3  16  111.59    2.40
   6   3 -16  110.29    2.30
   6   3 -15   15.50    0.90
  -6  -3  15   18.20    1.20
   6   3 -15   17.80    1.10
   6   3 -14   -0.20    0.30
  -6  -3  14    0.20    0.50
   6   3 -14   -0.30    0.50
   6   3 -13    0.30    0.50
  -6  -3  13    0.50    0.60
  -6  -3  12   12.40    1.40
  -6  -3  11  120.69    4.20
  -6  -3  10  142.79    4.50
  -6  -3  10  139.89    4.30
  -6  -3   9   23.10    1.80
  -6  -3   9   20.10    1.80
  -6  -3   8    9.30    1.20
  -6  -3   8    8.00    1.20
  -6  -3   7    1.70    0.70
  -6  -3   7    0.80    0.60
  -6  -3   6   21.50    1.70
  -6  -3   6   22.40    1.90
  -6  -3   5   17.80    1.80
  -6  -3   5   15.80    1.50
  -6  -3   5   18.30    1.70
  -6  -3   4    9.50    1.20
  -6  -3   4    9.70    1.50
  -6  -3   4    9.40    1.30
  -6  -3   3   20.40    2.00
  -6  -3   3   19.20    1.70
  -6  -3   3   19.40    1.80
  -6  -3   2  147.59    5.10
  -6  -3   2  147.29    4.80
  -6  -3   1  105.89    3.70
  -6  -3   1  108.99    4.40
  -6  -3   1  107.09    4.10
  -6  -3   0   70.69    3.10
  -6  -3   0   69.99    3.50
  -6  -3   0   73.49    3.10
  -6  -3  -1    9.40    1.20
   6   3   1    8.40    1.00
  -6  -3  -1    7.90    1.10
  -6  -3  -1    7.70    1.20
  -6  -3  -2   40.90    2.40
  -6  -3  -2   43.20    2.60
  -6  -3  -2   44.70    2.50
   6   3   2   44.50    2.30
  -6  -3  -3  324.67    6.40
  -6  -3  -3  318.87    6.60
  -6  -3  -3  321.27    6.50
   6   3   3  323.77    5.90
  -6  -3  -4  172.28    4.50
   6   3   4  180.98    4.60
  -6  -3  -4  174.98    4.70
   6   3   4  169.28    4.10
  -6  -3  -5    5.30    0.90
   6   3   5    4.90    0.90
  -6  -3  -5    5.20    0.90
   6   3   5    4.90    0.70
  -6  -3  -6   -0.20    0.60
   6   3   6    0.40    0.40
   6   3   6   -0.30    0.50
  -6  -3  -6    0.40    0.50
   6   3   6    0.40    0.50
   6   3   7    0.30    0.40
  -6  -3  -7    0.40    0.40
   6   3   7   -0.10    0.40
   6   3   7   -0.50    0.40
   6   3   8    6.50    0.60
   6   3   8    6.90    0.60
  -6  -4  15    0.30    0.30
   6   4 -15    0.70    0.30
  -6  -4  14   82.99    2.60
   6   4 -14   78.49    2.30
  -6  -4  13  177.78    4.30
   6   4 -13  169.78    3.70
  -6  -4  12  155.98    4.30
  -6  -4  11  134.09    4.10
  -6  -4  10    7.40    1.10
  -6  -4  10    7.20    1.00
  -6  -4   9   41.40    2.30
  -6  -4   9   42.10    2.40
  -6  -4   8   57.89    2.70
  -6  -4   8   55.59    2.90
  -6  -4   7   89.19    3.40
  -6  -4   7   86.89    3.70
  -6  -4   6  218.28    5.30
  -6  -4   6  210.18    5.80
  -6  -4   5    1.60    0.80
  -6  -4   5    0.80    0.50
  -6  -4   5    0.60    0.80
  -6  -4   4  256.27    6.60
  -6  -4   4  262.17    5.80
  -6  -4   4  258.07    6.40
  -6  -4   3   46.30    2.90
  -6  -4   3   46.80    2.80
  -6  -4   2   15.40    1.70
  -6  -4   1   18.00    1.80
  -6  -4   1   19.30    1.60
  -6  -4   0    0.70    0.60
  -6  -4   0    0.60    0.50
  -6  -4   0    1.30    0.80
  -6  -4  -1   53.19    2.60
  -6  -4  -1   57.59    2.60
   6   4   1   54.39    2.30
  -6  -4  -2  328.97    6.10
  -6  -4  -2  337.57    6.30
   6   4   2  327.87    5.50
  -6  -4  -3  273.27    5.30
  -6  -4  -3  280.57    5.50
   6   4   3  265.37    4.60
   6   4   4   76.29    2.60
  -6  -4  -4   73.69    2.60
   6   4   5    0.90    0.50
  -6  -4  -5    1.30    0.50
   6   4   5    1.50    0.40
  -6  -4  -5    1.30    0.50
   6   4   5    1.40    0.50
   6   4   6    4.40    0.60
  -6  -4  -6    4.50    0.60
   6   4   6    3.60    0.40
   6   4   6    4.60    0.60
  -6  -5  14  141.59    2.40
  -6  -5  14  152.58    2.90
  -6  -5  13  148.99    3.30
   6   5 -13  130.99    2.60
  -6  -5  12   50.19    1.80
  -6  -5  12   63.89    2.40
  -6  -5  11   27.80    1.50
  -6  -5  11   32.60    1.90
  -6  -5  10   16.30    1.20
  -6  -5  10   19.00    1.50
  -6  -5   9   84.49    2.80
  -6  -5   9   89.89    3.20
  -6  -5   8   10.40    1.00
  -6  -5   8   10.30    1.20
  -6  -5   7   20.10    1.40
  -6  -5   7   18.60    1.50
  -6  -5   6   18.90    1.50
  -6  -5   6   12.80    1.30
  -6  -5   5   83.39    3.00
  -6  -5   5   95.09    3.10
  -6  -5   4   11.00    1.10
  -6  -5   3   22.10    1.50
  -6  -5   2   24.80    1.50
  -6  -5   2   27.20    1.70
  -6  -5   1   10.00    1.10
  -6  -5   0  109.39    3.30
  -6  -5  -1  114.79    3.30
  -6  -5  -2    1.00    0.50
  -6  -5  -2    1.40    0.50
   6   5   2    1.70    0.50
  -6  -5  -2    1.40    0.50
  -6  -5  -3   39.70    1.70
  -6  -5  -3   37.40    1.40
   6   5   3   38.60    1.60
  -6  -5  -3   36.80    1.60
   6   5   3   41.50    1.70
   6   5   4   -0.40    0.30
   6   5   4   -0.10    0.40
   6   5   5   42.50    1.30
  -6  -5  -5   40.00    1.30
  -6  -6  13    0.60    0.40
  -6  -6  12    0.30    0.40
  -6  -6  12    0.70    0.30
  -6  -6  11   86.19    2.30
  -6  -6  11   96.09    2.60
  -6  -6  10  364.26    5.60
  -6  -6  10  355.26    5.20
  -6  -6   9  425.26    6.30
  -6  -6   9  407.06    5.80
  -6  -6   8   70.49    2.60
  -6  -6   8   70.29    2.40
  -6  -6   7   15.60    1.30
  -6  -6   7   31.40    1.90
  -6  -6   6   17.60    1.40
  -6  -6   6   61.39    2.60
  -6  -6   5    6.90    0.90
  -6  -6   4    3.90    0.70
  -6  -6   4    4.40    0.60
  -6  -6   3    2.00    0.50
  -6  -6   3    0.90    0.40
  -6  -6   2   32.80    1.40
  -6  -6   2   36.80    1.70
  -6  -6   1  251.97    4.70
  -6  -6   1  227.48    4.00
  -6  -6   0  115.89    2.70
  -6  -6   0  130.59    3.20
  -6  -6  -1   22.60    1.10
  -6  -6  -1   23.20    1.20
   6   6   1   24.70    1.10
  -6  -6  -2    2.30    0.40
  -6  -6  -2    1.40    0.30
   6   6   3   11.20    0.70
  -6  -7  11    6.10    0.60
  -6  -7  10   14.00    0.90
  -6  -7  10   58.39    1.60
  -6  -7   9    5.20    0.70
  -6  -7   9   62.39    1.90
  -6  -7   8    0.60    0.50
  -6  -7   7   40.40    1.70
  -6  -7   7   34.70    1.30
  -6  -7   6  263.37    4.20
  -6  -7   6  258.97    4.10
  -6  -7   5  190.38    3.40
  -6  -7   5  199.98    3.80
  -6  -7   4   12.10    0.90
  -6  -7   4   12.20    1.00
  -6  -7   3   20.60    1.10
  -6  -7   3   -0.60    0.50
  -6  -7   2    0.30    0.40
  -6  -7   1    4.20    0.60
  -7   8   4   28.30    1.20
   7  -8  -4   25.50    1.30
  -7   8   3    4.50    0.70
   7  -8  -3    3.50    0.60
  -7   8   2   11.00    0.90
   7  -8  -2   11.10    1.00
   7  -8  -1  105.69    2.60
  -7   8   1  108.99    2.50
  -7   8   0  158.18    3.10
   7  -8   0  138.59    2.90
  -7   8   0  127.79    2.60
  -7   8   0  154.68    3.10
  -7   8  -1   33.90    1.40
   7  -8   1   28.60    1.30
  -7   8  -1   29.00    1.20
  -7   8  -1   34.80    1.50
  -7   8  -2    1.10    0.40
  -7   8  -2    1.00    0.50
   7  -7  -8    0.50    0.40
  -7   7   8    1.10    0.40
  -7   7   7   12.00    0.80
   7  -7  -7   13.90    1.00
   7  -7  -6    0.70    0.50
  -7   7   6    0.10    0.30
   7  -7  -6   -0.20    0.40
  -7   7   6   -0.10    0.30
  -7   7   6    0.70    0.40
  -7   7   5   41.30    1.80
   7  -7  -5   40.70    1.80
  -7   7   5   44.20    1.90
   7  -7  -5   42.50    2.00
   7  -7  -4    0.40    0.50
  -7   7   4    0.90    0.50
  -7   7   4    0.40    0.60
   7  -7  -4    0.30    0.40
   7  -7  -4    0.50    0.50
  -7   7   4    0.30    0.50
  -7   7   3   23.40    1.60
   7  -7  -3   24.10    1.40
  -7   7   3   22.30    1.40
  -7   7   3   22.10    1.40
   7  -7  -3   20.00    1.40
   7  -7  -3   22.10    1.50
  -7   7   2   11.30    1.20
   7  -7  -2   13.40    1.20
   7  -7  -2   12.20    1.30
  -7   7   2   11.70    1.10
  -7   7   2   11.80    1.00
   7  -7  -2   10.60    1.20
   7  -7  -2   11.90    1.20
   7  -7  -1    3.60    0.80
  -7   7   1    4.10    0.80
   7  -7  -1    3.80    0.80
   7  -7  -1    3.90    0.80
  -7   7   1    3.50    0.80
  -7   7   1    3.60    0.60
   7  -7  -1    3.00    0.80
  -7   7   0    7.00    0.90
   7  -7   0    6.20    0.90
   7  -7   0    7.60    1.00
  -7   7   0    8.30    1.00
   7  -7   0    7.50    1.10
  -7   7  -1   26.80    1.60
   7  -7   1   26.80    1.70
   7  -7   1   25.60    1.50
  -7   7  -1   25.50    1.50
  -7   7  -1   26.50    1.60
   7  -7   1   22.90    1.70
  -7   7  -2   46.00    1.90
  -7   7  -2   44.10    1.90
  -7   7  -2   43.80    2.00
   7  -7   2   43.30    2.10
  -7   7  -3  156.28    3.30
  -7   7  -3  153.28    3.30
  -7   7  -3  151.58    3.40
   7  -7   3  153.48    3.70
  -7   7  -4  151.88    2.90
  -7   7  -4  152.78    3.00
   7  -7   4  159.98    3.50
  -7   7  -5    7.10    0.70
   7  -7   5    7.40    0.80
  -7   7  -5    6.30    0.70
   7  -6 -10    2.40    0.50
  -7   6  10    1.80    0.50
   7  -6  -9    1.20    0.50
  -7   6   9    1.00    0.40
  -7   6   9    1.10    0.40
   7  -6  -8    0.60    0.50
  -7   6   8    0.50    0.40
  -7   6   8    0.80    0.50
   7  -6  -7    0.10    0.50
  -7   6   7    0.70    0.30
  -7   6   7    0.30    0.40
  -7   6   7   -0.50    0.60
   7  -6  -6    1.00    0.60
  -7   6   6    0.60    0.50
  -7   6   6    1.60    0.60
   7  -6  -6    2.10    0.60
  -7   6   6    1.80    0.70
   7  -6  -5    2.20    0.70
  -7   6   5    3.10    0.80
  -7   6   5    2.10    0.80
   7  -6  -5    3.00    0.70
  -7   6   5    3.20    0.80
   7  -6  -5    2.80    0.60
  -7   6   4  112.79    3.70
  -7   6   4  114.79    3.90
   7  -6  -4  109.19    3.30
  -7   6   4  116.89    3.60
   7  -6  -4  112.99    3.50
   7  -6  -4  112.19    3.50
  -7   6   3  165.88    4.50
  -7   6   3  174.18    4.70
   7  -6  -3  164.88    4.20
  -7   6   3  153.48    4.10
  -7   6   3  163.08    4.20
   7  -6  -3  164.98    4.50
   7  -6  -3  161.18    4.20
   7  -6  -2    3.70    0.80
  -7   6   2    4.40    0.90
   7  -6  -2    4.40    0.90
  -7   6   2    7.10    1.10
  -7   6   2    3.70    0.80
   7  -6  -2    3.50    0.90
   7  -6  -1    2.10    0.70
  -7   6   1    3.30    0.80
   7  -6  -1    2.20    0.70
  -7   6   1    2.70    0.80
  -7   6   1    2.90    0.60
   7  -6  -1    2.30    0.90
   7  -6   0    0.30    0.50
  -7   6   0    0.60    0.60
   7  -6   0    0.70    0.60
  -7   6   0    0.20    0.60
  -7   6   0    0.80    0.50
   7  -6   0    0.70    0.70
  -7   6  -1    0.70    0.60
   7  -6   1    1.20    0.70
  -7   6  -1    1.00    0.60
  -7   6  -1    0.10    0.70
   7  -6   1    0.60    0.70
  -7   6  -2   11.30    1.20
   7  -6   2   12.70    1.30
   7  -6   2    9.60    1.00
  -7   6  -2   11.40    1.10
  -7   6  -2   12.70    1.30
   7  -6   2   10.70    1.30
  -7   6  -3   11.80    1.20
   7  -6   3    8.70    1.10
  -7   6  -3    9.70    1.00
  -7   6  -3   10.10    1.10
   7  -6   3    8.90    1.10
  -7   6  -4   28.50    1.60
   7  -6   4   25.10    1.40
  -7   6  -4   28.80    1.60
   7  -6   4   28.00    1.80
  -7   6  -5    0.10    0.40
   7  -6   5    0.60    0.40
  -7   6  -5    0.30    0.40
   7  -6   5    1.10    0.60
  -7   6  -6    1.50    0.40
   7  -6   6    1.40    0.40
  -7   6  -6    2.40    0.50
   7  -6   6    1.90    0.60
  -7   5  12   22.80    1.00
  -7   5  12   21.60    1.00
   7  -5 -12   24.50    1.00
   7  -5 -11    3.10    0.50
  -7   5  11    3.80    0.60
   7  -5 -10    1.20    0.60
  -7   5  10    1.10    0.50
  -7   5  10    0.90    0.40
  -7   5   9   98.79    3.10
  -7   5   9  100.59    2.90
   7  -5  -9  100.49    3.20
  -7   5   8  163.48    4.20
  -7   5   8  172.08    4.30
   7  -5  -8  168.58    4.30
  -7   5   7   36.00    2.00
  -7   5   7   38.20    2.10
  -7   5   7   36.60    2.20
   7  -5  -7   35.50    2.10
   7  -5  -6    6.60    1.00
  -7   5   6    5.40    0.90
  -7   5   6    6.00    1.10
  -7   5   6    5.00    0.80
  -7   5   6    5.90    1.10
   7  -5  -6    5.70    0.90
   7  -5  -5    0.40    0.60
  -7   5   5    0.70    0.60
  -7   5   5    0.00    0.70
  -7   5   5    0.40    0.40
  -7   5   5    0.10    0.70
   7  -5  -5    0.50    0.50
   7  -5  -4    4.00    0.90
  -7   5   4    3.30    0.80
  -7   5   4    3.00    0.90
  -7   5   4    2.80    0.80
   7  -5  -4    3.00    0.80
   7  -5  -3    5.80    1.00
  -7   5   3    6.90    1.10
  -7   5   3    7.70    1.20
  -7   5   3    5.70    1.00
  -7   5   3    8.80    1.20
   7  -5  -3    6.60    1.10
   7  -5  -2    0.70    0.60
  -7   5   2    0.10    0.60
  -7   5   2   -0.30    0.60
  -7   5   2    0.80    0.60
   7  -5  -2    0.70    0.70
  -7   5   1   22.10    1.80
   7  -5  -1   23.30    1.80
   7  -5  -1   21.90    1.70
  -7   5   1   21.40    1.80
  -7   5   1   22.40    1.60
   7  -5  -1   21.60    1.80
   7  -5  -1   21.10    1.70
  -7   5   0  358.36    6.70
   7  -5   0  354.56    6.50
   7  -5   0  334.47    6.20
  -7   5   0  338.87    6.80
  -7   5   0  339.47    6.00
   7  -5   0  348.87    6.80
   7  -5   0  334.37    6.20
  -7   5  -1  289.07    6.00
   7  -5   1  280.07    5.50
   7  -5   1  299.07    6.00
   7  -5   1  263.47    5.60
  -7   5  -1  281.77    5.60
  -7   5  -1  273.47    6.00
   7  -5   1  299.77    6.30
   7  -5   1  264.57    5.40
  -7   5  -2   46.80    2.50
   7  -5   2   48.70    2.30
   7  -5   2   46.10    2.40
   7  -5   2   46.80    2.40
  -7   5  -2   45.30    2.30
  -7   5  -2   45.10    2.50
   7  -5   2   48.40    2.60
  -7   5  -3   -0.10    0.70
   7  -5   3    1.00    0.80
   7  -5   3    0.10    0.50
  -7   5  -3    0.00    0.40
   7  -5   3    0.30    0.60
  -7   5  -3   -0.60    0.60
  -7   5  -3    0.20    0.70
   7  -5   3    0.70    0.70
  -7   5  -4    7.40    1.00
   7  -5   4    9.30    1.00
   7  -5   4    7.50    1.10
   7  -5   4    7.40    1.00
  -7   5  -4    6.30    0.90
   7  -5   4    9.20    1.20
  -7   5  -5   11.90    1.10
   7  -5   5   11.20    1.10
  -7   5  -5   11.10    1.10
  -7   5  -5   10.60    0.90
   7  -5   5   11.00    1.20
  -7   5  -6   50.79    1.90
   7  -5   6   52.49    1.90
   7  -5   6   48.20    1.90
  -7   5  -6   52.49    2.00
  -7   5  -7   46.40    1.50
   7  -5   7   50.79    1.70
  -7   5  -7   49.40    1.70
   7  -5   8    0.70    0.40
   7  -4 -13    0.80    0.40
  -7   4  13    0.90    0.40
  -7   4  13    0.80    0.40
   7  -4 -12    2.90    0.60
  -7   4  12    2.60    0.60
  -7   4  12    2.20    0.50
   7  -4 -11    2.40    0.70
  -7   4  11    3.00    0.70
  -7   4  11    2.40    0.50
  -7   4  10   72.89    2.90
  -7   4  10   72.99    2.40
   7  -4 -10   70.09    2.80
   7  -4  -9   56.39    2.40
  -7   4   9   56.09    2.70
  -7   4   9   58.59    2.50
   7  -4  -9   55.89    2.60
   7  -4  -8   86.29    3.20
  -7   4   8   93.19    3.50
  -7   4   8   92.39    3.40
   7  -4  -8   94.59    3.00
   7  -4  -8   96.49    3.50
   7  -4  -7    1.90    0.70
   7  -4  -7    2.30    0.80
  -7   4   7    1.20    0.70
  -7   4   7    1.30    0.80
   7  -4  -7    2.40    0.70
   7  -4  -6   28.00    2.00
  -7   4   6   31.10    2.00
  -7   4   6   29.10    2.10
   7  -4  -6   27.00    1.90
   7  -4  -6   30.00    2.00
   7  -4  -5    1.80    0.70
  -7   4   5    2.60    0.70
  -7   4   5    2.50    0.90
  -7   4   5    1.90    0.60
  -7   4   5    2.70    0.80
   7  -4  -5    1.60    0.70
  -7   4   4   41.10    2.40
  -7   4   4   40.80    2.10
  -7   4   4   43.70    2.50
   7  -4  -4   40.10    2.40
   7  -4  -4   42.80    2.40
  -7   4   3   41.40    2.50
   7  -4  -3   40.60    2.20
  -7   4   3   40.00    2.40
  -7   4   3   39.70    2.20
  -7   4   3   40.90    2.40
   7  -4  -3   39.80    2.40
   7  -4  -3   38.70    2.20
   7  -4  -2    1.60    0.60
  -7   4   2    0.80    0.60
   7  -4  -2    0.30    0.40
  -7   4   2    1.20    0.70
  -7   4   2    1.60    0.70
   7  -4  -2    0.50    0.70
  -7   4   1  142.99    4.40
   7  -4  -1  141.59    4.30
  -7   4   1  139.69    4.50
  -7   4   1  139.19    4.10
   7  -4  -1  145.39    4.40
   7  -4  -1  140.69    4.00
  -7   4   0  141.19    4.40
   7  -4   0  134.19    4.20
  -7   4   0  134.79    4.40
  -7   4   0  143.29    4.10
   7  -4   0  145.79    4.40
  -7   4  -1   68.89    3.10
   7  -4   1   64.69    2.90
   7  -4   1   70.69    3.00
   7  -4   1   65.39    2.90
  -7   4  -1   65.39    2.80
  -7   4  -1   67.79    3.10
   7  -4   1   70.29    3.10
  -7   4  -2    2.10    0.80
   7  -4   2    3.10    0.90
   7  -4   2    3.40    0.90
  -7   4  -2    3.40    0.80
   7  -4   2    2.40    0.80
  -7   4  -2    3.30    0.70
  -7   4  -2    3.40    0.80
   7  -4   2    3.50    1.00
  -7   4  -3    3.30    0.80
   7  -4   3    3.30    0.90
   7  -4   3    3.90    0.90
  -7   4  -3    2.50    0.70
   7  -4   3    2.40    0.80
  -7   4  -3    1.90    0.60
   7  -4   3    4.00    1.00
  -7   4  -4  185.28    4.70
   7  -4   4  189.08    4.60
   7  -4   4  185.48    4.50
   7  -4   4  190.18    4.80
  -7   4  -4  181.68    4.30
   7  -4   4  186.78    4.70
  -7   4  -5  132.39    3.80
   7  -4   5  131.09    3.60
   7  -4   5  134.19    3.80
  -7   4  -5  120.39    3.40
  -7   4  -5  117.29    2.90
   7  -4   5  114.49    3.40
  -7   4  -5  129.49    3.70
  -7   4  -6   26.40    1.60
   7  -4   6   30.20    1.60
  -7   4  -6   23.20    1.20
   7  -4   6   24.00    1.40
  -7   4  -6   28.10    1.60
  -7   4  -7    2.20    0.50
   7  -4   7    3.30    0.60
  -7   4  -7    1.80    0.40
  -7   4  -7    1.90    0.50
   7  -4   8    0.40    0.40
  -7   4  -8    0.30    0.30
   7  -3 -14    0.60    0.40
  -7   3  14   -0.10    0.30
   7  -3 -13    1.20    0.40
  -7   3  13    1.50    0.40
  -7   3  13    1.70    0.50
  -7   3  13    0.80    0.40
   7  -3 -12  155.28    3.20
   7  -3 -12  165.68    3.80
  -7   3  12  164.28    3.70
  -7   3  12  160.88    3.70
   7  -3 -11  122.99    3.60
   7  -3 -11  120.09    3.30
  -7   3  11  128.59    3.70
   7  -3 -10   31.90    2.00
   7  -3 -10   32.30    1.90
  -7   3  10   28.80    1.80
  -7   3  10   32.10    2.10
  -7   3  10   34.40    1.80
   7  -3 -10   33.40    1.70
   7  -3  -9    1.90    0.60
   7  -3  -9    1.00    0.70
  -7   3   9    1.30    0.60
  -7   3   9    1.60    0.80
  -7   3   9    0.90    0.50
   7  -3  -9    0.80    0.50
   7  -3  -8   40.90    2.40
   7  -3  -8   40.90    2.40
  -7   3   8   43.50    2.50
  -7   3   8   41.40    2.40
   7  -3  -8   40.40    2.20
   7  -3  -7   30.80    2.00
   7  -3  -7   30.60    2.10
  -7   3   7   32.00    2.20
  -7   3   7   29.70    2.10
   7  -3  -7   29.50    2.00
   7  -3  -6   89.49    3.50
   7  -3  -6   86.39    3.10
  -7   3   6   89.09    3.40
  -7   3   6   91.29    3.70
   7  -3  -6   84.39    3.40
   7  -3  -6   84.69    3.20
   7  -3  -5   71.09    3.10
  -7   3   5   63.69    2.90
   7  -3  -5   63.79    2.80
  -7   3   5   67.99    2.90
  -7   3   5   69.69    3.20
   7  -3  -5   68.89    3.10
   7  -3  -5   70.99    2.90
   7  -3  -4   88.99    3.40
  -7   3   4   83.09    3.40
   7  -3  -4   84.69    3.20
  -7   3   4   83.39    3.10
  -7   3   4   89.09    3.50
  -7   3   4   87.79    3.50
   7  -3  -4   91.49    3.50
   7  -3  -4   89.19    3.20
   7  -3  -3   24.30    1.90
  -7   3   3   25.10    1.90
   7  -3  -3   25.60    1.80
   7  -3  -3   27.20    1.90
  -7   3   3   27.10    1.90
  -7   3   3   25.40    1.90
   7  -3  -3   24.40    1.90
   7  -3  -3   25.40    1.70
  -7   3   2  140.79    4.40
   7  -3  -2  141.69    4.20
   7  -3  -2  143.99    4.30
  -7   3   2  141.89    4.50
  -7   3   2  141.09    4.30
   7  -3  -2  151.38    4.50
  -7   3   1    0.20    0.60
   7  -3  -1   -0.10    0.60
   7  -3  -1   -0.20    0.70
  -7   3   1    1.20    0.70
  -7   3   1    0.20    0.60
   7  -3  -1    0.30    0.70
  -7   3   0   70.49    3.20
   7  -3   0   75.59    3.20
   7  -3   0   73.89    3.10
  -7   3   0   74.79    3.30
   7  -3   0   76.49    3.20
  -7   3  -1   14.10    1.50
   7  -3   1   12.90    1.40
   7  -3   1   14.90    1.50
  -7   3  -1   15.20    1.50
   7  -3   1   15.70    1.50
  -7   3  -2    8.80    1.30
   7  -3   2    8.30    1.10
   7  -3   2    8.10    1.20
  -7   3  -2    7.20    1.10
   7  -3   2    8.40    1.20
   7  -3   2    6.80    1.00
  -7   3  -2    7.80    1.00
   7  -3   2    8.30    1.20
  -7   3  -3  288.67    6.30
   7  -3   3  282.47    6.10
   7  -3   3  283.37    5.60
  -7   3  -3  286.47    5.80
   7  -3   3  292.27    6.20
   7  -3   3  274.47    5.30
  -7   3  -3  279.67    5.50
   7  -3   3  286.37    5.90
  -7   3  -4  539.85    8.30
   7  -3   4  533.85    8.00
   7  -3   4  507.05    7.10
  -7   3  -4  512.05    7.10
   7  -3   4  530.55    8.20
  -7   3  -4  501.65    7.20
   7  -3   4  501.15    7.40
  -7   3  -4  527.55    8.10
  -7   3  -5  160.68    4.30
   7  -3   5  157.58    4.20
   7  -3   5  155.88    4.30
  -7   3  -5  159.68    4.20
  -7   3  -6    1.50    0.60
   7  -3   6    1.00    0.60
   7  -3   6    1.50    0.60
  -7   3  -6    0.80    0.30
  -7   3  -6    0.50    0.50
  -7   3  -7    0.70    0.40
   7  -3   7    0.80    0.40
  -7   3  -7    0.60    0.30
  -7   3  -7    0.50    0.40
  -7   3  -8    8.90    0.70
   7  -3   8   10.20    0.80
   7  -2 -14    6.60    0.50
   7  -2 -14    7.70    0.70
  -7   2  14    7.00    0.70
  -7   2  14    7.20    0.70
  -7   2  14    6.20    0.60
   7  -2 -13  142.29    3.10
   7  -2 -13  145.09    3.40
  -7   2  13  140.79    3.50
  -7   2  13  140.69    3.20
  -7   2  13  138.29    3.20
   7  -2 -12  226.88    4.50
   7  -2 -12  230.08    4.80
  -7   2  12  213.98    4.80
  -7   2  12  231.58    4.80
  -7   2  12  233.88    4.80
   7  -2 -11  102.29    3.40
   7  -2 -11   94.79    3.30
  -7   2  11   90.39    3.40
  -7   2  11   98.79    3.50
  -7   2  11  102.69    3.60
   7  -2 -11   99.89    2.90
   7  -2 -10    0.90    0.60
   7  -2 -10    2.40    0.90
  -7   2  10    0.90    0.70
  -7   2  10    1.90    0.80
  -7   2  10    1.30    0.70
  -7   2  10    1.40    0.50
   7  -2 -10    1.20    0.60
   7  -2  -9    2.50    0.80
   7  -2  -9    2.80    0.80
  -7   2   9    3.10    0.90
  -7   2   9    3.70    1.00
  -7   2   9    1.90    0.60
   7  -2  -9    2.60    0.80
   7  -2  -8    5.20    1.00
   7  -2  -8    4.10    0.80
  -7   2   8    3.90    0.90
  -7   2   8    5.10    1.10
  -7   2   8    4.40    0.90
   7  -2  -8    4.10    0.90
   7  -2  -7   30.30    1.90
   7  -2  -7   33.70    2.20
  -7   2   7   30.90    2.00
  -7   2   7   34.20    2.20
  -7   2   7   33.40    2.40
  -7   2   7   33.70    2.20
   7  -2  -7   30.60    2.10
   7  -2  -6    1.40    0.60
   7  -2  -6    1.00    0.50
  -7   2   6    1.50    0.70
  -7   2   6    1.40    0.80
  -7   2   6    1.90    0.80
   7  -2  -6    1.10    0.60
   7  -2  -5   91.29    3.50
   7  -2  -5   91.39    3.40
   7  -2  -5   86.89    3.20
  -7   2   5   91.59    3.40
  -7   2   5   97.09    3.80
  -7   2   5   89.59    3.60
   7  -2  -5   95.69    3.60
   7  -2  -4   24.90    1.80
  -7   2   4   24.60    1.90
   7  -2  -4   24.20    1.80
   7  -2  -4   23.50    1.70
  -7   2   4   24.70    1.80
  -7   2   4   27.00    2.00
  -7   2   4   25.30    1.90
   7  -2  -4   24.50    1.90
   7  -2  -3   57.09    2.80
  -7   2   3   58.89    2.90
   7  -2  -3   57.79    2.70
   7  -2  -3   57.79    2.70
  -7   2   3   57.49    2.70
  -7   2   3   54.59    2.80
   7  -2  -3   57.19    2.70
  -7   2   2   47.20    2.60
   7  -2  -2   47.60    2.50
   7  -2  -2   48.90    2.50
  -7   2   2   49.70    2.50
   7  -2  -2   48.70    2.60
  -7   2   1   59.69    3.00
   7  -2  -1   60.99    2.90
   7  -2  -1   59.79    2.80
   7  -2  -1   59.99    2.80
  -7   2   0    0.10    0.60
   7  -2   0   -0.10    0.50
   7  -2   0   -0.10    0.70
  -7   2   0    0.20    0.60
   7  -2   0    1.00    0.60
   7  -2   0    0.30    0.60
  -7   2  -1   14.00    1.50
   7  -2   1   15.50    1.60
   7  -2   1   14.50    1.50
   7  -2   1   14.60    1.30
  -7   2  -1   13.90    1.60
   7  -2   1   14.70    1.40
   7  -2   1   14.60    1.40
  -7   2  -2   18.10    1.70
   7  -2   2   19.80    1.70
   7  -2   2   18.30    1.40
  -7   2  -2   18.10    1.60
   7  -2   2   17.20    1.50
   7  -2   2   18.20    1.50
  -7   2  -2   20.60    1.80
  -7   2  -3    8.10    1.20
   7  -2   3    9.10    1.30
  -7   2  -3    7.40    1.10
   7  -2   3    9.10    1.20
   7  -2   3    7.20    1.10
  -7   2  -3    7.50    1.10
   7  -2   3    7.50    1.00
  -7   2  -4   32.10    2.10
   7  -2   4   31.50    2.10
   7  -2   4   27.70    1.60
  -7   2  -4   27.20    1.80
   7  -2   4   30.40    2.10
   7  -2   4   27.10    1.80
  -7   2  -4   31.10    2.00
  -7   2  -5    8.90    1.20
   7  -2   5    7.90    1.10
   7  -2   5    8.30    0.90
   7  -2   5    9.10    1.20
  -7   2  -5    7.90    1.10
  -7   2  -6   16.80    1.40
   7  -2   6   18.60    1.40
   7  -2   6   14.80    1.10
   7  -2   6   16.00    1.30
  -7   2  -6   17.60    1.40
  -7   2  -7  180.58    3.70
   7  -2   7  179.48    3.60
   7  -2   7  168.98    3.10
  -7   2  -7  179.18    3.70
  -7   2  -8  274.27    3.70
   7  -2   8  292.37    3.80
   7  -1 -15   23.90    1.00
  -7   1  15   21.40    1.10
   7  -1 -14   14.60    1.00
   7  -1 -14   15.10    1.00
  -7   1  14   15.60    1.20
  -7   1  14   13.60    0.80
   7  -1 -13    1.20    0.50
   7  -1 -13    2.20    0.60
  -7   1  13    1.50    0.70
  -7   1  13    1.50    0.50
  -7   1  13    1.50    0.50
   7  -1 -13    1.80    0.50
   7  -1 -12   30.60    1.90
   7  -1 -12   30.20    1.80
  -7   1  12   29.80    2.00
  -7   1  12   28.40    1.70
  -7   1  12   28.40    1.70
   7  -1 -12   30.70    1.60
   7  -1 -11    1.10    0.70
   7  -1 -11    1.80    0.70
  -7   1  11    0.40    0.70
  -7   1  11    2.40    0.80
  -7   1  11    1.00    0.60
   7  -1 -11    0.60    0.50
   7  -1 -11    0.50    0.70
   7  -1 -10   24.40    2.00
   7  -1 -10   27.20    1.90
  -7   1  10   26.30    2.00
  -7   1  10   27.40    2.00
  -7   1  10   27.20    2.10
   7  -1 -10   26.20    1.90
   7  -1 -10   26.50    2.00
   7  -1  -9  447.66    8.10
   7  -1  -9  436.76    7.10
  -7   1   9  446.56    7.90
  -7   1   9  431.76    7.90
  -7   1   9  457.75    8.50
  -7   1   9  431.36    6.80
   7  -1  -9  442.26    7.90
   7  -1  -9  442.06    7.70
   7  -1  -8  370.46    6.40
   7  -1  -8  396.96    7.50
  -7   1   8  380.26    7.20
  -7   1   8  385.06    7.50
  -7   1   8  401.06    8.10
  -7   1   8  377.06    6.80
   7  -1  -8  391.06    7.50
   7  -1  -7   27.50    2.00
  -7   1   7   26.20    1.90
  -7   1   7   24.20    1.90
  -7   1   7   24.80    1.90
  -7   1   7   28.20    2.20
  -7   1   7   25.60    1.90
   7  -1  -7   28.30    2.10
   7  -1  -6   10.70    1.30
  -7   1   6    9.30    1.20
  -7   1   6    9.70    1.30
  -7   1   6    9.40    1.30
  -7   1   6    8.40    1.20
   7  -1  -6   10.90    1.30
   7  -1  -5    1.70    0.60
  -7   1   5    0.60    0.60
  -7   1   5    1.60    0.70
  -7   1   5    2.30    0.80
   7  -1  -5    1.60    0.70
   7  -1  -4    6.40    1.00
  -7   1   4    6.50    1.20
  -7   1   4    7.80    1.10
   7  -1  -4    7.10    1.10
   7  -1  -3    2.50    0.60
  -7   1   3    4.10    1.00
   7  -1  -3    5.10    0.90
  -7   1   3    2.60    0.80
  -7   1   3    3.40    0.80
   7  -1  -3    0.80    0.70
   7  -1  -2   52.69    2.50
  -7   1   2   53.69    2.90
   7  -1  -2   54.59    2.70
   7  -1  -2   53.89    2.60
  -7   1   2   55.79    3.00
  -7   1   2   54.09    2.60
   7  -1  -2   56.79    2.70
  -7   1   1    6.40    1.10
   7  -1  -1    6.70    1.00
   7  -1  -1    6.40    1.10
  -7   1   1    8.20    1.20
  -7   1   1    8.30    1.10
  -7   1   1    7.80    1.20
   7  -1  -1    7.20    1.00
  -7   1   0   76.49    3.40
   7  -1   0   83.89    3.30
   7  -1   0   81.69    3.30
  -7   1   0   77.79    3.00
  -7   1   0   76.99    3.40
  -7   1   0   78.89    3.40
   7  -1   0   83.29    3.10
  -7   1  -1  202.98    5.50
   7  -1   1  214.78    5.30
   7  -1   1  213.38    5.30
   7  -1   1  202.88    5.00
  -7   1  -1  198.58    4.90
  -7   1  -1  198.08    5.40
   7  -1   1  206.78    5.10
  -7   1  -1  202.88    5.40
   7  -1   1  207.28    4.70
  -7   1  -2   90.69    3.70
   7  -1   2   95.79    3.60
   7  -1   2   87.09    3.30
  -7   1  -2   87.49    3.30
  -7   1  -2   96.79    3.70
   7  -1   2   92.99    3.40
  -7   1  -2   90.49    3.60
  -7   1  -3   15.60    1.60
   7  -1   3   15.40    1.50
   7  -1   3   14.80    1.40
  -7   1  -3   14.80    1.50
  -7   1  -3   15.40    1.40
   7  -1   3   15.20    1.50
   7  -1   3   13.80    1.50
  -7   1  -3   14.90    1.50
  -7   1  -4    5.20    1.00
   7  -1   4    7.20    1.10
   7  -1   4    7.40    1.00
  -7   1  -4    7.10    1.00
  -7   1  -4    6.00    0.90
   7  -1   4    5.40    1.00
   7  -1   4    7.30    1.10
  -7   1  -4    6.50    1.00
  -7   1  -5    9.80    1.20
   7  -1   5    9.70    1.10
   7  -1   5    9.90    1.10
  -7   1  -5    7.80    0.90
   7  -1   5    7.10    1.00
   7  -1   5   10.30    1.20
  -7   1  -5    9.00    1.10
  -7   1  -6    2.40    0.70
   7  -1   6    2.60    0.60
   7  -1   6    3.10    0.70
   7  -1   6    2.30    0.60
  -7   1  -6    2.10    0.60
  -7   1  -7  162.28    3.50
   7  -1   7  158.18    3.10
   7  -1   7  159.48    3.20
  -7   1  -8   11.30    0.80
   7  -1   8   12.90    0.80
   7   0 -15   31.60    1.30
   7   0 -15   29.80    1.20
  -7   0  15   31.70    1.40
   7   0 -14   58.49    2.10
   7   0 -14   57.49    1.90
  -7   0  14   59.99    2.30
   7   0 -14   54.49    1.70
   7   0 -13    5.30    0.80
   7   0 -13    4.20    0.70
  -7   0  13    5.10    1.00
  -7   0  13    5.10    0.70
  -7   0  13    4.80    0.70
   7   0 -13    6.10    0.70
   7   0 -13    4.70    0.80
   7   0 -12    0.30    0.60
   7   0 -12    0.50    0.50
  -7   0  12   -0.10    0.70
  -7   0  12    0.20    0.40
  -7   0  12   -0.10    0.40
   7   0 -12    0.10    0.50
   7   0 -12    1.10    0.60
   7   0 -11    0.30    0.60
   7   0 -11    0.30    0.50
  -7   0  11    0.50    0.70
  -7   0  11    0.10    0.50
  -7   0  11    0.70    0.50
  -7   0  11    0.00    0.50
   7   0 -11    0.80    0.60
   7   0 -11    1.00    0.70
   7   0 -10    5.70    1.10
   7   0 -10    5.60    0.80
  -7   0  10    5.80    1.20
  -7   0  10    5.60    1.00
  -7   0  10    7.00    1.00
  -7   0  10    5.90    1.10
   7   0 -10    4.90    1.00
   7   0  -9   48.60    2.70
  -7   0   9   46.60    2.70
  -7   0   9   43.10    2.50
  -7   0   9   44.80    2.40
  -7   0   9   43.10    2.60
   7   0  -9   44.40    2.40
   7   0  -8  122.69    4.10
  -7   0   8  118.89    4.10
  -7   0   8  117.29    3.80
  -7   0   8  124.09    4.40
   7   0  -8  124.49    4.30
   7   0  -8  122.39    3.80
   7   0  -7    0.80    0.70
  -7   0   7   -0.20    0.70
  -7   0   7    0.20    0.40
  -7   0   7    0.10    0.60
  -7   0   7    0.10    0.60
   7   0  -7    0.40    0.60
   7   0  -6   15.20    1.50
  -7   0   6   13.30    1.30
  -7   0   6   13.90    1.50
  -7   0   6   15.90    1.60
   7   0  -6   17.60    1.60
   7   0  -5  236.58    5.30
  -7   0   5  241.78    5.40
  -7   0   5  239.68    6.20
  -7   0   5  244.28    5.90
   7   0  -5  243.48    5.60
   7   0  -4  330.87    6.20
  -7   0   4  326.27    6.30
  -7   0   4  338.07    7.50
  -7   0   4  335.17    6.80
   7   0  -4  334.27    6.40
   7   0  -3   18.10    1.40
   7   0  -3   20.80    1.70
  -7   0   3   17.90    1.80
  -7   0   3   20.00    1.70
   7   0  -3   18.20    1.50
  -7   0   2    0.50    0.60
   7   0  -2    1.20    0.50
  -7   0   2    0.30    0.70
  -7   0   2    0.40    0.50
   7   0  -2    0.00    0.50
  -7   0   1    1.70    0.70
   7   0  -1    1.70    0.70
   7   0  -1    1.80    0.70
  -7   0   1    0.90    0.60
  -7   0   1    1.70    0.80
  -7   0   1    1.60    0.70
  -7   0   1    1.20    0.70
   7   0  -1    1.20    0.60
  -7   0   0    3.90    0.90
   7   0   0    4.30    1.00
   7   0   0    5.10    1.00
  -7   0   0    3.40    0.80
  -7   0   0    4.50    1.00
  -7   0   0    4.40    0.80
  -7   0   0    3.80    0.90
  -7   0  -1    0.70    0.70
   7   0   1    1.10    0.70
   7   0   1    0.00    0.60
  -7   0  -1   -0.50    0.60
  -7   0  -1   -1.30    0.90
  -7   0  -1   -0.30    0.60
  -7   0  -2    6.20    1.10
   7   0   2    6.60    1.10
   7   0   2    6.20    1.10
  -7   0  -2    5.50    1.00
  -7   0  -2    5.50    1.10
   7   0   2    5.50    1.00
  -7   0  -2    4.90    1.00
  -7   0  -3   60.69    2.90
   7   0   3   59.69    2.70
   7   0   3   60.19    2.80
  -7   0  -3   55.79    2.80
  -7   0  -3   59.69    2.80
   7   0   3   59.19    2.60
   7   0   3   58.79    2.70
  -7   0  -3   57.59    2.70
  -7   0  -4  121.79    3.90
   7   0   4  112.79    3.50
   7   0   4  118.79    3.70
  -7   0  -4  115.89    3.60
  -7   0  -4  115.19    3.70
   7   0   4  110.59    3.40
   7   0   4  113.39    3.70
  -7   0  -4  120.69    3.70
  -7   0  -5  353.66    6.10
   7   0   5  334.47    5.50
   7   0   5  346.67    5.80
  -7   0  -5  320.07    5.20
  -7   0  -5  334.07    5.80
   7   0   5  323.07    5.10
   7   0   5  342.57    5.90
   7   0   5  340.17    5.20
  -7   0  -6   71.19    2.50
   7   0   6   68.19    2.20
   7   0   6   72.89    2.40
   7   0   6   66.59    2.00
  -7   0  -7    3.30    0.60
   7   0   7    3.50    0.60
   7   0   7    3.00    0.40
  -7   0  -8    8.10    0.60
   7   0   8    9.00    0.70
   7   1 -15   10.30    0.80
   7   1 -15    9.80    0.60
  -7  -1  15    7.60    0.60
   7   1 -15    9.10    0.60
   7   1 -14    2.90    0.60
   7   1 -14    2.90    0.50
  -7  -1  14    2.90    0.60
  -7  -1  14    2.00    0.50
   7   1 -14    3.60    0.60
   7   1 -14    2.10    0.50
   7   1 -13   16.00    1.30
   7   1 -13   13.70    1.10
  -7  -1  13   16.80    1.50
  -7  -1  13   14.50    1.20
  -7  -1  13   16.00    1.10
   7   1 -13   17.00    1.20
   7   1 -13   15.80    1.30
   7   1 -12  112.79    3.70
   7   1 -12  100.79    3.00
  -7  -1  12  108.69    3.80
  -7  -1  12  102.29    3.40
  -7  -1  12  111.39    3.20
   7   1 -12  110.79    3.50
   7   1 -11  312.87    6.50
  -7  -1  11  327.87    6.80
  -7  -1  11  316.17    6.30
  -7  -1  11  318.37    6.10
   7   1 -11  310.07    6.10
   7   1 -10   70.99    3.20
  -7  -1  10   72.89    3.30
  -7  -1  10   73.89    3.10
  -7  -1  10   71.89    3.10
   7   1 -10   69.49    2.90
   7   1  -9    0.40    0.60
  -7  -1   9    1.40    0.80
  -7  -1   9    0.30    0.50
  -7  -1   9    1.30    0.60
   7   1  -9    0.70    0.50
   7   1  -8    0.20    0.50
  -7  -1   8    0.00    0.50
  -7  -1   8    0.20    0.60
   7   1  -7   57.29    2.60
  -7  -1   7   52.59    2.70
  -7  -1   7   57.39    2.70
  -7  -1   7   57.09    3.00
   7   1  -6  151.78    4.10
  -7  -1   6  153.28    4.90
  -7  -1   6  151.38    4.40
  -7  -1   6  158.08    4.90
   7   1  -6  159.78    4.60
   7   1  -5  319.67    5.80
  -7  -1   5  315.87    7.30
  -7  -1   5  309.67    6.30
  -7  -1   5  310.37    6.80
   7   1  -5  325.57    6.30
  -7  -1   4  160.88    5.30
  -7  -1   4  152.78    4.40
  -7  -1   4  149.59    4.70
   7   1  -4  158.98    4.30
  -7  -1   3    1.00    0.70
  -7  -1   3    2.20    0.80
   7   1  -3    0.90    0.50
   7   1  -2  133.99    4.10
  -7  -1   2  134.09    4.80
  -7  -1   2  131.49    4.30
  -7  -1   1    7.50    1.10
   7   1  -1    7.70    1.10
   7   1  -1    8.40    1.10
  -7  -1   1    7.90    1.30
  -7  -1   1    8.10    1.20
  -7  -1   1    7.20    1.10
  -7  -1   0  130.09    4.30
   7   1   0  129.89    3.90
   7   1   0  130.79    4.00
  -7  -1   0  127.09    4.60
  -7  -1   0  131.19    4.00
  -7  -1   0  126.99    4.00
  -7  -1   0  133.19    4.20
  -7  -1  -1   14.80    1.50
   7   1   1   14.00    1.30
   7   1   1   14.50    1.40
  -7  -1  -1   14.70    1.60
  -7  -1  -1   15.90    1.60
  -7  -1  -2   30.30    2.00
   7   1   2   31.30    1.90
  -7  -1  -2   30.40    2.20
  -7  -1  -2   32.20    2.10
   7   1   2   33.80    2.10
  -7  -1  -3   98.89    3.50
   7   1   3   96.09    3.10
   7   1   3  101.09    3.60
  -7  -1  -3   89.79    3.40
  -7  -1  -3  100.99    3.60
   7   1   3   89.69    3.30
  -7  -1  -4  209.58    4.80
   7   1   4  192.28    4.10
   7   1   4  210.58    4.80
  -7  -1  -4  195.58    4.50
  -7  -1  -4  198.28    4.70
   7   1   4  204.78    4.70
  -7  -1  -5   19.00    1.40
   7   1   5   18.30    1.10
   7   1   5   22.30    1.50
  -7  -1  -5   18.70    1.50
   7   1   5   19.70    1.40
   7   1   5   21.00    1.40
  -7  -1  -6    2.10    0.60
   7   1   6    1.50    0.50
   7   1   6    2.10    0.50
  -7  -1  -7   21.80    1.10
   7   1   7   22.00    1.10
   7   1   7   22.50    0.90
   7   1   7   21.40    1.00
   7   2 -15   24.60    1.10
  -7  -2  15   24.10    1.10
   7   2 -15   24.00    1.00
   7   2 -15   23.40    1.10
   7   2 -14    0.10    0.40
  -7  -2  14    0.20    0.40
   7   2 -14    0.20    0.40
   7   2 -13   37.40    1.90
  -7  -2  13   40.30    2.00
   7   2 -13   36.40    1.70
   7   2 -12   76.29    2.90
  -7  -2  12   83.49    3.10
  -7  -2  12   80.39    2.60
   7   2 -12   75.99    2.70
   7   2 -11   36.10    2.20
  -7  -2  11   38.20    2.20
  -7  -2  11   36.40    2.00
   7   2 -11   33.10    1.90
   7   2 -10   -0.20    0.60
  -7  -2  10    0.90    0.60
  -7  -2  10    0.00    0.60
   7   2 -10    0.20    0.40
   7   2  -9    1.90    0.60
  -7  -2   9    3.10    0.80
  -7  -2   9    4.00    0.90
   7   2  -8   94.19    3.20
  -7  -2   8   90.19    3.40
  -7  -2   8   97.69    3.90
   7   2  -7  212.38    4.60
  -7  -2   7  213.88    5.30
  -7  -2   7  227.98    5.90
  -7  -2   6   52.79    2.90
  -7  -2   6   54.09    2.70
  -7  -2   6   56.89    3.00
  -7  -2   5   11.20    1.50
  -7  -2   5   10.90    1.30
  -7  -2   5   10.70    1.40
   7   2  -5   11.50    1.20
  -7  -2   4    4.60    1.10
  -7  -2   4    5.20    1.00
   7   2  -4    5.60    0.80
   7   2  -3    0.70    0.50
  -7  -2   3    2.10    0.90
  -7  -2   3    1.50    0.80
   7   2  -2  235.88    5.00
  -7  -2   2  248.48    6.50
  -7  -2   2  238.88    5.80
  -7  -2   1  309.97    6.20
   7   2  -1  302.37    5.60
   7   2  -1  307.77    5.90
  -7  -2   1  304.27    7.10
  -7  -2   1  314.07    6.20
  -7  -2   1  297.67    6.40
  -7  -2   0   96.79    3.50
   7   2   0   92.29    3.00
   7   2   0   96.99    3.20
  -7  -2   0   96.29    3.90
  -7  -2   0  101.39    3.60
  -7  -2  -1   24.90    1.80
   7   2   1   23.50    1.60
  -7  -2  -1   23.00    1.90
  -7  -2  -1   24.10    1.80
   7   2   1   24.60    1.70
  -7  -2  -2   64.19    2.70
   7   2   2   62.59    2.40
  -7  -2  -2   61.49    2.90
  -7  -2  -2   63.99    2.80
   7   2   2   61.19    2.60
  -7  -2  -3    1.80    0.70
   7   2   3    1.50    0.50
   7   2   3    1.60    0.80
  -7  -2  -3    0.60    0.70
  -7  -2  -3    1.40    0.60
   7   2   3    1.60    0.70
  -7  -2  -4    1.70    0.60
   7   2   4    1.10    0.60
  -7  -2  -4    0.70    0.60
   7   2   4    0.90    0.50
  -7  -2  -5   10.90    1.00
   7   2   5   12.10    0.80
   7   2   5   12.50    1.00
  -7  -2  -5   12.00    1.00
   7   2   5   12.70    1.00
  -7  -2  -6   22.70    1.20
   7   2   6   24.80    1.20
   7   2   6   25.60    1.10
   7   3 -15    3.70    0.40
  -7  -3  15    4.20    0.50
   7   3 -15    4.70    0.50
   7   3 -14    9.40    0.80
  -7  -3  14   10.00    0.90
   7   3 -14    9.20    0.70
   7   3 -13   -0.30    0.40
  -7  -3  13    0.10    0.40
   7   3 -13   -0.20    0.30
   7   3 -12   -0.20    0.40
  -7  -3  12   -0.10    0.50
   7   3 -12    0.10    0.40
   7   3 -11    1.20    0.50
  -7  -3  11    1.90    0.70
  -7  -3  11    2.10    0.60
   7   3 -10   -0.40    0.50
  -7  -3  10    0.50    0.60
   7   3  -9  202.88    4.30
  -7  -3   9  213.48    5.10
  -7  -3   9  218.58    5.40
  -7  -3   8  317.57    6.20
  -7  -3   8  308.07    6.70
  -7  -3   7  195.28    4.90
  -7  -3   7  191.98    5.40
  -7  -3   6   79.39    3.30
  -7  -3   6   77.19    3.10
  -7  -3   6   76.89    3.50
   7   3  -6   77.39    2.80
  -7  -3   5   39.20    2.50
  -7  -3   5   39.70    2.50
   7   3  -4    7.20    0.90
  -7  -3   4    6.10    1.20
  -7  -3   4    8.70    1.30
   7   3  -3   16.90    1.30
  -7  -3   3   16.70    1.70
  -7  -3   3   21.10    1.80
  -7  -3   2   21.50    2.00
   7   3  -1   33.30    1.80
  -7  -3   1   33.00    2.30
  -7  -3   1   33.10    2.00
  -7  -3   0   13.80    1.30
   7   3   0   13.30    1.10
  -7  -3   0   15.10    1.60
  -7  -3   0   13.50    1.40
  -7  -3  -1   27.80    1.70
   7   3   1   27.90    1.50
  -7  -3  -1   28.40    2.00
  -7  -3  -1   29.20    1.90
   7   3   1   28.50    1.70
  -7  -3  -2    3.30    0.70
   7   3   2    2.50    0.90
  -7  -3  -2    2.30    0.70
   7   3   2    2.60    0.70
  -7  -3  -3   43.00    1.90
   7   3   3   43.40    2.00
  -7  -3  -3   41.90    2.00
   7   3   3   39.60    1.80
  -7  -3  -4    7.00    0.80
   7   3   4    6.80    0.70
   7   3   4    6.70    0.80
  -7  -3  -4    6.90    0.80
   7   3   4    6.90    0.80
  -7  -3  -5   40.80    1.40
   7   3   5   42.80    1.40
  -7  -4  14   14.00    0.90
   7   4 -13   15.00    0.90
  -7  -4  13   19.40    1.20
   7   4 -12   22.00    1.10
  -7  -4  12   25.20    1.50
  -7  -4  11   20.40    1.40
  -7  -4  10   50.39    2.30
  -7  -4  10   47.00    2.10
  -7  -4   9   20.80    1.50
  -7  -4   9   20.20    1.50
  -7  -4   8   50.59    2.40
  -7  -4   8   49.20    2.60
  -7  -4   7    5.70    0.90
  -7  -4   7    6.50    1.10
   7   4  -7    6.30    0.80
  -7  -4   6    1.50    0.70
  -7  -4   5  319.27    6.40
  -7  -4   4  263.17    4.50
  -7  -4   4  275.97    6.20
  -7  -4   3  128.09    4.30
   7   4  -2    1.30    0.50
  -7  -4   2    3.50    0.90
  -7  -4   2    2.30    0.70
  -7  -4   1    0.30    0.50
  -7  -4   0    3.70    0.80
   7   4   0    2.30    0.60
  -7  -4  -1   47.10    2.10
   7   4   1   46.00    1.80
   7   4   2   12.40    1.00
  -7  -4  -2   13.60    1.10
   7   4   2   12.60    0.80
  -7  -4  -3    1.10    0.40
   7   4   3    0.80    0.40
  -7  -4  -3    0.80    0.40
   7   4   3    0.20    0.40
  -7  -4  -4   48.80    1.40
   7   4   4   56.29    1.50
  -7  -5  13    6.10    0.50
  -7  -5  12   15.10    0.90
  -7  -5  12   12.60    0.90
  -7  -5  11   91.69    2.50
  -7  -5  10    0.10    0.40
   7   5  -9    2.10    0.50
  -7  -5   8    3.40    0.70
  -7  -5   7    1.90    0.60
  -7  -5   6    2.50    0.50
  -7  -5   5   63.79    2.10
  -7  -5   4   42.30    1.60
  -7  -5   4   45.70    1.90
  -7  -5   3   17.70    1.20
  -7  -5   2    7.60    0.90
   7   5  -2    5.80    0.60
  -7  -5   1   68.49    2.30
   7   5   0  133.29    3.00
  -7  -5   0  127.79    2.90
  -7  -5  -1   35.50    1.30
   7   5   1   34.80    1.30
  -7  -5  -1   34.40    1.30
  -7  -6  10    6.10    0.60
  -7  -6   9    4.10    0.60
  -7  -6   8   38.40    1.50
  -7  -6   8   38.80    1.40
  -7  -6   7  120.49    2.40
  -7  -6   7  125.09    2.50
  -7  -6   6   79.19    2.00
  -7  -6   6   84.59    2.30
  -7  -6   6   82.09    2.10
  -7  -6   5   17.40    0.90
  -7  -6   5   18.00    1.00
  -7  -6   4    9.60    0.90
  -7  -6   4    6.90    0.60
  -7  -6   3   19.40    1.20
  -7  -6   2   66.09    1.90
   7   6  -2   52.29    1.50
  -7  -6   1  251.57    3.20
   8  -7  -3   14.20    1.00
  -8   7   2   11.00    0.90
   8  -7  -2    9.40    0.80
  -8   7   2   10.30    0.80
  -8   7   1    0.40    0.40
   8  -7  -1    0.00    0.40
  -8   7   0    3.30    0.60
  -8   6   7   23.50    1.20
   8  -6  -7   22.10    1.20
   8  -6  -6    0.90    0.50
   8  -6  -6    0.20    0.40
  -8   6   6    0.60    0.50
  -8   6   5   12.10    0.90
   8  -6  -5   11.40    0.90
  -8   6   5   13.80    1.10
   8  -6  -5   10.00    0.90
   8  -6  -5   13.20    1.00
  -8   6   4  118.69    3.00
   8  -6  -4  127.19    3.10
  -8   6   4  128.59    3.10
   8  -6  -4  119.69    3.00
   8  -6  -4  118.49    2.90
  -8   6   3   80.79    2.60
   8  -6  -3   81.99    2.50
   8  -6  -3   76.69    2.60
  -8   6   2   18.50    1.30
   8  -6  -2   16.50    1.20
   8  -6  -2   16.20    1.30
   8  -6  -2   13.80    1.00
  -8   6   1   13.00    1.10
   8  -6  -1   13.50    1.10
  -8   6   1   11.90    1.00
   8  -6  -1   11.50    1.20
  -8   6   0   -0.10    0.50
   8  -6   0    0.10    0.50
   8  -6   0    1.30    0.50
  -8   6   0    0.20    0.30
   8  -6   0    0.30    0.50
  -8   6  -1    7.00    0.80
   8  -6   1    7.40    0.90
   8  -6   1    4.30    0.50
  -8   6  -1    7.20    0.70
   8  -6   1    7.60    0.90
  -8   6  -2    3.50    0.60
  -8   6  -2    2.20    0.60
   8  -6   2    3.20    0.70
  -8   6  -3   -0.10    0.40
  -8   6  -3    0.20    0.40
   8  -6   3    0.60    0.50
  -8   5  10   26.10    1.10
   8  -5 -10   28.70    1.20
   8  -5  -9    0.10    0.40
  -8   5   9    0.90    0.40
  -8   5   9    0.90    0.50
   8  -5  -8    5.90    0.80
  -8   5   8    7.00    0.80
  -8   5   8    4.70    0.70
  -8   5   7   12.30    1.10
  -8   5   7   11.70    1.10
   8  -5  -7   11.00    0.90
   8  -5  -7   10.80    1.00
  -8   5   6   68.29    2.30
  -8   5   6   70.19    2.60
   8  -5  -6   68.39    2.40
   8  -5  -6   67.99    2.40
   8  -5  -5    1.70    0.50
  -8   5   5    3.00    0.60
  -8   5   5    2.20    0.50
  -8   5   5    1.90    0.70
   8  -5  -5    0.90    0.50
   8  -5  -4    0.60    0.40
  -8   5   4    0.30    0.50
   8  -5  -4   -0.20    0.50
  -8   5   4    1.10    0.60
   8  -5  -4   -0.50    0.70
  -8   5   3   12.50    1.20
   8  -5  -3   11.10    1.10
   8  -5  -3   10.50    1.20
   8  -5  -3    8.60    0.90
   8  -5  -2    5.00    0.70
  -8   5   2    6.90    1.00
   8  -5  -2    6.90    1.00
   8  -5  -2    6.60    1.00
  -8   5   1    1.10    0.60
   8  -5  -1    2.30    0.70
  -8   5   1    1.90    0.60
   8  -5  -1    2.00    0.60
   8  -5  -1    2.60    0.80
  -8   5   0   96.19    3.10
   8  -5   0   98.19    3.00
  -8   5   0   88.79    2.80
   8  -5   0   90.19    2.70
   8  -5   0   95.89    3.10
  -8   5  -1   89.39    2.90
   8  -5   1   90.49    2.80
  -8   5  -1   88.09    2.60
   8  -5   1   91.49    2.70
   8  -5   1   89.89    3.00
  -8   5  -2    0.30    0.50
   8  -5   2   -0.20    0.60
   8  -5   2    1.70    0.50
  -8   5  -2    0.50    0.40
   8  -5   2    1.30    0.50
  -8   5  -2    0.70    0.50
   8  -5   2    0.70    0.50
  -8   5  -3   10.90    1.00
   8  -5   3   10.20    0.80
   8  -5   3    9.30    0.90
  -8   5  -3   10.20    0.90
  -8   5  -4    2.10    0.50
   8  -5   4    1.90    0.50
  -8   5  -4    2.50    0.50
   8  -5   4    1.90    0.50
  -8   5  -5    0.10    0.30
   8  -4 -11    0.00    0.40
  -8   4  11    0.10    0.40
   8  -4 -10    5.90    0.70
  -8   4  10    4.80    0.70
   8  -4  -9    0.00    0.50
  -8   4   9    0.50    0.50
  -8   4   9    0.30    0.40
  -8   4   9    0.30    0.50
   8  -4  -9    0.00    0.30
  -8   4   8   62.29    2.40
  -8   4   8   63.39    2.60
  -8   4   8   63.49    2.40
   8  -4  -8   62.89    2.20
   8  -4  -8   62.89    2.40
  -8   4   7  356.66    6.20
  -8   4   7  341.17    6.00
   8  -4  -7  343.67    5.70
   8  -4  -7  342.37    5.60
  -8   4   6  230.88    4.90
  -8   4   6  242.68    5.30
   8  -4  -6  227.08    5.00
   8  -4  -6  223.48    4.60
  -8   4   5   50.49    2.20
  -8   4   5   47.90    2.20
  -8   4   5   54.29    2.60
   8  -4  -5   53.29    2.50
   8  -4  -5   49.60    2.10
   8  -4  -4    0.40    0.40
  -8   4   4    0.10    0.60
  -8   4   4    0.50    0.70
  -8   4   4    0.70    0.40
   8  -4  -4    0.20    0.70
  -8   4   3    2.70    0.70
   8  -4  -3    0.70    0.70
  -8   4   2   15.00    1.40
   8  -4  -2   15.20    1.30
   8  -4  -2   14.70    1.40
  -8   4   1   32.10    2.00
   8  -4  -1   31.30    1.80
   8  -4  -1   35.50    2.00
  -8   4   1   32.20    2.00
   8  -4  -1   30.80    1.80
   8  -4  -1   33.60    2.00
  -8   4   0    5.50    1.00
   8  -4   0    7.00    1.00
   8  -4   0    4.80    0.90
  -8   4   0    5.90    1.00
   8  -4   0    6.00    0.90
   8  -4   0    6.70    1.00
  -8   4  -1   11.40    1.20
   8  -4   1   11.50    1.10
   8  -4   1   10.70    1.10
  -8   4  -1   12.10    1.10
   8  -4   1   13.70    1.30
   8  -4   1   12.70    1.30
  -8   4  -1   12.10    1.20
  -8   4  -2   20.00    1.50
   8  -4   2   21.20    1.40
   8  -4   2   19.60    1.40
  -8   4  -2   21.40    1.40
   8  -4   2   21.50    1.50
   8  -4   2   19.50    1.50
  -8   4  -2   20.20    1.40
  -8   4  -3   26.10    1.60
   8  -4   3   26.00    1.50
   8  -4   3   25.60    1.50
   8  -4   3   24.00    1.40
  -8   4  -3   26.50    1.50
  -8   4  -4   10.20    0.90
   8  -4   4   11.00    0.90
   8  -4   4    8.60    0.80
  -8   4  -4   10.70    0.90
  -8   4  -5    6.60    0.70
   8  -4   5    6.20    0.70
  -8   4  -5    5.60    0.70
  -8   3  12   12.30    0.90
   8  -3 -12   13.50    0.90
  -8   3  11   22.20    1.30
   8  -3 -11   22.50    1.30
   8  -3 -10   21.90    1.40
  -8   3  10   20.60    1.40
  -8   3  10   21.50    1.50
   8  -3 -10   21.00    1.20
   8  -3 -10   19.10    1.30
   8  -3  -9    3.90    0.80
   8  -3  -9    3.50    0.70
  -8   3   9    4.40    0.80
  -8   3   9    5.10    1.00
   8  -3  -9    4.20    0.70
   8  -3  -8   39.90    2.20
  -8   3   8   42.00    2.20
  -8   3   8   37.30    1.90
  -8   3   8   39.60    2.30
  -8   3   8   40.80    2.10
   8  -3  -8   42.10    2.10
   8  -3  -8   39.80    1.90
   8  -3  -7   59.39    2.70
   8  -3  -7   55.89    2.20
  -8   3   7   57.99    2.60
  -8   3   7   58.39    2.70
  -8   3   7   60.19    2.70
   8  -3  -7   62.49    2.70
   8  -3  -7   57.59    2.30
   8  -3  -6   10.60    1.10
  -8   3   6   12.30    1.30
  -8   3   6   14.60    1.50
   8  -3  -6   10.10    1.30
   8  -3  -6    7.90    0.90
   8  -3  -5    3.40    0.70
  -8   3   5    4.70    0.90
   8  -3  -5    4.40    1.00
  -8   3   4    5.60    0.90
   8  -3  -4    3.80    0.80
  -8   3   4    4.50    0.80
   8  -3  -4    4.60    1.00
  -8   3   3  182.08    4.80
   8  -3  -3  181.58    4.40
   8  -3  -3  179.18    4.50
  -8   3   3  188.48    5.10
  -8   3   3  178.98    4.10
   8  -3  -3  191.18    4.70
  -8   3   2  243.28    5.50
   8  -3  -2  250.87    5.30
   8  -3  -2  247.98    5.30
  -8   3   2  249.78    5.70
   8  -3  -2  258.97    5.50
  -8   3   1   16.70    1.50
   8  -3  -1   19.20    1.60
   8  -3  -1   15.40    1.40
  -8   3   1   13.50    1.40
   8  -3  -1   15.90    1.50
  -8   3   1   18.00    1.50
  -8   3   0    0.50    0.60
   8  -3   0    0.40    0.50
   8  -3   0    1.50    0.70
  -8   3   0   -0.60    0.60
   8  -3   0    0.20    0.70
  -8   3   0    0.00    0.50
   8  -3   0    0.90    0.60
  -8   3  -1    0.90    0.60
   8  -3   1    1.30    0.60
   8  -3   1    0.50    0.60
  -8   3  -1    0.80    0.50
   8  -3   1    0.20    0.70
  -8   3  -1    0.30    0.50
   8  -3   1    0.80    0.60
  -8   3  -2    3.60    0.80
   8  -3   2    2.90    0.60
   8  -3   2    2.80    0.70
  -8   3  -2    2.40    0.60
   8  -3   2    3.70    0.90
  -8   3  -2    3.80    0.80
   8  -3   2    1.50    0.60
  -8   3  -3   49.50    2.20
   8  -3   3   50.09    2.20
  -8   3  -3   46.20    1.90
   8  -3   3   48.70    2.20
  -8   3  -3   47.70    2.10
  -8   3  -4   24.50    1.50
   8  -3   4   23.30    1.40
   8  -3   4   24.00    1.50
  -8   3  -4   22.80    1.30
  -8   3  -5    2.50    0.50
   8  -3   5    1.90    0.50
  -8   3  -5    3.00    0.50
  -8   3  -6   21.00    1.00
   8  -3   6   21.00    1.00
   8  -2 -13   17.00    0.80
  -8   2  13   17.10    0.90
   8  -2 -12   81.09    2.20
  -8   2  12   80.69    2.30
   8  -2 -12   79.29    2.20
   8  -2 -11   44.50    2.00
  -8   2  11   42.20    1.90
   8  -2 -11   40.60    1.60
   8  -2 -11   37.80    1.70
   8  -2 -10   43.80    2.20
  -8   2  10   43.70    2.20
   8  -2 -10   43.30    1.90
   8  -2 -10   41.70    1.90
   8  -2  -9   97.59    3.40
   8  -2  -9   98.49    2.90
  -8   2   9   98.89    3.50
   8  -2  -9  101.49    3.30
   8  -2  -9   97.69    3.00
   8  -2  -8    0.10    0.60
   8  -2  -8   -0.70    0.50
   8  -2  -8    0.90    0.60
  -8   2   8    0.00    0.40
  -8   2   8    1.50    0.80
   8  -2  -8    1.00    0.70
   8  -2  -7   37.80    2.20
   8  -2  -7   37.00    2.00
  -8   2   7   35.00    2.10
  -8   2   7   35.70    2.20
   8  -2  -7   36.50    2.20
   8  -2  -6    2.20    0.80
   8  -2  -6    1.20    0.50
  -8   2   6    1.20    0.60
  -8   2   6    1.80    0.70
   8  -2  -6    2.60    0.90
   8  -2  -5    6.90    1.00
   8  -2  -5    7.40    1.00
   8  -2  -5    7.00    1.00
  -8   2   5    7.10    1.20
  -8   2   5    6.90    1.10
   8  -2  -5    7.90    1.10
   8  -2  -4  253.97    5.40
   8  -2  -4  255.67    5.30
  -8   2   4  258.67    6.20
  -8   2   4  252.27    5.30
   8  -2  -4  260.77    5.60
  -8   2   3  165.08    4.60
   8  -2  -3  171.68    4.50
   8  -2  -3  168.28    4.40
  -8   2   3  176.38    5.00
  -8   2   3  171.18    4.20
   8  -2  -3  177.08    4.60
  -8   2   2   29.40    2.10
   8  -2  -2   26.10    1.90
   8  -2  -2   24.20    1.80
  -8   2   2   29.20    2.10
   8  -2  -2   25.80    1.60
   8  -2  -2   28.10    1.90
  -8   2   1   12.90    1.40
   8  -2  -1   14.30    1.40
   8  -2  -1   13.40    1.40
  -8   2   1   13.60    1.50
   8  -2  -1   12.50    1.20
  -8   2   1   13.30    1.40
   8  -2  -1   13.00    1.30
  -8   2   0   11.30    1.30
   8  -2   0   12.70    1.30
   8  -2   0    9.50    1.00
  -8   2   0   10.80    1.30
   8  -2   0    8.40    1.00
  -8   2   0   11.30    1.20
   8  -2   0   11.50    1.20
  -8   2  -1   58.79    2.70
   8  -2   1   61.09    2.60
  -8   2  -1   58.19    2.60
   8  -2   1   64.59    2.70
   8  -2   1   59.29    2.40
   8  -2   1   60.19    2.40
  -8   2  -1   61.19    2.60
  -8   2  -2   20.90    1.60
   8  -2   2   20.30    1.60
  -8   2  -2   18.00    1.40
   8  -2   2   19.90    1.60
   8  -2   2   20.10    1.40
  -8   2  -2   19.60    1.50
  -8   2  -3   -0.10    0.60
   8  -2   3    0.70    0.60
  -8   2  -3    0.60    0.40
   8  -2   3    0.80    0.60
  -8   2  -3    0.10    0.50
  -8   2  -4    0.80    0.50
   8  -2   4    1.60    0.60
   8  -2   4    1.60    0.60
  -8   2  -4    0.50    0.40
  -8   2  -5    0.30    0.40
   8  -2   5    0.20    0.40
  -8   2  -6   19.50    1.00
   8  -2   6   20.20    1.00
   8  -1 -13    7.50    0.70
  -8   1  13    7.60    0.70
   8  -1 -12    1.90    0.50
   8  -1 -12    1.10    0.40
  -8   1  12    0.90    0.40
   8  -1 -12    1.90    0.50
   8  -1 -11    1.10    0.60
   8  -1 -11    0.00    0.40
   8  -1 -11    0.90    0.40
  -8   1  11    0.90    0.50
   8  -1 -11    0.80    0.50
   8  -1 -10    1.60    0.60
   8  -1 -10    2.30    0.60
  -8   1  10    1.70    0.70
   8  -1 -10    3.30    0.80
   8  -1  -9    4.80    1.00
   8  -1  -9    4.90    0.80
  -8   1   9    6.60    1.10
   8  -1  -9    4.20    0.90
   8  -1  -8   60.09    2.70
   8  -1  -8   59.49    2.70
  -8   1   8   60.49    2.50
  -8   1   8   61.19    3.00
   8  -1  -8   60.29    2.80
   8  -1  -7    0.60    0.60
   8  -1  -7    0.20    0.60
   8  -1  -7    0.60    0.60
  -8   1   7    0.20    0.50
  -8   1   7    0.30    0.70
   8  -1  -7    1.40    0.80
   8  -1  -6  100.29    3.40
   8  -1  -6  102.39    3.50
   8  -1  -6   98.99    3.30
  -8   1   6  101.19    3.80
  -8   1   6  101.89    3.60
   8  -1  -6  105.89    3.60
   8  -1  -5  145.79    4.00
   8  -1  -5  150.88    4.30
   8  -1  -5  141.09    4.10
  -8   1   5  152.48    4.80
  -8   1   5  145.79    4.30
   8  -1  -5  149.88    4.20
   8  -1  -4    2.60    0.80
   8  -1  -4    2.70    0.80
  -8   1   4    3.10    0.90
  -8   1   4    1.90    0.70
   8  -1  -4    3.80    0.90
   8  -1  -3    9.40    1.20
   8  -1  -3   12.30    1.30
  -8   1   3    9.60    1.40
  -8   1   3   11.90    1.20
   8  -1  -3   11.20    1.20
  -8   1   2    6.70    1.10
   8  -1  -2    8.00    1.10
   8  -1  -2    8.90    1.10
  -8   1   2    7.10    1.20
  -8   1   2    6.20    0.90
   8  -1  -2    6.80    1.00
  -8   1   1   42.00    2.30
   8  -1  -1   45.20    2.40
   8  -1  -1   44.70    2.30
  -8   1   1   43.50    2.50
   8  -1  -1   41.10    2.10
  -8   1   1   40.80    2.20
   8  -1  -1   42.40    2.10
  -8   1   0  296.07    6.00
  -8   1   0  295.97    6.10
   8  -1   0  307.77    5.70
  -8   1   0  297.17    5.80
   8  -1   0  289.47    5.10
  -8   1  -1  316.87    6.00
   8  -1   1  327.77    6.10
  -8   1  -1  311.97    6.10
  -8   1  -1  322.87    5.80
  -8   1  -2    2.70    0.70
   8  -1   2    1.40    0.60
   8  -1   2    2.10    0.60
  -8   1  -2    1.70    0.70
   8  -1   2    1.10    0.60
   8  -1   2    1.90    0.70
  -8   1  -2    1.30    0.60
  -8   1  -3   13.60    1.20
   8  -1   3   14.30    1.30
   8  -1   3   11.70    0.90
  -8   1  -3   13.70    1.10
   8  -1   3   10.80    1.00
   8  -1   3   12.50    1.10
  -8   1  -3   13.00    1.10
  -8   1  -4    6.90    0.80
   8  -1   4    7.30    0.80
   8  -1   4    6.20    0.60
  -8   1  -4    6.70    0.70
   8  -1   4    7.50    0.80
  -8   1  -5   11.60    0.90
   8  -1   5   10.00    0.80
  -8   1  -6    3.30    0.50
   8   0 -14   47.20    1.40
   8   0 -13   11.20    0.90
   8   0 -13    9.20    0.60
  -8   0  13    8.90    0.70
   8   0 -13    9.70    0.70
   8   0 -12    2.70    0.60
  -8   0  12    1.80    0.50
   8   0 -12    2.40    0.60
   8   0 -11    0.10    0.50
  -8   0  11   -0.20    0.40
   8   0 -11   -0.10    0.50
   8   0 -10   18.80    1.50
  -8   0  10   20.30    1.30
  -8   0  10   20.60    1.60
   8   0 -10   22.20    1.60
   8   0  -9    1.10    0.60
  -8   0   9    0.70    0.50
  -8   0   9    0.90    0.60
   8   0  -9    2.30    0.90
   8   0  -8    1.60    0.70
  -8   0   8    0.50    0.40
  -8   0   8    0.10    0.60
   8   0  -8    0.60    0.80
   8   0  -7  150.08    4.00
  -8   0   7  151.28    4.30
  -8   0   7  152.78    4.50
   8   0  -7  163.98    4.50
   8   0  -6  168.58    4.20
   8   0  -6  173.28    4.60
  -8   0   6  173.48    5.00
  -8   0   6  176.78    4.80
   8   0  -6  185.98    4.70
   8   0  -5   16.20    1.30
   8   0  -5   18.40    1.60
  -8   0   5   17.20    1.80
  -8   0   5   17.20    1.70
   8   0  -5   19.80    1.60
   8   0  -4    0.10    0.60
   8   0  -4    1.50    0.80
  -8   0   4    1.10    0.90
  -8   0   4    2.10    1.00
   8   0  -4    1.00    0.70
   8   0  -3    1.80    0.70
   8   0  -3    1.30    0.70
  -8   0   3    1.60    0.50
  -8   0   3    1.30    0.70
  -8   0   3    1.90    0.60
   8   0  -3    2.00    0.60
  -8   0   2    3.40    0.80
   8   0  -2    3.80    0.80
   8   0  -2    4.40    0.90
  -8   0   2    3.10    0.70
  -8   0   2    3.80    1.00
  -8   0   2    2.20    0.60
   8   0  -2    2.80    0.60
  -8   0   1   12.20    1.30
   8   0  -1   10.10    1.20
   8   0  -1    9.80    1.20
  -8   0   1   11.10    1.40
  -8   0   1    9.60    1.10
  -8   0   1    8.80    1.00
  -8   0   0   29.30    1.90
   8   0   0   29.70    1.90
   8   0   0   27.80    1.80
  -8   0   0   29.10    2.00
  -8   0   0   29.60    1.80
   8   0   0   31.10    1.90
  -8   0  -1   40.20    2.10
   8   0   1   37.50    2.00
   8   0   1   40.10    2.00
  -8   0  -1   37.30    2.10
  -8   0  -1   37.40    2.00
   8   0   1   39.00    1.90
   8   0   1   41.10    2.10
  -8   0  -2   16.20    1.30
   8   0   2   16.20    1.30
   8   0   2   17.00    1.20
  -8   0  -2   14.20    1.30
  -8   0  -2   16.10    1.30
   8   0   2   15.40    1.20
   8   0   2   16.00    1.30
  -8   0  -3    4.30    0.70
   8   0   3    2.90    0.60
   8   0   3    2.80    0.60
  -8   0  -3    2.70    0.60
  -8   0  -3    2.60    0.60
   8   0   3    2.80    0.60
   8   0   3    3.60    0.70
  -8   0  -4  178.38    3.40
   8   0   4  180.38    3.20
  -8   0  -5  117.19    2.40
   8   0   5   98.59    2.00
   8   1 -14    1.20    0.40
   8   1 -13   21.50    1.20
   8   1 -13   22.40    1.10
   8   1 -12  173.28    3.70
  -8  -1  12  164.88    3.20
  -8  -1  12  170.98    3.30
   8   1 -11  169.88    4.00
  -8  -1  11  167.88    3.70
  -8  -1  11  178.88    3.90
   8   1 -10   45.00    2.10
  -8  -1  10   47.20    2.10
  -8  -1  10   47.00    2.30
   8   1 -10   48.60    2.30
   8   1  -9    4.00    0.80
  -8  -1   9    3.50    0.70
  -8  -1   9    4.20    0.90
   8   1  -9    3.30    0.90
   8   1  -8    0.10    0.50
  -8  -1   8    0.50    0.50
  -8  -1   8    0.60    0.60
   8   1  -8    0.50    0.70
   8   1  -7    0.90    0.50
  -8  -1   7    0.90    0.60
  -8  -1   7    0.90    0.70
   8   1  -7    0.70    0.60
   8   1  -6    1.60    0.50
  -8  -1   6    2.00    1.00
   8   1  -6    1.60    0.60
   8   1  -5    1.10    0.70
  -8  -1   5    0.90    0.90
  -8  -1   5    0.90    0.80
   8   1  -5    0.70    0.50
   8   1  -4   12.80    1.30
   8   1  -4   14.10    1.30
  -8  -1   4   14.00    1.60
  -8  -1   4   12.10    1.30
   8   1  -4   13.20    1.10
   8   1  -3  236.68    5.00
   8   1  -3  242.48    5.10
  -8  -1   3  241.48    6.10
  -8  -1   3  247.28    5.00
  -8  -1   3  229.08    5.20
   8   1  -3  226.08    4.30
   8   1  -2  350.66    5.90
   8   1  -2  353.56    6.10
  -8  -1   2  349.96    7.10
  -8  -1   2  349.37    6.00
  -8  -1   2  332.47    6.00
  -8  -1   1   60.39    2.50
   8   1  -1   56.49    2.30
   8   1  -1   61.49    2.50
  -8  -1   1   58.09    2.80
  -8  -1   1   57.49    2.50
  -8  -1   0   10.50    1.10
   8   1   0   10.00    1.10
   8   1   0    9.60    1.10
  -8  -1   0   10.10    1.20
  -8  -1   0    9.80    1.10
   8   1   0    9.10    1.10
  -8  -1  -1    3.50    0.70
   8   1   1    2.40    0.70
   8   1   1    3.00    0.70
  -8  -1  -1    2.60    0.60
  -8  -1  -1    2.70    0.70
   8   1   1    2.70    0.50
   8   1   1    3.20    0.70
  -8  -1  -2    0.70    0.40
   8   1   2    0.00    0.40
   8   1   2   -0.20    0.50
  -8  -1  -2    0.00    0.50
  -8  -1  -2    0.30    0.40
   8   1   2    0.40    0.60
  -8  -1  -3   45.40    1.80
   8   1   3   44.10    1.60
   8   1   3   46.70    1.80
  -8  -1  -3   43.10    1.80
   8   1   3   47.90    1.90
   8   1   3   45.70    1.60
  -8  -1  -4  124.09    2.50
   8   1   4  126.49    2.50
   8   1   4  117.89    2.10
   8   2 -13   50.09    1.60
  -8  -2  13   48.90    1.50
   8   2 -12   54.39    1.90
  -8  -2  12   57.99    2.00
  -8  -2  12   52.49    1.70
   8   2 -11   30.70    1.50
  -8  -2  11   32.00    1.70
  -8  -2  11   30.90    1.60
   8   2 -11   33.80    1.70
   8   2 -10    0.70    0.40
  -8  -2  10    0.20    0.40
  -8  -2  10    0.50    0.50
   8   2 -10    0.90    0.60
   8   2  -9    1.30    0.50
  -8  -2   9    0.80    0.50
  -8  -2   9    1.10    0.70
   8   2  -9    0.70    0.60
  -8  -2   8   26.00    1.70
  -8  -2   8   26.10    1.80
   8   2  -8   28.30    1.70
  -8  -2   7   11.20    1.30
   8   2  -7   10.00    1.00
   8   2  -6    2.10    0.60
  -8  -2   6    3.10    0.80
  -8  -2   6    4.30    0.90
   8   2  -6    2.30    0.60
   8   2  -5    7.60    0.90
  -8  -2   5    7.90    1.10
  -8  -2   5    7.70    1.10
   8   2  -5    9.10    0.90
   8   2  -4   43.60    2.00
   8   2  -4   47.00    2.20
  -8  -2   4   48.50    2.70
  -8  -2   4   45.30    2.40
   8   2  -3   46.70    2.00
   8   2  -3   45.30    2.10
  -8  -2   3   47.50    2.60
  -8  -2   3   47.50    2.20
  -8  -2   3   45.70    2.30
   8   2  -2   39.40    1.80
   8   2  -2   43.90    2.00
  -8  -2   2   44.20    2.50
  -8  -2   2   44.60    2.10
   8   2  -1   26.60    1.50
  -8  -2   1   27.10    1.90
  -8  -2   1   27.00    1.70
   8   2  -1   27.90    1.70
  -8  -2   0    5.70    0.70
   8   2   0    7.70    0.90
   8   2   0    7.30    0.90
  -8  -2   0    7.70    1.00
  -8  -2   0    7.20    1.00
   8   2   0    7.10    0.90
  -8  -2  -1   78.99    2.30
   8   2   1   83.99    2.30
   8   2   1   82.09    2.60
  -8  -2  -1   81.49    2.70
  -8  -2  -1   78.79    2.60
   8   2   1   83.29    2.60
  -8  -2  -2  108.89    2.50
   8   2   2  109.29    2.20
   8   2   2  121.09    2.90
  -8  -2  -2  116.79    2.90
   8   2   2  116.19    2.80
  -8  -2  -3   34.30    1.30
   8   2   3   37.70    1.40
  -8  -2  -3   35.80    1.50
   8   3 -13   26.30    1.00
  -8  -3  12    1.90    0.40
   8   3 -12    2.70    0.50
  -8  -3  11   25.60    1.40
   8   3 -11   26.30    1.40
  -8  -3  10   14.80    1.20
  -8  -3  10   12.50    1.00
   8   3 -10   15.20    1.10
  -8  -3   9   60.29    2.50
   8   3  -9   61.19    2.20
  -8  -3   8   78.79    3.00
   8   3  -8   75.19    2.30
   8   3  -7   32.30    1.60
  -8  -3   7   33.90    2.00
   8   3  -7   31.50    1.50
   8   3  -6   23.90    1.40
  -8  -3   6   25.00    1.60
  -8  -3   6   25.80    1.80
   8   3  -5   89.59    2.50
  -8  -3   5   92.89    3.20
  -8  -3   5   91.89    3.30
   8   3  -4    1.40    0.40
   8   3  -4    1.70    0.50
  -8  -3   4    1.90    0.70
  -8  -3   4    2.30    0.70
   8   3  -3    1.10    0.50
  -8  -3   3    0.40    0.50
  -8  -3   3    0.90    0.60
   8   3  -2    0.20    0.40
  -8  -3   2   -0.30    0.50
  -8  -3   2    0.40    0.50
   8   3  -1    7.90    0.70
  -8  -3   1    9.60    1.00
   8   3  -1    8.50    0.90
   8   3   0  100.59    2.20
   8   3   0  104.49    2.80
  -8  -3   0  102.69    2.80
   8   3   0  108.19    2.60
  -8  -3  -1  169.88    3.30
   8   3   1  163.98    2.90
   8   3   2   70.59    1.80
  -8  -3  -2   74.29    1.90
   8   4 -11   16.30    0.90
  -8  -4  11   18.50    1.00
   8   4 -10   38.70    1.40
   8   4 -10   37.50    1.30
   8   4  -9    6.80    0.60
  -8  -4   9    7.50    0.70
   8   4  -9    6.60    0.60
   8   4  -8    1.10    0.30
  -8  -4   8    0.80    0.40
   8   4  -7   16.00    0.90
  -8  -4   7   18.50    1.00
   8   4  -5   57.99    1.90
  -8  -4   5   59.99    2.10
   8   4  -4   19.90    1.10
  -8  -4   4   19.90    1.20
   8   4  -3    2.10    0.40
  -8  -4   3    2.30    0.60
   8   4  -3    2.20    0.50
  -8  -4   2   58.49    1.90
   8   4  -2   54.89    1.70
   8   4  -1   52.59    1.70
  -8  -4   1   53.99    1.80
   8   4  -1   50.59    1.50
   8   4   0   -0.20    0.40
  -8  -4   0    0.10    0.40
  -8  -5   8    3.40    0.50
  -8  -5   7    3.30    0.50
  -8  -5   6    1.00    0.40
  -8  -5   6    0.50    0.40
  -8  -5   5    8.00    0.70
  -8  -5   4    5.70    0.60
  -8  -5   3   67.39    1.70
   9  -5  -5    7.80    0.80
  -9   5   5    6.60    0.80
   9  -5  -4    8.30    0.80
  -9   5   4    6.40    0.80
   9  -5  -4    5.60    0.80
   9  -5  -3    4.80    0.70
  -9   5   3    4.90    0.70
   9  -5  -3    4.50    0.70
   9  -5  -2   65.29    1.90
  -9   5   2   64.89    2.00
   9  -5  -2   60.59    2.00
   9  -5  -1   26.20    1.20
   9  -5  -1   24.10    1.20
   9  -4  -8   26.60    1.20
  -9   4   7   42.10    1.50
   9  -4  -7   44.70    1.60
   9  -4  -6   22.80    1.30
  -9   4   6   22.20    1.30
   9  -4  -6   22.10    1.30
   9  -4  -5    2.30    0.60
  -9   4   5    1.30    0.50
   9  -4  -5    1.50    0.60
   9  -4  -4   35.50    1.60
  -9   4   4   37.50    1.80
   9  -4  -4   35.60    1.70
  -9   4   3    0.70    0.40
   9  -4  -3    0.60    0.50
  -9   4   3    0.80    0.50
   9  -4  -3    1.00    0.40
   9  -4  -3    0.90    0.60
  -9   4   2    8.70    0.80
   9  -4  -2   10.20    0.90
  -9   4   2    9.30    0.90
   9  -4  -2   10.00    0.90
   9  -4  -2    8.60    0.90
  -9   4   1    9.50    0.80
   9  -4  -1    9.60    0.80
  -9   4   1   10.40    0.90
   9  -4  -1   10.60    0.90
   9  -4  -1    9.20    0.90
  -9   4   0    7.80    0.80
   9  -4   0    6.60    0.70
  -9   4   0    7.60    0.70
   9  -4   0    7.60    0.80
   9  -4   0    8.00    0.80
  -9   4  -1   34.10    1.30
   9  -4   1   32.30    1.30
  -9   3   9   17.70    1.10
   9  -3  -9   17.90    1.00
  -9   3   8    1.30    0.50
   9  -3  -8    0.90    0.50
  -9   3   7    7.40    0.80
  -9   3   7    7.80    0.80
   9  -3  -7    7.40    0.90
  -9   3   6    5.30    0.80
  -9   3   6    6.60    0.80
   9  -3  -6    7.90    1.00
  -9   3   5    7.60    1.00
  -9   3   5    6.40    0.70
   9  -3  -5    7.10    0.90
   9  -3  -4    3.90    0.70
  -9   3   4    2.00    0.70
   9  -3  -4    2.40    0.70
   9  -3  -3   71.99    2.20
  -9   3   3   76.79    2.70
   9  -3  -3   76.19    2.50
   9  -3  -3   72.29    2.40
  -9   3   2   32.80    1.60
   9  -3  -2   31.90    1.60
   9  -3  -2   31.20    1.40
  -9   3   2   33.40    1.80
   9  -3  -2   36.10    1.70
   9  -3  -2   32.50    1.60
  -9   3   1   25.10    1.40
   9  -3  -1   23.10    1.30
   9  -3  -1   21.90    1.10
  -9   3   1   24.50    1.40
   9  -3  -1   24.20    1.40
   9  -3  -1   23.50    1.30
  -9   3   0    5.30    0.70
   9  -3   0    4.30    0.70
  -9   3   0    5.10    0.70
   9  -3   0    4.00    0.70
  -9   3   0    4.60    0.60
   9  -3   0    3.80    0.60
  -9   3  -1    8.90    0.80
   9  -3   1    9.00    0.80
  -9   3  -1    7.50    0.70
   9  -3   1    9.70    0.90
  -9   3  -2    5.90    0.60
   9  -3   2    4.80    0.60
   9  -3   2    5.10    0.60
  -9   2  10  111.79    2.60
   9  -2 -10  108.59    2.20
  -9   2   9   57.89    2.10
   9  -2  -9   60.89    2.00
   9  -2  -8    4.10    0.60
  -9   2   8    4.40    0.70
   9  -2  -8    5.80    0.90
   9  -2  -7    2.40    0.60
  -9   2   7    3.80    0.60
  -9   2   7    2.30    0.60
   9  -2  -7    3.90    0.80
   9  -2  -6    1.20    0.50
  -9   2   6    1.20    0.60
  -9   2   6    1.60    0.50
   9  -2  -6    0.90    0.60
   9  -2  -5    2.40    0.60
   9  -2  -5    2.50    0.70
  -9   2   5    2.80    0.70
  -9   2   5    2.30    0.50
   9  -2  -5    2.60    0.70
   9  -2  -4   11.80    1.10
   9  -2  -4   11.20    1.10
  -9   2   4   11.30    1.20
  -9   2   4   11.60    0.90
   9  -2  -4   12.60    1.10
   9  -2  -3    3.90    0.70
   9  -2  -3    4.10    0.70
  -9   2   3    4.10    0.80
   9  -2  -3    4.10    0.70
  -9   2   2    5.00    0.70
   9  -2  -2    4.70    0.70
   9  -2  -2    5.40    0.80
  -9   2   2    5.30    0.90
   9  -2  -2    6.50    0.80
  -9   2   1   49.70    1.90
   9  -2  -1   51.99    2.00
  -9   2   1   49.99    2.10
   9  -2  -1   52.79    2.10
   9  -2  -1   47.30    1.70
  -9   2   0   71.89    2.20
   9  -2   0   74.19    2.30
  -9   2   0   71.99    2.30
   9  -2   0   74.29    2.30
  -9   2  -1   -0.10    0.40
   9  -2   1   -0.20    0.40
  -9   2  -1    0.40    0.40
   9  -2   1    0.80    0.50
  -9   2  -2    0.30    0.40
   9  -2   2    0.60    0.40
   9  -2   2    0.40    0.40
  -9   1  11   14.10    0.90
   9  -1 -11   14.50    0.80
   9  -1 -10   18.10    0.90
  -9   1  10   20.00    1.20
   9  -1 -10   21.80    1.20
   9  -1  -9    1.90    0.50
  -9   1   9    2.20    0.60
   9  -1  -9    2.90    0.60
   9  -1  -8   13.10    1.10
  -9   1   8   12.50    1.10
   9  -1  -8   13.50    1.20
   9  -1  -7   53.59    2.20
   9  -1  -7   47.30    1.80
  -9   1   7   50.49    2.00
  -9   1   7   51.59    2.20
   9  -1  -7   52.89    2.20
   9  -1  -6   92.09    2.90
   9  -1  -6   85.29    2.60
  -9   1   6   87.39    2.90
  -9   1   6   88.79    2.70
   9  -1  -6   93.09    2.90
   9  -1  -5   84.19    2.80
   9  -1  -5   84.29    2.70
  -9   1   5   79.49    3.00
  -9   1   5   79.39    2.50
   9  -1  -5   80.39    2.30
   9  -1  -5   83.49    2.60
   9  -1  -4    0.00    0.50
   9  -1  -4    0.30    0.60
  -9   1   4   -0.10    0.50
   9  -1  -4   -0.10    0.40
  -9   1   4    0.00    0.40
   9  -1  -4    0.50    0.50
   9  -1  -3    0.80    0.50
   9  -1  -3    0.70    0.60
  -9   1   3    0.70    0.60
   9  -1  -3    0.30    0.40
  -9   1   3    0.50    0.40
   9  -1  -3    0.20    0.50
  -9   1   2    0.70    0.50
   9  -1  -2    1.50    0.50
   9  -1  -2    1.60    0.50
  -9   1   1    3.20    0.50
   9  -1  -1    3.60    0.70
  -9   1   1    2.40    0.70
   9  -1  -1    2.90    0.60
   9  -1  -1    2.40    0.50
  -9   1   0    1.10    0.40
   9  -1   0    1.60    0.60
  -9   1   0    1.40    0.50
   9  -1   0    1.10    0.50
   9  -1   0    1.00    0.40
  -9   1  -1    6.10    0.60
   9  -1   1    7.60    0.80
  -9   1  -1    5.10    0.60
   9  -1   1    5.50    0.70
   9  -1   2   21.70    1.10
  -9   0  11    0.70    0.40
   9   0 -11    0.20    0.40
   9   0 -10    3.80    0.60
   9   0 -10    4.50    0.60
  -9   0  10    3.30    0.60
   9   0 -10    5.10    0.70
   9   0  -9    1.20    0.50
  -9   0   9    0.90    0.50
   9   0  -9    0.00    0.50
   9   0  -8   60.59    2.20
  -9   0   8   58.69    2.30
   9   0  -8   61.69    2.20
   9   0  -7  146.79    3.50
   9   0  -7  136.19    3.20
  -9   0   7  132.99    3.10
  -9   0   7  145.49    3.60
   9   0  -7  146.99    3.40
   9   0  -6   76.29    2.60
   9   0  -6   72.79    2.50
  -9   0   6   72.89    2.60
  -9   0   6   74.29    2.50
   9   0  -6   74.09    2.40
   9   0  -5    5.50    0.80
   9   0  -5    4.90    0.80
  -9   0   5    6.00    1.00
  -9   0   5    5.40    0.70
   9   0  -5    5.00    0.70
   9   0  -4    7.00    0.90
   9   0  -4    5.80    0.80
  -9   0   4    5.50    0.90
  -9   0   4    5.90    0.80
   9   0  -4    6.40    0.70
   9   0  -3    6.80    0.80
   9   0  -3    6.70    0.90
  -9   0   3    5.90    0.90
  -9   0   3    5.00    0.60
   9   0  -3    6.70    0.80
   9   0  -3    5.70    0.60
   9   0  -2   34.10    1.60
  -9   0   2   28.90    1.70
   9   0  -2   30.10    1.50
   9   0  -1   48.80    1.90
  -9   0   1   42.30    1.90
   9   0  -1   46.60    1.70
   9   0  -1   47.00    1.80
  -9   0   0   10.80    0.70
   9   0   0   12.40    1.00
  -9   0   0   10.90    0.90
   9   0   0   11.50    0.90
   9   0   0   13.80    1.00
   9   0   1   13.80    0.90
  -9   0  -1   12.10    0.80
   9   0   1   14.20    0.90
   9   1 -11   12.00    0.80
   9   1 -11   13.40    0.80
   9   1 -10   14.20    1.00
  -9  -1  10   14.70    1.00
   9   1 -10   14.20    1.00
   9   1  -9   98.29    2.60
   9   1  -9   86.19    2.10
  -9  -1   9   86.49    2.00
  -9  -1   9   97.19    2.70
   9   1  -9  100.09    2.50
   9   1  -8   19.50    1.20
   9   1  -8   15.70    1.10
  -9  -1   8   17.50    1.00
  -9  -1   8   18.90    1.30
   9   1  -8   18.10    1.10
   9   1  -7    0.60    0.50
   9   1  -7    0.70    0.50
  -9  -1   7   -0.30    0.40
  -9  -1   7    0.30    0.50
   9   1  -7    0.00    0.40
   9   1  -6    1.20    0.50
   9   1  -6    1.00    0.60
  -9  -1   6    0.20    0.40
  -9  -1   6    1.00    0.50
  -9  -1   6    0.60    0.50
   9   1  -6    2.20    0.50
   9   1  -5    4.10    0.70
   9   1  -5    5.20    0.80
  -9  -1   5    3.70    0.60
  -9  -1   5    3.40    0.70
  -9  -1   5    3.40    0.60
   9   1  -5    4.90    0.60
   9   1  -4   24.10    1.30
   9   1  -4   26.50    1.40
  -9  -1   4   26.80    1.60
  -9  -1   4   24.10    1.30
   9   1  -3  249.88    4.10
  -9  -1   3  250.77    4.70
   9   1  -3  258.87    4.20
   9   1  -2   93.89    2.40
  -9  -1   2   96.59    2.80
   9   1  -2   92.09    2.20
   9   1  -2   94.79    2.50
   9   1  -1    2.80    0.60
   9   1  -1    1.70    0.40
  -9  -1   1    1.70    0.40
  -9  -1   1    2.60    0.60
   9   1  -1    1.80    0.40
   9   1  -1    1.70    0.50
   9   1   0    5.80    0.60
  -9  -1   0    5.70    0.70
   9   1   0    5.80    0.70
   9   2 -10  119.09    2.30
   9   2  -9  128.99    2.60
  -9  -2   9  123.49    2.40
  -9  -2   9  131.39    2.90
   9   2  -9  123.99    2.30
   9   2  -8   13.90    0.90
   9   2  -8   14.80    1.00
  -9  -2   8   15.20    0.90
  -9  -2   8   14.70    1.10
   9   2  -8   12.80    0.80
   9   2  -7    1.30    0.40
   9   2  -7    1.60    0.50
  -9  -2   7    1.60    0.50
  -9  -2   7    1.70    0.50
   9   2  -6    0.30    0.30
   9   2  -6    0.60    0.40
  -9  -2   6    0.00    0.40
   9   2  -5    6.10    0.60
   9   2  -5    6.60    0.70
  -9  -2   5    7.10    0.80
  -9  -2   5    7.00    0.70
   9   2  -4    5.70    0.60
   9   2  -4    4.30    0.60
  -9  -2   4    5.60    0.60
  -9  -2   4    5.00    0.70
   9   2  -4    5.60    0.70
   9   2  -3    7.40    0.70
  -9  -2   3    8.10    0.80
  -9  -2   3    6.90    0.70
   9   2  -3    7.30    0.70
   9   2  -2    5.90    0.60
   9   2  -2    3.70    0.50
  -9  -2   2    5.50    0.60
   9   2  -2    5.30    0.70
   9   2  -1   19.80    1.00
   9   3  -7    7.60    0.70
  -9  -3   7    8.90    0.70
   9   3  -6  158.18    2.60
  -9  -3   6  166.98    2.80
   9   3  -5   98.29    2.00
  -9  -3   5  103.29    2.20
  -9  -3   4    3.90    0.60
   9   3  -4    3.10    0.50

_computing_structure_solution     'SHELXT 2014/4 (Sheldrick, 2014)'
;
_shelx_hkl_checksum              80816
loop_
_space_group_symop_operation_xyz
'x, y, z'
'-x, -y, -z'
loop_
_atom_site_label
_atom_site_type_symbol
_atom_site_fract_x
_atom_site_fract_y
_atom_site_fract_z
_atom_site_U_iso_or_equiv
_atom_site_adp_type
_atom_site_occupancy
_atom_site_site_symmetry_order
_atom_site_calc_flag
_atom_site_refinement_flags_posn
_atom_site_refinement_flags_adp
_atom_site_refinement_flags_occupancy
Se1 Se 0.22280(6) 0.38552(5) 0.52090(3) 0.02153(13) Uani 0.82 1 d . . P
S1 S 0.22280(6) 0.38552(5) 0.52090(3) 0.02153(13) Uani 0.18 1 d . . P
Se2 Se 0.26960(7) 0.67086(6) 0.41174(3) 0.02494(13) Uani 0.81 1 d . . P
S2 S 0.26960(7) 0.67086(6) 0.41174(3) 0.02494(13) Uani 0.19 1 d . . P
Se3 Se 0.54800(7) 0.89541(6) 0.61761(4) 0.02597(14) Uani 0.74 1 d . . P
S3 S 0.54800(7) 0.89541(6) 0.61761(4) 0.02597(14) Uani 0.26 1 d . . P
Se4 Se 0.49253(8) 0.61641(7) 0.72813(4) 0.02461(14) Uani 0.63 1 d . . P
S4 S 0.49253(8) 0.61641(7) 0.72813(4) 0.02461(14) Uani 0.37 1 d . . P
O1 O -0.1371(4) 0.1833(4) 0.2629(2) 0.0281(7) Uani 1 1 d . . .
O2 O -0.0082(4) 0.1071(3) 0.4014(2) 0.0251(6) Uani 1 1 d . . .
O3 O 0.0426(4) 0.4063(4) 0.1705(2) 0.0296(7) Uani 1 1 d . . .
O4 O -0.1069(4) 0.5805(3) 0.23848(19) 0.0228(6) Uani 1 1 d . . .
O5 O 0.8224(4) 1.1742(4) 0.7851(2) 0.0339(7) Uani 1 1 d . . .
O6 O 0.5933(4) 1.1812(3) 0.8510(2) 0.0248(6) Uani 1 1 d . . .
O7 O 0.6027(5) 0.7239(4) 0.9429(2) 0.0308(7) Uani 1 1 d . . .
O8 O 0.7539(4) 0.9665(4) 0.9541(2) 0.0293(7) Uani 1 1 d . . .
C1 C 0.3256(5) 0.5963(5) 0.5287(3) 0.0182(7) Uani 1 1 d . . .
C2 C 0.0900(5) 0.3632(5) 0.3898(3) 0.0184(7) Uani 1 1 d . . .
C3 C 0.1100(5) 0.4833(4) 0.3442(3) 0.0177(7) Uani 1 1 d . . .
C4 C -0.0325(5) 0.2103(5) 0.3424(3) 0.0188(7) Uani 1 1 d . . .
C5 C -0.1054(7) -0.0543(5) 0.3590(3) 0.0317(10) Uani 1 1 d . . .
H5A H -0.2351 -0.0515 0.3385 0.048 Uiso 1 1 calc R U .
H5B H -0.0794 -0.1206 0.4076 0.048 Uiso 1 1 calc R U .
H5C H -0.0669 -0.0991 0.3024 0.048 Uiso 1 1 calc R U .
C6 C 0.0118(5) 0.4813(5) 0.2395(3) 0.0201(8) Uani 1 1 d . . .
C7 C -0.2100(6) 0.5942(6) 0.1429(3) 0.0304(9) Uani 1 1 d . . .
H7A H -0.1287 0.6085 0.1027 0.046 Uiso 1 1 calc R U .
H7B H -0.2729 0.6863 0.1488 0.046 Uiso 1 1 calc R U .
H7C H -0.2983 0.4970 0.1122 0.046 Uiso 1 1 calc R U .
C8 C 0.4352(5) 0.6881(4) 0.6117(3) 0.0179(7) Uani 1 1 d . . .
C9 C 0.6088(5) 0.9406(5) 0.7534(3) 0.0179(7) Uani 1 1 d . . .
C10 C 0.5895(5) 0.8215(5) 0.7995(3) 0.0192(7) Uani 1 1 d . . .
C11 C 0.6892(5) 1.1110(5) 0.7986(3) 0.0196(7) Uani 1 1 d . . .
C12 C 0.6775(7) 1.3396(5) 0.9083(3) 0.0322(10) Uani 1 1 d . . .
H12A H 0.7943 1.3333 0.9526 0.048 Uiso 1 1 calc R U .
H12B H 0.5994 1.3817 0.9463 0.048 Uiso 1 1 calc R U .
H12C H 0.6954 1.4103 0.8647 0.048 Uiso 1 1 calc R U .
C13 C 0.6471(5) 0.8296(5) 0.9064(3) 0.0213(8) Uani 1 1 d . . .
C14 C 0.8032(7) 0.9950(6) 1.0599(3) 0.0335(10) Uani 1 1 d . . .
H14A H 0.6946 0.9750 1.0808 0.050 Uiso 1 1 calc R U .
H14B H 0.8616 1.1059 1.0873 0.050 Uiso 1 1 calc R U .
H14C H 0.8866 0.9232 1.0828 0.050 Uiso 1 1 calc R U .
loop_
_atom_site_aniso_label
_atom_site_aniso_U_11
_atom_site_aniso_U_22
_atom_site_aniso_U_33
_atom_site_aniso_U_23
_atom_site_aniso_U_13
_atom_site_aniso_U_12
Se1 0.0265(2) 0.0177(2) 0.0159(2) 0.00121(17) 0.00196(17) -0.00141(18)
S1 0.0265(2) 0.0177(2) 0.0159(2) 0.00121(17) 0.00196(17) -0.00141(18)
Se2 0.0330(3) 0.0213(3) 0.0153(2) 0.00208(17) 0.00161(18) -0.00216(19)
S2 0.0330(3) 0.0213(3) 0.0153(2) 0.00208(17) 0.00161(18) -0.00216(19)
Se3 0.0357(3) 0.0209(3) 0.0163(2) -0.00112(19) 0.0051(2) -0.0027(2)
S3 0.0357(3) 0.0209(3) 0.0163(2) -0.00112(19) 0.0051(2) -0.0027(2)
Se4 0.0307(3) 0.0218(3) 0.0163(2) -0.0003(2) 0.0025(2) 0.0006(2)
S4 0.0307(3) 0.0218(3) 0.0163(2) -0.0003(2) 0.0025(2) 0.0006(2)
O1 0.0324(16) 0.0228(15) 0.0200(14) 0.0009(11) -0.0020(12) -0.0055(12)
O2 0.0318(15) 0.0182(14) 0.0205(13) 0.0032(11) 0.0023(11) -0.0030(12)
O3 0.0391(17) 0.0318(17) 0.0152(13) 0.0014(12) 0.0056(12) 0.0055(13)
O4 0.0255(14) 0.0226(15) 0.0165(13) 0.0042(11) 0.0005(11) 0.0015(11)
O5 0.0361(17) 0.0278(17) 0.0360(17) -0.0029(13) 0.0193(14) -0.0092(13)
O6 0.0273(14) 0.0184(14) 0.0262(14) -0.0021(11) 0.0093(12) 0.0000(11)
O7 0.0462(18) 0.0230(16) 0.0205(14) 0.0085(12) 0.0067(13) -0.0050(13)
O8 0.0420(17) 0.0256(16) 0.0119(13) 0.0023(11) -0.0008(12) -0.0059(13)
C1 0.0234(18) 0.0164(18) 0.0142(16) 0.0032(14) 0.0048(14) 0.0019(14)
C2 0.0192(17) 0.0217(19) 0.0118(16) -0.0003(14) 0.0024(13) 0.0040(14)
C3 0.0209(17) 0.0151(18) 0.0142(17) -0.0003(13) 0.0036(14) 0.0005(14)
C4 0.0215(18) 0.0172(18) 0.0177(18) 0.0020(14) 0.0073(15) 0.0011(14)
C5 0.041(2) 0.014(2) 0.035(2) 0.0033(17) 0.007(2) -0.0056(18)
C6 0.0240(18) 0.0171(19) 0.0157(17) 0.0033(14) 0.0026(14) -0.0042(15)
C7 0.032(2) 0.030(2) 0.023(2) 0.0088(17) -0.0045(17) 0.0001(18)
C8 0.0253(18) 0.0127(17) 0.0152(17) 0.0035(13) 0.0056(14) -0.0001(14)
C9 0.0210(17) 0.0173(18) 0.0131(16) 0.0005(13) 0.0040(13) -0.0005(14)
C10 0.0200(17) 0.0185(19) 0.0151(17) -0.0008(14) 0.0027(14) -0.0010(14)
C11 0.0254(19) 0.0184(19) 0.0133(16) 0.0037(14) 0.0038(14) -0.0001(15)
C12 0.039(2) 0.020(2) 0.032(2) -0.0053(17) 0.0103(19) -0.0007(18)
C13 0.0249(19) 0.0195(19) 0.0158(17) 0.0001(15) 0.0036(15) -0.0003(15)
C14 0.051(3) 0.029(2) 0.0121(18) 0.0027(16) -0.0009(18) -0.005(2)
loop_
_atom_type_symbol
_atom_type_description
_atom_type_scat_dispersion_real
_atom_type_scat_dispersion_imag
_atom_type_scat_source
C C 0.0181 0.0091 'International Tables Vol C Tables 4.2.6.8 and 6.1.1.4'
H H 0.0000 0.0000 'International Tables Vol C Tables 4.2.6.8 and 6.1.1.4'
O O 0.0492 0.0322 'International Tables Vol C Tables 4.2.6.8 and 6.1.1.4'
S S 0.3331 0.5567 'International Tables Vol C Tables 4.2.6.8 and 6.1.1.4'
Se Se -0.7943 1.1372 'International Tables Vol C Tables 4.2.6.8 and 6.1.1.4'
loop_
_geom_angle_atom_site_label_1
_geom_angle_atom_site_label_2
_geom_angle_atom_site_label_3
_geom_angle
C1 Se1 C2 92.18(17)
C3 Se2 C1 92.36(17)
C9 Se3 C8 91.07(16)
C10 Se4 C8 91.65(17)
C4 O2 C5 115.5(3)
C6 O4 C7 115.3(3)
C11 O6 C12 114.7(3)
C13 O8 C14 116.2(3)
C8 C1 Se1 122.4(3)
C8 C1 Se2 121.6(3)
Se1 C1 Se2 116.05(19)
C3 C2 C4 123.5(3)
C3 C2 Se1 119.6(3)
C4 C2 Se1 116.9(3)
C2 C3 C6 125.0(3)
C2 C3 Se2 119.6(3)
C6 C3 Se2 115.4(3)
O1 C4 O2 125.1(4)
O1 C4 C2 124.9(4)
O2 C4 C2 110.1(3)
O2 C5 H5A 109.5
O2 C5 H5B 109.5
H5A C5 H5B 109.5
O2 C5 H5C 109.5
H5A C5 H5C 109.5
H5B C5 H5C 109.5
O3 C6 O4 126.6(4)
O3 C6 C3 124.8(4)
O4 C6 C3 108.6(3)
O4 C7 H7A 109.5
O4 C7 H7B 109.5
H7A C7 H7B 109.5
O4 C7 H7C 109.5
H7A C7 H7C 109.5
H7B C7 H7C 109.5
C1 C8 Se4 122.2(3)
C1 C8 Se3 122.2(3)
Se4 C8 Se3 115.55(19)
C10 C9 C11 127.2(3)
C10 C9 Se3 119.2(3)
C11 C9 Se3 113.4(3)
C9 C10 C13 127.4(4)
C9 C10 Se4 119.9(3)
C13 C10 Se4 112.7(3)
O5 C11 O6 125.4(4)
O5 C11 C9 122.5(4)
O6 C11 C9 112.0(3)
O6 C12 H12A 109.5
O6 C12 H12B 109.5
H12A C12 H12B 109.5
O6 C12 H12C 109.5
H12A C12 H12C 109.5
H12B C12 H12C 109.5
O7 C13 O8 125.4(4)
O7 C13 C10 123.1(4)
O8 C13 C10 111.4(3)
O8 C14 H14A 109.5
O8 C14 H14B 109.5
H14A C14 H14B 109.5
O8 C14 H14C 109.5
H14A C14 H14C 109.5
H14B C14 H14C 109.5
loop_
_geom_bond_atom_site_label_1
_geom_bond_atom_site_label_2
_geom_bond_distance
Se1 C1 1.880(4)
Se1 C2 1.882(4)
Se2 C3 1.872(4)
Se2 C1 1.885(4)
Se3 C9 1.867(4)
Se3 C8 1.884(4)
Se4 C10 1.855(4)
Se4 C8 1.867(4)
O1 C4 1.195(5)
O2 C4 1.335(5)
O2 C5 1.456(5)
O3 C6 1.190(5)
O4 C6 1.325(5)
O4 C7 1.445(5)
O5 C11 1.199(5)
O6 C11 1.319(5)
O6 C12 1.455(5)
O7 C13 1.197(5)
O8 C13 1.330(5)
O8 C14 1.454(5)
C1 C8 1.340(5)
C2 C3 1.341(6)
C2 C4 1.482(5)
C3 C6 1.512(5)
C5 H5A 0.9800
C5 H5B 0.9800
C5 H5C 0.9800
C7 H7A 0.9800
C7 H7B 0.9800
C7 H7C 0.9800
C9 C10 1.338(6)
C9 C11 1.496(5)
C10 C13 1.488(5)
C12 H12A 0.9800
C12 H12B 0.9800
C12 H12C 0.9800
C14 H14A 0.9800
C14 H14B 0.9800
C14 H14C 0.9800
loop_
_geom_hbond_atom_site_label_D
_geom_hbond_atom_site_label_H
_geom_hbond_atom_site_label_A
_geom_hbond_distance_DH
_geom_hbond_distance_HA
_geom_hbond_distance_DA
_geom_hbond_angle_DHA
_geom_hbond_site_symmetry_A
C5 H5A Se3 0.98 3.06 3.917(5) 146.5 2_566
C5 H5B Se1 0.98 2.91 3.754(5) 145.2 2_556
C5 H5C O5 0.98 2.63 3.534(6) 153.3 2_666
C12 H12C Se4 0.98 3.13 3.950(5) 142.2 1_565
C14 H14B O1 0.98 2.52 3.005(5) 110.1 1_666
loop_
_geom_torsion_atom_site_label_1
_geom_torsion_atom_site_label_2
_geom_torsion_atom_site_label_3
_geom_torsion_atom_site_label_4
_geom_torsion
C2 Se1 C1 C8 176.5(3)
C2 Se1 C1 Se2 -4.7(2)
C3 Se2 C1 C8 -176.4(3)
C3 Se2 C1 Se1 4.8(2)
C1 Se1 C2 C3 2.9(3)
C1 Se1 C2 C4 -177.2(3)
C4 C2 C3 C6 0.2(6)
Se1 C2 C3 C6 -179.9(3)
C4 C2 C3 Se2 -179.8(3)
Se1 C2 C3 Se2 0.1(4)
C1 Se2 C3 C2 -2.9(3)
C1 Se2 C3 C6 177.1(3)
C5 O2 C4 O1 6.6(6)
C5 O2 C4 C2 -173.1(3)
C3 C2 C4 O1 -7.1(6)
Se1 C2 C4 O1 173.0(3)
C3 C2 C4 O2 172.5(4)
Se1 C2 C4 O2 -7.3(4)
C7 O4 C6 O3 1.3(6)
C7 O4 C6 C3 178.9(3)
C2 C3 C6 O3 -72.9(6)
Se2 C3 C6 O3 107.1(4)
C2 C3 C6 O4 109.4(4)
Se2 C3 C6 O4 -70.6(4)
Se1 C1 C8 Se4 -1.2(5)
Se2 C1 C8 Se4 -179.90(19)
Se1 C1 C8 Se3 176.57(19)
Se2 C1 C8 Se3 -2.1(5)
C10 Se4 C8 C1 -167.0(4)
C10 Se4 C8 Se3 15.1(2)
C9 Se3 C8 C1 165.9(4)
C9 Se3 C8 Se4 -16.2(2)
C8 Se3 C9 C10 11.6(3)
C8 Se3 C9 C11 -172.9(3)
C11 C9 C10 C13 -1.5(7)
Se3 C9 C10 C13 173.3(3)
C11 C9 C10 Se4 -177.9(3)
Se3 C9 C10 Se4 -3.1(5)
C8 Se4 C10 C9 -7.4(3)
C8 Se4 C10 C13 175.7(3)
C12 O6 C11 O5 -10.5(6)
C12 O6 C11 C9 171.5(3)
C10 C9 C11 O5 117.3(5)
Se3 C9 C11 O5 -57.8(5)
C10 C9 C11 O6 -64.6(5)
Se3 C9 C11 O6 120.3(3)
C14 O8 C13 O7 -7.1(7)
C14 O8 C13 C10 173.8(4)
C9 C10 C13 O7 169.1(4)
Se4 C10 C13 O7 -14.3(5)
C9 C10 C13 O8 -11.7(6)
Se4 C10 C13 O8 164.9(3)
