#------------------------------------------------------------------------------
#$Date: 2019-11-24 02:43:11 +0200 (Sun, 24 Nov 2019) $
#$Revision: 236314 $
#$URL: file:///home/coder/svn-repositories/cod/cif/7/23/65/7236574.cif $
#------------------------------------------------------------------------------
#
# This file is available in the Crystallography Open Database (COD),
# http://www.crystallography.net/
#
# All data on this site have been placed in the public domain by the
# contributors.
#
data_7236574
loop_
_publ_author_name
'Sun, Qi'
'Shen, Cheng'
'Li, Xin'
'Lin, Qiuhan'
'Lu, Ming'
_publ_section_title
;
 Combination of four oxadiazole rings for the generation of energetic
 materials with high detonation performance, low sensitivity and excellent
 thermal stability
;
_journal_issue                   22
_journal_name_full               'Journal of Materials Chemistry A'
_journal_page_first              11063
_journal_paper_doi               10.1039/C7TA02209C
_journal_volume                  5
_journal_year                    2017
_chemical_formula_moiety         'C8 H8 N12 O7'
_chemical_formula_sum            'C8 H8 N12 O7'
_chemical_formula_weight         384.26
_space_group_crystal_system      monoclinic
_space_group_IT_number           14
_space_group_name_Hall           '-P 2yn'
_space_group_name_H-M_alt        'P 1 21/n 1'
_atom_sites_solution_hydrogens   difmap
_audit_creation_method           SHELXL-2014/7
_audit_update_record
;
2017-03-13 deposited with the CCDC.
2017-05-02 downloaded from the CCDC.
;
_cell_angle_alpha                90
_cell_angle_beta                 91.645(5)
_cell_angle_gamma                90
_cell_formula_units_Z            2
_cell_length_a                   4.5880(4)
_cell_length_b                   11.0597(10)
_cell_length_c                   14.3951(11)
_cell_measurement_reflns_used    1236
_cell_measurement_temperature    172(2)
_cell_measurement_theta_max      25.22
_cell_measurement_theta_min      3.95
_cell_volume                     730.13(11)
_computing_structure_refinement  'SHELXL-2014/7 (Sheldrick, 2014)'
_diffrn_ambient_temperature      172(2)
_diffrn_measured_fraction_theta_full 0.998
_diffrn_measured_fraction_theta_max 0.998
_diffrn_measurement_device_type  'PHOTON 100 CMOS detector'
_diffrn_measurement_method       'omega scan'
_diffrn_radiation_type           MoK\a
_diffrn_radiation_wavelength     0.71073
_diffrn_reflns_av_R_equivalents  0.0443
_diffrn_reflns_av_unetI/netI     0.0445
_diffrn_reflns_Laue_measured_fraction_full 0.998
_diffrn_reflns_Laue_measured_fraction_max 0.998
_diffrn_reflns_limit_h_max       5
_diffrn_reflns_limit_h_min       -5
_diffrn_reflns_limit_k_max       13
_diffrn_reflns_limit_k_min       -11
_diffrn_reflns_limit_l_max       15
_diffrn_reflns_limit_l_min       -17
_diffrn_reflns_number            3991
_diffrn_reflns_point_group_measured_fraction_full 0.998
_diffrn_reflns_point_group_measured_fraction_max 0.998
_diffrn_reflns_theta_full        25.242
_diffrn_reflns_theta_max         25.351
_diffrn_reflns_theta_min         2.831
_diffrn_source                   'sealed tube'
_exptl_absorpt_coefficient_mu    0.153
_exptl_absorpt_correction_T_max  0.7452
_exptl_absorpt_correction_T_min  0.6501
_exptl_absorpt_correction_type   multi-scan
_exptl_absorpt_process_details   'SADABS (Bruker, 2014)'
_exptl_crystal_density_diffrn    1.748
_exptl_crystal_description       column
_exptl_crystal_F_000             392
_exptl_crystal_size_max          0.290
_exptl_crystal_size_mid          0.180
_exptl_crystal_size_min          0.150
_refine_diff_density_max         0.270
_refine_diff_density_min         -0.286
_refine_diff_density_rms         0.061
_refine_ls_extinction_method     none
_refine_ls_goodness_of_fit_ref   1.044
_refine_ls_hydrogen_treatment    refxyz
_refine_ls_matrix_type           full
_refine_ls_number_parameters     139
_refine_ls_number_reflns         1340
_refine_ls_number_restraints     21
_refine_ls_restrained_S_all      1.037
_refine_ls_R_factor_all          0.0701
_refine_ls_R_factor_gt           0.0440
_refine_ls_shift/su_max          0.000
_refine_ls_shift/su_mean         0.000
_refine_ls_structure_factor_coef Fsqd
_refine_ls_weighting_details
'w=1/[\s^2^(Fo^2^)+(0.0324P)^2^+0.4685P] where P=(Fo^2^+2Fc^2^)/3'
_refine_ls_weighting_scheme      calc
_refine_ls_wR_factor_gt          0.0828
_refine_ls_wR_factor_ref         0.0919
_reflns_Friedel_coverage         0.000
_reflns_number_gt                1025
_reflns_number_total             1340
_reflns_threshold_expression     'I > 2\s(I)'
_cod_data_source_file            c7ta02209c2.cif
_cod_data_source_block           1
_cod_original_sg_symbol_H-M      'P 21/n'
_cod_database_code               7236574
_shelx_shelxl_version_number     2014/7
_shelx_space_group_comment
;
The symmetry employed for this shelxl refinement is uniquely defined
by the following loop, which should always be used as a source of
symmetry information in preference to the above space-group names.
They are only intended as comments.
;
_shelx_estimated_absorpt_t_min   0.957
_shelx_estimated_absorpt_t_max   0.977
_shelx_res_file
;

    1.res created by SHELXL-2014/7


TITL 1 in P2(1)/n
CELL 0.71073   4.5880  11.0597  14.3951  90.000  91.645  90.000
ZERR    2.00   0.0004   0.0010   0.0011   0.000   0.005   0.000
LATT 1
SYMM 0.5-X, 0.5+Y, 0.5-Z
SFAC C  H  N  O
UNIT 16 16 24 14
L.S. 10
ACTA
BOND $h
FMAP 2
PLAN 20
sadi h6a h6b h6a h6c h6a h6d h6b h6c h6c h6d h6d h6b
sadi .02 n6 h6a n6 h6b n6 h6c n6 h6d
sadi .02 c4 o4a c4 o4z
simu .01 o4a o4z
size 0.29 0.18 0.15
TEMP -100.650
WGHT    0.032420    0.468500
FVAR       0.27745
MOLE 1
C1    1    0.665265   -0.035409    0.110702    11.00000    0.02280    0.01682 =
         0.02474   -0.00570    0.00488   -0.00467
C2    1    0.606774   -0.020657    0.206271    11.00000    0.01463    0.01420 =
         0.02320   -0.00092    0.00046   -0.00490
C3    1    0.395293    0.054249    0.253875    11.00000    0.01567    0.01654 =
         0.01901   -0.00111    0.00058   -0.00550
C4    1    0.158411    0.127719    0.363552    11.00000    0.01916    0.03156 =
         0.02118   -0.00319    0.00097   -0.00197
N1    3    0.538493    0.031027    0.035510    11.00000    0.03487    0.02265 =
         0.01986   -0.00426    0.00436   -0.00091
N2    3    0.874583   -0.112751    0.100131    11.00000    0.02903    0.02819 =
         0.02936   -0.00791    0.00289   -0.00010
N3    3    0.782090   -0.092312    0.253809    11.00000    0.01940    0.02050 =
         0.03032   -0.00517    0.00180   -0.00191
N4    3    0.216036    0.126829    0.208572    11.00000    0.01987    0.02387 =
         0.02194   -0.00185    0.00394    0.00132
N5    3    0.371946    0.048724    0.347095    11.00000    0.01973    0.02760 =
         0.01780    0.00055    0.00216   -0.00023
MOLE 2
N6    3    0.075064    0.321842    0.053277    11.00000    0.02539    0.02414 =
         0.01841   -0.00082    0.00439   -0.00293
H6A   2    0.106082    0.258522    0.093363    11.00000   -1.20000
H6B   2    0.085975    0.392456    0.087931    11.00000   -1.20000
H6C   2    0.217007    0.324128    0.010053    11.00000   -1.20000
H6D   2   -0.103999    0.315538    0.024907    11.00000   -1.20000
MOLE 1
O1    4    0.546582    0.138670    0.047085    10.50000    0.05306    0.02093 =
         0.02449   -0.00007    0.00081    0.00131
O2    4    0.950459   -0.149159    0.188628    11.00000    0.02442    0.02710 =
         0.03662   -0.00690   -0.00001    0.00569
O3    4    0.052372    0.177282    0.281367    11.00000    0.01981    0.02590 =
         0.02663   -0.00155    0.00163    0.00473
O4    4    0.057961    0.160967    0.437674    11.00000    0.02420    0.06496 =
         0.02538   -0.01159    0.00608    0.00621
HKLF 4

REM  1 in P2(1)/n
REM R1 =  0.0440 for    1025 Fo > 4sig(Fo)  and  0.0701 for all    1340 data
REM    139 parameters refined using     21 restraints

END

WGHT      0.0471      0.1254

REM Highest difference peak  0.270,  deepest hole -0.286,  1-sigma level  0.061
Q1    1   0.2058  0.0796  0.0423  11.00000  0.05    0.27
Q2    1   0.1554  0.1806  0.4994  11.00000  0.05    0.18
Q3    1   0.5102  0.0807  0.3692  11.00000  0.05    0.17
Q4    1  -0.0560  0.1763  0.1200  11.00000  0.05    0.17
Q5    1  -0.3263  0.4421  0.0354  11.00000  0.05    0.16
Q6    1   0.4607  0.0020  0.2193  11.00000  0.05    0.16
Q7    1   0.6610  0.1244  0.2508  11.00000  0.05    0.16
Q8    1   0.4141 -0.0222  0.3671  11.00000  0.05    0.16
Q9    1   0.3620 -0.0599  0.1453  11.00000  0.05    0.15
Q10   1   0.8625 -0.0509  0.2995  11.00000  0.05    0.15
Q11   1   1.0000  0.0000  0.0000  10.50000  0.05    0.15
Q12   1   1.2209 -0.1176  0.1685  11.00000  0.05    0.15
Q13   1   0.3468  0.0400  0.3034  11.00000  0.05    0.15
Q14   1   0.0921  0.0633  0.1517  11.00000  0.05    0.15
Q15   1   0.5157 -0.0163  0.0821  11.00000  0.05    0.15
Q16   1  -0.1430  0.0786  0.2262  11.00000  0.05    0.15
Q17   1   0.4120 -0.1153  0.2642  11.00000  0.05    0.14
Q18   1   0.0574  0.0707  0.4642  11.00000  0.05    0.14
Q19   1   0.5483  0.4338  0.1042  11.00000  0.05    0.14
Q20   1   0.4904  0.1607  0.3977  11.00000  0.05    0.14
;
_shelx_res_checksum              65341
_shelx_hkl_file
;
   1   0   0    0.14    0.17
  -1   0   0    0.17    0.19
  -2   0   0  125.03    2.38
   2   0   0  128.03    2.38
  -3   0   0    0.28    0.44
   3   0   0    0.32    0.41
   4   0   0   15.53    1.22
  -4   0   0   14.43    1.38
   5   0   0    0.04    0.99
  -5   0   0   -0.27    1.08
  -1  -1   0   58.27    1.18
   1  -1   0   59.56    1.14
  -1   1   0   57.94    1.13
   1   1   0   58.55    1.17
  -2  -1   0  286.13    4.49
   2  -1   0  286.07    4.42
  -2   1   0  276.69    4.42
   2   1   0  284.47    4.47
   3  -1   0    1.02    0.51
  -3  -1   0    0.47    0.50
   3   1   0    1.40    0.50
  -3   1   0    0.79    0.47
  -4  -1   0   21.31    1.51
   4  -1   0   24.13    1.48
  -4   1   0   21.96    1.40
   4   1   0   24.02    1.50
   5  -1   0   17.20    1.78
  -5  -1   0   15.30    1.67
   5   1   0   14.84    1.88
  -5   1   0   17.50    1.88
   1  -2   0  706.90    9.60
  -1  -2   0  728.78    9.72
  -1   2   0  715.34    9.62
   1   2   0  711.14    9.69
  -2  -2   0   25.09    0.97
   2  -2   0   26.28    0.93
   2   2   0   25.17    0.97
  -2   2   0   25.20    0.93
   3  -2   0   19.96    1.07
  -3  -2   0   18.77    1.08
   3   2   0   19.64    1.10
  -3   2   0   18.88    1.04
  -4  -2   0   14.44    1.37
   4  -2   0   14.71    1.31
   4   2   0   13.02    1.26
  -4   2   0   12.09    1.19
   5  -2   0   -0.44    1.04
  -5  -2   0    0.34    1.11
   5   2   0   -0.62    1.09
  -5   2   0    0.32    1.06
   0   3   0    0.09    0.20
  -1  -3   0  664.94    9.24
   1  -3   0  667.22    9.13
  -1   3   0  662.34    9.13
   1   3   0  688.91    9.26
   2  -3   0    0.10    0.28
  -2  -3   0    0.30    0.34
   2   3   0   -0.28    0.32
  -2   3   0    0.40    0.31
  -3  -3   0    4.91    0.73
   3  -3   0    4.23    0.66
   3   3   0    5.27    0.75
  -3   3   0    7.49    0.80
   4  -3   0    3.11    0.78
  -4  -3   0    2.37    0.87
  -4   3   0    1.73    0.80
   4   3   0    3.29    0.86
  -5  -3   0    1.40    1.20
   5  -3   0    1.50    1.08
  -5   3   0    0.87    1.13
   5   3   0    1.06    1.13
   0   4   0  361.58    5.22
  -1  -4   0  103.06    2.04
   1  -4   0  104.59    1.96
   1   4   0  105.76    2.05
  -1   4   0  103.92    1.96
   2  -4   0    0.75    0.36
  -2  -4   0    0.86    0.42
   2   4   0    1.05    0.42
  -2   4   0    0.48    0.33
   3  -4   0    1.50    0.54
  -3  -4   0    1.14    0.57
  -3   4   0    1.57    0.55
   3   4   0    2.60    0.78
  -4  -4   0    5.54    1.00
   4  -4   0    6.17    0.91
  -4   4   0    4.63    0.94
   4   4   0    6.98    1.07
  -5  -4   0   18.63    2.22
   5  -4   0   16.41    1.69
  -5   4   0   14.69    1.66
   5   4   0   19.01    2.00
   0   5   0   -0.10    0.26
  -1  -5   0   47.74    1.32
  -1   5   0   46.44    1.23
   1   5   0   47.57    1.32
   2  -5   0  324.54    5.12
  -2  -5   0  316.08    5.27
   2   5   0  324.10    5.30
  -2   5   0  317.48    5.12
   3  -5   0   31.30    1.35
  -3  -5   0   32.52    1.48
   3   5   0   30.78    1.48
  -3   5   0   33.48    1.42
  -4  -5   0    9.06    1.16
   4  -5   0    9.43    1.15
   4   5   0    9.97    1.33
  -4   5   0   10.97    1.37
  -5  -5   0   -1.21    1.32
   5  -5   0    3.05    1.17
  -5   5   0   -1.65    1.26
   0   6   0  160.66    2.91
  -1  -6   0    4.09    0.54
   1   6   0    5.02    0.61
  -1   6   0    4.54    0.57
  -2  -6   0  112.48    2.60
   2  -6   0  115.37    2.47
  -2   6   0  113.44    2.48
   2   6   0  116.64    2.67
   3  -6   0    8.02    0.96
  -3  -6   0    6.74    0.95
  -3   6   0    7.61    0.92
   3   6   0    9.53    1.12
   4  -6   0    0.16    0.84
  -4  -6   0    0.82    0.93
  -4   6   0   -0.59    0.82
   4   6   0    0.11    0.95
   0   7   0    0.09    0.37
  -1   7   0   24.35    1.05
   1   7   0   24.95    1.17
  -2  -7   0   23.15    1.23
   2  -7   0   23.55    1.17
  -2   7   0   24.26    1.18
   2   7   0   22.13    1.30
   3  -7   0    1.57    0.70
  -3  -7   0    1.23    0.76
   3   7   0    1.96    0.81
  -3   7   0    1.82    0.82
   4  -7   0   39.54    1.99
  -4  -7   0   40.33    2.19
   4   7   0   36.92    2.14
  -4   7   0   40.67    2.06
   0   8   0   -0.51    0.41
   1   8   0    4.72    0.72
  -1   8   0    4.04    0.62
  -2  -8   0    8.68    1.00
  -2   8   0    8.50    0.98
   2   8   0    8.20    0.99
   3  -8   0   16.74    1.41
  -3  -8   0   16.70    1.57
  -3   8   0   18.45    1.39
   3   8   0   14.91    1.44
  -4  -8   0    1.59    1.16
   4  -8   0    2.32    1.05
  -4   8   0    1.79    1.07
   4   8   0    0.81    1.22
   0   9   0   -0.02    0.51
   1   9   0    2.51    0.82
  -1   9   0    2.87    0.68
  -2  -9   0    2.18    0.80
   2   9   0    1.51    0.80
  -3  -9   0   23.49    1.73
  -3   9   0   24.14    1.63
   3   9   0   23.68    1.76
  -4  -9   0    0.42    1.24
   4  -9   0    0.04    1.20
   4   9   0    3.71    2.34
  -4   9   0   -1.87    1.13
   0  10   0   22.76    1.38
   0  10   0   20.84    1.36
  -1  10   0   11.89    1.06
   1  10   0    9.43    1.25
  -1  10   0   11.02    1.18
   2  10   0    9.96    1.25
  -2  10   0   11.05    1.24
  -3 -10   0    1.59    1.12
   3  10   0    0.73    1.16
  -3  10   0    0.50    1.00
   0  11   0    0.12    0.72
   0  11   0    0.39    0.68
  -1  11   0    7.06    0.98
   1  11   0    5.26    1.02
  -1  11   0    6.58    0.97
   2  11   0    1.98    1.06
  -2  11   0    0.36    0.83
  -3 -11   0   -1.00    1.33
   3  11   0   -0.43    1.27
  -3  11   0    1.77    1.17
   0  12   0    9.25    1.23
   0  12   0   11.40    1.49
  -1  12   0    0.89    0.86
   1  12   0    1.51    1.00
  -1  12   0    2.68    0.98
   2  12   0    4.80    1.24
  -2  12   0    1.55    1.01
   0  13   0    1.54    1.08
   0  13   0   -0.84    1.03
   1  13   0    6.10    1.41
  -1  13   0    4.45    1.21
  -1  13   0    4.12    1.22
  -5   0   1    2.53    1.09
   5   0  -1    3.12    1.05
   4   0  -1   -0.34    0.63
  -4   0   1    0.74    0.71
   3   0  -1   -0.05    0.41
  -3   0   1   -0.46    0.44
  -2   0   1   -0.13    0.27
   2   0  -1   -0.01    0.28
   1   0  -1    5.16    0.36
  -1   0   1    5.16    0.34
   1   0   1   87.45    1.55
  -1   0  -1   88.96    1.56
  -2   0  -1    0.14    0.30
   2   0   1    0.09    0.28
   3   0   1   33.40    1.32
  -3   0  -1   37.72    1.41
  -4   0  -1   -0.53    0.69
   4   0   1   -0.71    0.62
   5   0   1    2.35    1.16
  -5   0  -1    3.13    1.20
   5  -1  -1    0.13    0.97
  -5  -1   1    2.52    1.07
  -5   1   1    0.24    1.01
   5   1  -1    2.61    1.10
  -4  -1   1   -0.63    0.71
   4  -1  -1   -0.47    0.64
   4   1  -1    0.40    0.63
  -4   1   1    0.12    0.64
  -3  -1   1    0.85    0.46
   3  -1  -1    1.01    0.47
  -3   1   1    0.76    0.45
   3   1  -1    0.62    0.45
   2  -1  -1    0.15    0.25
  -2  -1   1    0.13    0.30
  -2   1   1    0.17    0.29
   2   1  -1   -0.09    0.32
  -1  -1   1    1.51    0.25
   1  -1  -1    1.22    0.21
  -1   1   1    1.49    0.23
   1   1  -1    1.34    0.26
   1  -1   1   22.50    0.67
  -1  -1  -1   22.46    0.68
   1   1   1   23.72    0.69
  -1   1  -1   22.45    0.67
  -2  -1  -1    6.35    0.59
   2  -1   1    7.44    0.62
  -2   1  -1    6.44    0.60
   2   1   1    6.39    0.61
   3  -1   1    0.50    0.46
  -3  -1  -1    0.42    0.48
   3   1   1    0.76    0.51
  -3   1  -1    0.21    0.49
   4  -1   1    2.11    0.76
  -4  -1  -1    2.14    0.79
  -4   1  -1    0.60    0.72
   4   1   1    2.51    0.77
  -5  -1  -1    1.09    1.05
   5  -1   1    2.40    1.10
  -5   1  -1    1.11    1.15
   5   1   1    0.07    1.07
  -5  -2   1    4.13    1.20
   5  -2  -1    0.40    1.03
   5   2  -1    1.30    1.13
  -5   2   1    2.94    1.22
   4  -2  -1   -0.15    0.64
  -4  -2   1    0.10    0.71
  -4   2   1    1.31    0.67
   4   2  -1    0.54    0.75
  -3  -2   1    1.83    0.57
   3  -2  -1    1.75    0.47
   3   2  -1    0.68    0.50
  -3   2   1    1.37    0.52
   2  -2  -1    2.55    0.40
  -2  -2   1    1.87    0.42
  -2   2   1    2.38    0.39
   2   2  -1    2.22    0.43
  -1  -2   1  111.90    1.95
   1  -2  -1  111.04    1.79
  -1   2   1  107.87    1.79
   1   2  -1  110.44    1.95
   0   2   1   33.03    0.65
  -1  -2  -1    0.74    0.26
   1  -2   1    0.59    0.25
   1   2   1    0.46    0.26
  -1   2  -1    0.56    0.23
   2  -2   1    0.44    0.32
  -2  -2  -1    0.16    0.33
   2   2   1    0.47    0.34
  -2   2  -1    0.05    0.31
  -3  -2  -1    0.19    0.48
   3  -2   1   -0.17    0.43
  -3   2  -1   -0.64    0.41
   3   2   1   -0.27    0.48
   4  -2   1    1.58    0.80
  -4  -2  -1    1.94    0.80
  -4   2  -1    0.91    0.80
   4   2   1    1.60    0.76
  -5  -2  -1   -0.27    1.08
   5  -2   1    0.19    1.01
  -5   2  -1    1.28    1.08
   5   2   1   -1.38    1.06
   5  -3  -1    4.19    1.12
  -5  -3   1    5.66    1.39
   5   3  -1    2.18    1.18
  -5   3   1    5.11    1.23
  -4  -3   1   -0.69    0.72
   4  -3  -1   -0.98    0.66
   4   3  -1   -0.40    0.67
  -4   3   1    0.31    0.67
  -3  -3   1    1.99    0.58
   3  -3  -1    1.06    0.52
  -3   3   1    1.63    0.54
   3   3  -1    2.21    0.60
   2  -3  -1   13.70    0.71
  -2  -3   1   13.18    0.81
   2   3  -1   14.11    0.80
  -2   3   1   14.12    0.72
   1  -3  -1   81.77    1.49
  -1  -3   1   81.12    1.65
  -1   3   1   81.28    1.49
   1   3  -1   84.43    1.69
   0   3   1  213.99    3.13
  -1  -3  -1   59.20    1.32
   1  -3   1   59.18    1.31
   1   3   1   59.29    1.33
  -1   3  -1   58.84    1.31
   2  -3   1   33.21    1.10
  -2  -3  -1   34.73    1.19
   2   3   1   33.05    1.15
  -2   3  -1   33.44    1.10
  -3  -3  -1    2.29    0.59
   3  -3   1    2.40    0.59
   3   3   1    1.72    0.58
  -3   3  -1    2.79    0.60
  -4  -3  -1    0.48    0.74
   4  -3   1    1.09    0.72
  -4   3  -1    0.20    0.71
   4   3   1    1.31    0.78
  -5  -3  -1   -0.42    1.17
   5  -3   1   -0.54    1.10
  -5   3  -1    1.67    1.23
   5   3   1    0.65    1.13
   5  -4  -1    1.53    1.15
  -5  -4   1    2.13    1.28
  -5   4   1    0.50    1.10
   5   4  -1    1.72    1.23
   4  -4  -1   30.44    1.51
  -4  -4   1   30.35    1.70
  -4   4   1   32.40    1.71
   4   4  -1   31.35    1.81
  -3  -4   1    3.11    0.68
   3  -4  -1    2.55    0.54
   3   4  -1    3.48    0.81
  -3   4   1    2.85    0.59
  -2  -4   1   13.75    0.88
   2  -4  -1   14.38    0.75
   2   4  -1   12.69    0.83
  -2   4   1   13.15    0.72
   1  -4  -1   31.56    0.89
  -1  -4   1   31.80    1.01
   1   4  -1   33.53    1.06
  -1   4   1   32.44    0.89
   0   4   1   11.13    0.52
  -1  -4  -1    0.09    0.26
   1  -4   1    0.29    0.27
   1   4   1    0.18    0.26
  -1   4  -1    0.04    0.23
   2  -4   1   61.91    1.62
  -2  -4  -1   61.08    1.67
   2   4   1   60.65    1.69
  -2   4  -1   59.62    1.59
  -3  -4  -1   -0.29    0.55
   3  -4   1    0.78    0.49
  -3   4  -1   -0.22    0.48
   3   4   1    0.70    0.68
  -4  -4  -1    1.77    0.83
   4  -4   1   -0.24    0.74
  -4   4  -1    1.19    0.79
   4   4   1   -0.05    0.83
   5  -4   1   -0.50    1.13
  -5  -4  -1    2.01    1.38
   5   4   1    0.89    1.27
  -5   4  -1    2.06    1.27
  -5  -5   1   -1.45    1.29
   5  -5  -1   -1.34    1.13
  -5   5   1   -0.88    1.13
   5   5  -1    0.01    1.51
  -4  -5   1    5.97    1.04
   4  -5  -1    5.47    0.94
   4   5  -1    2.84    1.01
  -4   5   1    5.76    0.97
  -3  -5   1    7.99    0.97
   3  -5  -1    7.68    0.88
   3   5  -1    6.83    0.89
  -3   5   1    7.04    0.93
   2  -5  -1   13.68    0.77
  -2  -5   1   13.34    0.88
  -2   5   1   13.49    0.79
   2   5  -1   14.91    0.95
  -1  -5   1   15.82    0.81
  -1   5   1   15.53    0.69
   1   5  -1   16.47    0.84
   0   5  -1   22.75    0.89
   0   5   1   24.43    0.83
  -1  -5  -1   16.06    0.79
  -1   5  -1   16.01    0.78
   1   5   1   17.16    0.79
   2  -5   1   40.40    1.32
  -2  -5  -1   40.10    1.39
  -2   5  -1   41.60    1.38
   2   5   1   42.05    1.45
   3  -5   1    2.02    0.61
  -3  -5  -1    2.69    0.70
   3   5   1    1.27    0.63
  -3   5  -1    1.68    0.60
   4  -5   1    0.46    0.85
  -4  -5  -1    2.03    0.92
   4   5   1    1.28    0.94
  -4   5  -1    0.55    0.84
  -5  -5  -1   -1.74    1.48
   5  -5   1    0.71    1.18
  -5   5  -1   -2.17    1.31
  -4  -6   1    1.96    0.92
   4  -6  -1    0.98    0.79
   4   6  -1    0.21    0.93
  -4   6   1    1.91    0.95
   3  -6  -1    3.21    0.64
  -3  -6   1    4.89    0.82
  -3   6   1    3.66    0.70
   3   6  -1    4.65    0.86
   2  -6  -1   45.75    1.41
  -2  -6   1   47.22    1.61
   2   6  -1   45.42    1.60
  -2   6   1   46.66    1.41
  -1  -6   1    3.26    0.52
   1   6  -1    5.05    0.65
  -1   6   1    3.08    0.43
   0   6   1    7.11    0.60
   0   6  -1    7.98    0.65
  -1  -6  -1   33.77    1.16
  -1   6  -1   33.15    1.15
   1   6   1   34.62    1.20
   2  -6   1   10.02    0.87
  -2  -6  -1   10.71    0.93
  -2   6  -1    9.06    0.84
   2   6   1    9.31    0.88
  -3  -6  -1    4.29    0.81
   3  -6   1    2.16    0.74
   3   6   1    4.73    0.84
   4  -6   1    0.77    0.85
  -4  -6  -1   -0.03    0.89
  -4   6  -1    1.24    0.94
   4   6   1    0.82    0.99
  -4  -7   1    4.64    1.18
   4  -7  -1    3.24    0.98
   4   7  -1    1.34    1.05
  -4   7   1    3.35    1.05
   3  -7  -1    3.27    0.77
  -3  -7   1    3.13    0.82
   3   7  -1    3.22    0.85
  -3   7   1    2.74    0.71
  -2  -7   1   29.97    1.48
  -2   7   1   31.64    1.26
   2   7  -1   29.06    2.24
  -1   7   1   13.49    0.80
   1   7  -1   11.64    0.89
   0   7   1   11.06    0.77
   0   7  -1    9.76    0.83
  -1  -7  -1    7.94    0.80
  -1   7  -1    7.43    0.78
   1   7   1    7.92    0.82
   2  -7   1   11.39    0.91
  -2  -7  -1    9.15    0.97
  -2   7  -1    9.91    0.88
   2   7   1    9.74    0.99
  -3  -7  -1    0.69    0.74
   3  -7   1    1.32    0.68
   3   7   1    1.17    0.73
  -3   7  -1    1.52    0.70
   4  -7   1    1.51    0.97
  -4  -7  -1    5.24    1.15
  -4   7  -1    2.50    0.99
   4   7   1    2.04    1.13
  -4  -8   1   -0.10    1.11
   4  -8  -1    1.24    0.97
   4   8  -1   -1.73    1.08
  -4   8   1   -0.65    0.98
   3  -8  -1   35.77    1.64
  -3  -8   1   39.59    1.98
   3   8  -1   37.89    1.98
  -3   8   1   35.62    1.68
  -2  -8   1    0.41    0.59
  -2   8   1    0.31    0.49
   2   8  -1    0.12    0.62
   1   8  -1   10.72    1.01
  -1   8   1    8.10    0.78
   0   8   1    7.44    0.80
   0   8  -1    8.58    0.83
  -1   8  -1    0.86    0.49
   1   8   1    0.94    0.52
  -2  -8  -1    8.29    0.98
  -2   8  -1    8.31    0.95
   2   8   1    9.17    1.18
  -3  -8  -1   43.26    2.04
   3  -8   1   40.62    1.88
  -3   8  -1   41.25    1.84
   3   8   1   37.98    1.90
  -4  -8  -1    3.15    1.13
   4  -8   1    4.01    1.11
   4   8   1    3.59    1.32
  -4   8  -1    2.88    1.17
  -4  -9   1   -0.24    1.36
   4  -9  -1    1.48    1.19
  -4   9   1    2.20    1.21
  -3  -9   1    3.07    1.05
  -3   9   1    5.96    0.97
   3   9  -1    7.30    1.21
  -2   9   1   13.14    1.11
   2   9  -1   13.62    1.29
   1   9  -1    2.41    0.68
  -1   9   1    1.95    0.57
   0   9  -1   17.16    1.21
   0   9   1   19.01    1.13
  -1   9  -1    2.94    0.67
   1   9   1    1.87    0.71
  -2  -9  -1    1.14    0.76
  -2   9  -1    0.65    0.67
   2   9   1    0.54    0.76
  -3  -9  -1   30.35    1.92
  -3   9  -1   30.67    1.77
   3   9   1   29.32    2.00
   4  -9   1    0.73    1.27
  -4  -9  -1   -1.46    1.33
   4   9   1    4.59    2.04
  -4   9  -1    2.13    1.21
  -3 -10   1    0.70    1.06
  -3  10   1   -1.38    0.88
   3  10  -1   -0.13    1.04
  -2  10   1   19.78    1.40
   2  10  -1   20.64    1.69
  -1  10   1    2.77    0.69
   1  10  -1    1.12    0.70
  -1  10   1    1.34    0.79
   0  10  -1    1.94    0.69
   0  10   1    1.87    0.63
   0  10  -1    1.04    0.65
  -1  10  -1   21.92    1.37
   1  10   1   16.78    1.33
   2  10   1    3.78    0.93
  -2  10  -1    2.49    0.82
  -3 -10  -1   -0.76    1.00
  -3  10  -1   -0.65    0.97
   3  10   1    1.36    1.13
   3  11  -1    4.18    1.45
  -3  11   1    5.39    1.21
   2  11  -1    1.40    1.06
  -2  11   1    0.48    0.82
   1  11  -1   -0.41    0.81
  -1  11   1    0.39    0.72
  -1  11   1    1.22    0.76
   0  11   1    9.68    1.20
   0  11  -1   10.08    1.37
   0  11   1   13.15    1.28
   0  11  -1   11.12    1.23
  -1  11  -1    7.74    1.06
  -1  11  -1   12.87    1.39
   1  11   1    9.73    1.18
  -2  11  -1    4.91    1.00
   2  11   1    7.05    1.24
  -3 -11  -1   -0.95    1.28
  -3  11  -1    0.47    1.12
   3  11   1   -0.16    1.39
   2  12  -1    7.05    1.44
  -2  12   1    7.64    1.21
  -1  12   1    0.25    0.90
   1  12  -1    3.08    1.12
  -1  12   1    2.27    0.92
   0  12   1    8.69    1.10
   0  12  -1    9.81    1.22
   0  12  -1    8.00    1.16
   0  12   1    7.84    1.09
  -1  12  -1   12.40    1.62
  -1  12  -1   10.09    1.30
   1  12   1   13.34    1.64
   2  12   1   -2.02    1.16
  -2  12  -1    0.39    1.00
  -1  13   1    4.22    1.12
   1  13  -1    2.64    1.31
  -1  13   1    2.55    1.17
   0  13   1   -0.29    1.03
   0  13  -1    2.43    1.18
   0  13   1   -0.36    1.08
   0  13  -1    1.58    1.11
   1  13   1   20.98    2.01
  -1  13  -1   18.13    1.98
  -1  13  -1   17.19    1.91
   5   0  -2   -0.22    1.01
  -5   0   2   -0.07    1.03
   4   0  -2    3.54    0.84
  -4   0   2    4.70    0.83
  -3   0   2   -0.13    0.42
   3   0  -2   -0.42    0.39
  -2   0   2   94.47    1.92
   2   0  -2   95.56    1.90
   1   0  -2    0.07    0.17
  -1   0   2    0.05    0.17
   0   0   2  173.18    2.57
   1   0   2   -0.10    0.20
  -1   0  -2   -0.09    0.20
  -2   0  -2   42.00    1.23
   2   0   2   42.75    1.23
  -3   0  -2    0.16    0.46
   3   0   2   -0.15    0.46
   4   0   2    6.08    0.95
  -4   0  -2    6.77    1.02
   5   0   2    2.03    1.14
  -5   0  -2    0.41    1.12
  -5  -1   2    9.84    1.45
   5  -1  -2    9.25    1.34
  -5   1   2    8.53    1.26
   5   1  -2    7.01    1.23
   4  -1  -2    1.15    0.71
  -4  -1   2    0.15    0.69
  -4   1   2    0.09    0.61
   4   1  -2   -0.15    0.62
  -3  -1   2  158.97    3.19
   3  -1  -2  156.74    3.06
   3   1  -2  155.70    3.14
  -3   1   2  161.50    3.15
   2  -1  -2   26.68    0.88
  -2  -1   2   26.96    0.95
  -2   1   2   27.98    0.92
   2   1  -2   28.39    0.98
   1  -1  -2  451.51    6.09
  -1  -1   2  459.43    6.26
  -1   1   2  446.34    6.09
   1   1  -2  447.52    6.24
   0  -1  -2  175.21    2.33
   0   1   2  175.27    2.33
  -1  -1  -2  137.72    2.25
   1  -1   2  137.92    2.27
   1   1   2  134.10    2.23
  -1   1  -2  138.64    2.28
  -2  -1  -2    3.86    0.51
   2  -1   2    5.53    0.59
  -2   1  -2    5.42    0.56
   2   1   2    4.79    0.55
  -3  -1  -2   41.31    1.52
   3  -1   2   44.25    1.51
  -3   1  -2   43.39    1.53
   3   1   2   39.55    1.47
   4  -1   2   15.11    1.24
  -4  -1  -2   15.29    1.44
   4   1   2   11.53    1.32
  -4   1  -2   14.86    1.30
  -5  -1  -2   29.30    2.10
   5  -1   2   24.43    1.98
   5   1   2   29.96    2.14
  -5   1  -2   31.09    2.30
  -5  -2   2   20.46    1.96
   5  -2  -2   18.52    1.86
  -5   2   2   21.68    1.90
   5   2  -2   18.69    1.81
   4  -2  -2   12.17    1.10
  -4  -2   2   12.76    1.35
  -4   2   2   15.15    1.30
   4   2  -2   14.44    1.27
   3  -2  -2   -0.25    0.41
  -3  -2   2    0.67    0.48
   3   2  -2   -0.04    0.47
  -3   2   2    0.70    0.46
  -2  -2   2  133.25    2.60
   2  -2  -2  139.04    2.45
  -2   2   2  136.95    2.46
   2   2  -2  145.77    2.67
   1  -2  -2    0.87    0.18
  -1  -2   2    0.86    0.25
   1   2  -2    0.89    0.27
  -1   2   2    0.97    0.19
   0  -2  -2   51.68    0.85
   0   2   2   51.89    0.85
  -1  -2  -2  974.92   13.10
   1  -2   2 1000.00   13.18
  -1   2  -2  971.44   13.16
   1   2   2  981.11   13.11
   2  -2   2   25.05    0.97
  -2  -2  -2   24.99    0.99
   2   2   2   25.21    0.99
  -2   2  -2   23.88    0.98
   3  -2   2   27.51    1.29
  -3  -2  -2   27.10    1.33
   3   2   2   25.81    1.25
  -3   2  -2   29.18    1.29
   4  -2   2   10.53    1.28
  -4  -2  -2    7.99    1.07
   4   2   2    5.86    0.95
  -4   2  -2    6.65    1.00
  -5  -2  -2    2.04    1.21
   5  -2   2    2.41    1.23
   5   2   2   -0.04    1.15
  -5   2  -2    5.61    1.26
   5  -3  -2   -0.39    1.00
  -5  -3   2    3.72    1.25
  -5   3   2    3.83    1.13
   5   3  -2    1.64    1.25
  -4  -3   2    0.80    0.76
   4  -3  -2    0.81    0.62
  -4   3   2    1.84    0.69
   4   3  -2    1.36    0.77
   3  -3  -2   18.65    1.01
  -3  -3   2   19.37    1.18
   3   3  -2   21.30    1.16
  -3   3   2   18.29    1.01
  -2  -3   2   10.05    0.72
   2  -3  -2   11.02    0.62
  -2   3   2   11.57    0.64
   2   3  -2   12.46    0.82
   1  -3  -2  185.09    2.74
  -1  -3   2  181.30    3.03
  -1   3   2  181.75    2.75
   1   3  -2  186.97    3.06
   0   3   2  178.63    2.61
   1  -3   2  141.89    2.47
  -1  -3  -2  141.21    2.40
  -1   3  -2  133.77    2.43
   1   3   2  141.08    2.40
   2  -3   2   15.00    0.84
  -2  -3  -2   14.52    0.85
   2   3   2   15.38    0.84
  -2   3  -2   13.57    0.79
  -3  -3  -2   36.69    1.50
   3  -3   2   40.66    1.53
  -3   3  -2   39.79    1.54
   3   3   2   38.14    1.51
  -4  -3  -2   61.88    2.28
   4  -3   2   58.84    2.13
   4   3   2   59.92    2.19
  -4   3  -2   63.15    2.22
   5  -3   2   13.10    1.54
  -5  -3  -2   13.38    1.66
  -5   3  -2   14.07    1.68
   5   3   2   14.12    1.81
  -5  -4   2    3.43    1.35
   5  -4  -2    9.13    1.28
  -5   4   2    6.17    1.28
   5   4  -2    7.11    1.40
  -4  -4   2   27.15    1.67
   4  -4  -2   22.63    1.40
  -4   4   2   19.79    1.40
   4   4  -2   21.10    1.60
  -3  -4   2    5.16    0.77
   3  -4  -2    7.20    0.78
   3   4  -2    6.13    1.28
  -3   4   2    5.23    0.68
   2  -4  -2   40.51    1.14
  -2  -4   2   39.90    1.31
  -2   4   2   38.98    1.13
   2   4  -2   39.12    1.32
   1  -4  -2  254.57    3.71
  -1  -4   2  249.98    4.05
   1   4  -2  248.03    4.03
  -1   4   2  246.54    3.69
   0   4   2   23.22    0.68
   1  -4   2   75.29    1.66
  -1  -4  -2   68.58    1.54
   1   4   2   70.69    1.55
  -1   4  -2   72.32    1.65
   2  -4   2  181.48    3.36
  -2  -4  -2  183.74    3.39
   2   4   2  186.17    3.40
  -2   4  -2  188.39    3.42
  -3  -4  -2    0.52    0.58
   3  -4   2    0.21    0.54
  -3   4  -2    0.03    0.52
   4  -4   2    8.50    1.08
  -4  -4  -2    9.34    1.27
   4   4   2    8.59    1.16
  -4   4  -2    6.73    1.04
  -5  -4  -2    0.19    1.30
   5  -4   2    2.03    1.20
   5   4   2    2.07    1.23
  -5   4  -2   -1.14    1.28
   5  -5  -2    0.86    1.19
  -5  -5   2    1.34    1.26
   5   5  -2   -1.00    2.14
  -5   5   2   -0.07    1.15
   4  -5  -2    0.16    0.69
  -4  -5   2    0.47    0.85
  -4   5   2   -0.59    0.69
   4   5  -2    0.49    0.84
  -3  -5   2   15.83    1.15
   3  -5  -2   14.68    1.01
  -3   5   2   16.78    1.08
   3   5  -2   15.35    1.19
   2  -5  -2    0.07    0.32
  -2  -5   2   -0.47    0.40
   2   5  -2   -0.23    0.41
  -2   5   2    0.24    0.33
  -1  -5   2   25.33    1.01
   1   5  -2   26.80    1.06
  -1   5   2   26.05    0.82
   0   5   2    0.30    0.23
  -1  -5  -2    5.00    0.54
  -1   5  -2    4.54    0.54
   1   5   2    4.76    0.56
   2  -5   2  101.20    2.30
  -2  -5  -2  102.34    2.32
   2   5   2   97.47    2.29
  -2   5  -2   96.26    2.27
  -3  -5  -2    4.91    0.82
  -3   5  -2    3.54    0.84
   3   5   2    4.49    0.83
  -4  -5  -2    9.51    1.22
   4  -5   2    7.69    1.16
  -4   5  -2   10.30    1.34
   4   5   2    7.97    1.17
   5  -5   2   10.06    1.56
  -5   5  -2    9.67    1.72
  -4  -6   2   -0.54    0.92
   4  -6  -2   -0.20    0.73
   4   6  -2    1.39    0.95
  -4   6   2    1.41    0.87
  -3  -6   2    1.69    0.70
   3  -6  -2    1.25    0.54
   3   6  -2    2.17    0.73
  -3   6   2    1.14    0.61
  -2  -6   2    7.17    0.91
   2  -6  -2    6.31    0.67
   2   6  -2    6.97    0.88
  -2   6   2    7.00    0.67
   1   6  -2   54.63    1.58
  -1   6   2   55.04    1.35
   0   6   2   12.31    0.67
   0   6  -2   11.58    0.81
  -1  -6  -2   45.90    1.35
   1   6   2   45.74    1.36
  -1   6  -2   47.44    1.43
  -2  -6  -2    4.32    0.65
   2  -6   2    4.53    0.69
   2   6   2    3.66    0.69
  -2   6  -2    6.28    0.84
  -3  -6  -2   97.78    2.70
   3  -6   2   97.69    2.62
   3   6   2  101.49    2.75
  -3   6  -2  102.52    2.68
  -4  -6  -2    2.63    0.95
   4  -6   2    1.32    0.92
   4   6   2    1.15    1.01
  -4   6  -2    1.91    0.96
   4  -7  -2    0.59    0.88
  -4  -7   2    2.13    1.09
  -4   7   2   -0.65    0.94
   4   7  -2    1.40    1.02
  -3  -7   2   10.96    1.21
   3  -7  -2   12.51    1.09
   3   7  -2   13.25    1.37
  -3   7   2   12.99    1.12
   2   7  -2   12.59    1.36
  -2   7   2   12.83    0.87
   1   7  -2   24.54    1.17
  -1   7   2   24.87    0.99
   0   7  -2   13.08    0.92
   0   7   2   12.92    0.77
  -1  -7  -2    3.69    0.56
   1   7   2    4.61    0.64
  -1   7  -2    4.97    0.65
   2  -7   2   20.57    1.21
  -2  -7  -2   21.50    1.19
   2   7   2   20.93    1.20
  -2   7  -2   22.60    1.19
   3  -7   2    6.27    0.93
  -3  -7  -2    6.60    1.00
   3   7   2    5.55    0.93
  -3   7  -2    4.76    0.92
   4  -7   2    0.10    0.98
  -4  -7  -2    2.09    1.10
  -4   7  -2   -0.22    1.02
   4   7   2    0.15    1.04
   4  -8  -2   -0.33    0.95
  -4  -8   2    0.30    1.12
   4   8  -2   -1.19    1.14
  -4   8   2   -0.58    1.01
  -3  -8   2    1.28    0.84
  -3   8   2    1.28    0.72
   3   8  -2    0.87    0.84
  -2  -8   2    0.64    0.69
   2   8  -2    1.08    0.75
  -2   8   2    1.71    0.54
   1   8  -2   -0.29    0.52
  -1   8   2    0.29    0.40
   0   8  -2   -0.60    0.46
   0   8   2    0.56    0.44
   1   8   2    9.27    0.94
  -1   8  -2    9.55    0.96
  -2  -8  -2   27.49    1.77
   2   8   2   29.16    1.45
  -2   8  -2   27.99    1.76
   3  -8   2   88.59    2.71
  -3  -8  -2   90.40    2.78
   3   8   2   88.47    2.74
  -3   8  -2   89.30    2.70
   4  -8   2    1.64    1.15
  -4  -8  -2    0.74    1.20
  -4   8  -2    4.71    1.26
   4   8   2    3.54    1.27
   4  -9  -2    0.96    1.15
  -4   9   2   -0.77    1.13
  -3  -9   2   13.04    1.56
  -3   9   2   13.70    1.35
   3   9  -2   13.34    1.75
   2   9  -2    2.07    0.86
  -2   9   2    2.49    0.63
  -1   9   2    9.31    0.89
   1   9  -2    9.70    1.17
  -1   9   2    9.30    0.92
   0   9  -2   15.66    1.41
   0   9   2   14.69    1.02
   1   9   2    0.06    0.54
  -1   9  -2   -0.29    0.71
  -2  -9  -2    5.04    0.87
  -2   9  -2    3.97    0.84
   2   9   2    3.91    0.84
  -3  -9  -2    2.11    1.01
   3   9   2    0.19    1.00
  -3   9  -2    2.52    0.96
  -4  -9  -2    9.48    1.52
   4   9   2   15.37    2.06
  -4   9  -2    9.74    1.66
  -3 -10   2   -0.63    1.08
  -3  10   2   -0.62    0.88
   3  10  -2   -0.02    1.08
  -2  10   2    0.82    0.80
   2  10  -2   -0.72    0.91
  -1  10   2    1.73    0.63
   1  10  -2    0.96    0.79
  -1  10   2    2.02    0.60
   0  10   2    0.28    0.58
   0  10  -2   -0.25    0.65
   0  10  -2    1.02    0.70
   1  10   2   -0.38    0.67
  -1  10  -2    1.45    0.69
  -2 -10  -2    6.51    1.07
  -2  10  -2    7.30    1.10
   2  10   2    7.69    1.12
  -3 -10  -2    0.90    1.16
  -3  10  -2    1.90    1.08
   3  10   2    1.29    1.12
  -3  11   2    2.09    1.12
   3  11  -2    4.33    2.04
  -2  11   2    1.50    0.80
   2  11  -2    1.41    1.04
   1  11  -2    0.06    0.83
  -1  11   2    1.21    0.72
  -1  11   2    1.10    0.71
   0  11  -2    0.99    0.84
   0  11   2   -0.65    0.66
   0  11  -2    1.77    0.86
   0  11   2   -0.36    0.66
   1  11   2    7.45    1.02
  -1  11  -2    7.24    1.10
  -1  11  -2    6.90    1.09
   2  11   2    3.03    1.11
  -2  11  -2    2.82    1.02
  -3 -11  -2   -1.31    1.23
  -3  11  -2    1.37    1.20
   3  11   2    2.95    1.43
  -2  12   2    4.07    1.01
   2  12  -2    5.20    1.47
  -2  12   2    5.28    1.14
   1  12  -2    1.46    1.10
  -1  12   2    1.17    0.85
  -1  12   2    1.99    0.91
   0  12  -2    2.77    1.06
   0  12  -2   -0.67    0.94
   0  12   2   -0.39    0.76
   0  12   2    1.05    0.85
   1  12   2    0.37    0.90
  -1  12  -2    0.33    0.99
  -1  12  -2    2.44    1.04
  -2  12  -2    1.03    1.17
   2  12   2    0.55    1.20
   1  13  -2    3.41    1.38
  -1  13   2    4.29    1.17
   0  13   2    3.90    1.08
   0  13  -2    3.07    1.23
   0  13   2   -1.10    1.01
   0  13  -2    1.66    1.20
   1  13   2    3.67    1.22
  -1  13  -2    3.50    1.35
   5   0  -3   -2.09    0.95
  -5   0   3   -0.81    1.09
   4   0  -3   -0.05    0.65
  -4   0   3    0.56    0.68
  -3   0   3   10.44    0.84
   3   0  -3   14.12    0.94
   2   0  -3   -0.54    0.27
  -2   0   3    0.00    0.26
  -1   0   3   79.66    1.39
   1   0  -3   81.09    1.40
   0   0  -3    0.01    0.10
   0   0   3    0.11    0.11
   1   0   3   57.58    1.23
  -1   0  -3   58.07    1.23
  -2   0  -3   -0.05    0.34
   2   0   3   -0.37    0.31
   3   0   3    5.98    0.78
  -3   0  -3    5.53    0.75
   4   0   3   -0.46    0.65
  -5   0  -3    4.54    1.35
   5   0   3    1.54    1.19
   5  -1  -3    2.11    1.02
  -5  -1   3    0.09    1.05
  -5   1   3    1.56    1.02
   5   1  -3    3.52    1.15
  -4  -1   3    0.86    0.70
   4  -1  -3    0.40    0.64
   4   1  -3    0.98    0.70
  -4   1   3    0.08    0.64
  -3  -1   3   -0.41    0.42
   3  -1  -3    0.29    0.42
  -3   1   3    0.04    0.45
   3   1  -3    0.06    0.45
  -2  -1   3   16.23    0.79
   2  -1  -3   17.10    0.72
  -2   1   3   16.97    0.72
   2   1  -3   16.98    0.81
  -1  -1   3   27.76    0.75
   1  -1  -3   28.28    0.63
  -1   1   3   27.17    0.63
   1   1  -3   28.28    0.78
   0  -1  -3    0.41    0.09
   0   1   3    0.53    0.10
   0   1  -3    0.20    0.16
   1  -1   3    9.18    0.51
  -1  -1  -3    8.84    0.48
   1   1   3    8.71    0.50
  -1   1  -3    9.20    0.53
  -2  -1  -3    0.15    0.33
   2  -1   3    0.04    0.31
   2   1   3    0.21    0.32
  -2   1  -3    0.93    0.36
  -3  -1  -3   -0.27    0.48
   3  -1   3   -0.41    0.45
   3   1   3    0.64    0.53
  -3   1  -3   -0.20    0.49
   4  -1   3   -0.52    0.69
  -4  -1  -3    0.00    0.75
   4   1   3    0.99    0.69
  -4   1  -3    0.31    0.70
  -5  -1  -3    4.24    1.31
   5  -1   3    4.93    1.20
   5   1   3    0.72    1.14
  -5   1  -3    2.45    1.19
   5  -2  -3    0.77    1.03
  -5  -2   3   -0.52    1.03
  -5   2   3    1.63    1.10
   5   2  -3    1.14    1.15
  -4  -2   3   14.72    1.31
   4  -2  -3   19.32    1.30
   4   2  -3   14.93    1.28
  -4   2   3   15.51    1.31
  -3  -2   3   15.97    1.02
   3  -2  -3   17.84    0.96
   3   2  -3   16.33    1.03
  -3   2   3   17.05    0.98
   2  -2  -3   17.00    0.71
  -2  -2   3   17.42    0.82
  -2   2   3   16.60    0.71
   2   2  -3   16.32    0.83
   1  -2  -3   58.80    1.01
  -1  -2   3   57.95    1.29
   1   2  -3   58.31    1.29
  -1   2   3   58.04    1.01
   0  -2  -3    3.78    0.20
   0   2   3    3.92    0.21
  -1  -2  -3    3.67    0.42
   1  -2   3    3.86    0.46
  -1   2  -3    3.99    0.43
   1   2   3    4.44    0.43
  -2  -2  -3    4.28    0.55
   2  -2   3    4.71    0.63
  -2   2  -3    4.24    0.56
   2   2   3    4.28    0.58
  -3  -2  -3    3.52    0.69
   3  -2   3    4.10    0.67
   3   2   3    4.69    0.71
  -3   2  -3    4.30    0.69
  -4  -2  -3   -0.17    0.81
   4  -2   3    2.05    0.80
   4   2   3    0.52    0.73
  -4   2  -3    1.80    0.79
  -5  -2  -3   -1.71    1.16
   5  -2   3   -0.31    1.07
  -5   2  -3   -0.48    1.16
   5   2   3    0.88    1.14
   5  -3  -3    8.52    1.30
  -5  -3   3   11.17    1.56
  -5   3   3    9.66    1.32
   5   3  -3    7.67    1.45
  -4  -3   3    2.81    0.84
   4  -3  -3    0.57    0.67
  -4   3   3    1.44    0.76
   4   3  -3    0.27    0.76
  -3  -3   3    0.42    0.53
   3  -3  -3    0.03    0.40
   3   3  -3   -0.14    0.49
  -3   3   3    0.53    0.44
  -2  -3   3   40.90    1.30
   2  -3  -3   39.78    1.06
  -2   3   3   39.63    1.07
   2   3  -3   38.22    1.26
   1  -3  -3    0.76    0.17
  -1  -3   3    1.01    0.30
   1   3  -3    0.33    0.31
  -1   3   3    0.55    0.16
   0  -3  -3   94.82    1.50
   0   3   3   95.54    1.50
  -1  -3  -3    4.25    0.44
   1  -3   3    4.92    0.49
   1   3   3    5.36    0.47
  -1   3  -3    4.52    0.50
   2  -3   3   -0.22    0.31
  -2  -3  -3   -0.64    0.32
  -2   3  -3   -0.04    0.35
   2   3   3    0.31    0.39
  -3  -3  -3    4.49    0.76
   3  -3   3    4.97    0.76
   3   3   3    4.66    0.79
  -3   3  -3    4.75    0.77
   4  -3   3    1.43    0.79
  -4  -3  -3    1.38    0.85
   4   3   3    2.19    0.83
  -4   3  -3    2.17    0.88
  -5  -3  -3    1.01    1.23
   5  -3   3    3.55    1.29
   5   3   3    1.22    1.26
  -5   3  -3    1.13    1.23
   5  -4  -3   -0.87    1.04
  -5  -4   3   -0.59    1.27
  -5   4   3   -0.75    1.05
   5   4  -3   -1.23    1.31
  -4  -4   3    1.69    0.84
   4  -4  -3    1.09    0.68
   4   4  -3    1.16    0.82
  -4   4   3    0.50    0.68
  -3  -4   3    0.18    0.60
   3  -4  -3    0.24    0.42
  -3   4   3    0.05    0.45
   2  -4  -3    0.37    0.28
  -2  -4   3    0.88    0.39
   2   4  -3    0.25    0.41
  -2   4   3    0.00    0.28
  -1  -4   3   11.07    0.67
   1   4  -3   10.94    0.71
  -1   4   3   11.27    0.46
   0   4   3    9.69    0.44
   1  -4   3   18.53    0.84
  -1  -4  -3   17.84    0.73
  -1   4  -3   18.95    0.86
   1   4   3   19.16    0.77
  -2  -4  -3    1.05    0.43
   2  -4   3    0.77    0.44
   2   4   3    1.48    0.46
  -2   4  -3    1.09    0.44
  -3  -4  -3    1.06    0.69
   3  -4   3    0.21    1.00
  -3   4  -3    1.10    0.59
   4  -4   3   12.51    1.45
  -4  -4  -3   11.16    1.33
  -4   4  -3   10.04    1.26
   4   4   3    8.66    1.16
  -5  -4  -3    0.29    1.27
   5  -4   3    0.08    1.28
  -5   4  -3    1.51    1.30
   5   4   3   -3.48    1.41
   5  -5  -3   -1.32    1.10
  -5  -5   3    1.49    1.30
  -5   5   3   -0.59    1.16
  -4  -5   3    2.09    0.85
   4  -5  -3    1.19    0.74
   4   5  -3    0.39    0.84
  -4   5   3   -0.07    0.70
   3  -5  -3   13.43    0.93
  -3  -5   3   14.69    1.13
  -3   5   3   10.78    0.94
   3   5  -3   12.03    1.11
  -2  -5   3   -0.37    0.40
   2  -5  -3    0.15    0.30
  -2   5   3    0.59    0.31
   2   5  -3    0.67    0.49
  -1   5   3   10.73    0.52
   1   5  -3   11.24    0.79
   0   5   3    0.61    0.25
  -1  -5  -3    0.23    0.29
  -1   5  -3    0.18    0.35
   1   5   3   -0.15    0.29
  -2  -5  -3    3.64    0.58
   2  -5   3    3.73    0.60
   2   5   3    3.84    0.59
  -2   5  -3    3.74    0.61
   3  -5   3    5.12    0.84
  -3  -5  -3    4.89    0.84
  -3   5  -3    5.16    0.82
   3   5   3    4.18    0.78
   4  -5   3   10.52    1.38
  -4  -5  -3    6.58    1.11
  -4   5  -3    7.78    1.14
   4   5   3    7.75    1.14
  -5   5  -3    0.65    1.38
  -4  -6   3    1.17    0.95
   4  -6  -3   -0.23    0.75
  -4   6   3    0.15    0.79
   4   6  -3    1.50    0.98
  -3  -6   3    7.79    1.06
   3  -6  -3    6.60    0.83
  -3   6   3    5.96    0.74
   3   6  -3    5.92    0.92
   2  -6  -3    5.50    0.62
  -2  -6   3    7.34    0.85
  -2   6   3    6.32    0.65
   2   6  -3    7.25    0.89
   1   6  -3   -0.27    0.38
  -1   6   3    0.09    0.26
   0   6   3   11.39    0.62
  -1  -6  -3    0.91    0.35
   1   6   3    1.04    0.39
  -1   6  -3    0.94    0.43
   2  -6   3    1.54    0.54
  -2  -6  -3    0.34    0.49
   2   6   3    0.42    0.51
  -2   6  -3    0.61    0.54
   3  -6   3   36.38    1.69
  -3  -6  -3   34.29    1.68
  -3   6  -3   34.94    1.62
   3   6   3   37.38    1.68
   4  -6   3    3.71    1.01
  -4  -6  -3    3.01    1.02
   4   6   3    1.58    1.03
  -4   6  -3    2.89    1.08
  -4  -7   3    5.12    1.18
   4  -7  -3    2.24    0.88
   4   7  -3    1.97    1.11
  -4   7   3    1.65    0.90
   3  -7  -3    4.22    0.72
  -3  -7   3    3.56    0.87
  -3   7   3    4.94    0.75
   3   7  -3    4.08    0.94
  -2  -7   3    2.78    0.68
   2   7  -3    1.17    0.63
  -2   7   3    1.47    0.43
   1   7  -3    1.25    0.52
  -1   7   3    1.47    0.36
   0   7  -3   24.58    1.20
   0   7   3   24.71    0.96
  -1  -7  -3    5.55    0.69
   1   7   3    5.55    0.75
  -1   7  -3    6.61    0.77
  -2  -7  -3   -0.54    0.52
   2   7   3    0.47    0.58
  -2   7  -3   -0.61    0.56
  -3  -7  -3    2.44    0.83
   3  -7   3    2.50    0.84
  -3   7  -3    3.58    0.91
   3   7   3    3.34    0.93
  -4  -7  -3    2.46    1.08
   4  -7   3    3.86    1.10
  -4   7  -3    1.59    1.07
   4   7   3    1.38    1.13
  -4  -8   3   -0.29    1.14
   4  -8  -3   -0.44    0.92
   4   8  -3    0.87    1.18
  -4   8   3   -0.34    0.99
  -3  -8   3   -0.52    0.81
   3  -8  -3    1.01    0.65
   3   8  -3    0.45    0.85
  -3   8   3    1.64    0.69
  -2   8   3   13.62    0.95
   2   8  -3   14.31    1.33
  -1   8   3    8.05    0.74
   1   8  -3    8.16    1.12
  -1   8   3    8.42    0.72
   0   8  -3    0.84    0.54
   0   8  -3    0.71    0.52
   0   8   3    0.54    0.42
  -1   8  -3    1.18    0.56
   1   8   3    1.00    0.52
  -2   8  -3   18.86    1.33
   2   8   3   19.18    1.35
  -3  -8  -3    6.54    1.04
   3  -8   3   10.71    1.27
  -3   8  -3   11.75    1.47
   3   8   3    9.55    1.26
  -4  -8  -3    1.49    1.11
   4  -8   3    4.50    1.24
  -4   8  -3    2.20    1.19
   4   8   3   -0.88    1.21
  -3  -9   3    7.07    1.21
  -3   9   3    5.97    1.65
   3   9  -3    8.13    1.31
   2   9  -3    4.20    0.95
  -2   9   3    4.24    0.67
  -1   9   3    2.05    0.54
  -1   9   3    3.40    0.58
   1   9  -3    2.44    0.74
   0   9   3    1.40    0.52
   0   9  -3    1.35    0.65
   0   9  -3    1.84    0.69
  -1   9  -3   14.78    1.15
   1   9   3   14.79    1.15
  -2  -9  -3    7.52    1.00
  -2   9  -3    5.94    0.98
   2   9   3    6.79    0.97
  -3  -9  -3    2.10    1.00
   3   9   3    5.21    1.10
  -3   9  -3    4.98    1.09
   3  10  -3    2.24    1.20
  -3  10   3   -0.65    0.82
  -2  10   3    3.46    0.72
   2  10  -3    2.67    1.07
  -1  10   3   29.91    1.36
   1  10  -3   33.24    1.75
  -1  10   3   31.64    1.37
   0  10   3    3.15    0.67
   0  10  -3    2.80    0.87
   0  10  -3    1.05    0.77
  -1  10  -3    1.07    0.75
   1  10   3    2.46    0.78
  -2 -10  -3   37.56    1.94
  -2  10  -3   34.52    1.83
   2  10   3   33.84    1.76
  -3 -10  -3    4.91    1.20
   3  10   3    1.22    1.14
  -3  10  -3    1.22    1.11
  -2  11   3   14.40    1.38
  -2  11   3   11.82    1.32
   2  11  -3   11.31    1.46
  -1  11   3    3.23    0.74
   1  11  -3    2.55    0.99
  -1  11   3    1.12    0.91
   0  11   3    0.91    0.69
   0  11   3   -0.41    1.25
   0  11  -3   -0.46    0.79
   0  11  -3   -0.24    0.80
  -1  11  -3   18.07    1.67
  -1  11  -3   18.48    1.52
   1  11   3   15.92    1.47
  -2  11  -3    4.94    1.09
   2  11   3    3.68    1.11
  -2  12   3   11.95    1.55
  -2  12   3    9.92    1.24
   2  12  -3   11.34    1.65
  -1  12   3   21.17    1.55
  -1  12   3   22.33    1.54
   1  12  -3   22.43    1.88
   0  12   3    1.51    0.83
   0  12   3    1.75    0.85
   0  12  -3    1.85    1.10
   0  12  -3    0.04    1.01
  -1  12  -3    2.66    1.09
   1  12   3    0.34    0.99
  -1  12  -3    4.40    1.16
   2  12   3    0.38    1.16
  -2  12  -3    0.91    1.17
   0  13   3    2.70    1.03
   0  13   3    3.04    1.05
   0  13  -3   -0.76    1.17
   0  13  -3   -0.44    1.22
  -5   0   4   -0.88    1.01
   5   0  -4    0.77    1.03
   4   0  -4   80.24    2.34
  -4   0   4   84.76    2.45
  -3   0   4    0.06    0.43
   3   0  -4    0.68    0.46
   2   0  -4   14.55    0.70
  -2   0   4   12.78    0.68
   1   0  -4    0.08    0.17
  -1   0   4   -0.13    0.16
   0   0  -4   89.30    1.46
   0   0   4   90.71    1.47
  -1   0  -4    0.55    0.24
   1   0   4    0.25    0.23
   2   0   4   17.32    0.86
  -2   0  -4   15.82    0.83
  -3   0  -4    0.96    0.57
   3   0   4    0.36    0.50
   4   0   4    0.60    0.72
  -4   0  -4   -0.97    0.74
   5   0   4   -2.09    1.19
  -5   0  -4   -0.36    1.17
   5  -1  -4    1.54    0.99
  -5  -1   4    4.38    1.22
   5   1  -4    2.30    1.09
  -5   1   4    3.91    1.16
  -4  -1   4    1.58    0.72
   4  -1  -4    3.01    0.76
   4   1  -4    2.44    0.79
  -4   1   4    2.31    0.72
  -3  -1   4    0.94    0.48
   3  -1  -4   -0.05    0.40
   3   1  -4    0.42    0.49
  -3   1   4    0.02    0.41
   2  -1  -4   61.59    1.38
  -2  -1   4   58.80    1.48
   2   1  -4   62.77    1.51
  -2   1   4   61.42    1.39
   1  -1  -4   49.26    0.91
  -1  -1   4   49.12    1.10
  -1   1   4   49.61    0.91
   1   1  -4   49.94    1.11
   0  -1  -4   90.90    1.39
   0   1  -4   95.83    1.64
   0   1   4   92.47    1.39
  -1  -1  -4    2.90    0.36
   1  -1   4    3.06    0.39
  -1   1  -4    2.95    0.39
   1   1   4    2.94    0.40
   2  -1   4   71.23    1.76
  -2  -1  -4   69.55    1.71
   2   1   4   67.91    1.69
  -2   1  -4   69.12    1.75
  -3  -1  -4   11.55    0.99
   3  -1   4   11.53    0.98
   3   1   4   12.85    1.01
  -3   1  -4   12.26    1.09
  -4  -1  -4    0.26    0.82
   4  -1   4    0.35    0.75
  -4   1  -4   -0.25    0.76
   4   1   4   -0.29    0.71
  -5  -1  -4   15.06    1.93
   5  -1   4   18.82    2.10
   5   1   4   19.93    2.01
  -5   1  -4   17.49    1.94
  -5  -2   4    2.85    1.16
   5  -2  -4    6.77    1.22
  -5   2   4    6.49    1.21
   5   2  -4    4.15    1.16
   4  -2  -4    0.64    0.63
  -4  -2   4    0.92    0.76
   4   2  -4   -0.51    0.72
  -3  -2   4   29.84    1.32
   3  -2  -4   28.63    1.13
  -3   2   4   27.75    1.17
   3   2  -4   26.66    1.29
   2  -2  -4   24.52    0.80
  -2  -2   4   24.72    0.96
  -2   2   4   24.45    0.82
   2   2  -4   24.57    0.97
   1  -2  -4   76.39    1.19
  -1  -2   4   77.30    1.58
  -1   2   4   76.27    1.19
   1   2  -4   76.34    1.57
   0  -2  -4    2.39    0.18
   0   2  -4    1.53    0.29
   0   2   4    2.06    0.17
   1  -2   4   64.57    1.49
  -1  -2  -4   62.93    1.35
   1   2   4   67.66    1.38
  -1   2  -4   65.48    1.48
   2  -2   4   40.10    1.31
  -2  -2  -4   40.55    1.30
   2   2   4   40.15    1.26
  -2   2  -4   37.07    1.26
   3  -2   4    1.21    0.60
  -3  -2  -4    0.49    0.58
  -3   2  -4    0.78    0.54
   3   2   4    0.42    0.56
  -4  -2  -4    5.10    1.01
   4  -2   4    6.91    1.04
  -4   2  -4    6.23    1.07
   4   2   4    5.49    1.01
   5  -2   4   16.77    1.93
  -5  -2  -4   14.54    1.72
   5   2   4   14.81    1.92
  -5   2  -4   15.34    1.92
  -5  -3   4   -0.59    1.24
   5  -3  -4   -1.50    1.03
  -5   3   4    2.28    1.13
   5   3  -4    2.55    1.28
  -4  -3   4    2.19    0.85
   4  -3  -4    2.20    0.87
   4   3  -4    2.82    0.86
  -3  -3   4    7.97    0.99
   3  -3  -4    7.37    0.77
   3   3  -4    7.59    1.00
  -3   3   4    8.15    0.80
   2  -3  -4   24.10    0.80
  -2  -3   4   24.58    1.06
   2   3  -4   24.69    1.03
  -2   3   4   23.86    0.80
  -1  -3   4   23.96    0.87
   1  -3  -4   24.06    0.52
  -1   3   4   23.72    0.52
   1   3  -4   24.22    0.88
   0  -3  -4    1.21    0.16
   0   3  -4    1.29    0.33
   0   3   4    1.01    0.16
   1  -3   4   65.21    1.55
  -1  -3  -4   66.21    1.41
   1   3   4   67.33    1.42
  -1   3  -4   65.67    1.58
  -2  -3  -4    9.16    0.71
   2  -3   4    8.58    0.75
  -2   3  -4    8.23    0.72
   2   3   4    9.15    0.71
  -3  -3  -4   31.45    1.48
   3   3   4   29.63    1.49
  -3   3  -4   27.21    1.63
   4  -3   4    9.18    1.24
  -4  -3  -4    6.50    1.10
  -4   3  -4    7.95    1.19
   4   3   4    8.90    1.16
   5  -3   4   -0.38    1.29
  -5  -3  -4   -1.56    1.24
   5   3   4    0.60    1.23
  -5   3  -4    0.44    1.44
   5  -4  -4    0.47    1.07
  -5  -4   4   -1.19    1.27
  -5   4   4   -1.81    1.10
   5   4  -4    2.63    1.28
   4  -4  -4   23.08    1.70
  -4  -4   4   23.30    1.60
  -4   4   4   21.88    2.42
   4   4  -4   28.92    1.82
   3  -4  -4    6.36    0.74
  -3   4   4    6.18    0.69
   3   4  -4    6.58    1.10
   2  -4  -4    3.76    0.45
  -2  -4   4    4.91    0.65
   2   4  -4    4.91    0.64
  -2   4   4    4.42    0.48
   1   4  -4   10.32    0.74
  -1   4   4   10.59    0.39
   0   4   4    0.33    0.17
   1  -4   4   14.39    0.79
  -1  -4  -4   13.69    0.66
   1   4   4   16.02    0.71
  -1   4  -4   14.25    0.78
  -2  -4  -4   17.77    0.97
   2  -4   4   16.58    0.97
  -2   4  -4   19.03    1.01
   2   4   4   18.90    0.96
   3  -4   4    4.26    0.77
  -3   4  -4    5.43    0.83
   3   4   4    4.35    0.93
  -4  -4  -4    0.77    0.85
   4  -4   4   -1.85    0.77
   4   4   4    1.27    0.83
  -4   4  -4   -0.38    0.85
  -5  -4  -4    1.84    1.59
   5  -4   4   -0.09    1.42
  -5   4  -4   -0.68    1.45
  -4  -5   4    2.59    0.95
   4  -5  -4    3.41    0.78
   4   5  -4    5.27    1.07
  -3  -5   4    1.32    0.65
   3  -5  -4    2.38    0.53
  -3   5   4    1.38    0.49
   3   5  -4    1.87    0.72
   2  -5  -4   28.12    0.90
  -2  -5   4   24.79    1.20
   2   5  -4   26.55    1.29
  -2   5   4   25.46    0.89
   1   5  -4   24.09    1.04
  -1   5   4   23.60    0.67
   0   5   4    1.77    0.29
  -1  -5  -4    0.67    0.31
   1   5   4    0.53    0.33
  -1   5  -4    0.48    0.38
   2  -5   4    2.20    0.55
  -2  -5  -4    2.26    0.51
   2   5   4    1.58    0.53
  -2   5  -4    3.39    0.60
  -3  -5  -4   -0.13    0.64
   3  -5   4    0.20    0.61
   3   5   4   -0.58    0.59
  -3   5  -4    0.65    0.62
   4  -5   4   14.48    1.57
  -4  -5  -4   14.51    1.50
   4   5   4   18.43    1.59
  -4   5  -4   14.80    1.58
   4  -6  -4    1.51    0.77
  -4  -6   4    0.04    0.96
  -4   6   4    2.02    0.82
   4   6  -4   -0.55    0.93
   3  -6  -4   15.67    0.99
  -3  -6   4   15.52    1.28
   3   6  -4   16.17    1.29
  -3   6   4   14.36    1.03
   2  -6  -4   58.61    1.42
  -2  -6   4   57.14    1.86
   2   6  -4   55.79    1.90
  -2   6   4   58.93    1.43
  -1   6   4    5.29    0.46
   1   6  -4    4.47    0.64
   0   6   4    6.62    0.53
   0   6  -4    6.65    0.70
  -1  -6  -4   12.95    0.78
   1   6   4   13.65    0.81
  -1   6  -4   12.94    0.90
  -2  -6  -4    2.50    0.59
   2  -6   4    1.31    0.56
   2   6   4    1.48    0.55
  -2   6  -4    1.44    0.57
  -3  -6  -4    4.39    0.88
   3  -6   4    4.65    0.91
  -3   6  -4    4.39    0.86
   3   6   4    3.70    0.88
   4  -6   4    6.28    1.23
  -4  -6  -4    5.47    1.25
   4   6   4    5.02    1.17
  -4   6  -4    3.73    1.12
   4  -7  -4    3.54    0.93
  -4  -7   4    3.82    1.24
   4   7  -4    4.94    1.24
  -4   7   4    4.47    0.96
   3  -7  -4    5.30    0.71
  -3  -7   4    4.77    0.96
   3   7  -4    5.31    1.04
  -3   7   4    6.06    0.77
  -2  -7   4    3.16    0.71
   2   7  -4    4.02    0.78
  -2   7   4    2.85    0.48
  -1   7   4   10.01    0.63
  -1   7   4   10.73    0.66
   1   7  -4   11.00    0.95
   0   7  -4  104.22    2.48
   0   7   4  100.03    2.01
   0   7  -4   97.18    2.40
  -1  -7  -4    0.49    0.40
  -1   7  -4   -0.04    0.47
   1   7   4    0.60    0.47
  -2  -7  -4   40.34    1.55
   2  -7   4   39.90    1.61
   2   7   4   40.13    1.59
  -2   7  -4   39.54    1.63
   3  -7   4    1.14    0.77
  -3  -7  -4    0.17    0.73
  -3   7  -4   -0.59    0.78
   3   7   4    0.52    0.74
  -4  -7  -4    0.07    1.14
   4  -7   4    4.64    1.22
   4   7   4    0.23    1.05
  -4   7  -4    1.79    1.16
   4  -8  -4    1.82    0.95
  -4  -8   4    2.04    1.29
   4   8  -4    2.35    1.33
  -4   8   4    0.84    0.98
  -3  -8   4    3.27    0.99
  -3   8   4    2.36    0.68
   3   8  -4    6.68    1.18
  -2   8   4    8.59    0.80
   2   8  -4    9.40    1.26
  -1   8   4   -0.02    0.35
   1   8  -4   -0.05    0.60
  -1   8   4    1.01    0.41
   0   8   4   12.42    0.82
   0   8  -4   14.46    1.20
  -1  -8  -4   24.13    1.15
   1   8   4   25.21    1.21
  -1   8  -4   23.05    1.65
  -2  -8  -4   -1.79    0.97
  -2   8  -4    0.20    0.72
  -3  -8  -4    1.44    0.91
   3  -8   4    2.32    0.95
  -3   8  -4    0.72    0.94
   3   8   4    2.71    0.94
   4  -8   4    3.81    1.34
  -4  -8  -4    3.05    1.38
   4   8   4    3.20    1.34
  -4   8  -4    2.99    1.31
  -3  -9   4    3.08    1.10
   3   9  -4    0.15    1.03
  -3   9   4    1.31    0.72
   2   9  -4   11.09    1.28
  -2   9   4   11.65    0.97
  -1   9   4    9.61    0.84
   1   9  -4   10.38    1.13
  -1   9   4   12.77    0.87
   0   9  -4    6.35    0.92
   0   9   4    5.88    0.78
   0   9  -4    4.50    0.81
  -1   9  -4    0.62    0.71
   1   9   4    1.03    0.59
  -2  -9  -4    3.89    0.83
  -2   9  -4    4.71    1.01
   2   9   4    3.64    0.84
  -3  -9  -4   -0.44    0.93
  -3   9  -4    0.65    1.00
   3   9   4   -1.01    0.99
   3  10  -4    1.51    1.28
  -2  10   4    8.18    1.04
   2  10  -4    9.32    1.30
   1  10  -4    0.58    0.74
  -1  10   4   -0.58    0.51
  -1  10   4    1.06    0.52
   0  10  -4    1.07    0.80
   0  10  -4    0.95    0.78
   0  10   4    0.51    0.57
  -1  10  -4   20.31    1.47
  -2 -10  -4    3.55    0.96
   2  10   4    2.10    0.88
  -2  10  -4    3.51    0.93
  -3 -10  -4    1.99    1.11
   3  10   4    4.49    1.24
  -3  10  -4    0.52    1.20
   2  11  -4    1.29    1.17
  -2  11   4    1.22    0.80
  -2  11   4    1.67    0.77
  -1  11   4    1.83    0.68
  -1  11   4    3.01    0.72
   1  11  -4    2.78    1.06
   0  11  -4    1.56    0.90
   0  11   4    1.26    0.65
   0  11  -4    1.93    0.99
   0  11   4    1.85    0.75
  -1  11  -4    2.41    1.01
   1  11   4    2.87    0.84
   2  11   4    1.27    1.03
  -2  11  -4   -0.26    0.99
  -2  12   4    2.91    0.90
  -2  12   4    2.33    0.95
  -1  12   4    4.63    0.89
  -1  12   4    4.35    0.90
   1  12  -4    5.15    1.35
   0  12   4    7.94    1.06
   0  12   4   10.41    1.34
   0  12  -4    7.77    1.30
   0  12  -4    7.44    1.24
  -1  12  -4    3.00    1.15
  -1  12  -4    2.30    1.22
   1  12   4    4.11    1.10
   2  12   4    8.47    1.43
   5   0  -5   44.49    2.25
  -5   0   5   37.88    2.24
  -4   0   5   -0.43    0.64
   4   0  -5   -1.72    0.63
   3   0  -5   15.02    0.98
  -3   0   5   14.59    0.96
   2   0  -5   -0.26    0.26
  -2   0   5   -0.14    0.26
  -1   0   5   28.40    0.73
   1   0  -5   27.83    0.73
   0   0  -5    0.02    0.15
   1   0   5    0.77    0.28
  -1   0  -5    0.42    0.27
   2   0   5   -0.39    0.36
  -2   0  -5    0.60    0.38
   3   0   5   45.54    1.75
  -3   0  -5   45.33    1.67
   4   0   5   -1.19    0.80
  -4   0  -5   -0.47    0.76
  -5   0  -5   -0.89    1.25
   5   0   5    0.09    1.19
   5  -1  -5    6.14    1.13
  -5  -1   5    5.89    1.31
   5   1  -5    5.41    1.21
  -5   1   5    6.41    1.16
  -4  -1   5   27.32    1.49
   4  -1  -5   28.23    1.47
   4   1  -5   26.30    1.58
  -3  -1   5   28.19    1.24
   3  -1  -5   28.43    1.16
  -3   1   5   28.37    1.17
   3   1  -5   30.07    1.27
  -2  -1   5   14.40    0.75
   2  -1  -5   15.92    0.68
   2   1  -5   14.97    0.78
  -2   1   5   15.54    0.68
  -1  -1   5   52.25    1.17
   1  -1  -5   52.73    0.96
  -1   1   5   53.37    0.96
   1   1  -5   52.89    1.18
   0  -1  -5   20.30    0.51
   0   1   5   20.67    0.51
   0   1  -5   20.20    0.67
  -1  -1  -5   75.06    1.55
   1  -1   5   77.99    1.66
  -1   1  -5   77.57    1.65
   1   1   5   79.11    1.58
  -2  -1  -5    1.14    0.43
   2  -1   5    1.32    0.44
  -2   1  -5    1.46    0.42
   2   1   5    1.16    0.40
   3  -1   5   -0.08    0.93
  -3  -1  -5    0.94    0.59
  -3   1  -5    0.85    0.56
   3   1   5    1.20    0.57
  -4  -1  -5    3.07    0.91
   4  -1   5    2.58    0.82
   4   1   5    3.51    0.90
  -4   1  -5    4.34    1.00
   5  -1   5   -1.19    1.14
  -5  -1  -5    0.90    1.39
  -5   1  -5    0.49    1.30
   5   1   5    2.07    1.30
   5  -2  -5    1.92    1.09
  -5  -2   5    1.81    1.16
  -5   2   5    1.05    1.07
   5   2  -5    0.42    1.16
  -4  -2   5    5.77    0.93
  -4   2   5    5.08    0.87
   4   2  -5    5.42    0.98
  -3  -2   5   23.30    1.19
   3  -2  -5   23.44    1.06
   3   2  -5   22.92    1.18
  -3   2   5   25.28    1.09
   2  -2  -5   49.91    1.16
  -2  -2   5   51.15    1.42
  -2   2   5   52.33    1.20
   2   2  -5   51.83    1.44
   1  -2  -5   62.95    0.98
  -1   2   5   63.38    0.98
   1   2  -5   64.49    1.43
   0  -2  -5    9.14    0.30
   0   2  -5    8.91    0.53
   0   2   5    8.94    0.29
   1  -2   5    9.57    0.62
  -1  -2  -5    9.49    0.54
  -1   2  -5    9.94    0.62
   1   2   5   10.99    0.56
   2  -2   5  105.34    2.33
  -2  -2  -5  102.61    2.25
   2   2   5  103.24    2.24
  -2   2  -5   99.93    2.28
  -3  -2  -5    6.60    0.86
   3  -2   5    5.41    0.93
   3   2   5    6.07    0.94
  -4  -2  -5    0.14    0.83
   4  -2   5    1.23    0.81
   4   2   5    0.97    0.84
  -4   2  -5    0.68    0.84
  -5  -2  -5    8.56    1.55
   5  -2   5    6.42    1.49
  -5   2  -5    9.16    1.65
   5   2   5   12.10    1.66
   5  -3  -5    2.82    1.09
  -5  -3   5    5.48    1.40
  -5   3   5    3.57    1.21
   5   3  -5    2.63    1.25
  -4  -3   5   12.44    1.31
   4  -3  -5   11.76    1.40
  -4   3   5   12.23    1.22
   4   3  -5   11.55    1.43
   3  -3  -5    5.05    0.68
  -3  -3   5    5.19    0.74
   3   3  -5    5.37    0.80
  -3   3   5    4.33    0.58
  -2  -3   5    8.92    0.76
   2  -3  -5    8.46    0.50
   2   3  -5    9.75    0.77
  -2   3   5    8.13    0.52
   1   3  -5   20.77    0.88
  -1   3   5   20.37    0.39
   0  -3  -5    5.22    0.26
   0   3   5    5.18    0.26
   0   3  -5    4.87    0.51
  -1  -3  -5   24.72    0.83
   1  -3   5   25.41    0.99
   1   3   5   25.32    0.83
  -1   3  -5   24.89    0.97
   2  -3   5    5.58    0.67
  -2  -3  -5    5.13    0.65
  -2   3  -5    4.23    0.61
   2   3   5    5.97    0.72
  -3  -3  -5    0.80    0.71
   3  -3   5    0.15    0.59
  -3   3  -5    1.43    0.66
  -4  -3  -5   -0.37    0.80
   4  -3   5    1.84    0.88
   4   3   5    0.21    0.80
  -4   3  -5   -0.64    0.85
  -5  -3  -5    1.21    1.30
  -5   3  -5   -2.78    1.30
   5   3   5   -0.06    2.28
   5  -4  -5    3.46    1.16
  -5  -4   5    4.67    1.44
  -5   4   5    5.51    1.28
   5   4  -5    4.49    1.44
  -4  -4   5   -0.05    0.78
   4  -4  -5   -0.47    0.69
  -4   4   5   -0.50    0.66
   4   4  -5    1.04    0.88
   3  -4  -5   20.19    0.98
  -3   4   5   18.45    0.98
   3   4  -5   19.27    1.31
  -2  -4   5    1.50    0.49
   2  -4  -5    1.51    0.31
   2   4  -5    2.41    0.57
  -2   4   5    1.60    0.32
  -1   4   5    5.49    0.25
   1   4  -5    5.44    0.66
   0  -4  -5   11.65    0.41
   0   4   5   11.67    0.42
   0   4  -5   11.41    0.73
   1  -4   5   23.47    1.01
  -1  -4  -5   22.97    0.84
   1   4   5   23.61    0.85
  -1   4  -5   24.03    1.02
   2  -4   5    1.17    0.50
  -2  -4  -5    0.78    0.44
  -2   4  -5    1.78    0.54
   2   4   5    1.92    0.50
  -3  -4  -5    4.49    0.90
   3  -4   5    3.76    0.78
  -3   4  -5    4.03    0.78
   3   4   5    2.81    0.70
   4  -4   5    1.56    0.93
  -4  -4  -5    2.59    1.00
  -4   4  -5    4.95    1.05
   4   4   5    1.03    0.91
   4  -5  -5    8.29    1.45
  -4  -5   5    5.44    1.10
   4   5  -5    6.22    1.13
  -4   5   5    6.22    0.91
   3  -5  -5   15.21    0.91
  -3  -5   5   13.53    1.17
   3   5  -5   13.47    1.29
  -3   5   5   13.21    0.91
  -2  -5   5   16.70    1.05
   2  -5  -5   16.43    0.68
   2   5  -5   14.59    1.00
  -2   5   5   16.12    0.69
  -1   5   5    6.84    0.35
   1   5  -5    6.60    0.72
  -1   5   5    6.58    0.35
   0   5   5    0.10    0.20
   0   5  -5    0.05    0.36
  -1  -5  -5  120.37    2.29
   1   5   5  119.73    2.30
  -1   5  -5  121.67    2.63
  -2  -5  -5    0.76    0.48
   2  -5   5    0.57    0.52
  -2   5  -5    1.01    0.52
   2   5   5    1.78    0.54
  -3  -5  -5    8.78    1.14
   3  -5   5    5.43    0.92
  -3   5  -5    6.46    0.97
   3   5   5    5.75    0.88
   4  -5   5    1.47    0.98
  -4  -5  -5    2.47    1.00
  -4   5  -5    0.95    0.97
   4   5   5    1.55    0.97
  -4  -6   5    0.33    1.05
  -4   6   5   -0.14    0.90
   4   6  -5   -1.05    1.03
  -3  -6   5    2.70    0.78
   3  -6  -5    1.19    0.49
  -3   6   5   -0.38    0.46
   3   6  -5    1.88    0.79
  -2  -6   5    0.86    0.70
  -2   6   5    0.80    0.34
  -1   6   5   19.88    0.65
  -1   6   5   20.79    0.66
   1   6  -5   20.49    1.16
   0   6   5    0.78    0.29
   0   6  -5    0.26    0.42
  -1  -6  -5   14.69    0.81
   1   6   5   14.94    0.83
  -1   6  -5   14.42    0.97
   2  -6   5    1.13    0.59
  -2  -6  -5    0.44    0.51
   2   6   5    0.10    0.51
  -2   6  -5    1.31    1.16
   3  -6   5    3.76    0.86
  -3  -6  -5    4.02    0.81
  -3   6  -5    4.30    0.92
   3   6   5    2.78    0.82
   4  -6   5   -1.66    1.01
  -4  -6  -5    1.60    1.01
  -4   6  -5    0.17    1.07
   4   6   5    0.18    1.02
  -4  -7   5    5.88    1.25
   4  -7  -5    4.84    0.93
  -4   7   5    4.35    1.10
   4   7  -5    6.85    1.42
  -3  -7   5    6.68    1.06
   3  -7  -5    7.66    0.89
   3   7  -5    6.70    1.08
  -3   7   5    6.85    0.90
   2   7  -5    5.73    0.90
  -2   7   5    7.44    0.65
   1   7  -5   25.15    1.51
  -1   7   5   24.72    0.82
  -1   7   5   25.75    0.83
   0   7   5   38.86    1.12
   0   7  -5   40.98    1.58
  -1  -7  -5    7.37    0.73
   1   7   5    6.86    0.75
  -1   7  -5    7.03    0.88
  -2  -7  -5    1.47    0.55
   2  -7   5    1.67    0.64
  -2   7  -5    1.60    0.67
   2   7   5    0.97    0.58
   3  -7   5   -1.38    0.76
  -3  -7  -5   -0.14    0.74
   3   7   5    0.45    0.78
  -3   7  -5   -1.48    0.76
   4  -7   5    2.27    1.26
  -4  -7  -5    3.21    1.22
  -4   7  -5    0.66    1.18
   4   7   5    2.41    1.23
  -4  -8   5    3.99    1.36
   4  -8  -5    5.76    1.06
  -4   8   5    4.02    1.01
   4   8  -5    5.24    1.39
  -3  -8   5    3.14    1.00
   3   8  -5    4.07    1.04
  -3   8   5    5.25    0.75
   2   8  -5    1.11    0.74
  -2   8   5    0.16    0.40
   1   8  -5    2.25    0.70
  -1   8   5    2.26    0.41
  -1   8   5    3.10    0.44
   0   8  -5   37.58    1.59
   0   8  -5   38.09    1.65
   0   8   5   37.59    1.21
  -1  -8  -5    5.85    0.69
   1   8   5    7.13    0.85
  -1   8  -5    5.52    0.84
  -2  -8  -5   14.37    1.35
  -2   8  -5   14.87    1.44
   3  -8   5   11.98    1.55
  -3  -8  -5   16.02    1.41
  -3   8  -5   16.11    1.60
   3   8   5   16.45    1.66
   4  -8   5    1.21    1.36
  -4  -8  -5    5.37    1.44
  -4   8  -5    0.66    1.35
   4   8   5    2.50    1.38
  -3   9   5    4.07    0.81
   3   9  -5    1.44    1.07
  -2   9   5    3.32    0.57
   2   9  -5    5.87    1.06
   1   9  -5   21.25    1.52
  -1   9   5   18.96    0.94
  -1   9   5   19.11    0.96
   0   9   5    1.06    0.48
   0   9  -5    1.01    0.72
   0   9  -5    0.64    0.73
  -1   9  -5    0.31    0.67
   1   9   5    0.51    0.57
  -2  -9  -5   -0.19    0.66
  -2   9  -5    1.31    0.88
   2   9   5   -0.36    0.76
  -3  -9  -5   -1.43    0.98
   3   9   5    0.76    1.00
  -3   9  -5   -0.76    1.03
   3  10  -5    1.57    1.25
  -3  10   5    4.05    0.90
  -2  10   5    0.04    0.58
  -2  10   5   -0.63    0.56
   2  10  -5   -0.16    0.95
   1  10  -5   15.51    1.47
  -1  10   5   17.03    1.02
  -1  10   5   14.86    1.02
   0  10  -5    4.13    0.90
   0  10  -5    2.54    0.85
   0  10   5    2.40    0.63
   0  10   5    2.52    0.58
   1  10   5    3.39    0.77
  -1  10  -5    3.27    0.97
  -2 -10  -5    0.31    0.88
  -2  10  -5   -1.10    0.92
   2  10   5   -0.16    0.84
  -3 -10  -5    0.03    1.09
  -3  10  -5    1.40    1.26
   3  10   5    1.49    1.22
  -2  11   5    4.08    0.79
   2  11  -5    3.85    1.29
  -2  11   5    3.41    0.81
  -1  11   5    3.08    0.71
  -1  11   5    1.75    0.66
   1  11  -5    4.67    1.12
   0  11   5    5.66    0.80
   0  11   5    4.47    0.79
   0  11  -5    6.30    1.19
   0  11  -5    4.22    1.14
   1  11   5    3.30    0.89
  -1  11  -5    1.64    1.01
  -2  11  -5   -0.49    1.11
   2  11   5    0.18    1.06
   1  12  -5   -0.23    1.13
  -1  12   5   -1.27    0.71
  -1  12   5    0.96    0.78
   0  12  -5    3.90    1.28
   0  12  -5    1.95    1.16
   0  12   5    3.28    0.87
   0  12   5    5.07    0.94
   1  12   5   -1.07    0.93
  -1  12  -5   -0.48    1.11
  -1  12  -5    2.50    1.23
   5   0  -6    1.86    1.10
  -5   0   6    0.33    1.06
   4   0  -6    2.11    0.74
  -4   0   6    3.71    0.82
  -3   0   6    0.14    0.45
   3   0  -6    0.48    0.47
  -2   0   6   11.27    0.64
   2   0  -6   11.41    0.68
   1   0  -6    0.04    0.19
   0   0  -6  137.60    2.22
  -1   0  -6   -0.11    0.25
   1   0   6   -0.08    0.24
   2   0   6    7.38    0.70
  -2   0  -6    6.56    0.69
   3   0   6    0.82    0.72
   4   0   6    3.43    0.95
  -4   0  -6    3.52    0.96
   5   0   6    0.80    2.08
  -5   0  -6    0.20    1.31
  -5  -1   6   21.59    2.04
   5  -1  -6   24.57    1.95
   5   1  -6   19.64    1.83
  -5   1   6   26.92    1.95
   4  -1  -6    1.62    0.82
   4   1  -6   -0.50    0.69
  -4   1   6    0.85    1.32
  -3  -1   6   36.25    1.43
   3  -1  -6   36.87    1.31
  -3   1   6   39.20    1.35
   3   1  -6   38.12    1.40
  -2  -1   6    5.92    0.60
   2  -1  -6    5.84    0.52
   2   1  -6    6.93    0.63
  -2   1   6    6.05    0.51
   1  -1  -6    5.14    0.32
   1   1  -6    5.42    0.45
   0  -1  -6   16.43    0.50
   0   1   6   16.02    0.50
   0   1  -6   15.94    0.63
   1  -1   6   28.23    0.97
  -1  -1  -6   26.26    0.87
  -1   1  -6   27.53    0.94
   1   1   6   27.95    0.88
  -2  -1  -6   94.67    2.16
   2  -1   6   89.05    2.13
  -2   1  -6   91.98    2.17
   2   1   6   90.66    2.09
   3  -1   6   59.97    1.98
  -3  -1  -6   54.66    2.80
   3   1   6   51.64    2.75
  -3   1  -6   56.31    2.26
  -4  -1  -6    5.41    1.03
   4  -1   6    5.09    1.04
   4   1   6    3.96    1.00
  -4   1  -6    5.22    1.12
  -5  -1  -6   11.93    1.75
  -5   1  -6    7.90    1.53
  -5  -2   6    5.35    1.39
   5  -2  -6    3.29    1.10
  -5   2   6    5.62    1.21
   5   2  -6    1.74    1.26
   4  -2  -6   12.23    1.39
  -4  -2   6   12.32    1.36
   4   2  -6   10.39    1.22
  -4   2   6   11.90    1.18
   3  -2  -6   63.03    1.65
  -3  -2   6   63.41    1.86
   3   2  -6   62.49    1.88
  -3   2   6   62.42    1.65
   2  -2  -6   31.51    0.87
  -2  -2   6   31.42    1.11
   2   2  -6   30.99    1.14
  -2   2   6   30.84    0.88
   1  -2  -6   56.76    0.87
   1   2  -6   57.37    1.39
   0  -2  -6    0.81    0.15
   0   2   6    0.92    0.15
   0   2  -6    1.12    0.31
  -1  -2  -6  253.62    3.93
   1  -2   6  255.84    4.15
  -1   2  -6  253.98    4.15
   1   2   6  255.78    3.92
  -2  -2  -6    0.39    0.42
   2  -2   6    0.86    0.44
  -2   2  -6   -0.25    0.41
   2   2   6    0.89    0.42
   3  -2   6   36.91    1.58
  -3   2  -6   37.99    1.67
   3   2   6   33.01    1.88
  -4  -2  -6   12.66    1.45
   4  -2   6   11.66    1.40
   4   2   6   10.96    1.46
  -4   2  -6    9.83    1.28
  -5  -2  -6    1.62    1.54
  -5   2  -6   -2.02    2.16
   5  -3  -6    7.37    1.29
  -5  -3   6    7.28    1.48
   5   3  -6    5.96    1.43
  -5   3   6   10.95    1.35
  -4  -3   6    2.26    0.84
  -4   3   6    1.83    0.73
   4   3  -6    4.88    0.95
   3  -3  -6   24.96    1.04
  -3  -3   6   25.01    1.33
  -3   3   6   23.99    1.05
   3   3  -6   26.07    1.39
   2  -3  -6    2.94    0.40
  -2  -3   6    2.73    0.52
   2   3  -6    3.46    0.59
  -2   3   6    2.25    0.32
   1   3  -6    0.64    0.38
   0  -3  -6  109.48    1.60
   0   3  -6  105.97    2.19
   0   3   6  105.89    1.59
  -1  -3  -6    0.11    0.26
   1  -3   6    0.00    0.35
   1   3   6    0.42    0.27
  -1   3  -6    0.42    0.35
  -2  -3  -6    9.21    0.83
   2  -3   6   11.45    0.90
   2   3   6   10.21    0.83
  -2   3  -6   10.53    0.86
   3  -3   6   28.42    1.52
  -3  -3  -6   25.71    1.91
  -3   3  -6   28.63    1.47
   3   3   6   26.21    1.45
   4  -3   6    0.99    0.93
  -4  -3  -6    0.19    0.91
  -4   3  -6    3.11    1.04
   4   3   6    2.42    0.93
  -4  -4   6   24.48    1.78
   4  -4  -6   23.09    1.36
   4   4  -6   19.66    1.68
  -4   4   6   26.27    1.39
  -3  -4   6    3.81    0.75
   3  -4  -6    4.63    0.57
  -3   4   6    3.35    0.54
   3   4  -6    5.71    0.86
   2  -4  -6    5.81    0.44
  -2  -4   6    5.20    0.70
   2   4  -6    5.83    0.74
  -2   4   6    5.81    0.44
   1   4  -6  116.77    2.45
   0  -4  -6   17.11    0.46
   0   4  -6   15.67    0.86
   0   4   6   16.96    0.47
   1  -4   6   16.52    0.93
  -1  -4  -6   16.96    0.74
   1   4   6   17.11    0.75
  -1   4  -6   16.96    0.94
   2  -4   6    1.39    0.54
  -2  -4  -6    0.77    0.44
  -2   4  -6    0.92    0.54
   2   4   6    0.41    0.48
  -3  -4  -6    6.15    0.94
   3  -4   6    7.25    0.94
  -3   4  -6    5.31    0.89
   3   4   6    8.62    1.06
   4  -4   6   15.25    1.81
  -4  -4  -6   18.10    1.64
  -4   4  -6   22.30    1.73
   4   4   6   20.92    1.81
   4  -5  -6   -0.34    0.67
  -4  -5   6    1.06    0.96
  -4   5   6   -1.23    0.66
   4   5  -6   -0.47    0.98
   3  -5  -6   33.94    1.19
  -3  -5   6   36.30    1.66
   3   5  -6   33.97    1.63
  -3   5   6   33.08    1.19
   2  -5  -6   13.81    0.58
  -2  -5   6   14.05    1.06
   2   5  -6   12.04    1.08
  -2   5   6   12.36    0.57
  -1   5   6   50.43    0.80
  -1   5   6   51.60    0.80
   1   5  -6   50.62    1.58
   0   5  -6    6.79    0.75
   0   5   6    8.27    0.42
  -1  -5  -6   42.84    1.20
   1   5   6   40.69    1.19
  -1   5  -6   41.97    1.49
  -2  -5  -6   36.35    1.39
  -2   5  -6   35.05    1.53
   2   5   6   36.60    1.38
  -3  -5  -6    2.09    0.71
   3  -5   6    1.85    0.75
   3   5   6    2.45    0.78
  -3   5  -6    0.64    0.79
  -4  -5  -6    8.40    1.35
   4  -5   6    6.19    1.25
   4   5   6    6.78    1.26
  -4   5  -6    5.19    1.21
   4  -6  -6   -0.02    0.73
  -4  -6   6    0.73    1.08
   4   6  -6    3.23    1.11
  -4   6   6   -0.66    0.74
   3  -6  -6   19.62    0.99
  -3  -6   6   20.58    1.55
  -3   6   6   20.47    0.99
   3   6  -6   20.86    1.49
  -2   6   6    9.68    0.58
   2   6  -6    9.54    1.01
   1   6  -6   14.30    1.03
  -1   6   6   16.63    0.51
  -1   6   6   16.20    0.50
   0   6  -6    2.52    0.61
   0   6   6    4.54    0.45
  -1  -6  -6    9.10    0.70
  -1   6  -6   12.36    0.97
   1   6   6   11.24    0.75
   2  -6   6    5.08    0.83
  -2  -6  -6    4.40    0.68
  -2   6  -6    5.76    0.83
   2   6   6    5.66    0.75
  -3  -6  -6    6.18    1.00
   3  -6   6    6.82    1.05
  -3   6  -6    6.36    1.02
   3   6   6    5.91    0.97
   4  -6   6    0.80    1.11
  -4  -6  -6   -0.31    1.01
  -4   6  -6   -0.34    1.19
   4   6   6    1.09    1.16
   4  -7  -6    3.68    0.89
  -4  -7   6    3.31    1.21
   4   7  -6    4.02    1.35
  -4   7   6    3.50    0.86
  -3  -7   6   14.09    1.53
   3  -7  -6   15.12    0.98
   3   7  -6   14.13    1.56
  -3   7   6   12.56    0.95
  -2   7   6    0.49    0.32
   2   7  -6    0.96    0.72
  -1   7   6    1.54    0.30
   1   7  -6    1.74    0.63
  -1   7   6    1.45    0.28
   0   7  -6    9.43    1.05
   0   7   6    9.60    0.64
  -1  -7  -6    0.47    0.41
   1   7   6    0.60    0.44
  -1   7  -6    1.52    0.64
  -2  -7  -6    1.97    0.65
   2   7   6    2.87    0.67
  -2   7  -6    0.93    0.73
  -3  -7  -6    8.74    1.07
   3  -7   6    8.24    1.17
   3   7   6    9.46    1.16
  -3   7  -6   10.54    1.29
  -4  -7  -6    0.55    1.13
   4  -7   6    0.48    1.42
   4   7   6    1.84    1.28
  -4   7  -6   -0.69    1.37
  -4  -8   6    3.18    1.60
  -4   8   6   -0.02    1.05
  -3   8   6    1.41    0.60
   3   8  -6    0.50    0.97
  -2   8   6   27.70    0.99
   2   8  -6   27.23    1.70
  -1   8   6   71.72    1.50
   1   8  -6   72.16    2.27
  -1   8   6   71.34    1.50
   0   8  -6    4.47    0.81
   0   8   6    4.56    0.53
   0   8  -6    3.25    0.75
  -1  -8  -6   19.46    1.07
   1   8   6   18.85    1.06
  -1   8  -6   17.42    1.30
  -2  -8  -6    7.29    0.94
  -2   8  -6    8.69    1.10
   2   8   6    6.99    1.61
   3  -8   6    6.19    1.27
  -3  -8  -6    5.88    1.06
   3   8   6    4.28    1.13
  -3   8  -6    5.06    1.18
  -3   9   6    8.70    1.09
   3   9  -6    8.53    1.38
  -2   9   6    6.71    0.80
   2   9  -6    7.31    1.25
  -2   9   6    7.78    0.80
   1   9  -6    4.05    0.89
  -1   9   6    3.90    0.51
  -1   9   6    3.86    0.50
   0   9  -6    9.76    1.19
   0   9  -6   10.04    1.23
   0   9   6   11.11    0.82
   1   9   6   10.02    1.03
  -1   9  -6   11.14    1.26
  -2  -9  -6    0.64    0.74
   2   9   6    1.62    0.80
  -2   9  -6    2.41    0.94
  -3  -9  -6    1.27    1.04
  -3   9  -6    1.55    1.27
   3   9   6    0.85    1.06
  -3  10   6    0.92    0.78
   2  10  -6    6.73    1.23
  -2  10   6    6.35    0.71
  -2  10   6    6.64    0.73
  -1  10   6    4.75    0.61
   1  10  -6    5.92    1.09
  -1  10   6    5.27    0.61
   0  10   6    5.08    0.67
   0  10  -6    5.79    1.13
   0  10  -6    8.20    1.17
   0  10   6    6.38    0.74
  -1  10  -6   11.34    1.55
   1  10   6   10.70    1.21
  -2 -10  -6    1.19    0.90
   2  10   6    3.22    0.95
  -2  10  -6    1.63    1.11
  -3 -10  -6    2.53    1.24
   3  10   6    3.11    1.34
  -3  10  -6    2.81    1.39
  -2  11   6    1.41    0.68
  -2  11   6    1.80    0.67
   2  11  -6    1.65    1.26
  -1  11   6   18.44    1.15
   1  11  -6   17.95    1.92
  -1  11   6   19.21    1.16
   0  11  -6   11.22    1.36
   0  11  -6   13.34    1.58
   0  11   6   11.97    1.16
   0  11   6   14.96    1.14
  -1  11  -6    2.87    1.05
   1  11   6    2.36    0.86
   2  11   6    0.17    0.99
  -2  11  -6   -1.65    1.23
   1  12  -6    4.15    1.31
  -1  12   6    1.73    0.77
  -1  12   6    2.31    0.75
   1  12  -6    2.40    1.24
   0  12   6    0.48    0.91
   0  12  -6   -0.43    1.21
   0  12  -6    3.27    1.32
   0  12   6    2.50    0.81
   1  12   6    0.86    0.96
  -1  12  -6    1.33    1.34
  -1  12  -6    1.07    1.34
   5   0  -7   17.39    1.88
  -5   0   7   17.58    1.86
   4   0  -7    0.22    0.69
  -4   0   7    0.49    0.71
  -3   0   7    1.91    0.53
   3   0  -7    1.62    0.55
  -2   0   7   -0.14    0.28
   2   0  -7   -0.21    0.29
   1   0  -7  150.39    2.45
   0   0  -7    0.06    0.19
   1   0   7   -0.19    0.26
  -1   0  -7    0.04    0.29
  -2   0  -7    0.01    0.39
   2   0   7    0.36    0.42
   3   0   7   52.86    1.85
  -3   0  -7   52.69    1.94
  -4   0  -7    0.71    0.90
   4   0   7    0.50    0.85
   5  -1  -7    5.10    1.31
  -5  -1   7    9.25    1.42
  -5   1   7   10.48    1.36
   5   1  -7    8.50    1.41
  -4  -1   7   15.49    1.34
   4   1  -7   14.16    1.37
  -4   1   7   17.05    1.61
  -3  -1   7   18.39    1.11
   3  -1  -7   18.76    0.98
  -3   1   7   16.96    0.97
   3   1  -7   18.40    1.09
  -2  -1   7   43.09    1.28
   2  -1  -7   44.97    1.14
  -2   1   7   41.99    1.10
   2   1  -7   44.49    1.31
   1  -1  -7   12.96    0.47
   1   1  -7   11.72    0.62
   0  -1  -7   46.54    0.97
   0   1  -7   44.31    1.14
   1  -1   7   16.48    0.81
  -1  -1  -7   17.23    0.75
  -1   1  -7   16.84    0.80
   1   1   7   16.58    0.75
   2  -1   7    0.59    0.45
  -2  -1  -7    0.30    0.43
   2   1   7    0.17    0.41
  -2   1  -7    0.85    0.46
  -3  -1  -7    1.12    0.66
   3  -1   7    1.07    0.66
   3   1   7    0.61    0.62
  -3   1  -7    0.52    0.63
   4  -1   7   -0.59    0.88
  -4  -1  -7   -0.03    0.91
  -4   1  -7    1.19    0.95
   4   1   7   -0.16    0.86
  -5  -2   7    8.25    1.39
   5  -2  -7    9.01    1.32
   5   2  -7    9.39    1.48
  -5   2   7    8.48    1.27
  -4  -2   7   16.04    1.47
   4  -2  -7   16.86    1.26
   4   2  -7   13.92    1.43
  -4   2   7   17.19    1.32
  -3  -2   7   29.14    1.34
   3  -2  -7   27.40    1.10
   3   2  -7   28.33    1.38
  -3   2   7   27.66    1.11
  -2  -2   7   31.83    1.17
   2  -2  -7   32.87    0.88
   2   2  -7   33.12    1.17
  -2   2   7   31.84    0.86
   1  -2  -7    7.84    0.24
   1  -2  -7    7.92    0.24
   1   2  -7    7.27    0.60
   0  -2  -7   27.55    0.63
   0   2  -7   26.37    0.95
   0   2   7   27.09    0.63
   1  -2   7    0.27    0.34
  -1  -2  -7    0.62    0.30
   1   2   7    1.17    0.31
  -1   2  -7    0.59    0.35
  -2  -2  -7    5.96    0.69
   2  -2   7    5.78    0.72
   2   2   7    5.85    0.73
  -2   2  -7    6.45    0.74
   3  -2   7   -0.29    0.64
  -3  -2  -7    1.12    0.66
  -3   2  -7    0.53    0.64
   3   2   7    1.09    0.62
  -4  -2  -7   21.49    1.83
   4  -2   7   24.77    1.87
   4   2   7   20.98    1.71
  -4   2  -7   23.12    1.91
   4  -3  -7   26.56    1.44
  -4  -3   7   25.62    1.74
  -4   3   7   27.57    1.43
   4   3  -7   25.08    1.76
  -3  -3   7    1.65    0.63
   3  -3  -7    2.93    0.49
  -3   3   7    2.14    0.46
   2  -3  -7   33.37    0.82
  -2  -3   7   32.21    1.24
  -2   3   7   33.04    0.82
   2   3  -7   31.46    1.28
   1   3  -7   19.51    0.92
   0  -3  -7   43.59    0.79
   0   3   7   42.64    0.78
   0   3  -7   42.01    1.29
   1  -3   7   36.49    1.30
  -1  -3  -7   38.02    1.08
   1   3   7   36.35    1.05
  -1   3  -7   35.52    1.25
   2  -3   7   56.19    1.79
  -2  -3  -7   53.80    1.63
   2   3   7   54.58    1.61
  -2   3  -7   54.96    1.79
  -3  -3  -7   10.85    1.21
   3  -3   7    9.20    1.14
  -3   3  -7   11.84    1.28
   3   3   7   10.35    1.19
   4  -3   7    5.90    1.13
  -4  -3  -7    4.00    1.10
  -4   3  -7    4.42    1.13
   4   3   7    3.87    1.07
  -4  -4   7   12.96    1.45
   4  -4  -7   13.34    1.19
  -4   4   7   13.24    1.20
   4   4  -7   15.66    1.47
  -3  -4   7   15.79    1.19
   3  -4  -7   15.58    0.85
  -3   4   7   16.03    0.88
   3   4  -7   17.38    1.24
   2  -4  -7    2.70    0.28
   2   4  -7    3.13    0.62
  -2   4   7    2.97    0.34
   1   4  -7   -0.04    0.41
   0  -4  -7   80.69    1.27
   0   4  -7   82.14    2.00
   0   4   7   79.25    1.27
  -1  -4  -7   25.26    0.90
   1  -4   7   25.50    1.19
  -1   4  -7   26.72    1.17
   1   4   7   26.57    0.91
  -2  -4  -7    0.94    0.46
   2  -4   7    0.44    0.65
  -2   4  -7    1.26    0.62
   2   4   7    1.50    0.50
  -3  -4  -7   13.72    1.20
   3  -4   7   16.80    1.33
   3   4   7   13.79    1.29
  -3   4  -7   16.44    1.43
   4  -4   7    2.20    1.16
  -4  -4  -7    3.09    1.06
  -4   4  -7    1.91    1.13
   4   4   7    1.78    1.10
  -4  -5   7    3.58    1.13
   4  -5  -7    2.63    0.76
   4   5  -7    2.50    1.06
  -4   5   7    3.54    0.74
   3  -5  -7   23.24    0.99
  -3  -5   7   20.56    1.53
   3   5  -7   23.18    1.56
  -3   5   7   23.89    0.97
   2   5  -7    6.26    0.85
  -2   5   7    6.06    0.39
   1   5  -7    0.95    0.50
   0   5   7   40.09    0.82
   0   5  -7   38.10    1.42
  -1  -5  -7    0.43    0.32
  -1   5  -7    0.26    0.50
   1   5   7    0.58    0.34
  -2  -5  -7   17.37    1.05
   2  -5   7   15.14    1.15
   2   5   7   17.08    1.08
  -2   5  -7   16.66    1.18
  -3  -5  -7    2.93    0.85
   3  -5   7    3.77    0.89
  -3   5  -7    3.26    0.93
   3   5   7    2.42    0.81
   4  -5   7    0.14    1.08
  -4  -5  -7    1.96    1.18
   4   5   7    1.84    1.13
  -4   5  -7    1.65    1.22
  -4  -6   7    2.40    1.20
   4  -6  -7    2.00    0.74
  -4   6   7    2.08    0.74
   4   6  -7    0.62    1.10
   3  -6  -7    2.60    0.50
  -3  -6   7    3.63    0.98
  -3   6   7    2.60    0.49
   3   6  -7    2.46    0.91
  -2   6   7   26.42    0.70
   2   6  -7   24.84    1.40
   1   6  -7    2.11    0.60
   0   6  -7    1.00    0.57
   0   6   7    1.37    0.27
  -1  -6  -7   29.38    1.04
  -1   6  -7   29.99    1.65
   1   6   7   29.94    1.08
   2  -6   7   36.97    1.68
  -2  -6  -7   40.67    1.52
  -2   6  -7   38.59    1.78
   2   6   7   38.30    1.50
   3  -6   7    0.94    0.95
  -3  -6  -7   -0.26    0.76
  -3   6  -7   -1.86    0.80
   3   6   7   -0.13    0.75
   4  -6   7    3.50    1.29
  -4  -6  -7    1.45    1.12
   4   6   7   -0.73    1.09
  -4   6  -7   -0.05    1.27
   4  -7  -7   -0.82    0.76
  -4  -7   7   -0.31    1.35
  -4   7   7   -1.16    0.75
   4   7  -7   -1.30    1.20
  -3   7   7    4.58    0.59
   3   7  -7    5.22    1.04
  -2   7   7    0.53    0.28
   2   7  -7    1.04    0.75
  -1   7   7   11.46    0.41
   1   7  -7    9.05    1.06
  -1   7   7   11.05    0.43
   0   7  -7   11.48    1.12
   0   7   7   12.85    0.62
  -1  -7  -7    1.56    0.46
  -1   7  -7    0.16    0.61
   1   7   7    0.77    0.43
  -2  -7  -7    2.06    0.63
  -2   7  -7    2.16    0.85
   2   7   7    2.91    0.71
   3  -7   7    1.41    0.97
  -3  -7  -7    1.14    0.85
   3   7   7    1.47    0.93
  -3   7  -7    2.14    1.06
  -4  -7  -7    0.45    1.23
  -4   7  -7    2.28    1.53
   4   7   7   -2.44    1.29
   3   8  -7    1.57    1.05
  -3   8   7    1.53    0.53
   2   8  -7    1.38    0.84
  -2   8   7    3.07    0.40
  -2   8   7    3.09    0.39
   1   8  -7    1.67    0.74
  -1   8   7    3.55    0.46
  -1   8   7    3.12    0.34
   0   8  -7    1.81    0.71
   0   8  -7    0.88    0.68
   0   8   7    1.60    0.41
  -1  -8  -7    3.98    0.63
  -1   8  -7    4.18    0.92
   1   8   7    3.84    0.60
  -2  -8  -7   10.72    1.13
  -2   8  -7    8.23    1.15
  -3  -8  -7    0.44    0.95
   3  -8   7    2.82    1.16
  -3   8  -7    3.05    1.16
   3   8   7    1.79    0.98
  -3   9   7   -0.20    0.57
   3   9  -7    1.92    1.18
  -2   9   7    0.60    0.39
   2   9  -7    1.17    0.98
  -2   9   7    1.28    0.43
   1   9  -7    1.51    0.89
  -1   9   7    1.11    0.37
  -1   9   7    1.54    0.37
   0   9  -7   16.77    1.40
   0   9  -7   19.52    1.58
   0   9   7   19.10    0.94
   1   9   7   44.25    1.56
  -1   9  -7   46.07    2.05
  -2  -9  -7    8.87    1.04
  -2   9  -7   10.23    1.34
   2   9   7    9.90    1.10
  -3  -9  -7    2.10    1.06
   3   9   7    0.01    1.08
  -3   9  -7    2.14    1.44
  -2  10   7   13.24    0.90
   2  10  -7   12.11    1.49
  -2  10   7   12.95    0.85
   1  10  -7    2.08    0.98
  -1  10   7    1.75    0.47
  -1  10   7    2.32    0.48
   0  10  -7   17.69    1.59
   0  10   7   15.17    1.01
   0  10   7   16.30    0.96
   0  10  -7   15.40    1.57
   1  10   7    4.03    0.82
  -1  10  -7    4.29    1.10
  -2 -10  -7    2.98    0.98
  -2  10  -7   -0.33    1.11
   2  10   7   -0.90    0.89
  -2  11   7   -0.54    0.60
  -2  11   7    0.87    0.58
  -1  11   7    2.54    0.59
  -1  11   7    1.11    0.56
   1  11  -7    1.28    1.16
   0  11  -7   15.56    1.77
   0  11   7   19.38    1.22
   0  11   7   19.25    1.18
   0  11  -7   18.42    2.00
  -1  11  -7    4.68    1.25
   2  11   7    1.41    1.10
  -2  11  -7   -1.14    1.35
   0  12   7    6.15    0.91
   0  12   7    3.67    0.81
   0  12  -7    4.79    1.41
   0  12  -7    5.44    2.41
   4   0  -8    7.73    0.98
  -4   0   8    9.07    1.19
  -3   0   8    0.42    0.46
   3   0  -8   -0.30    0.47
   2   0  -8   41.14    1.18
  -2   0   8   38.00    1.15
   1   0  -8    0.19    0.23
   0   0  -8   23.18    0.76
   1   0   8   -0.01    0.33
  -1   0  -8   -0.45    0.30
  -2   0  -8  152.21    3.10
   2   0   8  151.29    3.08
  -3   0  -8   -0.77    0.66
   3   0   8   -0.15    0.64
   4   0   8   41.65    2.21
  -4   0  -8   39.72    2.08
  -4  -1   8   15.97    1.44
  -4   1   8   17.62    1.35
   4   1  -8   16.69    1.42
  -3  -1   8    0.80    0.51
   3  -1  -8    0.74    0.47
  -3   1   8    0.24    0.44
   3   1  -8    0.63    0.53
  -2  -1   8  106.33    2.21
   2  -1  -8  107.09    2.01
   2   1  -8  110.39    2.25
  -2   1   8  104.37    1.98
   1  -1  -8   11.77    0.48
   1  -1  -8   11.43    0.48
   1   1  -8   11.69    0.64
   0  -1  -8   28.37    0.77
   0   1  -8   26.95    0.91
  -1  -1  -8    0.69    0.31
   1  -1   8    0.29    0.35
  -1   1  -8    0.21    0.35
   1   1   8    0.46    0.32
  -2  -1  -8    1.25    0.48
   2  -1   8    1.84    0.56
  -2   1  -8    1.66    0.57
   2   1   8    2.23    0.55
   3  -1   8    3.62    0.84
  -3  -1  -8    4.45    0.88
  -3   1  -8    4.37    0.86
   3   1   8    3.85    0.81
   4  -1   8   21.13    1.71
  -4  -1  -8   21.02    1.69
  -4   1  -8   21.18    1.74
   4   1   8   19.90    1.68
   4  -2  -8    1.71    0.70
  -4  -2   8    1.44    0.83
   4   2  -8    1.01    0.86
  -4   2   8   -0.11    0.67
  -3  -2   8    1.99    0.66
   3  -2  -8    1.77    0.46
  -3   2   8    2.44    0.49
   3   2  -8    1.64    0.63
   2  -2  -8    0.28    0.25
   2   2  -8    0.62    0.43
  -2   2   8    0.10    0.23
   1  -2  -8   11.92    0.32
   1  -2  -8   11.37    0.31
   1   2  -8   12.19    0.73
   0  -2  -8   61.13    1.15
   0   2  -8   62.96    1.56
  -1  -2  -8   20.54    0.83
   1  -2   8   21.21    1.01
  -1   2  -8   18.98    0.93
   1   2   8   21.18    0.84
  -2  -2  -8    2.64    0.61
   2  -2   8    3.27    0.65
  -2   2  -8    3.42    0.68
   2   2   8    3.16    0.60
   3  -2   8    0.16    0.69
  -3  -2  -8    1.34    0.69
   3   2   8    0.19    0.69
  -3   2  -8    0.37    0.73
   4  -2   8    0.29    1.02
  -4  -2  -8    0.80    0.96
  -4   2  -8   -0.04    0.96
   4   2   8   -0.01    0.96
  -4  -3   8    1.22    0.86
   4  -3  -8    1.08    0.66
   4   3  -8    0.55    0.93
  -4   3   8    1.07    0.64
   3  -3  -8    0.49    0.40
  -3   3   8    0.53    0.40
   3   3  -8   -0.59    0.76
   2  -3  -8   11.10    0.46
  -2   3   8   10.32    0.45
   2   3  -8    9.99    0.91
   1   3  -8   11.69    0.82
   0  -3  -8    0.23    0.15
   0   3   8   -0.01    0.15
   0   3  -8    0.43    0.35
  -1  -3  -8    0.42    0.31
   1  -3   8    0.55    0.43
   1   3   8    0.52    0.31
  -1   3  -8    0.75    0.42
   2  -3   8    2.19    0.63
  -2  -3  -8    2.96    0.60
  -2   3  -8    1.45    0.59
   2   3   8    2.82    0.59
  -3  -3  -8   30.24    1.60
   3  -3   8   29.02    1.60
  -3   3  -8   30.70    1.65
   3   3   8   29.33    1.57
  -4  -3  -8    4.19    1.12
   4  -3   8    3.22    1.15
   4   3   8    5.52    1.20
  -4   3  -8    2.36    1.11
   4  -4  -8   -0.77    0.62
  -4  -4   8   -1.19    0.89
  -4   4   8    1.24    0.67
   4   4  -8    0.37    0.90
   3  -4  -8    8.17    0.71
  -3  -4   8    8.74    1.04
   3   4  -8    8.08    0.98
  -3   4   8    8.60    0.68
   2  -4  -8    5.90    0.28
  -2   4   8    6.19    0.28
   2   4  -8    6.13    0.80
   1   4  -8   54.02    1.62
   0  -4  -8    9.59    0.33
   0   4  -8    9.56    0.84
   0   4   8    9.64    0.33
  -1  -4  -8    2.79    0.41
  -1   4  -8    3.47    0.60
   1   4   8    2.90    0.43
  -2  -4  -8   25.10    1.22
   2  -4   8   26.75    1.37
   2   4   8   25.86    1.23
  -2   4  -8   26.17    1.37
  -3  -4  -8    1.29    0.72
   3  -4   8    1.64    0.82
  -3   4  -8    0.95    0.85
   3   4   8    2.63    0.78
  -4  -4  -8    7.71    1.35
   4  -4   8    8.88    1.46
  -4   4  -8    9.73    1.44
   4   4   8    7.17    1.25
  -4  -5   8    6.27    1.28
   4  -5  -8    5.57    0.82
   4   5  -8    5.73    1.27
  -4   5   8    6.65    0.82
  -3  -5   8    1.27    0.78
   3  -5  -8    1.24    0.41
  -3   5   8    1.44    0.40
   3   5  -8   -0.61    0.76
   2   5  -8    8.80    1.00
   1   5  -8    5.65    0.74
   0   5  -8    0.05    0.48
   0   5   8    0.16    0.16
  -1  -5  -8    4.26    0.49
  -1   5  -8    5.33    0.80
   1   5   8    4.18    0.49
   2  -5   8    2.53    0.76
  -2  -5  -8    3.80    0.69
  -2   5  -8    3.86    0.82
   2   5   8    2.78    0.62
   3  -5   8    2.12    0.92
  -3  -5  -8    2.85    0.84
   3   5   8    3.13    0.84
  -3   5  -8    2.31    0.91
   4  -5   8   11.81    1.51
  -4  -5  -8   15.45    1.63
  -4   5  -8   15.67    1.93
   4   5   8   14.36    1.74
   4  -6  -8    3.51    0.78
  -4  -6   8    5.10    1.35
   4   6  -8    3.66    1.23
  -4   6   8    4.59    0.78
   3  -6  -8    6.34    0.70
  -3   6   8    3.80    0.48
   3   6  -8    4.81    1.05
   2   6  -8    5.38    0.88
   1   6  -8    4.44    0.81
   0   6   8   93.45    1.51
   0   6  -8   87.80    2.77
  -1  -6  -8   -0.39    0.36
   1   6   8    0.28    0.37
  -1   6  -8    0.54    0.65
   2  -6   8    5.14    0.94
  -2  -6  -8    5.85    0.75
   2   6   8    7.29    0.85
  -2   6  -8    5.25    0.92
   3  -6   8   -0.75    0.87
  -3  -6  -8    0.70    0.83
   3   6   8   -0.61    0.82
  -3   6  -8    0.09    0.89
   4  -6   8    8.88    2.57
  -4  -6  -8    5.39    1.28
  -4   6  -8    3.13    1.37
   4   6   8    0.92    1.31
  -4  -7   8    4.69    1.52
  -4   7   8    6.25    0.83
   4   7  -8    6.81    1.55
  -3   7   8    0.10    0.38
   3   7  -8    0.00    0.96
   2   7  -8   50.93    2.12
   1   7  -8    0.27    0.67
   0   7  -8   44.43    1.77
   0   7   8   42.71    0.98
  -1  -7  -8    0.77    0.42
  -1   7  -8    0.86    0.69
   1   7   8    0.37    0.42
  -2  -7  -8    7.79    1.05
  -2   7  -8    8.67    1.12
   2   7   8    8.12    1.04
  -3  -7  -8    4.86    0.99
   3  -7   8    4.12    1.26
  -3   7  -8    8.47    1.34
   3   7   8    5.80    1.12
  -3   8   8    0.34    0.42
   3   8  -8    0.09    1.13
   2   8  -8    7.75    1.22
   1   8  -8    1.82    0.82
   0   8   8    1.92    0.38
   0   8  -8    2.30    0.76
   0   8  -8    2.51    0.79
  -1  -8  -8   14.42    0.95
  -1   8  -8   15.77    1.48
   1   8   8   14.05    0.96
  -2  -8  -8    7.47    0.94
  -2   8  -8    6.16    1.14
  -3  -8  -8   -0.01    0.96
   3  -8   8   -0.87    1.15
  -3   8  -8    0.79    1.17
   3   8   8    1.17    1.02
   3   9  -8    1.98    1.35
  -2   9   8    2.55    0.30
   2   9  -8    1.33    0.99
  -2   9   8    2.54    0.28
  -1   9   8   11.03    0.51
  -1   9   8   10.95    0.53
   1   9  -8    9.48    1.24
   0   9   8    0.55    0.37
   0   9  -8    1.15    0.81
   0   9   8    0.34    0.41
   0   9  -8    2.05    0.90
  -1   9  -8    7.36    1.22
   1   9   8    7.81    0.84
  -2  -9  -8    1.06    0.80
   2   9   8   -0.01    0.79
  -2   9  -8    1.31    1.08
  -3  -9  -8    6.88    1.29
  -3   9  -8    6.52    1.68
   3   9   8    6.88    1.32
  -2  10   8    0.47    0.35
   2  10  -8    0.13    1.21
  -2  10   8    0.13    0.34
   1  10  -8    9.63    1.43
  -1  10   8    9.38    0.65
   1  10  -8    8.82    1.35
  -1  10   8    7.79    0.64
   0  10   8    0.86    0.50
   0  10   8    2.09    0.50
   0  10  -8    0.60    0.99
   0  10  -8    2.94    1.06
  -1  10  -8   12.29    1.55
   1  10   8   13.01    1.22
  -2 -10  -8    0.66    0.93
  -2  10  -8    1.76    1.34
   2  10   8    0.25    0.92
   1  11  -8   10.78    1.54
  -1  11   8   14.91    0.89
   1  11  -8   12.94    1.69
   0  11  -8    2.52    1.26
   0  11   8    2.81    0.66
   0  11   8    3.75    0.63
   0  11  -8    0.22    1.20
   1  11   8   -0.41    0.80
  -1  11  -8   -0.46    1.26
  -4   0   9   -0.52    0.70
   4   0  -9   -0.36    0.77
  -3   0   9   48.69    1.56
   3   0  -9   46.34    1.55
   2   0  -9    0.59    0.37
   1   0  -9    0.07    0.27
   1   0  -9    0.39    0.28
   0   0  -9    0.16    0.26
  -1   0  -9   19.60    0.91
   1   0   9   18.92    0.90
   2   0   9    0.07    0.51
  -2   0  -9    0.55    0.50
   3   0   9   12.98    1.25
  -3   0  -9   17.73    1.33
  -4   0  -9   -0.22    1.06
   4   0   9    0.02    1.08
  -4  -1   9    6.48    1.01
   4  -1  -9    3.01    1.46
   4   1  -9    3.20    0.91
  -4   1   9    4.06    0.88
   3  -1  -9    2.15    0.53
  -3  -1   9    1.47    0.56
  -3   1   9    1.78    0.50
   3   1  -9    1.62    0.62
   2  -1  -9   23.83    0.85
   2   1  -9   23.65    1.02
   1  -1  -9    5.72    0.40
   1  -1  -9    5.72    0.42
   1   1  -9    6.15    0.58
   0  -1  -9   36.74    0.96
   0   1  -9   36.54    1.12
   1  -1   9    1.77    0.47
  -1  -1  -9    2.50    0.44
  -1   1  -9    2.69    0.51
   1   1   9    2.29    0.43
  -2  -1  -9   -0.07    0.51
   2  -1   9    1.04    0.59
   2   1   9    0.04    0.50
  -2   1  -9   -1.02    0.51
  -3  -1  -9    2.76    0.77
   3  -1   9    0.58    0.78
  -3   1  -9    0.85    0.74
   3   1   9    1.15    0.74
  -4  -1  -9   14.44    1.81
   4  -1   9   14.47    1.87
  -4   1  -9   11.63    1.48
   4   1   9   10.77    1.41
  -4  -2   9   16.52    1.55
   4  -2  -9   13.85    1.29
   4   2  -9   18.75    1.63
  -4   2   9   16.94    1.23
  -3  -2   9   37.46    1.57
   3  -2  -9   36.98    1.22
  -3   2   9   32.37    1.16
   3   2  -9   32.42    1.51
   2  -2  -9   14.48    0.60
   2   2  -9   12.95    0.94
   1  -2  -9    5.98    0.26
   1  -2  -9    5.77    0.28
   1   2  -9    7.21    0.67
   0  -2  -9   27.00    0.73
   0   2  -9   26.40    1.05
  -1  -2  -9    2.65    0.43
   1  -2   9    2.26    0.52
  -1   2  -9    2.98    0.54
   1   2   9    1.79    0.39
  -2  -2  -9   20.99    1.15
   2  -2   9   19.19    1.26
   2   2   9   23.08    1.17
  -2   2  -9   19.54    1.17
  -3  -2  -9   -0.19    0.66
   3  -2   9   -0.53    0.72
  -3   2  -9   -0.79    0.67
   3   2   9    1.32    0.73
  -4  -2  -9   11.57    1.46
   4  -2   9   12.10    1.54
   4   2   9   16.25    1.82
  -4   2  -9   17.15    2.00
  -4  -3   9    1.92    0.92
   4  -3  -9    0.99    0.69
  -4   3   9    0.35    0.68
   4   3  -9   -1.32    0.89
   3  -3  -9    1.78    0.43
  -3  -3   9    0.81    0.64
   3   3  -9    1.49    0.72
  -3   3   9    1.81    0.42
   2  -3  -9   15.86    0.47
   2   3  -9   15.90    1.04
   1   3  -9   52.29    1.53
   0  -3  -9    0.41    0.18
   0   3  -9    0.08    0.38
   1  -3   9    3.15    0.60
  -1  -3  -9    3.15    0.43
  -1   3  -9    4.01    0.62
   1   3   9    3.29    0.45
   2  -3   9   15.11    1.23
  -2  -3  -9   14.82    1.04
   2   3   9   15.00    1.05
  -2   3  -9   13.71    1.28
  -3  -3  -9    6.94    1.04
   3  -3   9    7.56    1.07
   3   3   9    7.26    0.98
  -3   3  -9    9.33    1.27
   4  -3   9    0.45    1.21
  -4  -3  -9   -0.32    1.12
  -4   3  -9    0.56    1.18
   4   3   9   -0.75    1.09
   4  -4  -9    6.58    0.85
  -4  -4   9    8.26    1.31
   4   4  -9    5.45    1.20
   3  -4  -9    0.37    0.36
  -3  -4   9    0.58    0.75
   3   4  -9   -0.80    0.67
  -3   4   9    0.21    0.34
   2   4  -9   37.46    1.54
   1   4  -9    2.60    0.62
   0  -4  -9   24.52    0.51
   0   4  -9   25.60    1.23
  -1  -4  -9   15.41    0.77
   1   4   9   16.26    0.80
  -1   4  -9   16.88    1.14
   2  -4   9    0.69    0.62
  -2  -4  -9    1.19    0.55
  -2   4  -9    0.30    0.64
   2   4   9    0.09    0.53
  -3  -4  -9   15.32    1.41
   3  -4   9   16.16    1.48
   3   4   9   13.98    1.34
  -3   4  -9   17.32    1.63
   4  -4   9    6.37    1.42
  -4  -4  -9    4.29    1.28
   4   4   9    2.51    1.22
  -4   4  -9    5.47    1.34
  -4  -5   9    5.41    1.27
   4  -5  -9    5.33    0.80
   4   5  -9    4.59    1.32
   3  -5  -9    0.43    0.35
   3   5  -9    0.52    0.81
  -3   5   9    0.30    0.32
   2   5  -9    1.87    0.68
   1   5  -9   59.52    1.91
   0   5  -9   -0.65    0.46
  -1  -5  -9   17.72    0.85
  -1   5  -9   19.60    1.48
   1   5   9   18.83    0.85
  -2  -5  -9    4.17    0.69
   2  -5   9    4.59    0.92
  -2   5  -9    4.80    0.87
   2   5   9    4.21    0.67
  -3  -5  -9   10.47    1.32
   3  -5   9    9.67    1.33
  -3   5  -9   10.13    1.33
   3   5   9   10.75    1.38
   4  -5   9    0.94    2.06
  -4  -5  -9    1.89    1.14
  -4   5  -9    0.85    1.33
   4   5   9   -1.42    1.22
   4  -6  -9    2.13    0.72
  -4  -6   9    0.65    1.22
  -4   6   9    1.54    0.64
   4   6  -9    4.14    1.30
   3   6  -9    2.03    0.98
  -3   6   9    1.37    0.31
   2   6  -9   12.08    1.29
   1   6  -9    1.89    0.70
   0   6   9    6.97    0.28
   0   6  -9    6.53    0.88
  -1  -6  -9   11.05    0.77
  -1   6  -9   11.24    1.18
   1   6   9   11.72    0.78
  -2  -6  -9   15.21    1.15
   2  -6   9   16.21    1.39
  -2   6  -9   15.41    1.38
   2   6   9   13.61    1.12
  -3  -6  -9    0.47    0.87
   3  -6   9    0.46    1.05
  -3   6  -9    2.75    1.07
   3   6   9    0.62    0.87
   3   7  -9    3.26    1.13
  -3   7   9    2.00    0.27
   2   7  -9    3.62    0.92
   1   7  -9   17.36    1.35
   0   7   9    0.61    0.22
   0   7  -9    0.38    0.69
  -1  -7  -9   14.00    0.87
  -1   7  -9   14.24    1.34
   1   7   9   13.55    0.86
  -2  -7  -9   10.69    1.13
   2   7   9   12.42    1.19
  -2   7  -9   13.16    1.48
  -3  -7  -9    0.68    0.92
   3  -7   9   -1.24    1.02
  -3   7  -9    0.01    1.12
   3   7   9    0.15    0.95
   3   8  -9    0.29    1.24
   2   8  -9   12.48    1.54
   1   8  -9   10.67    1.44
   0   8  -9   31.23    1.69
   0   8  -9   27.96    1.64
   0   8   9   26.54    0.75
   0   8   9   26.51    0.77
  -1  -8  -9   14.43    0.96
  -1   8  -9   15.06    1.50
   1   8   9   14.97    0.98
  -2  -8  -9    2.17    0.78
  -2   8  -9    2.98    1.12
  -3  -8  -9    0.59    1.06
   3   8   9    0.15    1.06
  -3   8  -9    0.01    1.31
   2   9  -9    4.65    1.22
   1   9  -9   24.51    1.90
   1   9  -9   23.34    1.86
   0   9  -9    0.81    0.93
   0   9   9    0.13    0.33
   0   9  -9    0.79    0.95
   0   9   9    0.07    0.35
  -1   9  -9    7.31    1.27
   1   9   9    5.79    0.74
  -2  -9  -9    3.04    0.88
   2   9   9    3.38    0.89
  -2   9  -9    2.57    1.24
   2  10  -9    8.90    1.53
   1  10  -9    3.76    1.22
   1  10  -9    4.16    1.19
   0  10   9   13.17    0.80
   0  10  -9   11.45    1.47
   0  10   9   12.47    0.83
   0  10  -9   13.53    1.73
   1  10   9    2.45    0.73
  -1  10  -9    3.14    1.26
  -2 -10  -9   -0.38    0.94
  -2  10  -9   -0.89    1.48
   2  10   9   -1.57    0.91
   1  11  -9   11.46    2.48
   0  11   9   -0.38    0.50
   0  11  -9    0.83    1.44
   0  11  -9    0.03    1.20
   0  11   9    0.28    0.56
   1  11   9    1.08    0.84
  -4   0  10    2.93    0.84
   4   0 -10    1.51    0.85
   3   0 -10   -0.55    0.51
  -3   0  10   -0.77    0.49
   2   0 -10    0.40    0.38
   1   0 -10   -0.35    0.27
   1   0 -10    0.12    0.29
   0   0 -10   19.13    0.81
   1   0  10   -0.68    0.37
  -1   0 -10    0.01    0.38
  -2   0 -10   14.82    1.05
   2   0  10   12.80    1.09
  -3   0 -10   -0.44    0.75
   3   0  10   -0.22    0.78
   4   0  10   -0.08    1.16
  -4   0 -10   -1.64    1.18
  -4  -1  10    3.28    0.94
  -4   1  10    4.81    0.86
   4   1 -10    5.29    0.99
   3  -1 -10    0.25    0.49
  -3  -1  10    0.10    0.54
  -3   1  10   -0.26    0.43
   3   1 -10    0.15    0.59
   2  -1 -10    0.07    0.33
   2   1 -10    0.23    0.43
   1  -1 -10   17.55    0.66
   1  -1 -10   17.06    0.63
   1   1 -10   17.26    0.83
   1   1 -10   18.28    0.84
   0  -1 -10    0.69    0.29
   0   1 -10    0.21    0.35
   1  -1  10   35.47    1.32
  -1  -1 -10   33.05    1.17
   1   1  10   36.79    1.20
  -1   1 -10   33.10    1.29
  -2  -1 -10    0.49    0.53
   2  -1  10    0.27    0.56
   2   1  10   -0.19    0.52
  -2   1 -10    0.74    0.59
   3  -1  10    6.25    1.09
  -3  -1 -10    6.59    1.07
  -3   1 -10    4.98    0.96
   3   1  10    6.94    1.03
   4  -1  10    1.74    1.17
  -4  -1 -10    1.12    1.13
  -4   1 -10   -0.69    1.16
   4   1  10   -0.27    1.08
   4  -2 -10    1.42    0.73
  -4  -2  10   -0.50    0.88
  -4   2  10    0.16    0.69
   4   2 -10    0.43    0.96
   3  -2 -10    3.56    0.53
  -3   2  10    3.29    0.52
   3   2 -10    2.35    0.75
   2  -2 -10    5.00    0.45
   2   2 -10    5.16    0.68
   1  -2 -10    0.02    0.16
   1  -2 -10    0.30    0.16
   1   2 -10    0.02    0.38
   1   2 -10    0.44    0.40
   0  -2 -10    2.21    0.31
   0   2 -10    2.27    0.50
  -1  -2 -10    1.85    0.44
   1  -2  10    2.16    0.53
  -1   2 -10    1.63    0.55
   1   2  10    1.82    0.43
  -2  -2 -10    5.45    0.74
   2  -2  10    6.02    0.89
  -2   2 -10    6.10    1.02
   2   2  10    5.91    0.77
  -3  -2 -10    3.65    0.93
   3  -2  10    3.62    0.93
  -3   2 -10    3.46    0.91
   3   2  10    3.37    0.86
   4  -2  10    1.22    1.23
  -4  -2 -10    2.81    1.18
  -4   2 -10    2.14    1.34
   4   2  10    2.64    1.26
  -4  -3  10    0.76    1.02
   4  -3 -10    0.26    0.68
  -4   3  10    1.70    0.67
   4   3 -10   -0.03    0.93
   3  -3 -10    1.19    0.42
   3   3 -10    1.14    0.76
  -3   3  10    1.25    0.39
   2   3 -10    0.42    0.57
   1   3 -10   25.50    1.21
   1   3 -10   25.84    1.15
   0  -3 -10    3.20    0.35
   0   3 -10    2.60    0.54
  -1  -3 -10    1.10    0.40
   1   3  10    2.46    0.44
  -1   3 -10    1.10    0.55
  -2  -3 -10    9.23    0.97
   2  -3  10    6.75    0.92
  -2   3 -10    8.15    1.02
   2   3  10    7.77    0.93
  -3  -3 -10   -0.07    0.80
   3  -3  10    1.10    0.88
  -3   3 -10   -0.30    0.84
  -4  -3 -10    3.11    1.29
   4  -3  10    6.64    1.44
   4   3  10    4.14    1.31
  -4   3 -10    6.36    1.50
   4  -4 -10    0.67    0.66
  -4  -4  10    0.35    1.08
  -4   4  10    0.64    0.61
   4   4 -10    2.61    1.17
   3  -4 -10    0.01    0.34
   3   4 -10    0.45    0.81
  -3   4  10    0.05    0.31
   2   4 -10    0.61    1.12
   1   4 -10    6.45    0.81
   1   4 -10    5.82    0.75
   0  -4 -10    0.00    0.13
   0   4 -10    0.33    0.51
  -1  -4 -10    9.21    0.72
  -1   4 -10    9.25    1.16
   1   4  10    9.51    0.71
  -2  -4 -10    1.55    0.62
   2  -4  10    1.02    0.75
  -2   4 -10    1.33    0.74
   2   4  10    1.09    0.61
   3  -4  10   12.47    1.62
  -3  -4 -10    9.47    1.16
  -3   4 -10    8.23    1.25
   3   4  10    8.10    1.15
  -4  -4 -10   -1.66    1.19
  -4   4 -10   -0.33    1.28
   4   4  10   -0.35    1.23
  -4  -5  10    2.84    1.23
   4  -5 -10    3.28    0.72
   4   5 -10    3.36    1.24
   3   5 -10    1.58    0.88
   2   5 -10    0.48    0.70
   1   5 -10    1.09    0.65
  -1  -5 -10    1.56    0.43
   1   5  10    1.24    0.39
  -1   5 -10    2.86    0.73
   2  -5  10    4.60    0.96
  -2  -5 -10    5.33    0.78
   2   5  10    4.23    0.72
  -2   5 -10    3.87    0.94
   3  -5  10    2.93    1.12
  -3  -5 -10    2.33    0.94
  -3   5 -10    2.89    1.06
   3   5  10    1.80    0.89
   3   6 -10    3.58    1.07
   2   6 -10    1.96    0.78
   1   6 -10    0.09    0.65
   1   6 -10    1.12    0.70
   0   6 -10    2.94    0.78
  -1  -6 -10    5.46    0.70
  -1   6 -10    7.89    1.10
   1   6  10    6.23    0.70
  -2  -6 -10    4.02    0.77
   2   6  10    4.18    0.77
  -2   6 -10    4.24    0.98
   3  -6  10    8.26    1.42
  -3  -6 -10    6.31    1.09
   3   6  10    7.81    1.19
  -3   6 -10    8.64    1.41
   3   7 -10    3.07    1.14
   2   7 -10    8.38    1.22
   1   7 -10    1.27    0.83
   1   7 -10    0.71    0.76
   0   7 -10    0.76    0.79
  -1  -7 -10   -0.56    0.40
  -1   7 -10   -0.07    0.82
   1   7  10    1.00    0.46
  -2  -7 -10    0.21    0.68
  -2   7 -10   -0.01    0.92
   2   7  10    0.37    0.70
   3  -7  10    0.47    1.28
  -3  -7 -10    1.88    1.04
   3   7  10    0.62    1.02
  -3   7 -10    0.43    1.33
   3   8 -10    2.29    1.30
   2   8 -10    0.21    1.06
   1   8 -10    4.32    1.04
   1   8 -10    4.86    1.06
   0   8 -10   21.77    1.71
   0   8 -10   19.90    1.55
  -1  -8 -10    4.86    0.64
   1   8  10    3.97    0.62
  -1   8 -10    4.87    1.16
  -2  -8 -10   -0.83    0.73
  -2   8 -10    0.62    1.17
   2   9 -10   10.33    1.46
   1   9 -10    5.82    1.26
   1   9 -10    5.56    1.25
   0   9 -10    3.30    1.10
   0   9 -10    2.11    1.11
   0   9  10    1.42    0.25
   0   9  10    1.41    0.27
   1   9  10   10.74    1.01
  -1   9 -10    9.64    1.45
  -2  -9 -10    2.54    0.89
   2   9  10    0.13    0.85
  -2   9 -10   -1.38    1.34
   1  10 -10    7.45    1.51
   1  10 -10    7.63    1.38
   0  10 -10    1.90    1.23
   0  10 -10    2.96    1.23
   1  10  10    4.72    0.80
  -1  10 -10    4.35    1.51
  -4   0  11   -0.84    0.77
   4   0 -11   -1.05    0.85
   3   0 -11   48.26    1.63
   2   0 -11    0.08    0.40
   1   0 -11   12.73    0.72
   1   0 -11   13.20    0.72
   0   0 -11    0.21    0.33
   1   0  11   98.78    2.27
  -1   0 -11   99.17    2.25
  -2   0 -11    1.12    0.64
  -3   0 -11   86.05    2.68
   3   0  11   87.73    2.72
   4   0  11   -0.65    1.27
  -4   0 -11   -0.18    1.31
   4  -1 -11   10.14    1.28
  -4  -1  11    7.40    1.08
   4   1 -11    9.74    1.23
  -4   1  11    9.88    1.28
   3  -1 -11   22.86    1.13
   3   1 -11   24.09    1.37
   2  -1 -11   38.94    1.11
   2   1 -11   36.02    1.31
   1  -1 -11   16.74    0.67
   1  -1 -11   17.61    0.69
   1   1 -11   17.66    0.89
   1   1 -11   16.58    0.88
   0  -1 -11   19.13    0.79
   0   1 -11   19.68    0.93
  -1  -1 -11    3.80    0.56
   1  -1  11    4.02    0.64
   1   1  11    2.12    0.52
  -1   1 -11    3.44    0.61
  -2  -1 -11   32.99    1.48
   2  -1  11   33.45    1.58
   2   1  11   32.90    1.51
  -2   1 -11   32.01    1.59
  -3  -1 -11   -0.24    0.85
   3  -1  11   -0.59    0.86
   3   1  11   -0.20    0.81
  -3   1 -11   -0.51    0.79
  -4  -1 -11    1.75    1.27
   4  -1  11   -0.75    1.27
   4   1  11    1.74    1.21
  -4   1 -11    1.53    1.38
   4  -2 -11    4.41    0.85
  -4  -2  11    4.14    1.04
   4   2 -11    5.09    1.12
  -4   2  11    4.35    0.80
   3  -2 -11    6.63    0.78
   2  -2 -11   48.51    1.04
   2  -2 -11   50.02    1.06
   2   2 -11   50.53    1.64
   1  -2 -11   12.57    0.44
   1  -2 -11   12.49    0.41
   1   2 -11   12.00    0.90
   1   2 -11   13.61    0.89
   0  -2 -11    2.29    0.35
   0   2 -11    2.43    0.55
   1  -2  11    7.00    0.83
  -1  -2 -11    6.71    0.74
   1   2  11    6.82    0.73
  -1   2 -11    7.03    0.89
   2  -2  11    0.27    0.71
  -2  -2 -11    0.43    0.60
  -2   2 -11    2.10    0.70
   2   2  11    1.34    0.63
   3  -2  11   12.07    1.54
  -3  -2 -11   10.17    1.24
   3   2  11    9.83    1.19
  -3   2 -11   12.27    1.58
   4  -2  11   25.98    2.40
  -4  -2 -11   19.98    2.26
   4   2  11   17.21    2.18
  -4   2 -11   19.25    2.38
  -4  -3  11    2.50    1.12
   4  -3 -11    2.62    0.75
   4   3 -11    1.35    1.08
  -4   3  11    3.38    0.70
   3  -3 -11   35.43    1.04
   3   3 -11   34.62    1.72
   2   3 -11   -0.23    0.57
   1   3 -11    1.27    0.55
   1   3 -11    0.83    0.52
   0  -3 -11   50.86    1.04
   0   3 -11   51.08    1.68
  -1  -3 -11   22.41    0.99
   1   3  11   24.91    1.00
  -1   3 -11   22.37    1.30
   2  -3  11   56.52    2.11
  -2  -3 -11   58.10    1.86
  -2   3 -11   55.50    2.10
   2   3  11   59.46    1.85
  -3  -3 -11    1.56    0.95
   3  -3  11    0.79    1.01
  -3   3 -11    0.10    0.99
   3   3  11    0.60    0.88
   4  -4 -11   44.60    1.53
   4   4 -11   41.14    2.37
   3  -4 -11    6.17    0.44
   3   4 -11    4.41    0.92
   2   4 -11   11.19    1.13
   1   4 -11   55.45    1.83
   1   4 -11   58.27    1.94
   0   4 -11   10.35    0.96
  -1  -4 -11   -0.05    0.38
  -1   4 -11   -0.26    0.59
   1   4  11    0.10    0.38
   2  -4  11   14.95    1.48
  -2  -4 -11   10.20    1.13
   2   4  11   11.22    1.09
  -2   4 -11   10.61    1.29
   3  -4  11   -2.47    0.99
  -3  -4 -11   -0.10    0.90
  -3   4 -11   -1.60    0.97
   3   4  11    0.64    0.86
   3   5 -11    2.90    1.02
   2   5 -11   10.25    1.30
   1   5 -11   26.20    1.49
   1   5 -11   24.25    1.36
   0   5 -11    0.18    0.62
  -1  -5 -11   13.16    0.83
   1   5  11   13.85    0.82
  -1   5 -11   15.82    1.27
   2  -5  11   -0.35    0.84
  -2  -5 -11   -0.44    0.61
   2   5  11    0.11    0.61
  -2   5 -11    0.56    0.82
  -3  -5 -11    7.98    1.18
   3  -5  11   10.80    1.53
  -3   5 -11   11.94    1.53
   3   5  11    9.44    1.26
   3   6 -11    1.74    1.12
   2   6 -11   34.45    1.86
   1   6 -11   -1.07    0.72
   1   6 -11   -0.48    0.70
   0   6 -11   14.94    1.28
  -1  -6 -11   15.32    0.88
   1   6  11   14.22    0.85
  -1   6 -11   19.92    1.56
  -2  -6 -11    0.56    0.66
   2   6  11    0.48    0.69
  -2   6 -11    0.39    0.91
   3  -6  11    3.29    1.31
  -3  -6 -11    4.44    1.13
   3   6  11    5.79    1.19
  -3   6 -11    5.89    1.38
   3   7 -11    7.21    1.49
   2   7 -11    2.02    1.02
   1   7 -11    1.24    0.95
   1   7 -11    3.24    0.97
   0   7 -11    2.42    0.89
   0   7 -11    0.03    0.88
  -1  -7 -11    0.35    0.44
   1   7  11    0.15    0.45
  -1   7 -11    0.82    0.87
  -2  -7 -11    5.51    0.88
  -2   7 -11    3.66    1.14
   2   7  11    3.75    0.84
  -3  -7 -11    1.13    1.15
   3   7  11    0.72    1.13
   2   8 -11    1.98    1.17
   1   8 -11   23.24    1.89
   1   8 -11   19.90    1.76
   0   8 -11   16.09    1.75
   0   8 -11   19.23    1.68
  -1   8 -11    0.49    1.06
   1   8  11   -0.73    0.48
  -2  -8 -11    0.21    0.78
  -2   8 -11    0.27    1.32
   2   9 -11   10.83    1.69
   1   9 -11    1.87    1.20
   1   9 -11    1.96    1.22
   0   9 -11    1.91    1.27
   0   9 -11    3.04    1.15
  -1   9 -11    3.71    1.37
   1   9  11    2.37    0.60
   1  10 -11    1.11    1.53
   0  10 -11    1.65    1.51
   0  10 -11    1.13    1.30
   4   0 -12    1.60    0.96
   3   0 -12   -0.59    0.58
   2   0 -12   14.85    0.92
   1   0 -12    0.05    0.35
   1   0 -12   -0.29    0.35
   0   0 -12   38.46    1.25
   1   0  12    1.13    0.55
  -1   0 -12    0.22    0.51
  -2   0 -12    3.77    0.80
   3   0  12    0.45    0.95
  -3   0 -12   -0.07    0.94
   4  -1 -12    2.37    0.91
   4   1 -12    3.24    1.06
   3  -1 -12    8.58    0.94
   3   1 -12    7.79    0.93
   2  -1 -12    9.38    0.68
   2  -1 -12    9.98    0.71
   2   1 -12    9.55    0.93
   1  -1 -12    2.15    0.37
   1  -1 -12    1.62    0.35
   1   1 -12    2.27    0.50
   1   1 -12    2.24    0.51
   0  -1 -12    0.73    0.36
   0   1 -12    0.61    0.43
  -1  -1 -12    1.76    0.52
   1  -1  12    1.44    0.58
  -1   1 -12    1.67    0.59
   1   1  12    2.14    0.53
  -2  -1 -12    5.84    1.06
   2  -1  12    4.53    0.92
  -2   1 -12    5.05    0.84
   3  -1  12    1.05    0.94
  -3  -1 -12    0.60    0.99
   3   1  12   -1.04    0.94
  -3   1 -12    0.30    0.99
   4  -2 -12    0.35    0.76
   4   2 -12   -1.01    1.04
   3  -2 -12    0.98    0.46
   3   2 -12    0.36    0.73
   2  -2 -12    0.33    0.26
   2  -2 -12    0.56    0.25
   2   2 -12    0.66    0.55
   1  -2 -12    1.51    0.24
   1  -2 -12    1.76    0.23
   1   2 -12    1.97    0.56
   1   2 -12    2.88    0.58
   0  -2 -12    0.31    0.31
   0   2 -12    0.94    0.54
  -1  -2 -12    0.23    0.46
   1   2  12    0.05    0.45
  -1   2 -12    1.83    0.64
  -2  -2 -12    0.58    0.65
   2  -2  12   -0.14    0.74
  -2   2 -12   -0.99    0.67
   2   2  12   -0.35    0.66
   3  -2  12    4.30    1.20
  -3  -2 -12    3.64    1.07
  -3   2 -12    2.61    1.06
   3   2  12    3.10    0.98
   3  -3 -12    4.56    0.57
   3   3 -12    3.88    0.91
   2   3 -12    3.25    0.87
   1   3 -12    0.30    0.56
   1   3 -12   -0.03    0.54
   0  -3 -12    0.12    0.24
   0   3 -12   -0.18    0.57
  -1  -3 -12    8.01    0.81
  -1   3 -12    8.60    1.08
   1   3  12    9.23    0.80
   2  -3  12   -0.26    0.80
  -2  -3 -12    1.45    0.70
   2   3  12   -0.03    0.67
  -2   3 -12   -0.77    0.78
  -3  -3 -12    2.85    1.06
   3  -3  12    1.29    1.14
   3   3  12    0.62    0.97
  -3   3 -12    0.05    1.03
   3   4 -12    1.42    0.96
   2   4 -12    0.83    0.69
   1   4 -12   39.08    1.64
   0   4 -12   -0.47    0.62
  -1  -4 -12    6.04    0.74
  -1   4 -12    5.64    0.94
   1   4  12    7.06    0.75
  -2  -4 -12    2.64    0.72
   2  -4  12    3.32    0.94
  -2   4 -12    1.09    0.86
   2   4  12    0.68    0.70
   3  -4  12   -0.56    1.11
  -3  -4 -12    1.40    1.01
   3   4  12    0.44    0.98
  -3   4 -12    0.76    1.12
   3   5 -12    1.59    1.06
   2   5 -12    0.53    0.83
   1   5 -12    7.41    1.05
   1   5 -12    7.11    0.99
   0   5 -12    2.63    0.80
  -1  -5 -12    0.67    0.45
   1   5  12   -0.14    0.43
  -1   5 -12    0.52    0.77
  -2  -5 -12    5.69    0.85
   2   5  12    5.82    0.84
  -2   5 -12    4.51    1.12
  -3  -5 -12    4.65    1.13
   3  -5  12    5.27    1.48
   3   5  12    3.61    1.09
  -3   5 -12    3.46    1.37
   3   6 -12    0.28    1.15
   2   6 -12   -0.04    0.92
   1   6 -12    3.61    0.88
   1   6 -12    2.65    0.91
   0   6 -12   38.94    1.95
  -1  -6 -12    3.66    0.53
  -1   6 -12    3.86    0.96
   1   6  12    3.77    0.54
  -2  -6 -12    4.35    0.85
  -2   6 -12    6.58    1.25
   2   6  12    5.12    0.87
  -3  -6 -12    2.19    1.14
   2   7 -12    7.13    1.28
   1   7 -12    1.71    0.93
   1   7 -12    1.13    1.02
   0   7 -12    5.63    1.11
   0   7 -12    4.86    1.01
  -1  -7 -12    2.91    0.51
  -1   7 -12    3.88    1.18
   1   7  12    3.22    0.55
  -2  -7 -12    0.27    0.77
   2   7  12   -1.52    0.75
  -2   7 -12    1.78    1.22
   2   8 -12    3.02    1.30
   1   8 -12    6.57    1.24
   1   8 -12    4.52    1.18
   0   8 -12    6.57    1.31
   0   8 -12    5.84    1.28
  -1   8 -12    1.01    1.23
   1   8  12    1.52    0.54
  -2  -8 -12   -0.60    0.85
  -2   8 -12    1.23    1.50
   1   9 -12    0.61    1.27
   1   9 -12    0.66    1.36
   0   9 -12    4.49    1.42
   0   9 -12    1.67    1.33
  -1   9 -12    7.98    1.51
   3   0 -13    6.23    0.85
   2   0 -13    0.39    0.47
   2   0 -13    0.22    0.46
   1   0 -13   25.70    1.02
   1   0 -13   26.82    1.05
   0   0 -13    0.58    0.45
   1   0  13   35.44    1.46
  -1   0 -13   36.66    1.47
  -2   0 -13   -0.52    0.76
   2   0  13   -0.01    0.72
  -3   0 -13    1.51    1.14
   3   0  13    2.90    1.14
   3  -1 -13    8.01    0.98
   3   1 -13    7.77    0.97
   2  -1 -13   37.45    1.11
   2  -1 -13   41.09    1.17
   2   1 -13   39.65    1.46
   2   1 -13   38.77    1.47
   1  -1 -13   10.19    0.66
   1  -1 -13   10.78    0.67
   1   1 -13   11.28    0.89
   1   1 -13   10.09    0.91
   0  -1 -13   66.29    1.61
   0   1 -13   66.49    1.84
  -1  -1 -13   56.10    1.72
   1   1  13   58.58    1.75
  -1   1 -13   58.07    1.88
   2  -1  13    7.88    1.03
  -2  -1 -13    9.33    1.06
   2   1  13   11.21    1.27
  -2   1 -13   10.79    1.29
   3  -1  13    0.88    1.04
  -3  -1 -13    0.47    1.02
  -3   1 -13    1.03    1.09
   3   1  13    1.79    1.02
   3  -2 -13    8.28    0.80
   3   2 -13    6.60    1.02
   2  -2 -13    5.36    0.38
   2  -2 -13    4.58    0.41
   2   2 -13    5.53    0.80
   2   2 -13    3.89    0.77
   1  -2 -13   36.93    0.78
   1  -2 -13   37.79    0.79
   1   2 -13   35.73    1.46
   1   2 -13   39.81    1.47
   0  -2 -13   49.31    1.25
   0   2 -13   50.14    1.69
  -1  -2 -13   13.87    1.01
   1   2  13   16.70    1.04
  -1   2 -13   12.87    1.38
   2  -2  13    0.39    0.88
   2   2  13    0.42    0.73
  -2   2 -13   -1.01    0.76
  -3  -2 -13   11.50    1.41
   3  -2  13   12.85    1.56
  -3   2 -13   12.47    1.60
   3   2  13   10.37    1.32
   3   3 -13    6.57    1.07
   2   3 -13    9.82    1.20
   1   3 -13    0.77    0.65
   1   3 -13    1.66    0.64
   0  -3 -13   -0.09    0.27
   0   3 -13   -0.62    0.70
  -1  -3 -13   22.65    1.09
  -1   3 -13   23.17    1.45
   1   3  13   22.01    1.09
   2  -3  13    0.52    0.91
  -2  -3 -13    0.55    0.74
  -2   3 -13    0.69    0.89
   3  -3  13    3.56    1.25
  -3  -3 -13    4.09    1.15
  -3   3 -13    4.46    1.27
   3   3  13    5.67    1.18
   3   4 -13   -0.72    0.97
   2   4 -13   -0.20    0.76
   1   4 -13   68.71    2.18
   1   4 -13   71.05    2.22
   0   4 -13    3.67    0.88
  -1  -4 -13    2.06    0.54
  -1   4 -13    2.47    0.88
   1   4  13    1.87    0.53
   2  -4  13   25.99    1.78
  -2  -4 -13   28.48    1.56
   2   4  13   28.16    1.58
  -2   4 -13   29.05    1.92
   3  -4  13    5.29    1.44
  -3  -4 -13   -0.76    1.09
  -3   4 -13    2.91    1.45
   3   4  13    2.06    1.15
   3   5 -13    1.08    1.20
   2   5 -13    0.40    0.88
   1   5 -13    6.98    1.02
   1   5 -13    6.70    1.05
   0   5 -13    2.13    0.89
  -1  -5 -13    0.92    0.46
  -1   5 -13    0.71    0.85
   1   5  13    0.38    0.48
  -2  -5 -13   10.77    1.29
   2   5  13    8.48    0.99
  -2   5 -13    9.32    1.45
   2   6 -13   10.78    1.29
   1   6 -13    4.16    1.05
   1   6 -13    4.16    1.07
   0   6 -13   42.69    2.02
  -1  -6 -13    2.94    0.50
  -1   6 -13    1.59    1.03
   1   6  13    3.38    0.54
  -2  -6 -13    7.31    0.96
  -2   6 -13    9.62    1.48
   2   6  13    5.66    0.96
   2   7 -13    5.49    1.35
   1   7 -13    1.66    1.08
   1   7 -13    3.34    1.09
   0   7 -13    3.11    1.11
   0   7 -13    4.34    1.18
  -1  -7 -13   16.63    0.87
   1   7  13   16.05    0.92
  -1   7 -13   17.49    2.06
  -2  -7 -13    0.79    0.83
  -2   7 -13    0.61    1.39
   2   7  13    0.11    0.87
   1   8 -13    3.46    1.37
   1   8 -13    2.30    1.24
   0   8 -13    2.80    1.30
   0   8 -13    1.36    1.26
  -1   8 -13    4.69    1.50
   3   0 -14    0.19    0.68
   2   0 -14   -0.20    0.50
   2   0 -14    0.87    0.53
   1   0 -14   -0.01    0.45
   1   0 -14   -0.09    0.44
   0   0 -14    0.53    0.51
  -1   0 -14    0.17    0.64
  -2   0 -14   -1.89    0.85
   2   0  14    1.88    0.86
  -3   0 -14    1.97    1.28
   3   0  14    2.30    1.14
   3  -1 -14    2.46    0.65
   3   1 -14    1.19    0.87
   2  -1 -14    2.34    0.46
   2  -1 -14    1.28    0.45
   2   1 -14    1.72    0.64
   2   1 -14    2.33    0.68
   1  -1 -14    6.68    0.68
   1  -1 -14    5.32    0.55
   1   1 -14    7.07    0.92
   1   1 -14    5.80    0.72
   0  -1 -14    0.70    0.47
   0   1 -14    1.26    0.59
  -1  -1 -14    3.28    0.73
  -1   1 -14    3.73    1.38
  -2  -1 -14    1.40    0.85
   2  -1  14    0.22    0.90
   2   1  14    1.12    0.81
  -2   1 -14   -0.34    0.86
   3  -1  14   -1.34    1.12
  -3  -1 -14    0.71    1.19
  -3   1 -14    2.52    1.31
   3   1  14   -0.04    1.13
   3  -2 -14    0.24    0.45
   3  -2 -14    0.95    0.40
   3   2 -14   -0.28    0.86
   2   2 -14    1.65    0.74
   2   2 -14   -0.06    0.71
   1  -2 -14    6.45    0.40
   1  -2 -14    6.35    0.38
   1   2 -14    7.61    1.03
   1   2 -14    8.78    1.08
   0  -2 -14   10.26    0.73
   0   2 -14   12.58    1.12
  -1  -2 -14   13.74    1.09
   1   2  14   13.03    1.09
  -1   2 -14   11.43    1.29
   2  -2  14    1.96    1.02
  -2  -2 -14    3.41    0.91
   2   2  14    1.96    0.84
  -2   2 -14   -0.09    0.93
  -3  -2 -14   -0.08    1.22
  -3   2 -14    1.09    1.40
   3   3 -14    5.58    1.12
   2   3 -14    1.76    0.83
   2   3 -14    1.06    0.80
   1   3 -14    3.72    0.80
   1   3 -14    4.62    1.03
   0  -3 -14    0.01    0.29
   0  -3 -14    0.46    0.31
   0   3 -14    1.43    0.74
  -1  -3 -14    0.42    0.53
   1   3  14    0.17    0.54
  -1   3 -14    1.63    0.83
  -2  -3 -14   -1.24    0.91
   2  -3  14    0.35    1.09
  -2   3 -14    1.74    0.99
   2   3  14    1.09    0.81
   2   4 -14   -0.10    0.90
   2   4 -14    1.03    0.88
   1   4 -14   -0.03    0.80
   1   4 -14    0.23    0.74
   0   4 -14   -1.46    0.83
  -1  -4 -14   11.32    0.94
   1   4  14   13.48    0.98
  -1   4 -14   12.41    1.53
  -2   4 -14    2.40    1.16
   2   5 -14    0.26    1.03
   2   5 -14    1.74    1.11
   1   5 -14    7.61    1.15
   1   5 -14    6.70    1.06
   0   5 -14   -1.08    0.86
  -1  -5 -14    0.28    0.49
  -1   5 -14    0.70    0.94
   1   5  14    0.87    0.51
  -2  -5 -14    0.63    0.82
  -2   5 -14    0.45    1.19
   2   6 -14    2.13    1.27
   2   6 -14    1.81    1.20
   1   6 -14    0.65    1.04
   1   6 -14    2.43    1.14
   0   6 -14    6.19    1.26
   0   6 -14    8.56    1.21
  -1  -6 -14    1.19    0.47
   1   6  14    2.10    0.53
  -1   6 -14    2.43    1.12
   1   7 -14    1.04    1.18
   1   7 -14    3.09    1.18
   0   7 -14    1.57    1.29
   0   7 -14    0.76    1.16
  -1   7 -14    0.02    1.32
   1   7  14    0.31    0.71
   2   0 -15    0.60    0.56
   2   0 -15   -0.22    0.56
   1   0 -15    5.78    0.70
   1   0 -15    6.39    0.72
   0   0 -15   -0.41    0.57
  -1   0 -15   14.66    1.32
  -2   0 -15   -1.00    0.93
   2   0  15    0.55    0.93
   2  -1 -15   -0.62    0.41
   2  -1 -15    0.17    0.45
   2   1 -15    0.67    0.68
   2   1 -15   -1.16    0.63
   1  -1 -15    2.57    0.48
   1  -1 -15    2.78    0.49
   1   1 -15    3.19    0.66
   1   1 -15    2.09    0.68
   0  -1 -15    3.50    0.63
   0   1 -15    2.85    0.73
  -1  -1 -15    0.98    0.74
  -1   1 -15    1.70    0.82
   2  -1  15    2.16    1.09
  -2  -1 -15    5.34    1.10
  -2   1 -15    1.92    1.08
   2   1  15    3.53    1.03
   2   2 -15    2.05    1.31
   1   2 -15    1.41    0.75
   1   2 -15    1.52    0.72
   0  -2 -15   15.39    0.86
   0  -2 -15   16.03    0.88
  -1  -2 -15   -0.24    0.63
  -1   2 -15    0.83    0.85
   2  -2  15    7.96    1.40
  -2  -2 -15   12.25    1.32
   2   2  15   11.62    1.45
  -2   2 -15   11.70    1.47
   2   3 -15    2.18    0.96
   2   3 -15    5.02    1.00
   1   3 -15    2.06    0.81
   1   3 -15    1.87    0.84
   0  -3 -15    1.62    0.34
   0  -3 -15    1.99    0.34
   0   3 -15    2.29    0.87
  -1  -3 -15    0.86    0.62
  -1   3 -15    1.00    0.92
  -2  -3 -15    6.88    1.09
   2   3  15    6.79    1.05
  -2   3 -15    7.79    1.43
   2   4 -15    6.02    1.13
   2   4 -15    5.91    1.16
   1   4 -15    0.49    0.88
   1   4 -15    1.99    0.93
   0   4 -15    1.92    0.93
  -1  -4 -15    7.01    0.74
  -1   4 -15    5.98    1.24
  -2  -4 -15   12.87    1.50
  -2   4 -15   10.28    1.53
   2   4  15   10.71    1.18
   1   5 -15    4.53    1.17
   1   5 -15    4.06    1.09
   0   5 -15    2.00    0.99
   0   5 -15   -1.26    1.00
  -1  -5 -15    1.32    0.51
  -1   5 -15   -0.21    1.07
   1   6 -15   -0.38    1.20
   1   6 -15   -0.57    1.15
   0   6 -15    1.25    1.19
   0   6 -15    0.61    1.17
  -1  -6 -15    1.02    0.73
  -1   6 -15    1.67    1.24
   2   0 -16    1.30    0.65
   2   0 -16    1.40    0.67
   1   0 -16    0.15    0.61
   1   0 -16    0.04    0.57
   0   0 -16   -0.02    0.62
   0   0 -16    0.02    0.66
  -1   0 -16    0.40    0.83
   2  -1 -16    3.73    0.53
   2  -1 -16    2.93    0.50
   2   1 -16    3.84    0.86
   2   1 -16    3.41    0.84
   1  -1 -16    5.60    0.62
   1  -1 -16    5.59    0.60
   1   1 -16    4.19    0.79
   1   1 -16    3.50    0.77
   0  -1 -16    1.33    0.61
   0  -1 -16    1.28    0.63
   0   1 -16    2.21    0.80
   0   1 -16    1.97    0.85
  -1  -1 -16    2.61    0.86
  -1   1 -16   -0.62    0.88
   2   2 -16    2.49    0.91
   2   2 -16    1.48    0.90
   1   2 -16    2.38    0.83
   0  -2 -16    2.86    0.54
   0  -2 -16    2.83    0.55
   0   2 -16    3.85    0.91
   0   2 -16    3.25    0.90
  -1  -2 -16    3.01    0.79
  -1   2 -16    2.37    1.05
   1   3 -16   -0.46    0.86
   1   3 -16    1.40    0.96
   0  -3 -16    0.02    0.30
   0  -3 -16   -0.34    0.30
   0   3 -16   -0.07    0.88
   0   3 -16    1.11    0.93
  -1  -3 -16    1.38    0.72
  -1   3 -16    1.49    1.09
   1   4 -16    1.18    0.99
   1   4 -16    3.44    1.06
   0   4 -16    3.76    1.05
   0   4 -16    5.15    1.12
  -1  -4 -16    1.13    0.63
  -1   4 -16   -0.71    1.11
   0   5 -16    0.56    1.11
   0   5 -16    0.78    1.20
   1   0 -17    2.18    0.72
   1   0 -17    2.51    0.70
   0   0 -17   -0.58    0.76
   0   0 -17    1.49    0.78
   1  -1 -17    0.85    0.57
   1  -1 -17   -0.61    0.52
   1   1 -17   -0.19    0.77
   1   1 -17    0.80    0.80
   0  -1 -17    3.94    0.78
   0  -1 -17    4.65    0.75
   0   1 -17    4.41    0.98
   0   1 -17    5.12    1.12
   0  -2 -17    0.80    0.53
   0  -2 -17    0.54    0.53
   0   2 -17   -0.28    0.93
   0   2 -17    2.31    1.01
   0   0   0    0.00    0.00
;
_shelx_hkl_checksum              40583
loop_
_space_group_symop_operation_xyz
'x, y, z'
'-x+1/2, y+1/2, -z+1/2'
'-x, -y, -z'
'x-1/2, -y-1/2, z-1/2'
loop_
_atom_site_label
_atom_site_type_symbol
_atom_site_fract_x
_atom_site_fract_y
_atom_site_fract_z
_atom_site_U_iso_or_equiv
_atom_site_adp_type
_atom_site_occupancy
_atom_site_site_symmetry_order
_atom_site_calc_flag
_atom_site_refinement_flags_posn
_atom_site_refinement_flags_adp
_atom_site_refinement_flags_occupancy
C1 C 0.6653(5) -0.0354(2) 0.11070(15) 0.0214(5) Uani 1 1 d . . .
C2 C 0.6068(5) -0.02066(19) 0.20627(15) 0.0173(5) Uani 1 1 d . . .
C3 C 0.3953(4) 0.05425(19) 0.25387(14) 0.0171(5) Uani 1 1 d . . .
C4 C 0.1584(5) 0.1277(2) 0.36355(16) 0.0240(5) Uani 1 1 d . . .
N1 N 0.5385(4) 0.03103(18) 0.03551(12) 0.0257(5) Uani 1 1 d . . .
N2 N 0.8746(4) -0.11275(19) 0.10013(14) 0.0288(5) Uani 1 1 d . . .
N3 N 0.7821(4) -0.09231(17) 0.25381(13) 0.0234(5) Uani 1 1 d . . .
N4 N 0.2160(4) 0.12683(18) 0.20857(12) 0.0218(5) Uani 1 1 d . . .
N5 N 0.3719(4) 0.04872(17) 0.34709(12) 0.0217(5) Uani 1 1 d . . .
N6 N 0.0751(4) 0.32184(18) 0.05328(13) 0.0226(5) Uani 1 1 d D . .
H6A H 0.106(4) 0.2585(15) 0.0934(12) 0.027 Uiso 1 1 d D U .
H6B H 0.086(4) 0.3925(14) 0.0879(12) 0.027 Uiso 1 1 d D U .
H6C H 0.217(4) 0.3241(18) 0.0101(12) 0.027 Uiso 1 1 d D U .
H6D H -0.104(3) 0.3155(18) 0.0249(13) 0.027 Uiso 1 1 d D U .
O1 O 0.5466(8) 0.1387(3) 0.0471(2) 0.0328(8) Uani 0.5 1 d . . P
O2 O 0.9505(3) -0.14916(15) 0.18863(11) 0.0294(4) Uani 1 1 d . . .
O3 O 0.0524(3) 0.17728(14) 0.28137(10) 0.0241(4) Uani 1 1 d . . .
O4 O 0.0580(4) 0.16097(18) 0.43767(11) 0.0381(5) Uani 1 1 d . . .
loop_
_atom_site_aniso_label
_atom_site_aniso_U_11
_atom_site_aniso_U_22
_atom_site_aniso_U_33
_atom_site_aniso_U_23
_atom_site_aniso_U_13
_atom_site_aniso_U_12
C1 0.0228(12) 0.0168(12) 0.0247(12) -0.0057(10) 0.0049(9) -0.0047(10)
C2 0.0146(11) 0.0142(11) 0.0232(12) -0.0009(10) 0.0005(9) -0.0049(9)
C3 0.0157(11) 0.0165(12) 0.0190(12) -0.0011(9) 0.0006(9) -0.0055(9)
C4 0.0192(12) 0.0316(13) 0.0212(12) -0.0032(11) 0.0010(10) -0.0020(10)
N1 0.0349(12) 0.0227(11) 0.0199(10) -0.0043(8) 0.0044(9) -0.0009(9)
N2 0.0290(12) 0.0282(12) 0.0294(12) -0.0079(9) 0.0029(9) -0.0001(9)
N3 0.0194(10) 0.0205(11) 0.0303(11) -0.0052(9) 0.0018(8) -0.0019(8)
N4 0.0199(10) 0.0239(11) 0.0219(10) -0.0018(9) 0.0039(8) 0.0013(8)
N5 0.0197(10) 0.0276(11) 0.0178(10) 0.0005(9) 0.0022(8) -0.0002(8)
N6 0.0254(11) 0.0241(11) 0.0184(10) -0.0008(9) 0.0044(8) -0.0029(9)
O1 0.053(2) 0.0209(19) 0.0245(19) -0.0001(15) 0.0008(16) 0.0013(17)
O2 0.0244(9) 0.0271(9) 0.0366(10) -0.0069(8) 0.0000(7) 0.0057(7)
O3 0.0198(9) 0.0259(9) 0.0266(9) -0.0016(7) 0.0016(7) 0.0047(7)
O4 0.0242(10) 0.0650(14) 0.0254(10) -0.0116(9) 0.0061(7) 0.0062(9)
loop_
_atom_type_symbol
_atom_type_description
_atom_type_scat_dispersion_real
_atom_type_scat_dispersion_imag
_atom_type_scat_source
C C 0.0033 0.0016 'International Tables Vol C Tables 4.2.6.8 and 6.1.1.4'
H H 0.0000 0.0000 'International Tables Vol C Tables 4.2.6.8 and 6.1.1.4'
N N 0.0061 0.0033 'International Tables Vol C Tables 4.2.6.8 and 6.1.1.4'
O O 0.0106 0.0060 'International Tables Vol C Tables 4.2.6.8 and 6.1.1.4'
loop_
_geom_angle_atom_site_label_1
_geom_angle_atom_site_label_2
_geom_angle_atom_site_label_3
_geom_angle
_geom_angle_site_symmetry_1
_geom_angle_site_symmetry_3
N2 C1 C2 110.5(2) . .
N2 C1 N1 122.7(2) . .
C2 C1 N1 126.5(2) . .
N3 C2 C1 107.88(19) . .
N3 C2 C3 120.31(19) . .
C1 C2 C3 131.8(2) . .
N4 C3 N5 117.12(19) . .
N4 C3 C2 122.00(19) . .
N5 C3 C2 120.86(19) . .
O4 C4 N5 130.0(2) . .
O4 C4 O3 119.5(2) . .
N5 C4 O3 110.45(18) . .
O1 N1 N1 130.7(3) . 3_655
O1 N1 C1 113.4(2) . .
N1 N1 C1 115.6(2) 3_655 .
C1 N2 O2 104.68(18) . .
C2 N3 O2 105.51(18) . .
C3 N4 O3 102.19(16) . .
C4 N5 C3 103.04(18) . .
H6A N6 H6B 107.5(13) . .
H6A N6 H6C 110.4(14) . .
H6B N6 H6C 108.3(14) . .
H6A N6 H6D 110.3(14) . .
H6B N6 H6D 109.9(14) . .
H6C N6 H6D 110.4(14) . .
N2 O2 N3 111.39(16) . .
C4 O3 N4 107.19(16) . .
loop_
_geom_bond_atom_site_label_1
_geom_bond_atom_site_label_2
_geom_bond_distance
_geom_bond_site_symmetry_2
C1 N2 1.298(3) .
C1 C2 1.419(3) .
C1 N1 1.419(3) .
C2 N3 1.308(3) .
C2 C3 1.461(3) .
C3 N4 1.310(3) .
C3 N5 1.351(3) .
C4 O4 1.231(3) .
C4 N5 1.339(3) .
C4 O3 1.380(3) .
N1 O1 1.203(4) .
N1 N1 1.273(4) 3_655
N2 O2 1.371(3) .
N3 O2 1.383(2) .
N4 O3 1.421(2) .
N6 H6A 0.916(14) .
N6 H6B 0.927(14) .
N6 H6C 0.914(14) .
N6 H6D 0.910(14) .
