#------------------------------------------------------------------------------
#$Date: 2019-11-24 03:43:21 +0200 (Sun, 24 Nov 2019) $
#$Revision: 236547 $
#$URL: file:///home/coder/svn-repositories/cod/cif/7/23/68/7236823.cif $
#------------------------------------------------------------------------------
#
# This file is available in the Crystallography Open Database (COD),
# http://www.crystallography.net/
#
# All data on this site have been placed in the public domain by the
# contributors.
#
data_7236823
loop_
_publ_author_name
'M\'as-Montoya, Miriam'
'Cer\'on-Carrasco, Jos\'e Pedro'
'Hamao, Shino'
'Eguchi, Ritsuko'
'Kubozono, Yoshihiro'
'T\'arraga, Alberto'
'Curiel, David'
_publ_section_title
;
 Synthesis and characterization of carbazolo[2,1-a]carbazole in thin film
 and single crystal field-effect transistors
;
_journal_issue                   28
_journal_name_full               'Journal of Materials Chemistry C'
_journal_page_first              7020
_journal_paper_doi               10.1039/C7TC02139A
_journal_volume                  5
_journal_year                    2017
_chemical_formula_sum            'C22 H14 N2'
_chemical_formula_weight         306.35
_space_group_crystal_system      monoclinic
_space_group_IT_number           14
_space_group_name_Hall           '-P 2ybc'
_space_group_name_H-M_alt        'P 1 21/c 1'
_atom_sites_solution_hydrogens   mixed
_atom_sites_solution_primary     direct
_audit_creation_method           SHELXL-2013
_audit_update_record
;
2016-12-11 deposited with the CCDC.
2017-06-22 downloaded from the CCDC.
;
_cell_angle_alpha                90
_cell_angle_beta                 102.4397(19)
_cell_angle_gamma                90
_cell_formula_units_Z            2
_cell_length_a                   14.8734(9)
_cell_length_b                   5.0259(3)
_cell_length_c                   9.8407(6)
_cell_measurement_reflns_used    9933
_cell_measurement_temperature    100(2)
_cell_measurement_theta_max      28.73
_cell_measurement_theta_min      2.80
_cell_volume                     718.34(8)
_computing_cell_refinement       'SAINT V8.34A (Bruker AXS Inc., 2011)'
_computing_data_collection       'APEX2 2014.1-1 (Bruker AXS Inc.)'
_computing_data_reduction        'SAINT V8.34A (Bruker AXS Inc., 2011)'
_computing_molecular_graphics    'Bruker SHELXTL'
_computing_publication_material  'Bruker SHELXTL'
_computing_structure_refinement  'SHELXL-2013 (Sheldrick, 2013)'
_computing_structure_solution    'SHELXS-97 (Sheldrick, 2008)'
_diffrn_ambient_temperature      100(2)
_diffrn_detector_area_resol_mean 10.4167
_diffrn_measured_fraction_theta_full 0.998
_diffrn_measured_fraction_theta_max 0.998
_diffrn_measurement_device_type  'Bruker D8 QUEST'
_diffrn_measurement_method       'w-scans and phi-scans'
_diffrn_radiation_type           MoK\a
_diffrn_radiation_wavelength     0.71073
_diffrn_reflns_av_R_equivalents  0.0270
_diffrn_reflns_av_unetI/netI     0.0139
_diffrn_reflns_Laue_measured_fraction_full 0.998
_diffrn_reflns_Laue_measured_fraction_max 0.998
_diffrn_reflns_limit_h_max       20
_diffrn_reflns_limit_h_min       -20
_diffrn_reflns_limit_k_max       6
_diffrn_reflns_limit_k_min       -6
_diffrn_reflns_limit_l_max       13
_diffrn_reflns_limit_l_min       -13
_diffrn_reflns_number            19237
_diffrn_reflns_point_group_measured_fraction_full 0.998
_diffrn_reflns_point_group_measured_fraction_max 0.998
_diffrn_reflns_theta_full        27.000
_diffrn_reflns_theta_max         28.736
_diffrn_reflns_theta_min         2.805
_diffrn_source                   'high brilliance microfocus sealed tube '
_exptl_absorpt_coefficient_mu    0.084
_exptl_absorpt_correction_T_max  0.8621
_exptl_absorpt_correction_T_min  0.8278
_exptl_absorpt_correction_type   multi-scan
_exptl_absorpt_process_details   SADABS
_exptl_crystal_colour            colourless
_exptl_crystal_density_diffrn    1.416
_exptl_crystal_description       prism
_exptl_crystal_F_000             320
_exptl_crystal_size_max          0.214
_exptl_crystal_size_mid          0.090
_exptl_crystal_size_min          0.030
_refine_diff_density_max         0.324
_refine_diff_density_min         -0.311
_refine_diff_density_rms         0.056
_refine_ls_extinction_method     none
_refine_ls_goodness_of_fit_ref   1.018
_refine_ls_hydrogen_treatment    mixed
_refine_ls_matrix_type           full
_refine_ls_number_parameters     113
_refine_ls_number_reflns         1860
_refine_ls_number_restraints     1
_refine_ls_restrained_S_all      1.018
_refine_ls_R_factor_all          0.0474
_refine_ls_R_factor_gt           0.0411
_refine_ls_shift/su_max          0.000
_refine_ls_shift/su_mean         0.000
_refine_ls_structure_factor_coef Fsqd
_refine_ls_weighting_details
'w=1/[\s^2^(Fo^2^)+(0.0670P)^2^+0.2734P] where P=(Fo^2^+2Fc^2^)/3'
_refine_ls_weighting_scheme      calc
_refine_ls_wR_factor_gt          0.1071
_refine_ls_wR_factor_ref         0.1120
_reflns_Friedel_coverage         0.000
_reflns_number_gt                1628
_reflns_number_total             1860
_reflns_threshold_expression     'I > 2\s(I)'
_cod_data_source_file            c7tc02139a2.cif
_cod_data_source_block           mmm197_NH_0msi
_cod_original_sg_symbol_H-M      'P 21/c'
_cod_database_code               7236823
_shelx_space_group_comment
;
The symmetry employed for this shelxl refinement is uniquely defined
by the following loop, which should always be used as a source of
symmetry information in preference to the above space-group names.
They are only intended as comments.
;
_shelx_estimated_absorpt_t_min   0.982
_shelx_estimated_absorpt_t_max   0.997
_shelxl_version_number           2013-4
_shelx_res_file
;
TITL mmm197_0msi in P2(1)/c
CELL 0.71073  14.8734    5.0259    9.8407   90.000  102.4397  90.000
ZERR    2.00   0.0009    0.0003    0.0006    0.000   0.0019   0.000
LATT 1
SYMM -X, 0.5+Y, 0.5-Z
SFAC C  H  N
UNIT 44  28  4
omit 3   0   0
omit   -6   3   6
L.S. 8
ACTA 56
BOND
FMAP 2
PLAN 10
acta 54
SIZE 0.030 0.090 0.214
htab
conf
DFIX 0.85 0.02 N1 H01
TEMP -173.150
WGHT    0.067000    0.273400
FVAR       0.32919
MOLE 1
N1    3    0.152960    0.260323    0.726560    11.00000    0.01688    0.01559 =
         0.01547   -0.00175    0.00403    0.00009
H01   2    0.128500    0.396246    0.761017    11.00000    0.02675
C1    1    0.245340    0.188634    0.761165    11.00000    0.01719    0.01705 =
         0.01395    0.00286    0.00504   -0.00086
C2    1    0.316498    0.296941    0.861771    11.00000    0.02080    0.02136 =
         0.01569   -0.00034    0.00459   -0.00244
AFIX  43
H2    2    0.306178    0.442977    0.917781    11.00000   -1.20000
AFIX   0
C3    1    0.402923    0.182677    0.876668    11.00000    0.01944    0.02663 =
         0.01732    0.00214    0.00205   -0.00214
AFIX  43
H3    2    0.452692    0.251773    0.944625    11.00000   -1.20000
AFIX   0
C4    1    0.418790   -0.032575    0.793888    11.00000    0.01779    0.02567 =
         0.02044    0.00410    0.00371    0.00210
AFIX  43
H4    2    0.478902   -0.105868    0.806608    11.00000   -1.20000
AFIX   0
C5    1    0.347897   -0.139585    0.693829    11.00000    0.02002    0.01957 =
         0.01753    0.00239    0.00533    0.00225
AFIX  43
H5    2    0.358855   -0.285033    0.637899    11.00000   -1.20000
AFIX   0
C6    1    0.259580   -0.028371    0.676950    11.00000    0.01714    0.01683 =
         0.01393    0.00313    0.00461   -0.00079
C7    1    0.171454   -0.084617    0.586302    11.00000    0.01678    0.01508 =
         0.01399    0.00219    0.00512    0.00028
C8    1    0.142306   -0.274811    0.480202    11.00000    0.01935    0.01527 =
         0.01676   -0.00059    0.00682    0.00245
AFIX  43
H8    2    0.184930   -0.398079    0.456685    11.00000   -1.20000
AFIX   0
C9    1    0.051516   -0.279136    0.411498    11.00000    0.01979    0.01432 =
         0.01433   -0.00240    0.00601    0.00016
AFIX  43
H9    2    0.031786   -0.405076    0.339238    11.00000   -1.20000
AFIX   0
C10   1    0.013684    0.097682    0.553198    11.00000    0.01845    0.01224 =
         0.01245    0.00067    0.00617   -0.00025
C11   1    0.108264    0.097488    0.620366    11.00000    0.01923    0.01314 =
         0.01230    0.00145    0.00621   -0.00025
HKLF 4

REM  mmm197_0msi in P2(1)/c
REM R1 =  0.0411 for    1628 Fo > 4sig(Fo)  and  0.0474 for all    1860 data
REM    113 parameters refined using      1 restraints

END

WGHT      0.0670      0.2732

REM No hydrogen bonds found for HTAB generation

REM Highest difference peak  0.324,  deepest hole -0.311,  1-sigma level  0.056
Q1    1   0.2166 -0.0695  0.6283  11.00000  0.05    0.32
Q2    1   0.0000  0.0000  0.5000  10.50000  0.05    0.32
Q3    1   0.2524  0.0848  0.7240  11.00000  0.05    0.26
Q4    1   0.2836  0.2511  0.8059  11.00000  0.05    0.25
Q5    1   0.1376 -0.0035  0.5992  11.00000  0.05    0.25
Q6    1   0.3832 -0.0689  0.7454  11.00000  0.05    0.25
Q7    1   0.0952 -0.2857  0.4587  11.00000  0.05    0.22
Q8    1   0.3593  0.2146  0.8818  11.00000  0.05    0.20
Q9    1   0.1576 -0.1839  0.5375  11.00000  0.05    0.19
Q10   1   0.3005 -0.0734  0.6780  11.00000  0.05    0.19
;
_shelx_res_checksum              72120
_shelx_hkl_file
;
   0   0   1   -0.18    0.03
   0   0   1   -0.19    0.01
   0   0   1   -0.19    0.01
   0   0  -1   -0.18    0.02
   0   0  -2  135.29    2.79
   0   0  -2  125.30    2.65
   0   0  -2  124.69    2.68
   0   0   2  128.17    2.70
   0   0   2  119.81    2.65
   0   0   2  128.72    2.69
   0   0   2  127.32    2.72
   0   0  -3   -0.06    0.04
   0   0  -3   -0.01    0.03
   0   0   3   -0.02    0.04
   0   0  -3   -0.02    0.04
   0   0   3   -0.01    0.04
   0   0   3   -0.07    0.05
   0   0   3   -0.03    0.04
   0   0  -3    0.02    0.04
   0   0   4    9.68    0.32
   0   0   4   10.24    0.32
   0   0   4   10.05    0.30
   0   0  -4   10.49    0.31
   0   0  -4   10.30    0.34
   0   0   4   10.18    0.33
   0   0  -4    9.81    0.32
   0   0  -4   10.03    0.32
   0   0  -5    0.03    0.06
   0   0   5    0.08    0.06
   0   0   5    0.06    0.06
   0   0  -5    0.10    0.07
   0   0  -5    0.07    0.06
   0   0   5    0.11    0.06
   0   0  -5    0.18    0.07
   0   0   5    0.01    0.06
   0   0  -6   24.99    0.72
   0   0  -6   23.80    0.67
   0   0   6   24.65    0.68
   0   0   6   24.87    0.66
   0   0   6   23.29    0.68
   0   0  -6   25.28    0.69
   0   0  -6   24.90    0.66
   0   0  -7    0.36    0.12
   0   0  -7    0.46    0.12
   0   0   7    0.47    0.11
   0   0  -7    0.46    0.11
   0   0  -7    0.03    0.09
   0   0   7    0.16    0.10
   0   0   7    0.18    0.11
   0   0   7    0.11    0.09
   0   0  -8    1.75    0.22
   0   0  -8    1.28    0.18
   0   0   8    1.50    0.20
   0   0  -8    1.65    0.22
   0   0   8    1.64    0.22
   0   0  -8    1.84    0.24
   0   0   8    1.95    0.23
   0   0   8    1.63    0.21
   0   0  -9    0.12    0.16
   0   0   9    0.05    0.16
   0   0  -9   -0.26    0.15
   0   0   9   -0.01    0.15
   0   0  -9    0.13    0.14
   0   0   9    0.02    0.13
   0   0  -9   -0.03    0.15
   0   0  10    2.82    0.35
   0   0  10    3.96    0.38
   0   0 -10    3.61    0.35
   0   0 -10    3.02    0.36
   0   0 -10    2.76    0.40
   0   0 -10    2.87    0.41
   0   0  10    3.76    0.39
   0   0 -11    0.17    0.25
   0   0  11    0.40    0.26
   0   0 -11    0.32    0.24
   0   0  11   -0.01    0.21
   0   0 -11    0.03    0.24
   0   0 -12    1.73    0.38
   0   0  12    2.60    0.39
   0   0 -12    2.23    0.38
   0   0 -12    2.52    0.39
   0   0 -13    0.28    0.45
   0   0  13    0.17    0.37
   0   1   0   -0.18    0.02
   0   1   0   -0.18    0.03
   0   1   0   -0.16    0.03
   0   1   0   -0.20    0.03
   0   1   0   -0.18    0.02
   0  -1   0   -0.17    0.02
   0  -1   0   -0.13    0.04
   0  -1   0   -0.16    0.02
   0  -1   0   -0.15    0.03
   0  -1   0   -0.17    0.02
   0   1   1  140.02    2.91
   0   1   1  141.98    3.02
   0   1   1  141.16    2.99
   0   1  -1  139.53    3.00
   0   1  -1  119.75    2.90
   0   1   1  146.07    2.96
   0  -1   1  137.43    2.90
   0  -1  -1  139.53    2.92
   0  -1  -1  142.25    2.92
   0  -1   1  143.23    2.99
   0  -1  -1  144.21    2.94
   0  -1  -1  135.50    2.93
   0  -1   1  140.31    2.92
   0  -1   1  145.69    3.05
   0   1  -2   14.45    0.37
   0   1   2   14.65    0.36
   0   1   2   14.53    0.39
   0   1  -2   14.94    0.39
   0   1   2   14.43    0.40
   0   1  -2   14.46    0.39
   0  -1  -2   14.23    0.37
   0  -1  -2   15.33    0.40
   0  -1   2   14.62    0.39
   0  -1  -2   14.94    0.36
   0  -1   2   14.39    0.37
   0   1   3   13.41    0.40
   0   1  -3   14.35    0.41
   0   1  -3   13.54    0.39
   0   1  -3   14.08    0.39
   0   1  -3   14.23    0.32
   0   1   3   13.64    0.40
   0   1   3   14.22    0.38
   0  -1  -3   13.57    0.37
   0  -1  -3   14.39    0.40
   0  -1  -3   13.88    0.38
   0  -1  -3   13.52    0.39
   0  -1   3   13.83    0.39
   0   1  -4   54.93    1.16
   0   1  -4   53.30    1.24
   0   1   4   53.96    1.25
   0   1   4   54.45    1.23
   0   1   4   53.90    1.25
   0   1  -4   55.33    1.27
   0   1   4   54.03    1.23
   0   1  -4   51.70    1.23
   0  -1   4   53.99    1.24
   0  -1  -4   54.18    1.24
   0  -1  -4   53.32    1.23
   0  -1   4   53.96    1.16
   0  -1  -4   52.30    1.23
   0  -1  -4   54.55    1.26
   0   1   5   18.70    0.54
   0   1  -5   18.93    0.47
   0   1  -5   18.88    0.57
   0   1   5   18.48    0.54
   0   1   5   18.41    0.53
   0   1  -5   18.79    0.54
   0   1   5   18.49    0.55
   0   1  -5   18.54    0.54
   0  -1  -5   18.22    0.55
   0  -1   5   18.23    0.54
   0  -1   5   18.56    0.46
   0  -1  -5   18.72    0.54
   0  -1  -5   18.45    0.53
   0  -1  -5   18.50    0.53
   0  -1   5   18.54    0.54
   0  -1   5   18.91    0.56
   0   1  -6   42.91    0.99
   0   1   6   43.83    1.08
   0   1  -6   43.59    1.08
   0   1  -6   42.89    1.08
   0   1   6   43.52    1.07
   0   1   6   44.19    1.09
   0   1  -6   41.57    1.11
   0  -1   6   43.02    1.08
   0  -1  -6   41.79    1.06
   0  -1  -6   42.35    1.08
   0  -1   6   41.13    1.07
   0  -1  -6   41.98    1.08
   0  -1  -6   43.50    1.07
   0  -1   6   42.57    1.10
   0   1   7    0.17    0.12
   0   1  -7    0.30    0.11
   0   1  -7    0.29    0.13
   0   1   7    0.21    0.11
   0   1   7    0.11    0.10
   0   1  -7    0.13    0.12
   0   1  -7    0.07    0.08
   0   1   7    0.15    0.13
   0  -1  -7   -0.06    0.09
   0  -1  -7    0.20    0.10
   0  -1  -7    0.05    0.11
   0  -1   7    0.19    0.11
   0  -1  -7    0.15    0.11
   0  -1   7    0.21    0.11
   0  -1   7    0.33    0.12
   0   1  -8    2.02    0.27
   0   1   8    2.17    0.27
   0   1  -8    2.02    0.20
   0   1  -8    2.03    0.26
   0   1   8    2.31    0.25
   0   1  -8    1.83    0.25
   0   1   8    2.26    0.26
   0   1   8    2.04    0.26
   0  -1  -8    1.84    0.25
   0  -1   8    1.63    0.23
   0  -1  -8    2.36    0.25
   0  -1  -8    1.97    0.26
   0  -1   8    2.72    0.27
   0  -1   8    1.49    0.23
   0  -1  -8    2.18    0.24
   0   1  -9   10.42    0.51
   0   1  -9   10.27    0.41
   0   1  -9   10.28    0.53
   0   1  -9   11.10    0.50
   0   1   9   10.60    0.51
   0   1   9   10.62    0.49
   0   1   9   10.51    0.49
   0   1   9    9.94    0.52
   0  -1   9   10.03    0.48
   0  -1   9   11.05    0.51
   0  -1  -9   11.40    0.53
   0  -1  -9   10.65    0.49
   0  -1   9   10.60    0.50
   0  -1  -9   10.47    0.50
   0  -1  -9   10.42    0.49
   0   1 -10    0.98    0.18
   0   1 -10    0.66    0.28
   0   1 -10    1.05    0.23
   0   1  10    1.25    0.25
   0   1  10    0.58    0.26
   0   1 -10    0.91    0.24
   0   1  10    0.96    0.23
   0  -1  10    1.16    0.24
   0  -1 -10    1.03    0.25
   0  -1  10    1.47    0.31
   0  -1 -10    1.36    0.26
   0  -1 -10    0.97    0.26
   0  -1 -10    1.28    0.27
   0   1  11    3.80    0.48
   0   1 -11    3.27    0.46
   0   1  11    2.85    0.35
   0   1 -11    2.54    0.36
   0  -1 -11    3.31    0.43
   0  -1  11    2.71    0.35
   0  -1 -11    2.73    0.36
   0  -1  11    3.02    0.39
   0  -1 -11    2.96    0.36
   0   1  12    0.37    0.34
   0   1 -12    0.78    0.37
   0   1 -12    0.98    0.31
   0   1 -12    0.37    0.28
   0  -1 -12    0.91    0.37
   0  -1 -12    0.88    0.35
   0  -1 -12    0.33    0.31
   0  -1  12    0.69    0.33
   0   2   0  128.57    2.48
   0   2   0  117.83    2.51
   0   2   0  118.52    2.49
   0  -2   0  114.07    2.49
   0  -2   0  115.74    2.58
   0  -2   0  115.32    2.48
   0  -2   0  119.12    2.51
   0  -2   0  120.47    2.49
   0   2  -1   23.09    0.56
   0   2   1   22.59    0.62
   0   2   1   22.81    0.55
   0   2  -1   23.38    0.55
   0   2   1   22.67    0.58
   0   2  -1   23.12    0.55
   0   2  -1   22.98    0.53
   0  -2  -1   23.33    0.59
   0  -2   1   23.30    0.62
   0  -2  -1   22.89    0.62
   0  -2  -1   22.76    0.52
   0  -2   1   23.27    0.56
   0  -2  -1   23.67    0.52
   0  -2   1   23.11    0.56
   0  -2  -1   23.23    0.54
   0  -2   1   22.93    0.53
   0   2   2    0.10    0.06
   0   2  -2    0.07    0.05
   0   2  -2    0.05    0.06
   0   2   2    0.08    0.04
   0   2   2    0.10    0.05
   0   2   2    0.01    0.06
   0  -2   2    0.11    0.04
   0  -2  -2    0.12    0.06
   0  -2   2   -0.02    0.05
   0  -2  -2    0.05    0.04
   0  -2   2    0.11    0.07
   0  -2  -2    0.05    0.06
   0  -2  -2    0.08    0.05
   0   2   3    7.54    0.29
   0   2   3    7.38    0.24
   0   2   3    7.30    0.31
   0   2  -3    7.86    0.30
   0   2  -3    7.30    0.26
   0   2   3    7.53    0.25
   0  -2   3    7.47    0.26
   0  -2  -3    7.40    0.29
   0  -2   3    7.32    0.28
   0  -2  -3    7.37    0.29
   0  -2  -3    7.52    0.24
   0  -2  -3    7.41    0.25
   0   2   4    9.17    0.35
   0   2   4    9.09    0.37
   0   2  -4    9.07    0.32
   0   2   4    8.79    0.31
   0   2  -4    9.51    0.36
   0   2  -4    9.08    0.34
   0   2   4    9.13    0.30
   0  -2  -4    9.45    0.35
   0  -2   4    9.16    0.32
   0  -2  -4    9.62    0.36
   0  -2   4    9.54    0.36
   0  -2  -4    9.59    0.31
   0  -2  -4    9.44    0.31
   0  -2   4    9.49    0.35
   0   2  -5    1.41    0.19
   0   2   5    1.40    0.18
   0   2  -5    1.30    0.15
   0   2   5    1.25    0.17
   0   2  -5    1.32    0.16
   0   2   5    1.53    0.15
   0  -2   5    1.31    0.15
   0  -2  -5    1.23    0.17
   0  -2   5    1.31    0.16
   0  -2  -5    1.18    0.15
   0  -2   5    1.19    0.16
   0  -2  -5    1.25    0.15
   0  -2  -5    1.47    0.15
   0   2   6   10.82    0.41
   0   2   6   11.19    0.40
   0   2  -6   11.51    0.43
   0   2  -6   11.09    0.46
   0   2   6   12.15    0.46
   0   2  -6   11.19    0.42
   0   2   6   11.17    0.43
   0  -2   6   10.56    0.43
   0  -2   6   11.46    0.44
   0  -2   6   10.52    0.41
   0  -2  -6   11.28    0.41
   0  -2  -6   11.07    0.42
   0  -2  -6   11.44    0.41
   0   2   7   15.28    0.52
   0   2   7   14.72    0.57
   0   2   7   15.20    0.53
   0   2  -7   14.56    0.55
   0   2  -7   15.25    0.54
   0   2  -7   15.49    0.59
   0   2   7   14.53    0.54
   0  -2   7   15.11    0.55
   0  -2  -7   14.87    0.54
   0  -2   7   15.45    0.55
   0  -2  -7   15.00    0.53
   0  -2   7   15.27    0.57
   0  -2  -7   15.06    0.56
   0  -2  -7   15.03    0.53
   0   2  -8   46.16    1.02
   0   2   8   46.66    1.22
   0   2   8   44.70    1.25
   0   2  -8   47.90    1.31
   0   2  -8   47.47    1.24
   0   2   8   46.09    1.27
   0   2  -8   45.03    1.02
   0   2  -8   46.05    1.25
   0   2   8   46.49    1.22
   0  -2   8   48.11    1.26
   0  -2   8   47.95    1.26
   0  -2  -8   46.33    1.26
   0  -2  -8   45.81    1.23
   0  -2   8   45.24    1.27
   0  -2  -8   45.72    1.23
   0  -2  -8   41.76    1.20
   0   2   9   29.68    0.96
   0   2   9   29.66    0.93
   0   2  -9   29.64    0.94
   0   2  -9   29.10    0.91
   0   2  -9   29.20    0.98
   0   2  -9   28.66    0.70
   0   2   9   29.15    0.91
   0   2  -9   29.03    0.69
   0   2   9   27.85    0.93
   0  -2  -9   27.48    0.90
   0  -2  -9   29.37    0.91
   0  -2  -9   29.00    0.93
   0  -2  -9   29.14    0.93
   0  -2   9   27.01    0.92
   0  -2   9   29.31    0.94
   0  -2   9   28.97    0.92
   0   2 -10    2.72    0.35
   0   2  10    2.77    0.33
   0   2  10    2.63    0.36
   0   2  10    3.07    0.38
   0   2 -10    2.65    0.25
   0   2 -10    2.36    0.23
   0   2 -10    2.69    0.38
   0  -2 -10    3.00    0.44
   0  -2  10    2.12    0.30
   0  -2  10    2.89    0.35
   0  -2 -10    2.51    0.33
   0  -2 -10    3.41    0.42
   0   2 -11    0.11    0.17
   0   2  11   -0.06    0.26
   0   2 -11   -0.21    0.26
   0   2 -11    0.46    0.34
   0  -2 -11    0.44    0.30
   0  -2 -11   -0.06    0.31
   0  -2 -11    0.00    0.26
   0  -2  11    0.23    0.34
   0  -2  11    0.25    0.25
   0   2 -12    0.56    0.39
   0   2 -12    0.29    0.38
   0   2  12    0.09    0.35
   0  -2 -12   -0.07    0.38
   0  -2  12    0.55    0.33
   0  -2 -12    0.01    0.38
   0   3   0    0.02    0.04
   0   3   0   -0.15    0.06
   0   3   0    0.06    0.05
   0  -3   0   -0.04    0.07
   0  -3   0   -0.02    0.05
   0  -3   0    0.03    0.04
   0  -3   0    0.02    0.06
   0   3  -1    4.40    0.19
   0   3   1    4.41    0.18
   0   3   1    4.18    0.22
   0   3  -1    4.34    0.18
   0   3   1    4.17    0.25
   0   3  -1    4.20    0.19
   0   3   1    4.63    0.19
   0  -3  -1    3.79    0.23
   0  -3  -1    4.14    0.22
   0  -3  -1    4.42    0.18
   0  -3   1    3.40    0.23
   0  -3  -1    4.38    0.16
   0  -3   1    4.12    0.19
   0  -3   1    4.44    0.19
   0  -3  -1    4.35    0.15
   0   3  -2    0.13    0.07
   0   3  -2    0.16    0.05
   0   3   2    0.11    0.07
   0   3  -2    0.07    0.07
   0   3   2    0.22    0.07
   0   3   2    0.26    0.09
   0   3   2    0.14    0.09
   0  -3  -2    0.23    0.05
   0  -3   2    0.28    0.06
   0  -3   2    0.21    0.08
   0  -3   2    0.14    0.06
   0  -3  -2    0.20    0.07
   0  -3  -2    0.20    0.08
   0  -3   2    0.22    0.09
   0  -3  -2    0.09    0.08
   0  -3   2    0.23    0.08
   0  -3  -2    0.26    0.06
   0   3  -3    2.06    0.19
   0   3   3    2.19    0.15
   0   3  -3    1.86    0.14
   0   3   3    2.42    0.22
   0   3   3    2.12    0.16
   0   3   3    1.92    0.19
   0  -3  -3    2.09    0.13
   0  -3  -3    1.72    0.18
   0  -3   3    2.08    0.19
   0  -3   3    2.14    0.20
   0  -3   3    2.10    0.14
   0  -3  -3    1.92    0.15
   0   3   4    0.02    0.10
   0   3   4    0.13    0.08
   0   3  -4    0.04    0.07
   0   3   4    0.09    0.10
   0   3  -4    0.07    0.09
   0   3   4   -0.06    0.06
   0  -3   4    0.05    0.08
   0  -3  -4    0.12    0.07
   0  -3  -4    0.02    0.08
   0  -3  -4    0.19    0.10
   0  -3   4    0.10    0.10
   0  -3   4    0.10    0.11
   0  -3  -4    0.00    0.11
   0   3   5    2.33    0.20
   0   3  -5    2.07    0.25
   0   3  -5    2.17    0.20
   0   3   5    1.69    0.23
   0   3   5    1.91    0.24
   0   3   5    1.95    0.18
   0  -3   5    1.74    0.23
   0  -3  -5    2.24    0.18
   0  -3  -5    1.87    0.23
   0  -3  -5    1.97    0.19
   0  -3   5    2.17    0.20
   0  -3   5    2.13    0.24
   0  -3  -5    1.97    0.24
   0   3  -6   12.82    0.54
   0   3   6   12.86    0.44
   0   3  -6   13.15    0.48
   0   3   6   12.30    0.46
   0   3   6   12.98    0.56
   0  -3  -6   12.56    0.44
   0  -3  -6   12.52    0.46
   0  -3   6   12.35    0.51
   0  -3   6   12.32    0.47
   0  -3   6   13.61    0.52
   0  -3  -6   12.64    0.52
   0  -3  -6   12.20    0.51
   0   3  -7    0.62    0.23
   0   3   7    0.62    0.20
   0   3   7    0.61    0.17
   0   3   7    0.52    0.16
   0   3   7    0.31    0.16
   0   3  -7    0.64    0.18
   0   3  -7    0.42    0.13
   0  -3  -7    0.60    0.16
   0  -3   7    0.53    0.18
   0  -3   7    0.50    0.15
   0  -3   7    0.63    0.19
   0  -3  -7    0.23    0.14
   0  -3  -7    0.74    0.20
   0  -3  -7    0.45    0.16
   0   3  -8    8.96    0.46
   0   3   8    8.31    0.45
   0   3  -8    7.99    0.52
   0   3   8    9.37    0.53
   0   3  -8    8.33    0.54
   0   3   8    8.81    0.46
   0  -3   8    7.99    0.50
   0  -3  -8    8.71    0.45
   0  -3  -8    9.25    0.51
   0  -3   8    9.07    0.51
   0  -3  -8    9.74    0.46
   0  -3  -8    9.07    0.48
   0  -3   8    8.89    0.48
   0   3   9    1.49    0.29
   0   3  -9    1.50    0.25
   0   3  -9    1.10    0.33
   0   3   9    1.72    0.29
   0  -3  -9    1.46    0.27
   0  -3   9    1.01    0.26
   0  -3  -9    1.82    0.29
   0  -3  -9    0.73    0.22
   0  -3   9    1.55    0.31
   0   3  10    8.54    0.63
   0   3 -10    7.50    0.57
   0   3 -10    7.41    0.67
   0   3  10    7.54    0.65
   0  -3 -10    7.48    0.61
   0  -3  10    6.65    0.57
   0  -3 -10    7.96    0.56
   0  -3 -10    7.11    0.54
   0   3 -11    0.90    0.42
   0   3 -11    0.87    0.31
   0   3  11    1.17    0.40
   0  -3  11    0.85    0.34
   0  -3 -11    0.86    0.37
   0  -3 -11    0.96    0.37
   0   4   0    7.65    0.28
   0   4   0    7.13    0.28
   0  -4   0    7.34    0.26
   0  -4   0    7.33    0.32
   0   4  -1    5.70    0.24
   0   4   1    5.85    0.25
   0   4   1    5.91    0.24
   0   4  -1    6.01    0.26
   0  -4   1    5.09    0.25
   0  -4  -1    5.87    0.25
   0  -4   1    5.58    0.24
   0  -4  -1    5.79    0.31
   0  -4   1    5.81    0.25
   0  -4  -1    5.59    0.34
   0  -4   1    5.46    0.33
   0   4  -2    5.28    0.27
   0   4  -2    4.93    0.26
   0   4   2    5.26    0.24
   0   4  -2    5.32    0.24
   0   4   2    5.25    0.24
   0   4   2    5.10    0.33
   0   4   2    5.22    0.32
   0  -4   2    5.29    0.32
   0  -4  -2    5.30    0.33
   0  -4   2    5.52    0.34
   0  -4  -2    5.17    0.25
   0  -4   2    5.28    0.25
   0  -4   2    5.69    0.27
   0  -4   2    5.10    0.22
   0  -4  -2    5.45    0.32
   0   4   3   14.71    0.59
   0   4  -3   13.90    0.45
   0   4   3   15.00    0.54
   0   4   3   14.21    0.45
   0   4  -3   14.27    0.47
   0   4   3   14.26    0.45
   0   4  -3   14.01    0.49
   0  -4   3   14.40    0.55
   0  -4  -3   14.88    0.45
   0  -4   3   14.17    0.46
   0  -4   3   14.57    0.50
   0  -4  -3   14.11    0.57
   0  -4   3   14.83    0.59
   0  -4  -3   14.61    0.55
   0   4  -4    9.56    0.40
   0   4   4    9.79    0.37
   0   4   4    9.80    0.48
   0   4  -4    9.77    0.44
   0   4   4    9.88    0.37
   0   4   4    9.84    0.46
   0   4  -4    9.76    0.38
   0  -4  -4    9.53    0.31
   0  -4  -4    9.27    0.47
   0  -4   4    9.41    0.42
   0  -4  -4    9.39    0.37
   0  -4   4    9.24    0.37
   0  -4   4   10.34    0.47
   0  -4  -4    9.43    0.46
   0   4  -5    0.06    0.14
   0   4   5    0.03    0.12
   0   4   5   -0.26    0.16
   0   4   5    0.20    0.18
   0   4  -5    0.27    0.17
   0   4  -5    0.23    0.12
   0   4   5    0.16    0.10
   0  -4   5    0.22    0.16
   0  -4  -5    0.18    0.11
   0  -4  -5    0.03    0.13
   0  -4   5    0.09    0.13
   0  -4   5   -0.10    0.15
   0  -4  -5    0.26    0.16
   0  -4  -5   -0.06    0.20
   0   4  -6    0.73    0.21
   0   4   6    0.91    0.26
   0   4  -6    0.82    0.19
   0   4   6    1.00    0.17
   0   4   6    0.56    0.21
   0   4   6    0.99    0.18
   0  -4  -6    1.06    0.22
   0  -4  -6    0.69    0.19
   0  -4   6    0.69    0.21
   0  -4  -6    0.79    0.16
   0  -4   6    0.56    0.17
   0  -4   6    1.05    0.23
   0  -4  -6    0.94    0.22
   0   4   7    3.05    0.42
   0   4   7    2.91    0.32
   0   4   7    2.38    0.31
   0   4  -7    3.72    0.32
   0   4  -7    3.94    0.44
   0  -4  -7    3.55    0.40
   0  -4   7    3.04    0.37
   0  -4  -7    3.48    0.35
   0  -4   7    2.63    0.35
   0  -4  -7    2.92    0.31
   0   4  -8    1.95    0.36
   0   4   8    0.96    0.23
   0   4  -8    1.55    0.28
   0   4   8    1.28    0.29
   0   4   8    1.83    0.27
   0  -4   8    1.15    0.27
   0  -4  -8    1.63    0.25
   0  -4  -8    1.24    0.29
   0  -4  -8    1.20    0.26
   0   4  -9    1.80    0.33
   0   4   9    1.79    0.38
   0   4  -9    2.61    0.41
   0  -4  -9    2.32    0.32
   0  -4  -9    1.85    0.35
   0  -4   9    2.39    0.39
   0   4 -10    0.81    0.41
   0   4  10   -0.07    0.37
   0   4 -10    0.42    0.33
   0  -4 -10    0.52    0.37
   0  -4  10    0.46    0.38
   0  -4 -10    0.78    0.35
   0   5   0   -0.06    0.11
   0   5   0    0.01    0.10
   0  -5   0    0.03    0.14
   0  -5   0    0.05    0.20
   0   5  -1   41.03    1.00
   0   5   1   40.46    1.00
   0   5  -1   40.50    1.00
   0   5   1   41.14    0.99
   0  -5   1   40.63    1.24
   0  -5   1   39.20    0.99
   0  -5  -1   42.12    1.11
   0  -5   1   40.52    1.02
   0  -5   1   40.35    1.01
   0  -5  -1   41.88    1.23
   0  -5   1   41.96    1.19
   0   5  -2    4.34    0.29
   0   5   2    4.15    0.24
   0   5   2    3.85    0.26
   0   5  -2    3.28    0.23
   0  -5   2    4.54    0.26
   0  -5   2    4.25    0.26
   0  -5   2    3.76    0.25
   0  -5   2    4.03    0.30
   0  -5   2    3.81    0.40
   0  -5  -2    4.24    0.38
   0  -5   2    4.11    0.39
   0  -5  -2    3.52    0.41
   0   5  -3    0.25    0.12
   0   5  -3    0.45    0.17
   0   5  -3    0.32    0.16
   0   5   3    0.21    0.19
   0   5   3    0.31    0.14
   0   5   3    0.29    0.12
   0  -5   3    0.49    0.21
   0  -5   3    0.16    0.25
   0  -5  -3    0.54    0.17
   0  -5  -3   -0.27    0.21
   0  -5   3    0.10    0.21
   0  -5  -3    0.32    0.20
   0  -5   3    0.11    0.17
   0   5  -4    1.60    0.23
   0   5   4    1.99    0.26
   0   5   4    1.85    0.22
   0   5   4    1.80    0.30
   0   5  -4    2.05    0.25
   0   5  -4    1.82    0.28
   0  -5   4    2.68    0.37
   0  -5  -4    1.93    0.30
   0  -5   4    1.39    0.24
   0  -5  -4    1.67    0.23
   0   5  -5    3.57    0.42
   0   5   5    3.95    0.48
   0   5   5    4.12    0.30
   0   5   5    4.27    0.34
   0   5  -5    3.84    0.39
   0   5  -5    4.09    0.31
   0  -5  -5    4.22    0.38
   0  -5  -5    4.84    0.48
   0  -5   5    3.89    0.47
   0  -5   5    3.69    0.42
   0   5   6    8.97    0.63
   0   5   6    7.77    0.40
   0   5  -6    8.32    0.57
   0   5  -6    8.13    0.50
   0   5   6    7.92    0.46
   0   5  -6    8.12    0.43
   0  -5  -6    8.34    0.48
   0  -5   6    7.72    0.59
   0  -5   6    6.70    0.57
   0  -5  -6    8.03    0.62
   0   5  -7   13.13    0.72
   0   5   7   13.69    0.60
   0   5  -7   12.79    0.58
   0   5   7   12.75    0.56
   0   5   7   13.18    0.77
   0  -5   7   13.23    0.72
   0  -5  -7   13.67    0.77
   0   5   8    4.94    0.42
   0   5  -8    4.70    0.51
   0   5   8    5.52    0.70
   0   5  -8    6.24    0.72
   0  -5  -8    5.34    0.68
   0  -5   8    4.58    0.60
   0   6   0   11.23    0.42
   0   6   0   11.74    0.45
   0  -6   0   11.83    0.56
   0   6   1    6.02    0.35
   0   6  -1    5.75    0.31
   0   6   1    6.00    0.32
   0   6  -1    5.93    0.36
   0  -6   1    6.03    0.46
   0  -6  -1    6.22    0.50
   0  -6   1    5.99    0.43
   0  -6   1    7.84    0.56
   0   6   2   10.44    0.41
   0   6  -2   10.21    0.42
   0   6  -2    9.91    0.47
   0   6   2   10.47    0.42
   0  -6  -2   10.74    0.61
   0  -6   2    9.44    0.61
   0  -6   2   10.64    0.44
   0   6  -3    8.96    0.42
   0   6  -3    9.28    0.47
   0   6   3    8.37    0.42
   0   6   3    8.81    0.38
   0  -6  -3    8.31    0.62
   0  -6   3    7.94    0.60
   0   6   4    0.18    0.20
   0   6  -4   -0.10    0.24
   0   6  -4   -0.08    0.25
   0   6  -4    0.45    0.19
   0   6   4    0.03    0.16
   0  -6   4    0.72    0.33
   0  -6  -4   -0.03    0.32
   0   6  -5    0.45    0.32
   0   6   5   -0.19    0.19
   0   6   5   -0.35    0.23
   0   6  -5    0.25    0.19
   0  -6  -5   -0.23    0.34
   0  -6   5   -0.13    0.37
   0   6  -6    6.44    0.73
   0   6   6    8.31    0.60
   0   6   6    8.34    0.80
   0  -6  -6    7.88    0.80
   0  -6   6    9.10    1.02
   1   0 -13   -0.42    0.42
   1   0 -13   -0.58    0.33
   1   0 -13    0.17    0.35
  -1   0  13    0.59    0.36
   1   0 -12   17.20    0.75
   1   0 -12   14.70    0.78
  -1   0  12   17.25    0.79
   1   0 -12   16.25    0.87
   1   0 -11    0.29    0.25
   1   0 -11    0.37    0.24
  -1   0  11   -0.25    0.19
   1   0 -11   -0.11    0.21
  -1   0  11   -0.24    0.28
   1   0 -10   35.32    1.10
  -1   0  10   33.88    1.06
  -1   0  10   34.25    1.03
  -1   0  10   33.37    0.97
   1   0 -10   32.49    1.02
   1   0 -10   34.78    1.03
   1   0 -10   33.91    0.97
  -1   0  10   32.89    1.08
  -1   0   9    0.05    0.13
  -1   0   9   -0.12    0.14
  -1   0   9   -0.04    0.14
   1   0  -9    0.02    0.14
   1   0  -9   -0.10    0.15
   1   0  -9   -0.14    0.17
   1   0  -9   -0.19    0.15
  -1   0   9   -0.07    0.14
   1   0  -8    8.40    0.37
  -1   0   8    8.26    0.38
   1   0  -8    7.18    0.37
  -1   0   8    8.09    0.40
   1   0  -8    8.99    0.40
  -1   0   8    7.98    0.40
   1   0  -8    8.58    0.42
  -1   0   8    8.44    0.37
   1   0  -7    0.12    0.11
   1   0  -7    0.13    0.09
  -1   0   7   -0.06    0.09
  -1   0   7   -0.05    0.09
   1   0  -7   -0.02    0.09
   1   0  -7    0.08    0.10
  -1   0   7    0.03    0.08
  -1   0   7    0.03    0.08
   1   0  -6   21.45    0.61
   1   0  -6   21.51    0.62
  -1   0   6   20.68    0.62
   1   0  -6   22.20    0.60
  -1   0   6   21.59    0.64
  -1   0   6   21.21    0.62
  -1   0   6   21.62    0.59
  -1   0   5   -0.06    0.05
   1   0  -5   -0.06    0.06
   1   0  -5   -0.06    0.05
  -1   0   5    0.00    0.05
   1   0  -5    0.01    0.05
   1   0  -5   -0.10    0.05
  -1   0   5   -0.01    0.06
  -1   0   5   -0.04    0.06
   1   0  -4   11.05    0.34
   1   0  -4   11.56    0.33
  -1   0   4   11.00    0.35
   1   0  -4   11.25    0.36
  -1   0   4   11.14    0.35
  -1   0   4   11.19    0.33
  -1   0   4   11.02    0.34
   1   0  -4   11.25    0.35
   1   0  -3   -0.09    0.04
  -1   0   3   -0.06    0.05
  -1   0   3   -0.10    0.04
   1   0  -3   -0.11    0.04
  -1   0   3   -0.13    0.03
   1   0  -3   -0.12    0.05
   1   0  -3   -0.12    0.04
  -1   0   3   -0.11    0.04
  -1   0   2  383.06    7.95
   1   0  -2  373.47    8.02
  -1   0   2  391.36    8.07
  -1   0   2  368.60    7.96
   1   0  -2  361.14    7.92
  -1   0   2  378.57    7.94
  -1   0   1   -1.33    0.02
   1   0  -1   -1.33    0.02
  -1   0   1   -1.30    0.02
   1   0  -1   -1.34    0.02
   1   0   1   -0.02    0.02
  -1   0  -1    0.01    0.02
  -1   0  -1   -0.01    0.01
   1   0   1   -0.03    0.02
  -1   0  -1    0.01    0.02
   1   0   1   -0.01    0.02
  -1   0  -2  136.38    2.92
   1   0   2  136.03    2.93
   1   0   2  135.94    2.93
   1   0   2  141.39    2.96
  -1   0  -2  136.62    2.87
  -1   0  -2  136.44    2.93
  -1   0  -2  142.96    2.95
   1   0   3   -0.02    0.04
  -1   0  -3   -0.03    0.03
  -1   0  -3    0.00    0.04
   1   0   3    0.00    0.04
  -1   0  -3   -0.06    0.04
   1   0   3   -0.03    0.04
  -1   0  -3    0.02    0.04
   1   0   3   -0.05    0.04
   1   0   4   63.05    1.47
   1   0   4   67.34    1.46
  -1   0  -4   65.81    1.46
   1   0   4   66.68    1.49
   1   0   4   64.74    1.44
  -1   0  -4   65.34    1.49
  -1   0  -4   65.97    1.45
  -1   0  -4   65.05    1.47
  -1   0  -5   -0.03    0.06
  -1   0  -5    0.01    0.07
  -1   0  -5   -0.01    0.05
   1   0   5    0.00    0.06
   1   0   5    0.06    0.06
   1   0   5   -0.01    0.06
   1   0   5    0.03    0.06
  -1   0  -5   -0.01    0.05
   1   0   6   95.53    2.19
  -1   0  -6   98.14    2.23
  -1   0  -6   98.38    2.19
  -1   0  -6   98.45    2.18
  -1   0  -6   96.31    2.16
   1   0   6   96.44    2.15
   1   0   6   99.06    2.22
   1   0   6   97.49    2.18
   1   0   7    0.00    0.08
   1   0   7    0.05    0.10
   1   0   7    0.11    0.11
  -1   0  -7    0.01    0.09
  -1   0  -7    0.01    0.10
  -1   0  -7   -0.21    0.09
  -1   0  -7   -0.11    0.10
  -1   0  -8   10.33    0.42
   1   0   8   10.56    0.45
  -1   0  -8   10.77    0.49
   1   0   8   10.35    0.46
  -1   0  -8   10.79    0.45
   1   0   8   10.20    0.47
  -1   0  -8   10.83    0.46
  -1   0  -9    0.09    0.18
   1   0   9    0.31    0.18
   1   0   9   -0.08    0.15
  -1   0  -9   -0.04    0.15
   1   0   9    0.03    0.14
  -1   0  -9   -0.07    0.16
  -1   0  -9    0.05    0.14
   1   0  10   12.07    0.60
  -1   0 -10   11.48    0.53
   1   0  10   11.41    0.55
  -1   0 -10   11.94    0.58
  -1   0 -10   11.84    0.58
  -1   0 -10    9.59    0.56
  -1   0 -11   -0.05    0.23
  -1   0 -11    0.01    0.26
  -1   0 -11   -0.10    0.26
   1   0  11   -0.34    0.22
   1   0  11    0.10    0.28
   1   0  12    0.53    0.33
  -1   0 -12   -0.05    0.31
  -1   0 -12    0.13    0.34
  -1   0 -12    0.40    0.33
   1   1 -12    4.52    0.53
   1   1 -12    3.99    0.58
   1   1 -12    3.69    0.44
  -1   1  12    4.23    0.58
  -1  -1  12    4.16    0.52
   1  -1 -12    3.54    0.44
  -1  -1  12    3.01    0.49
   1  -1 -12    5.30    0.60
   1  -1 -12    3.09    0.41
   1   1 -11    0.36    0.25
  -1   1  11    0.49    0.25
  -1   1  11    0.59    0.28
   1   1 -11    0.50    0.27
  -1   1  11    0.67    0.27
   1   1 -11    0.63    0.20
  -1  -1  11    0.95    0.29
   1  -1 -11    0.66    0.28
   1  -1 -11    0.29    0.24
   1  -1 -11    0.62    0.26
  -1  -1  11    0.07    0.21
  -1   1  10   49.67    1.37
  -1   1  10   50.01    1.37
   1   1 -10   48.29    1.42
  -1   1  10   47.37    1.37
   1   1 -10   46.52    1.36
   1   1 -10   48.68    1.35
   1   1 -10   48.95    1.21
  -1   1  10   47.27    1.32
  -1  -1  10   50.93    1.39
   1  -1 -10   49.17    1.34
   1  -1 -10   50.21    1.35
  -1  -1  10   50.41    1.35
   1  -1 -10   44.81    1.33
   1  -1 -10   49.55    1.39
  -1   1   9    3.18    0.33
  -1   1   9    3.42    0.32
  -1   1   9    3.33    0.37
   1   1  -9    3.27    0.34
   1   1  -9    3.26    0.26
   1   1  -9    4.00    0.34
   1   1  -9    3.80    0.33
  -1   1   9    3.31    0.34
   1  -1  -9    3.68    0.33
   1  -1  -9    3.67    0.33
   1  -1  -9    3.55    0.33
   1  -1  -9    3.39    0.32
  -1  -1   9    3.62    0.34
  -1  -1   9    3.19    0.30
   1   1  -8   51.71    1.34
   1   1  -8   51.34    1.22
  -1   1   8   52.90    1.34
   1   1  -8   52.19    1.33
  -1   1   8   53.25    1.34
  -1   1   8   51.62    1.33
  -1   1   8   52.71    1.36
   1   1  -8   52.65    1.39
   1  -1  -8   50.91    1.32
   1  -1  -8   51.84    1.33
  -1  -1   8   52.38    1.23
   1  -1  -8   52.82    1.36
  -1  -1   8   52.42    1.34
   1  -1  -8   52.56    1.33
  -1  -1   8   51.14    1.34
  -1   1   7    1.00    0.16
  -1   1   7    1.11    0.17
   1   1  -7    1.11    0.16
   1   1  -7    1.27    0.18
  -1   1   7    1.09    0.17
   1   1  -7    0.95    0.16
  -1   1   7    1.40    0.18
   1   1  -7    1.36    0.15
   1  -1  -7    1.20    0.19
  -1  -1   7    0.93    0.16
   1  -1  -7    1.19    0.17
   1  -1  -7    1.28    0.17
   1  -1  -7    1.11    0.15
  -1  -1   7    1.37    0.19
  -1  -1   7    0.88    0.15
  -1  -1   7    1.12    0.13
   1   1  -6   20.44    0.60
   1   1  -6   21.06    0.65
  -1   1   6   20.51    0.60
   1   1  -6   20.24    0.52
   1   1  -6   20.12    0.60
  -1   1   6   20.81    0.60
  -1   1   6   21.29    0.63
  -1   1   6   20.92    0.61
  -1  -1   6   20.01    0.63
   1  -1  -6   20.96    0.62
  -1  -1   6   20.59    0.53
   1  -1  -6   20.75    0.62
   1  -1  -6   20.11    0.60
  -1  -1   6   20.67    0.61
   1  -1  -6   20.13    0.60
  -1  -1   6   20.67    0.61
   1   1  -5    7.41    0.23
   1   1  -5    7.13    0.28
  -1   1   5    6.38    0.28
   1   1  -5    7.38    0.29
  -1   1   5    7.14    0.28
   1   1  -5    7.36    0.32
  -1   1   5    7.21    0.29
  -1   1   5    6.87    0.29
  -1  -1   5    7.30    0.30
   1  -1  -5    7.53    0.29
  -1  -1   5    7.58    0.31
   1  -1  -5    6.96    0.28
  -1  -1   5    7.30    0.23
   1  -1  -5    7.00    0.30
  -1  -1   5    7.12    0.28
   1  -1  -5    7.14    0.29
  -1   1   4   16.00    0.44
  -1   1   4   16.01    0.47
  -1   1   4   15.53    0.45
   1   1  -4   16.30    0.45
   1   1  -4   17.05    0.39
   1   1  -4   15.86    0.46
   1   1  -4   16.58    0.49
  -1   1   4   15.48    0.46
   1  -1  -4   16.13    0.45
   1  -1  -4   16.37    0.45
  -1  -1   4   16.26    0.48
  -1  -1   4   16.49    0.39
   1  -1  -4   15.68    0.46
  -1  -1   4   16.41    0.47
  -1  -1   4   15.62    0.45
   1   1  -3    0.58    0.08
  -1   1   3    0.52    0.08
  -1   1   3    0.55    0.07
  -1   1   3    0.63    0.08
   1   1  -3    0.82    0.09
   1   1  -3    0.80    0.11
  -1   1   3    0.85    0.10
   1   1  -3    0.71    0.05
  -1  -1   3    0.70    0.05
   1  -1  -3    0.69    0.10
  -1  -1   3    0.71    0.10
   1  -1  -3    0.53    0.08
   1  -1  -3    0.79    0.10
  -1  -1   3    0.64    0.07
  -1  -1   3    0.63    0.09
   1  -1  -3    0.70    0.09
  -1   1   2  947.57   19.49
   1   1  -2  918.66   19.61
  -1   1   2  928.09   19.77
   1   1  -2  937.65   19.31
  -1   1   2  940.29   19.82
   1   1  -2  945.80   19.72
  -1  -1   2  953.29   19.62
   1  -1  -2  916.57   19.72
   1  -1  -2  924.42   19.75
  -1  -1   2 1000.00   19.85
   1  -1  -2  960.56   19.63
  -1  -1   2  919.73   19.67
  -1  -1   2  952.17   19.33
   1  -1  -2  957.59   19.52
   1   1  -1  664.12   13.73
  -1   1   1  634.26   13.68
  -1   1   1  659.79   13.75
  -1   1   1  620.47   13.81
   1   1  -1  639.04   13.55
   1  -1  -1  680.34   13.66
  -1  -1   1  661.51   13.50
  -1  -1   1  647.56   13.57
   1  -1  -1  646.54   13.80
   1  -1  -1  665.34   13.73
  -1  -1   1  672.31   13.75
  -1  -1   1  665.01   13.79
  -1   1   0   55.38    1.18
  -1   1   0   55.97    1.19
  -1   1   0   55.04    1.21
   1  -1   0   56.49    1.18
  -1  -1   0   55.57    1.21
   1  -1   0   54.58    1.19
   1  -1   0   54.93    1.21
  -1  -1   0   55.47    1.18
   1  -1   0   56.83    1.19
   1   1   1   65.13    1.37
  -1   1  -1   66.58    1.38
  -1   1  -1   64.86    1.39
   1   1   1   64.13    1.35
   1   1   1   63.70    1.39
   1   1   1   64.69    1.40
  -1   1  -1   64.28    1.34
   1  -1   1   64.09    1.39
  -1  -1  -1   64.09    1.40
   1  -1   1   64.72    1.34
   1  -1   1   64.66    1.38
  -1  -1  -1   64.29    1.35
  -1  -1  -1   64.95    1.40
   1  -1   1   64.88    1.39
   1   1   2   24.89    0.56
   1   1   2   24.62    0.60
  -1   1  -2   24.58    0.59
   1   1   2   23.85    0.57
  -1   1  -2   25.00    0.60
  -1   1  -2   23.29    0.59
   1   1   2   25.15    0.60
  -1   1  -2   24.05    0.52
  -1  -1  -2   23.86    0.56
  -1  -1  -2   24.73    0.58
  -1  -1  -2   24.64    0.60
   1  -1   2   24.67    0.59
   1  -1   2   25.05    0.59
  -1  -1  -2   24.88    0.59
   1  -1   2   23.67    0.59
  -1   1  -3   11.99    0.35
  -1   1  -3   11.36    0.34
  -1   1  -3   11.78    0.29
  -1   1  -3   11.75    0.36
   1   1   3   11.85    0.34
   1   1   3   11.71    0.35
   1   1   3   12.38    0.36
  -1   1  -3   11.84    0.28
   1  -1   3   12.26    0.35
   1  -1   3   12.25    0.36
  -1  -1  -3   11.78    0.35
  -1  -1  -3   11.46    0.34
  -1  -1  -3   12.44    0.34
  -1  -1  -3   11.89    0.36
   1  -1   3   11.55    0.35
  -1   1  -4    8.27    0.31
  -1   1  -4    7.78    0.28
   1   1   4    7.80    0.27
   1   1   4    7.63    0.28
   1   1   4    7.88    0.28
  -1   1  -4    8.20    0.23
   1   1   4    7.91    0.29
  -1  -1  -4    7.54    0.27
  -1  -1  -4    7.70    0.29
   1  -1   4    8.03    0.30
  -1  -1  -4    7.61    0.27
   1  -1   4    8.02    0.29
  -1  -1  -4    7.94    0.29
   1  -1   4    7.61    0.29
  -1   1  -5    2.95    0.15
  -1   1  -5    2.96    0.18
   1   1   5    2.95    0.19
   1   1   5    2.88    0.19
   1   1   5    3.06    0.18
   1   1   5    2.68    0.19
  -1   1  -5    3.20    0.21
  -1  -1  -5    2.70    0.19
   1  -1   5    3.18    0.20
   1  -1   5    3.12    0.20
  -1  -1  -5    2.91    0.20
  -1  -1  -5    2.86    0.19
  -1  -1  -5    2.88    0.17
   1   1   6   17.80    0.55
  -1   1  -6   17.74    0.48
  -1   1  -6   17.79    0.55
   1   1   6   18.51    0.56
   1   1   6   17.95    0.55
  -1   1  -6   18.46    0.57
   1  -1   6   17.31    0.56
  -1  -1  -6   17.71    0.57
  -1  -1  -6   17.98    0.57
   1  -1   6   17.89    0.58
   1  -1   6   17.97    0.55
   1   1   7    9.65    0.40
  -1   1  -7    9.28    0.33
  -1   1  -7    8.60    0.38
   1   1   7    9.17    0.40
  -1   1  -7    8.59    0.41
   1   1   7    8.91    0.39
   1   1   7    9.06    0.38
  -1   1  -7    8.45    0.39
  -1  -1  -7    9.14    0.41
  -1  -1  -7    9.26    0.38
   1  -1   7    9.17    0.40
   1  -1   7    9.03    0.39
   1  -1   7    9.06    0.40
  -1  -1  -7    8.90    0.38
  -1  -1  -7    9.04    0.39
  -1   1  -8   33.54    0.95
   1   1   8   32.49    0.91
   1   1   8   31.54    0.94
   1   1   8   32.43    0.94
  -1   1  -8   32.75    0.84
  -1   1  -8   32.16    0.93
   1   1   8   32.01    0.93
  -1   1  -8   31.92    0.98
  -1  -1  -8   31.85    0.95
  -1  -1  -8   32.18    0.94
  -1  -1  -8   32.93    0.93
   1  -1   8   32.84    0.93
   1  -1   8   32.32    0.96
  -1  -1  -8   32.91    0.93
  -1   1  -9   12.22    0.57
  -1   1  -9   13.05    0.56
   1   1   9   13.35    0.56
  -1   1  -9   12.22    0.46
   1   1   9   12.24    0.57
   1   1   9   12.63    0.55
  -1   1  -9   11.64    0.55
  -1  -1  -9   12.11    0.57
   1  -1   9   12.38    0.57
  -1  -1  -9   13.30    0.54
  -1  -1  -9   13.00    0.55
   1  -1   9   13.54    0.59
  -1  -1  -9   13.50    0.57
   1  -1   9   13.48    0.54
   1   1  10    1.67    0.27
  -1   1 -10    1.86    0.32
  -1   1 -10    2.20    0.32
   1   1  10    1.57    0.29
  -1   1 -10    2.82    0.40
  -1   1 -10    2.25    0.30
   1   1  10    2.16    0.33
   1  -1  10    1.39    0.25
   1  -1  10    2.34    0.31
  -1  -1 -10    2.12    0.30
  -1  -1 -10    2.14    0.28
  -1  -1 -10    1.85    0.27
  -1  -1 -10    1.78    0.32
  -1   1 -11    6.93    0.56
  -1   1 -11    6.73    0.56
  -1   1 -11    6.12    0.43
  -1   1 -11    6.58    0.46
   1   1  11    6.43    0.56
  -1  -1 -11    5.98    0.55
  -1  -1 -11    5.97    0.54
   1  -1  11    6.85    0.58
   1  -1  11    6.25    0.49
  -1  -1 -11    6.40    0.55
  -1   1 -12    2.84    0.43
  -1   1 -12    2.50    0.43
   1   1  12    2.22    0.41
  -1   1 -12    2.60    0.35
  -1  -1 -12    2.29    0.47
   1  -1  12    3.11    0.42
  -1  -1 -12    2.12    0.37
   1   2 -12    0.30    0.36
   1   2 -12   -0.46    0.37
  -1   2  12   -0.46    0.30
   1  -2 -12    0.17    0.39
   1  -2 -12    0.53    0.36
  -1  -2  12   -0.47    0.27
   1   2 -11    6.87    0.57
  -1   2  11    5.92    0.55
   1   2 -11    6.11    0.33
   1   2 -11    5.76    0.60
   1  -2 -11    6.35    0.57
  -1  -2  11    5.51    0.63
  -1  -2  11    6.35    0.53
   1  -2 -11    6.86    0.59
   1  -2 -11    7.46    0.59
   1   2 -10    7.02    0.31
   1   2 -10    7.38    0.49
   1   2 -10    7.71    0.55
  -1   2  10    6.37    0.55
  -1   2  10    7.39    0.52
  -1   2  10    7.33    0.51
   1   2 -10    6.96    0.31
   1  -2 -10    7.20    0.51
   1  -2 -10    7.14    0.52
  -1  -2  10    8.18    0.52
  -1  -2  10    7.53    0.49
   1  -2 -10    7.08    0.50
  -1   2   9    0.46    0.22
   1   2  -9    0.05    0.21
   1   2  -9    0.35    0.18
  -1   2   9   -0.18    0.17
   1   2  -9    0.04    0.10
  -1   2   9    0.06    0.18
   1   2  -9    0.16    0.17
  -1   2   9    0.04    0.17
   1  -2  -9    0.34    0.20
   1  -2  -9    0.09    0.18
  -1  -2   9   -0.13    0.18
  -1  -2   9   -0.21    0.16
  -1  -2   9   -0.12    0.16
   1  -2  -9    0.05    0.20
   1  -2  -9    0.18    0.18
   1   2  -8   17.40    0.62
  -1   2   8   16.79    0.61
   1   2  -8   17.60    0.68
   1   2  -8   17.01    0.43
  -1   2   8   16.85    0.64
  -1   2   8   16.96    0.60
  -1   2   8   17.27    0.64
   1   2  -8   16.95    0.64
  -1  -2   8   17.39    0.63
  -1  -2   8   18.19    0.63
   1  -2  -8   17.09    0.60
  -1  -2   8   16.40    0.63
   1  -2  -8   17.15    0.61
   1  -2  -8   16.29    0.64
   1  -2  -8   16.63    0.61
  -1   2   7    0.92    0.16
   1   2  -7    1.05    0.20
  -1   2   7    0.85    0.16
   1   2  -7    1.14    0.16
  -1   2   7    1.06    0.16
   1   2  -7    1.16    0.19
  -1   2   7    0.97    0.19
  -1  -2   7    0.98    0.15
  -1  -2   7    1.32    0.19
   1  -2  -7    1.08    0.18
   1  -2  -7    0.92    0.17
   1  -2  -7    1.12    0.17
   1  -2  -7    1.25    0.18
  -1  -2   7    0.78    0.16
  -1   2   6    3.99    0.27
   1   2  -6    4.28    0.25
  -1   2   6    3.89    0.26
   1   2  -6    4.13    0.28
  -1   2   6    4.03    0.24
  -1   2   6    3.50    0.24
   1   2  -6    3.87    0.24
  -1  -2   6    4.00    0.24
  -1  -2   6    3.97    0.26
   1  -2  -6    4.03    0.24
  -1  -2   6    4.17    0.27
   1  -2  -6    3.79    0.24
   1  -2  -6    3.78    0.25
   1  -2  -6    4.06    0.27
   1   2  -5    7.66    0.32
  -1   2   5    7.90    0.29
  -1   2   5    7.79    0.32
  -1   2   5    7.98    0.33
  -1   2   5    8.32    0.36
   1   2  -5    8.07    0.31
   1   2  -5    8.48    0.37
  -1  -2   5    6.68    0.32
   1  -2  -5    7.58    0.32
   1  -2  -5    7.91    0.35
  -1  -2   5    8.68    0.34
   1  -2  -5    7.81    0.31
   1  -2  -5    7.84    0.30
  -1  -2   5    7.78    0.31
  -1   2   4   21.90    0.64
   1   2  -4   21.91    0.58
  -1   2   4   21.83    0.55
   1   2  -4   21.76    0.62
  -1   2   4   21.05    0.62
   1   2  -4   22.33    0.64
  -1  -2   4   22.53    0.63
   1  -2  -4   21.27    0.58
   1  -2  -4   21.54    0.62
   1  -2  -4   21.98    0.56
   1  -2  -4   20.79    0.62
  -1  -2   4   22.44    0.63
  -1  -2   4   21.78    0.59
   1   2  -3   17.26    0.50
  -1   2   3   17.01    0.42
  -1   2   3   17.46    0.53
  -1   2   3   17.91    0.51
   1   2  -3   17.02    0.46
   1   2  -3   17.16    0.50
   1  -2  -3   17.75    0.43
  -1  -2   3   16.62    0.46
   1  -2  -3   16.98    0.50
   1  -2  -3   16.87    0.46
  -1  -2   3   16.76    0.49
   1  -2  -3   16.82    0.50
  -1   2   2  141.29    3.05
  -1   2   2  148.00    3.04
   1   2  -2  143.16    3.03
  -1   2   2  146.25    3.09
   1   2  -2  142.92    3.07
  -1   2   2  148.36    3.13
  -1  -2   2  144.07    3.07
  -1  -2   2  144.36    2.98
  -1  -2   2  144.56    3.04
  -1  -2   2  143.02    2.98
   1  -2  -2  142.76    3.04
   1  -2  -2  141.27    3.09
  -1  -2   2  148.15    3.10
   1  -2  -2  143.28    3.11
  -1   2   1   15.31    0.41
   1   2  -1   15.79    0.38
   1   2  -1   15.52    0.38
  -1   2   1   14.65    0.46
  -1   2   1   15.54    0.40
  -1   2   1   14.80    0.42
   1   2  -1   15.30    0.41
   1  -2  -1   15.28    0.46
  -1  -2   1   15.70    0.41
   1  -2  -1   15.03    0.39
  -1  -2   1   15.20    0.38
  -1  -2   1   15.32    0.38
   1  -2  -1   15.69    0.43
  -1   2   0   19.89    0.45
   1   2   0   20.28    0.45
  -1   2   0   19.04    0.49
  -1   2   0   20.33    0.50
  -1   2   0   19.44    0.48
   1   2   0   19.73    0.46
   1  -2   0   20.25    0.49
   1  -2   0   20.27    0.49
   1  -2   0   19.61    0.45
  -1  -2   0   19.37    0.54
  -1  -2   0   19.51    0.48
  -1  -2   0   19.53    0.46
  -1  -2   0   19.65    0.50
   1  -2   0   19.55    0.49
  -1   2  -1   13.23    0.34
  -1   2  -1   13.51    0.36
   1   2   1   13.22    0.38
   1   2   1   13.99    0.33
  -1   2  -1   13.71    0.37
   1   2   1   12.74    0.41
  -1   2  -1   13.09    0.36
   1   2   1   13.59    0.34
   1  -2   1   13.66    0.33
  -1  -2  -1   13.58    0.33
   1  -2   1   13.27    0.37
   1  -2   1   13.25    0.35
  -1  -2  -1   13.37    0.41
  -1  -2  -1   13.72    0.35
  -1  -2  -1   13.57    0.39
   1  -2   1   13.76    0.42
   1   2   2   33.07    0.84
  -1   2  -2   33.10    0.79
   1   2   2   32.69    0.75
  -1   2  -2   33.39    0.79
   1   2   2   33.07    0.75
   1   2   2   32.72    0.81
  -1  -2  -2   33.07    0.83
  -1  -2  -2   32.99    0.76
  -1  -2  -2   33.23    0.75
   1  -2   2   31.61    0.79
  -1  -2  -2   32.75    0.82
   1  -2   2   33.22    0.79
   1  -2   2   33.35    0.82
   1   2   3    5.32    0.24
   1   2   3    5.56    0.20
   1   2   3    5.73    0.26
   1   2   3    5.33    0.21
  -1   2  -3    5.50    0.25
  -1   2  -3    5.23    0.22
  -1  -2  -3    5.36    0.21
   1  -2   3    5.62    0.23
  -1  -2  -3    5.34    0.25
   1  -2   3    5.16    0.23
  -1  -2  -3    5.54    0.26
  -1  -2  -3    5.66    0.21
  -1   2  -4   72.38    1.67
  -1   2  -4   73.85    1.69
  -1   2  -4   74.49    1.70
   1   2   4   73.49    1.71
   1   2   4   75.18    1.70
   1   2   4   71.73    1.63
   1   2   4   74.02    1.63
   1  -2   4   72.15    1.67
  -1  -2  -4   72.58    1.63
  -1  -2  -4   72.11    1.64
  -1  -2  -4   72.90    1.68
   1  -2   4   74.24    1.69
  -1  -2  -4   74.72    1.71
   1  -2   4   74.40    1.69
   1   2   5    1.40    0.17
  -1   2  -5    1.31    0.18
   1   2   5    1.26    0.17
   1   2   5    1.27    0.17
  -1   2  -5    1.32    0.17
   1   2   5    0.91    0.13
  -1   2  -5    1.43    0.16
  -1  -2  -5    1.46    0.16
  -1  -2  -5    1.02    0.15
  -1  -2  -5    1.52    0.17
   1  -2   5    1.10    0.16
  -1  -2  -5    1.46    0.17
   1  -2   5    1.63    0.17
   1  -2   5    1.51    0.15
  -1   2  -6   20.77    0.68
   1   2   6   20.37    0.64
   1   2   6   21.27    0.62
  -1   2  -6   20.44    0.64
   1   2   6   21.27    0.67
  -1   2  -6   20.06    0.64
  -1  -2  -6   20.73    0.67
  -1  -2  -6   20.76    0.63
  -1  -2  -6   20.47    0.61
  -1  -2  -6   20.78    0.63
   1  -2   6   20.81    0.65
   1  -2   6   20.60    0.65
   1  -2   6   21.13    0.67
  -1   2  -7   36.04    1.00
   1   2   7   36.05    0.97
   1   2   7   35.93    1.00
  -1   2  -7   37.17    1.06
   1   2   7   35.65    0.97
   1   2   7   36.32    1.03
  -1   2  -7   35.92    0.99
  -1  -2  -7   37.74    1.04
  -1  -2  -7   34.97    0.99
   1  -2   7   35.56    1.00
   1  -2   7   36.47    1.00
  -1  -2  -7   36.24    0.97
   1  -2   7   35.94    1.03
  -1  -2  -7   35.85    0.98
  -1   2  -8    1.92    0.15
  -1   2  -8    1.57    0.15
  -1   2  -8    2.13    0.31
   1   2   8    1.71    0.25
   1   2   8    1.88    0.26
   1   2   8    1.77    0.24
  -1   2  -8    2.04    0.26
  -1   2  -8    1.76    0.23
   1   2   8    1.40    0.22
  -1  -2  -8    1.73    0.22
  -1  -2  -8    1.82    0.25
   1  -2   8    1.32    0.19
   1  -2   8    1.94    0.27
  -1  -2  -8    1.60    0.25
   1  -2   8    1.73    0.24
  -1  -2  -8    1.32    0.20
  -1   2  -9    0.21    0.11
  -1   2  -9    0.20    0.24
  -1   2  -9    0.33    0.21
   1   2   9   -0.27    0.17
   1   2   9    0.07    0.18
  -1   2  -9    0.03    0.10
   1   2   9    0.08    0.20
  -1   2  -9   -0.02    0.19
  -1  -2  -9    0.10    0.18
   1  -2   9   -0.01    0.20
   1  -2   9    0.06    0.18
   1  -2   9    0.01    0.21
  -1  -2  -9    0.09    0.18
  -1  -2  -9    0.01    0.19
  -1  -2  -9    0.21    0.18
   1   2  10    4.32    0.41
  -1   2 -10    4.04    0.46
  -1   2 -10    4.03    0.27
  -1   2 -10    4.18    0.28
   1   2  10    3.36    0.38
   1   2  10    3.97    0.45
  -1   2 -10    4.49    0.48
  -1  -2 -10    3.38    0.43
  -1  -2 -10    4.26    0.45
   1  -2  10    3.17    0.38
   1  -2  10    4.56    0.45
  -1  -2 -10    3.78    0.45
  -1   2 -11    1.93    0.39
  -1   2 -11    2.11    0.37
   1   2  11    1.54    0.35
  -1  -2 -11    1.60    0.33
   1  -2  11    1.97    0.36
  -1  -2 -11    2.25    0.40
  -1  -2 -11    2.08    0.38
   1  -2  11    1.91    0.44
  -1   2 -12    6.05    0.74
   1   2  12    7.15    0.69
  -1   2 -12    8.14    0.71
   1  -2  12    8.43    0.66
  -1  -2 -12    7.03    0.74
  -1  -2 -12    7.20    0.75
   1   3 -11    0.17    0.39
   1   3 -11    0.38    0.27
  -1   3  11    0.34    0.31
   1  -3 -11    0.40    0.34
   1  -3 -11    1.21    0.36
  -1  -3  11    0.30    0.32
  -1   3  10    0.64    0.33
   1   3 -10    0.78    0.25
  -1   3  10    0.61    0.27
   1   3 -10    0.15    0.31
  -1  -3  10    0.10    0.27
   1  -3 -10    0.08    0.24
   1  -3 -10    0.31    0.26
   1  -3 -10    0.18    0.25
  -1   3   9   -0.02    0.19
   1   3  -9    0.06    0.24
  -1   3   9    0.13    0.23
   1   3  -9    0.03    0.19
  -1   3   9    0.27    0.24
   1  -3  -9    0.27    0.19
  -1  -3   9   -0.06    0.21
  -1  -3   9    0.23    0.19
   1  -3  -9    0.37    0.20
   1  -3  -9    0.49    0.22
   1   3  -8    2.41    0.28
  -1   3   8    2.19    0.27
  -1   3   8    3.20    0.36
  -1   3   8    3.48    0.38
   1   3  -8    3.74    0.34
   1   3  -8    2.68    0.39
  -1  -3   8    3.44    0.34
   1  -3  -8    2.88    0.30
   1  -3  -8    3.10    0.30
   1  -3  -8    2.89    0.34
  -1  -3   8    3.06    0.36
   1  -3  -8    2.87    0.36
  -1  -3   8    3.03    0.37
  -1   3   7   -0.09    0.12
  -1   3   7    0.18    0.15
   1   3  -7   -0.17    0.13
   1   3  -7   -0.10    0.15
   1   3  -7   -0.10    0.14
  -1   3   7   -0.02    0.16
  -1   3   7    0.19    0.16
   1  -3  -7   -0.18    0.12
  -1  -3   7    0.05    0.14
   1  -3  -7   -0.05    0.14
   1  -3  -7    0.00    0.12
  -1  -3   7   -0.10    0.16
   1  -3  -7    0.09    0.16
  -1  -3   7   -0.12    0.12
  -1   3   6    6.26    0.39
  -1   3   6    6.03    0.28
   1   3  -6    6.40    0.32
  -1   3   6    5.07    0.34
   1   3  -6    6.08    0.37
   1   3  -6    6.57    0.35
  -1   3   6    6.25    0.32
   1  -3  -6    5.58    0.35
  -1  -3   6    6.13    0.32
   1  -3  -6    5.98    0.31
   1  -3  -6    5.66    0.33
   1  -3  -6    6.20    0.29
  -1  -3   6    5.76    0.35
  -1  -3   6    5.97    0.36
   1   3  -5    0.33    0.12
  -1   3   5   -0.09    0.10
  -1   3   5    0.13    0.09
  -1   3   5   -0.05    0.09
  -1   3   5   -0.02    0.11
   1   3  -5    0.06    0.09
   1  -3  -5   -0.07    0.10
  -1  -3   5   -0.08    0.11
   1  -3  -5   -0.10    0.11
  -1  -3   5    0.15    0.09
   1  -3  -5    0.09    0.10
  -1  -3   5    0.00    0.11
   1  -3  -5    0.11    0.08
  -1   3   4    1.77    0.20
   1   3  -4    1.72    0.15
  -1   3   4    1.85    0.16
   1   3  -4    1.79    0.21
  -1   3   4    1.43    0.13
  -1   3   4    1.85    0.17
  -1   3   4    1.91    0.22
   1  -3  -4    1.67    0.17
  -1  -3   4    1.84    0.20
  -1  -3   4    1.74    0.15
  -1  -3   4    1.82    0.21
   1  -3  -4    2.14    0.20
   1  -3  -4    1.81    0.21
   1  -3  -4    1.74    0.13
  -1   3   3    0.76    0.14
   1   3  -3    0.67    0.13
  -1   3   3    0.64    0.10
  -1   3   3    0.47    0.09
   1   3  -3    0.54    0.08
  -1   3   3    0.65    0.12
  -1  -3   3    0.48    0.11
  -1  -3   3    0.66    0.13
   1  -3  -3    0.51    0.11
   1  -3  -3    0.60    0.11
  -1  -3   3    0.52    0.08
   1  -3  -3    0.74    0.14
   1   3  -2   88.85    1.98
  -1   3   2   89.74    2.08
  -1   3   2   89.91    1.97
   1   3  -2   90.87    1.94
   1   3  -2   86.98    1.93
  -1   3   2   90.16    1.95
  -1   3   2   90.53    2.01
  -1  -3   2   88.34    1.90
   1  -3  -2   89.84    2.07
   1  -3  -2   88.92    1.95
  -1  -3   2   88.58    1.95
   1  -3  -2   91.48    2.02
  -1  -3   2   91.45    2.05
  -1  -3   2   89.60    1.99
  -1  -3   2   87.07    1.90
  -1   3   1    0.07    0.09
   1   3  -1    0.04    0.04
   1   3  -1    0.03    0.06
   1   3  -1    0.02    0.06
  -1   3   1   -0.02    0.07
  -1   3   1    0.07    0.06
  -1   3   1    0.03    0.06
  -1  -3   1    0.07    0.04
   1  -3  -1    0.10    0.08
  -1  -3   1    0.04    0.06
   1  -3  -1    0.00    0.08
   1  -3  -1    0.03    0.07
  -1  -3   1   -0.07    0.07
  -1  -3   1   -0.03    0.06
  -1   3   0   54.52    1.27
  -1   3   0   56.81    1.26
   1   3   0   53.15    1.22
   1   3   0   57.21    1.22
  -1   3   0   55.20    1.27
   1  -3   0   54.74    1.21
   1  -3   0   58.91    1.28
   1  -3   0   56.92    1.27
  -1  -3   0   56.15    1.28
  -1  -3   0   54.82    1.25
  -1  -3   0   55.08    1.37
  -1  -3   0   56.16    1.22
   1   3   1    2.68    0.21
  -1   3  -1    2.81    0.15
  -1   3  -1    2.61    0.15
  -1   3  -1    3.42    0.18
   1   3   1    2.71    0.13
  -1   3  -1    3.14    0.17
   1   3   1    2.79    0.14
   1   3   1    3.06    0.19
  -1  -3  -1    2.78    0.14
  -1  -3  -1    3.64    0.22
  -1  -3  -1    3.29    0.21
  -1  -3  -1    2.77    0.15
   1  -3   1    2.81    0.15
   1  -3   1    2.80    0.15
  -1  -3  -1    2.92    0.14
   1   3   2   31.60    0.75
  -1   3  -2   30.99    0.79
  -1   3  -2   30.90    0.78
   1   3   2   31.68    0.83
   1   3   2   32.24    0.89
  -1   3  -2   32.22    0.79
   1   3   2   32.34    0.74
  -1  -3  -2   31.54    0.84
   1  -3   2   31.82    0.80
   1  -3   2   30.67    0.78
  -1  -3  -2   31.52    0.75
  -1  -3  -2   31.65    0.74
  -1  -3  -2   31.15    0.74
   1  -3   2   31.39    0.71
  -1  -3  -2   32.96    0.88
   1  -3   2   31.67    0.85
   1  -3   2   32.02    0.88
  -1   3  -3    1.59    0.16
   1   3   3    1.57    0.20
  -1   3  -3    1.54    0.14
   1   3   3    1.48    0.18
   1   3   3    1.48    0.13
   1   3   3    1.70    0.13
  -1   3  -3    1.57    0.18
   1  -3   3    1.60    0.19
   1  -3   3    1.51    0.16
  -1  -3  -3    1.82    0.19
  -1  -3  -3    1.59    0.18
  -1  -3  -3    1.62    0.14
  -1  -3  -3    1.64    0.13
   1  -3   3    1.69    0.14
   1   3   4   -0.16    0.09
  -1   3  -4   -0.03    0.06
   1   3   4    0.03    0.07
  -1   3  -4   -0.09    0.10
   1   3   4    0.04    0.08
   1   3   4   -0.02    0.09
   1  -3   4   -0.10    0.09
  -1  -3  -4    0.06    0.07
  -1  -3  -4   -0.04    0.10
  -1  -3  -4    0.02    0.08
   1  -3   4    0.01    0.08
  -1  -3  -4    0.00    0.09
   1  -3   4    0.09    0.10
  -1   3  -5   47.95    1.20
  -1   3  -5   48.53    1.25
   1   3   5   48.06    1.24
   1   3   5   47.56    1.14
   1   3   5   45.59    1.14
   1   3   5   50.48    1.28
  -1  -3  -5   47.34    1.26
   1  -3   5   46.95    1.20
   1  -3   5   46.61    1.22
  -1  -3  -5   45.46    1.22
   1  -3   5   49.86    1.25
  -1  -3  -5   47.23    1.15
  -1  -3  -5   47.96    1.15
  -1   3  -6    0.94    0.22
   1   3   6    0.81    0.15
   1   3   6    0.82    0.16
  -1   3  -6    0.54    0.13
   1   3   6    0.88    0.18
   1   3   6    1.19    0.17
   1  -3   6    0.63    0.15
  -1  -3  -6    0.94    0.19
   1  -3   6    1.00    0.20
   1  -3   6    0.76    0.17
  -1  -3  -6    0.73    0.14
  -1  -3  -6    0.79    0.15
  -1  -3  -6    0.75    0.19
   1   3   7   19.23    0.62
  -1   3  -7   18.57    0.69
  -1   3  -7   19.24    0.65
  -1   3  -7   19.72    0.73
   1   3   7   19.02    0.63
   1   3   7   19.36    0.73
   1   3   7   18.16    0.66
  -1  -3  -7   18.58    0.70
  -1  -3  -7   18.24    0.66
  -1  -3  -7   18.74    0.62
   1  -3   7   18.13    0.67
   1  -3   7   17.77    0.68
   1  -3   7   15.82    0.65
  -1  -3  -7   19.03    0.63
   1   3   8   17.14    0.64
  -1   3  -8   16.97    0.65
   1   3   8   16.85    0.70
  -1   3  -8   16.95    0.72
   1   3   8   16.53    0.61
  -1   3  -8   16.49    0.70
   1  -3   8   15.54    0.70
  -1  -3  -8   16.59    0.61
  -1  -3  -8   16.37    0.63
   1  -3   8   17.44    0.69
  -1  -3  -8   17.18    0.70
   1  -3   8   16.99    0.68
  -1  -3  -8   16.84    0.66
   1   3   9    2.19    0.35
   1   3   9    2.42    0.35
  -1   3  -9    2.89    0.40
  -1   3  -9    2.22    0.31
   1  -3   9    2.70    0.39
  -1  -3  -9    2.53    0.34
   1  -3   9    2.70    0.36
  -1  -3  -9    2.89    0.39
  -1  -3  -9    1.95    0.31
  -1   3 -10    0.73    0.30
   1   3  10    0.47    0.29
  -1   3 -10    0.78    0.39
   1   3  10    0.06    0.36
  -1  -3 -10    0.47    0.28
  -1  -3 -10    0.24    0.26
   1  -3  10    0.15    0.29
  -1   3 -11    3.53    0.54
  -1   3 -11    3.95    0.49
   1   3  11    5.57    0.67
   1  -3  11    4.56    0.61
  -1  -3 -11    3.18    0.52
  -1  -3 -11    5.16    0.62
   1   4 -10    0.83    0.33
  -1   4  10    0.30    0.40
   1   4 -10    0.81    0.42
   1  -4 -10    1.06    0.33
  -1  -4  10    0.64    0.35
   1  -4 -10    0.25    0.33
   1   4  -9    4.82    0.48
  -1   4   9    4.22    0.59
   1   4  -9    5.57    0.60
   1  -4  -9    3.84    0.51
   1  -4  -9    5.18    0.46
  -1  -4   9    4.16    0.54
  -1   4   8    0.71    0.22
   1   4  -8    1.17    0.27
  -1   4   8    0.46    0.22
   1   4  -8    0.76    0.29
  -1   4   8    0.46    0.27
   1  -4  -8    0.43    0.23
  -1  -4   8    0.52    0.24
   1  -4  -8    1.06    0.26
   1  -4  -8    0.64    0.22
   1   4  -7    1.87    0.32
  -1   4   7    1.85    0.26
   1   4  -7    1.62    0.24
  -1   4   7    1.13    0.19
  -1   4   7    1.50    0.29
   1  -4  -7    1.38    0.24
   1  -4  -7    1.76    0.26
   1  -4  -7    1.05    0.25
  -1  -4   7    1.83    0.33
  -1  -4   7    1.47    0.25
   1   4  -6    0.60    0.13
  -1   4   6    0.27    0.20
  -1   4   6    0.53    0.22
  -1   4   6    0.40    0.13
  -1   4   6    0.45    0.16
   1   4  -6    0.86    0.22
   1  -4  -6    0.39    0.19
  -1  -4   6    0.38    0.17
   1  -4  -6    0.66    0.14
  -1  -4   6    0.76    0.23
   1  -4  -6    0.56    0.20
   1  -4  -6    0.56    0.18
  -1  -4   6    0.51    0.15
   1   4  -5   -0.07    0.16
  -1   4   5    0.08    0.18
  -1   4   5    0.07    0.10
  -1   4   5    0.21    0.14
  -1   4   5    0.09    0.16
   1   4  -5   -0.06    0.11
  -1  -4   5    0.22    0.17
   1  -4  -5    0.10    0.16
   1  -4  -5   -0.26    0.12
  -1  -4   5    0.12    0.14
  -1  -4   5   -0.11    0.11
   1  -4  -5    0.00    0.20
  -1   4   4   -0.26    0.15
  -1   4   4    0.09    0.16
   1   4  -4    0.17    0.09
  -1   4   4    0.06    0.11
  -1   4   4    0.12    0.11
   1   4  -4    0.03    0.11
   1   4  -4    0.17    0.14
  -1  -4   4   -0.05    0.12
   1  -4  -4   -0.08    0.15
  -1  -4   4    0.00    0.14
  -1  -4   4   -0.12    0.09
   1  -4  -4    0.10    0.13
   1  -4  -4    0.27    0.14
   1   4  -3    9.63    0.39
  -1   4   3    8.66    0.42
  -1   4   3    8.91    0.35
  -1   4   3    8.99    0.35
  -1   4   3    9.55    0.47
   1   4  -3    8.73    0.34
   1   4  -3    9.05    0.33
   1  -4  -3    9.02    0.44
  -1  -4   3    9.29    0.26
   1  -4  -3    9.12    0.43
  -1  -4   3    9.22    0.33
  -1  -4   3    9.35    0.46
  -1  -4   3    8.71    0.39
  -1  -4   3    9.29    0.43
  -1  -4   3    9.04    0.26
   1  -4  -3    9.31    0.36
   1   4  -2   16.16    0.46
   1   4  -2   15.87    0.49
  -1   4   2   15.99    0.48
   1   4  -2   15.13    0.44
  -1   4   2   15.74    0.61
  -1   4   2   15.53    0.48
  -1   4   2   15.40    0.54
  -1  -4   2   15.67    0.57
  -1  -4   2   15.36    0.50
   1  -4  -2   16.22    0.56
   1  -4  -2   15.21    0.58
  -1  -4   2   15.74    0.44
  -1  -4   2   15.80    0.46
  -1  -4   2   15.08    0.43
  -1  -4   2   15.83    0.60
   1  -4  -2   16.03    0.48
  -1   4   1   27.92    0.72
   1   4  -1   27.25    0.67
   1   4  -1   27.45    0.67
  -1   4   1   28.23    0.71
  -1   4   1   25.21    0.75
   1  -4  -1   28.05    0.72
   1  -4  -1   27.36    0.85
  -1  -4   1   26.54    0.71
  -1  -4   1   26.62    0.71
  -1  -4   1   27.52    0.85
   1  -4  -1   27.75    0.77
  -1  -4   1   27.83    0.69
  -1   4   0   -0.01    0.10
   1   4   0   -0.03    0.06
   1   4   0   -0.05    0.07
  -1   4   0   -0.02    0.08
  -1   4   0    0.00    0.07
   1  -4   0    0.08    0.11
  -1  -4   0   -0.03    0.09
  -1  -4   0    0.02    0.12
   1  -4   0    0.00    0.08
   1  -4   0    0.06    0.09
  -1  -4   0   -0.14    0.08
  -1   4  -1    1.22    0.15
  -1   4  -1    1.30    0.14
  -1   4  -1    1.05    0.15
   1   4   1    1.19    0.14
   1   4   1    1.17    0.12
  -1  -4  -1    1.19    0.19
   1  -4   1    1.33    0.16
   1  -4   1    1.41    0.17
  -1  -4  -1    1.23    0.13
   1  -4   1    1.21    0.15
   1  -4   1    1.55    0.21
  -1  -4  -1    1.13    0.13
  -1  -4  -1    0.97    0.15
  -1   4  -2    2.56    0.22
   1   4   2    2.55    0.16
  -1   4  -2    2.28    0.17
   1   4   2    2.42    0.17
  -1   4  -2    2.62    0.21
   1   4   2    2.77    0.26
  -1  -4  -2    2.38    0.17
   1  -4   2    2.43    0.25
   1  -4   2    2.38    0.16
  -1  -4  -2    2.53    0.25
  -1  -4  -2    2.27    0.15
   1  -4   2    2.13    0.18
   1  -4   2    2.38    0.20
  -1  -4  -2    2.46    0.18
  -1  -4  -2    2.45    0.27
   1  -4   2    2.60    0.26
   1   4   3    3.10    0.19
  -1   4  -3    2.89    0.20
  -1   4  -3    2.77    0.24
   1   4   3    3.25    0.21
   1   4   3    3.07    0.32
  -1   4  -3    2.94    0.24
  -1  -4  -3    3.15    0.21
  -1  -4  -3    2.69    0.18
   1  -4   3    3.00    0.24
  -1  -4  -3    2.81    0.29
   1  -4   3    2.96    0.22
   1  -4   3    2.94    0.29
  -1  -4  -3    2.45    0.30
   1  -4   3    3.27    0.29
  -1  -4  -3    3.23    0.19
   1   4   4   15.57    0.48
  -1   4  -4   16.08    0.55
   1   4   4   16.52    0.65
   1   4   4   16.45    0.50
  -1   4  -4   16.08    0.53
   1   4   4   16.00    0.59
  -1   4  -4   16.08    0.57
  -1  -4  -4   15.85    0.63
   1  -4   4   17.19    0.62
  -1  -4  -4   16.13    0.49
  -1  -4  -4   15.54    0.61
  -1  -4  -4   16.45    0.47
   1  -4   4   15.21    0.53
   1  -4   4   15.99    0.55
  -1   4  -5    6.64    0.41
  -1   4  -5    6.45    0.34
   1   4   5    6.85    0.40
   1   4   5    5.95    0.43
   1   4   5    6.62    0.30
  -1   4  -5    5.79    0.36
   1   4   5    6.43    0.32
   1  -4   5    6.13    0.35
  -1  -4  -5    6.37    0.33
  -1  -4  -5    6.57    0.45
  -1  -4  -5    6.56    0.30
  -1  -4  -5    6.26    0.42
   1  -4   5    6.60    0.42
   1  -4   5    5.95    0.38
  -1   4  -6    0.34    0.20
   1   4   6    0.34    0.14
   1   4   6    0.49    0.21
  -1   4  -6    0.34    0.15
   1  -4   6    0.41    0.19
   1  -4   6   -0.13    0.19
   1  -4   6    0.12    0.20
  -1  -4  -6    0.05    0.17
  -1  -4  -6    0.39    0.16
  -1  -4  -6    0.40    0.21
   1   4   7    4.86    0.37
  -1   4  -7    4.96    0.45
   1   4   7    4.07    0.36
  -1   4  -7    5.14    0.38
   1   4   7    4.62    0.46
  -1  -4  -7    5.30    0.44
  -1  -4  -7    4.54    0.35
  -1  -4  -7    4.49    0.37
  -1  -4  -7    3.16    0.58
   1  -4   7    3.86    0.43
   1  -4   7    4.67    0.42
  -1   4  -8    0.07    0.23
   1   4   8    0.78    0.26
  -1   4  -8    0.01    0.29
   1   4   8    0.54    0.23
   1   4   8    0.53    0.30
  -1  -4  -8    0.20    0.25
   1  -4   8   -0.12    0.23
  -1  -4  -8    0.01    0.21
  -1  -4  -8    0.32    0.24
  -1   4  -9    6.68    0.55
  -1   4  -9    6.94    0.67
   1   4   9    7.19    0.61
  -1  -4  -9    6.70    0.60
   1  -4   9    8.26    0.67
  -1  -4  -9    6.53    0.53
   1   4  10    4.37    0.56
  -1   4 -10    3.64    0.53
  -1   4 -10    4.86    0.61
   1  -4  10    3.72    0.53
  -1  -4 -10    4.28    0.59
  -1  -4 -10    4.70    0.67
  -1   5   8   -0.14    0.35
   1   5  -8    0.07    0.36
   1   5  -8    0.68    0.24
  -1   5   8    0.27    0.22
  -1  -5   8    0.31    0.31
   1  -5  -8   -0.39    0.33
  -1   5   7    4.27    0.56
  -1   5   7    4.15    0.37
   1   5  -7    4.62    0.40
   1   5  -7    4.67    0.56
  -1  -5   7    4.72    0.52
   1  -5  -7    3.30    0.41
  -1   5   6    0.24    0.21
   1   5  -6    0.05    0.25
   1   5  -6    0.22    0.22
  -1   5   6    0.03    0.17
  -1   5   6    0.34    0.28
   1   5  -6    0.36    0.16
   1  -5  -6    0.48    0.23
  -1  -5   6    0.52    0.28
   1  -5  -6    0.29    0.26
  -1  -5   6    0.11    0.25
  -1   5   5   15.75    0.75
  -1   5   5   15.60    0.56
   1   5  -5   15.12    0.58
   1   5  -5   15.72    0.66
  -1   5   5   15.87    0.57
   1   5  -5   15.56    0.54
   1  -5  -5   16.63    0.73
   1  -5  -5   16.55    0.61
  -1  -5   5   15.04    0.66
  -1  -5   5   15.51    0.72
   1   5  -4    1.04    0.23
   1   5  -4    0.81    0.15
  -1   5   4    0.67    0.23
  -1   5   4    1.02    0.16
  -1   5   4    0.60    0.28
   1   5  -4    0.94    0.19
  -1   5   4    0.57    0.18
   1  -5  -4    0.93    0.20
  -1  -5   4    0.70    0.20
   1  -5  -4    0.55    0.22
  -1  -5   4    0.71    0.21
   1   5  -3   15.83    0.51
   1   5  -3   15.70    0.56
   1   5  -3   15.91    0.50
  -1   5   3   15.43    0.66
  -1   5   3   15.60    0.52
  -1   5   3   15.04    0.51
  -1   5   3   16.43    0.70
  -1  -5   3   15.96    0.59
  -1  -5   3   12.64    0.70
  -1  -5   3   15.79    0.42
  -1  -5   3   15.63    0.42
  -1  -5   3   15.57    0.52
   1  -5  -3   16.18    0.75
  -1  -5   3   15.52    0.65
   1  -5  -3   16.29    0.55
   1  -5  -3   16.16    0.65
  -1   5   2    2.42    0.29
  -1   5   2    2.45    0.22
  -1   5   2    2.28    0.25
   1   5  -2    2.47    0.20
   1   5  -2    2.99    0.23
  -1  -5   2    2.73    0.25
  -1  -5   2    2.47    0.34
  -1  -5   2    2.55    0.22
  -1  -5   2    2.67    0.24
   1  -5  -2    2.31    0.34
  -1  -5   2    2.90    0.37
   1  -5  -2    2.35    0.28
   1  -5  -2    1.96    0.27
  -1  -5   2    2.90    0.29
   1   5  -1   19.06    0.53
  -1   5   1   19.47    0.57
   1   5  -1   18.31    0.52
  -1   5   1   19.15    0.57
  -1  -5   1   19.34    0.72
  -1  -5   1   18.26    0.59
  -1  -5   1   17.76    0.73
   1  -5  -1   18.67    0.65
   1  -5  -1   18.79    0.74
  -1  -5   1   18.72    0.57
   1   5   0    3.22    0.20
  -1   5   0    3.20    0.26
  -1   5   0    2.86    0.23
   1   5   0    2.93    0.22
  -1  -5   0    3.02    0.37
   1  -5   0    3.56    0.37
  -1  -5   0    2.68    0.24
   1  -5   0    3.46    0.28
  -1  -5   0    3.31    0.23
  -1  -5   0    3.19    0.30
  -1   5  -1   21.17    0.62
   1   5   1   20.62    0.56
   1   5   1   20.91    0.56
  -1   5  -1   21.25    0.62
  -1  -5  -1   21.71    0.70
   1  -5   1   20.24    0.62
   1  -5   1   20.89    0.62
  -1  -5  -1   20.80    0.80
   1  -5   1   21.63    0.76
   1   5   2    3.65    0.22
  -1   5  -2    3.59    0.30
  -1   5  -2    3.78    0.25
   1   5   2    3.85    0.23
  -1   5  -2    3.30    0.25
   1  -5   2    3.28    0.28
   1  -5   2    2.90    0.26
  -1  -5  -2    3.27    0.35
   1  -5   2    2.82    0.33
  -1  -5  -2    3.95    0.43
   1  -5   2    3.99    0.39
   1  -5   2    3.78    0.24
   1   5   3    2.94    0.22
  -1   5  -3    2.89    0.31
   1   5   3    2.99    0.23
  -1   5  -3    3.01    0.24
  -1   5  -3    2.67    0.30
  -1  -5  -3    2.15    0.33
  -1  -5  -3    3.18    0.27
   1  -5   3    2.91    0.36
   1  -5   3    2.20    0.30
  -1  -5  -3    3.26    0.38
  -1   5  -4    6.96    0.43
   1   5   4    6.58    0.51
  -1   5  -4    7.57    0.37
   1   5   4    7.33    0.35
   1   5   4    7.08    0.33
  -1   5  -4    7.48    0.43
   1  -5   4    6.87    0.43
  -1  -5  -4    7.00    0.49
  -1  -5  -4    7.26    0.37
   1  -5   4    7.32    0.51
   1   5   5   -0.08    0.24
   1   5   5    0.22    0.14
  -1   5  -5    0.54    0.16
  -1   5  -5    0.01    0.22
   1   5   5   -0.02    0.15
  -1   5  -5    0.21    0.20
  -1  -5  -5   -0.03    0.22
  -1  -5  -5    0.30    0.19
   1  -5   5    0.08    0.24
   1  -5   5    0.14    0.23
  -1   5  -6    0.70    0.22
   1   5   6    0.76    0.18
   1   5   6    0.33    0.19
  -1   5  -6    0.57    0.31
   1   5   6    0.95    0.32
  -1   5  -6    0.47    0.24
  -1  -5  -6    0.64    0.28
  -1  -5  -6    0.56    0.18
   1  -5   6    0.02    0.29
  -1  -5  -6    0.11    0.22
   1  -5   6    0.75    0.30
   1   5   7    0.06    0.29
   1   5   7    0.24    0.24
  -1   5  -7   -0.06    0.21
  -1   5  -7   -0.13    0.33
   1   5   7   -0.08    0.17
  -1  -5  -7    0.11    0.29
  -1  -5  -7    0.28    0.22
   1  -5   7   -0.42    0.26
  -1   5  -8    0.09    0.26
  -1   5  -8    0.52    0.40
   1   5   8    0.18    0.21
   1   5   8    0.43    0.40
   1  -5   8    0.23    0.34
  -1  -5  -8    0.40    0.32
  -1   6   6    6.53    0.52
  -1   6   6    5.48    0.76
   1   6  -6    7.53    0.58
   1   6  -6    6.19    0.69
  -1  -6   6    7.89    0.89
   1  -6  -6    5.73    0.78
   1   6  -5    1.34    0.36
  -1   6   5    1.59    0.25
   1   6  -5    1.69    0.25
  -1   6   5    1.18    0.37
   1  -6  -5    1.28    0.42
  -1  -6   5    2.26    0.43
   1   6  -4    0.00    0.23
  -1   6   4    0.37    0.23
   1   6  -4    0.14    0.18
  -1   6   4    0.30    0.19
  -1  -6   4    0.72    0.30
   1  -6  -4    0.11    0.32
  -1   6   3   11.68    0.49
   1   6  -3   11.69    0.46
   1   6  -3   12.29    0.49
  -1   6   3   11.20    0.47
   1  -6  -3   11.26    0.67
  -1  -6   3   11.34    0.66
  -1   6   2    7.26    0.41
   1   6  -2    6.87    0.34
   1   6  -2    7.47    0.37
  -1   6   2    6.64    0.37
   1  -6  -2    8.32    0.56
  -1  -6   2    7.18    0.58
  -1  -6   2    7.12    0.40
  -1  -6   2    7.10    0.49
  -1   6   1    4.06    0.36
  -1   6   1    4.66    0.32
   1   6  -1    5.12    0.31
   1   6  -1    4.87    0.28
  -1  -6   1    6.00    0.52
  -1  -6   1    4.64    0.44
  -1  -6   1    4.52    0.36
   1  -6  -1    5.19    0.49
  -1  -6   1    4.93    0.40
  -1   6   0   35.34    0.95
  -1   6   0   36.06    0.96
   1  -6   0   36.51    1.03
  -1  -6   0   36.43    1.18
  -1  -6   0   36.44    1.05
  -1   6  -1    0.00    0.15
  -1   6  -1    0.22    0.20
  -1  -6  -1    0.11    0.24
   1  -6   1   -0.02    0.22
   1  -6   1    0.46    0.26
  -1   6  -2    1.33    0.20
  -1   6  -2    1.15    0.25
  -1  -6  -2    1.47    0.30
   1  -6   2    0.93    0.20
   1  -6   2    0.51    0.28
  -1   6  -3    2.83    0.41
  -1   6  -3    2.32    0.26
   1  -6   3    2.64    0.38
  -1  -6  -3    2.45    0.38
  -1   6  -4    2.23    0.32
  -1   6  -4    3.32    0.35
   1  -6   4    2.37    0.40
  -1  -6  -4    3.22    0.43
  -1   6  -5    1.36    0.24
   1   6   5    0.63    0.19
  -1   6  -5    0.50    0.35
   1   6   5    1.14    0.24
   1  -6   5    0.92    0.39
  -1  -6  -5    0.22    0.36
   2   0 -13   -0.02    0.36
  -2   0  13    0.07    0.35
   2   0 -13   -0.40    0.45
   2   0 -13   -0.09    0.34
  -2   0  12   50.25    1.78
   2   0 -12   46.66    1.33
   2   0 -12   47.27    1.51
  -2   0  12   48.65    1.46
   2   0 -12   47.56    1.43
   2   0 -11   -0.31    0.20
  -2   0  11    0.26    0.24
   2   0 -11    0.15    0.23
   2   0 -11    0.41    0.26
  -2   0  11    0.23    0.27
   2   0 -10   30.37    1.01
   2   0 -10   31.11    0.90
  -2   0  10   31.34    0.97
   2   0 -10   29.25    0.95
   2   0 -10   30.66    0.96
  -2   0  10   29.78    1.00
  -2   0  10   32.39    0.99
  -2   0  10   30.50    0.91
  -2   0   9    0.01    0.15
   2   0  -9   -0.06    0.14
  -2   0   9    0.02    0.15
   2   0  -9    0.02    0.15
  -2   0   9    0.25    0.18
  -2   0   9   -0.03    0.12
   2   0  -9   -0.21    0.14
   2   0  -9    0.01    0.15
  -2   0   8   57.91    1.48
  -2   0   8   58.76    1.46
  -2   0   8   58.43    1.46
   2   0  -8   59.07    1.41
  -2   0   8   57.90    1.41
   2   0  -8   59.56    1.50
   2   0  -8   58.01    1.45
   2   0  -8   57.48    1.45
   2   0  -7    0.02    0.09
   2   0  -7    0.16    0.09
  -2   0   7    0.01    0.10
  -2   0   7    0.00    0.09
  -2   0   7    0.01    0.09
   2   0  -7   -0.03    0.10
  -2   0   7   -0.01    0.08
   2   0  -7    0.05    0.09
   2   0  -6   78.01    1.73
   2   0  -6   75.80    1.79
   2   0  -6   77.96    1.77
  -2   0   6   79.62    1.74
  -2   0   6   77.17    1.77
   2   0  -6   73.12    1.76
  -2   0   6   78.91    1.79
  -2   0   6   75.59    1.76
  -2   0   5    0.04    0.06
  -2   0   5    0.03    0.06
   2   0  -5    0.03    0.06
   2   0  -5   -0.07    0.05
  -2   0   5    0.02    0.06
   2   0  -5    0.02    0.06
   2   0  -5   -0.01    0.07
  -2   0   5   -0.06    0.06
  -2   0   4   33.12    0.79
   2   0  -4   32.62    0.80
   2   0  -4   32.71    0.80
   2   0  -4   33.61    0.82
  -2   0   4   34.78    0.82
  -2   0   4   31.87    0.80
   2   0  -4   33.87    0.79
   2   0  -3   -0.02    0.04
   2   0  -3   -0.03    0.04
  -2   0   3    0.03    0.05
  -2   0   3    0.04    0.04
   2   0  -3   -0.02    0.05
   2   0  -3   -0.02    0.04
  -2   0   3   -0.04    0.04
  -2   0   3   -0.03    0.04
  -2   0   2  913.49   18.75
  -2   0   2  887.87   18.65
   2   0  -2  902.57   18.61
   2   0  -2  859.32   18.63
   2   0  -2  928.93   18.67
   2   0  -2  908.58   18.76
  -2   0   2  858.26   18.62
  -2   0   2  905.65   18.63
   2   0  -1   -0.01    0.02
  -2   0   1   -0.01    0.02
   2   0  -1    0.01    0.02
  -2   0   1    0.00    0.03
   2   0  -1    0.04    0.03
  -2   0   1   -0.01    0.02
   2   0  -1   -0.03    0.02
  -2   0   1    0.02    0.02
  -2   0   0   62.82    1.33
   2   0   0   65.57    1.32
  -2   0   0   66.13    1.40
  -2   0   0   59.52    1.32
   2   0   0   63.19    1.33
  -2   0   0   60.75    1.32
   2   0   0   61.47    1.32
   2   0   1    0.00    0.03
  -2   0  -1   -0.02    0.03
   2   0   1   -0.03    0.03
  -2   0  -1   -0.01    0.03
   2   0   1   -0.01    0.02
  -2   0  -1   -0.02    0.02
   2   0   1    0.01    0.03
  -2   0  -1    0.02    0.02
  -2   0  -2    3.05    0.14
   2   0   2    3.47    0.12
  -2   0  -2    3.03    0.12
   2   0   2    2.82    0.13
   2   0   2    2.81    0.14
  -2   0  -3    0.02    0.05
  -2   0  -3   -0.05    0.04
  -2   0  -3    0.01    0.05
   2   0   3   -0.06    0.05
   2   0   3   -0.06    0.04
  -2   0  -3   -0.08    0.04
   2   0   3   -0.01    0.04
  -2   0  -4    4.85    0.23
   2   0   4    4.90    0.22
  -2   0  -4    4.99    0.20
   2   0   4    4.88    0.20
   2   0   4    5.07    0.23
  -2   0  -4    4.83    0.21
   2   0   5   -0.03    0.04
  -2   0  -5   -0.11    0.07
   2   0   5    0.00    0.06
  -2   0  -5   -0.07    0.07
   2   0   5   -0.06    0.07
  -2   0  -5    0.02    0.07
  -2   0  -5    0.07    0.08
   2   0   6   10.82    0.41
  -2   0  -6   10.95    0.38
  -2   0  -6   10.61    0.39
   2   0   6   10.95    0.39
   2   0   6   10.85    0.40
  -2   0  -6   10.76    0.42
  -2   0  -6   10.55    0.40
  -2   0  -7   -0.08    0.09
  -2   0  -7   -0.09    0.09
   2   0   7   -0.07    0.10
  -2   0  -7   -0.06    0.09
   2   0   7    0.06    0.09
  -2   0  -7    0.10    0.12
   2   0   7   -0.10    0.08
   2   0   8    4.79    0.31
  -2   0  -8    4.30    0.30
  -2   0  -8    4.17    0.32
  -2   0  -8    3.67    0.30
  -2   0  -8    3.84    0.31
   2   0   8    4.64    0.31
   2   0   8    4.62    0.33
   2   0   9   -0.09    0.13
   2   0   9    0.02    0.17
  -2   0  -9   -0.18    0.17
  -2   0  -9   -0.02    0.14
  -2   0  -9    0.01    0.16
   2   0   9   -0.02    0.16
  -2   0  -9    0.08    0.15
  -2   0 -10   11.33    0.60
   2   0  10   11.11    0.54
  -2   0 -10   11.56    0.53
  -2   0 -10   11.67    0.57
  -2   0 -10   10.81    0.56
   2   0  10   11.26    0.60
   2   0  11    0.03    0.24
   2   0  11    0.40    0.27
  -2   0 -11    0.42    0.26
  -2   0 -11    0.16    0.26
  -2   0 -11   -0.12    0.24
  -2   0 -12    0.51    0.32
   2   0  12    0.50    0.32
  -2   0 -12    0.05    0.38
  -2   0 -12    0.29    0.36
   2   1 -13    1.06    0.39
   2   1 -13    1.37    0.52
  -2   1  13    1.61    0.46
  -2  -1  13    1.12    0.39
   2  -1 -13    1.02    0.42
   2  -1 -13    2.53    0.51
  -2   1  12   -0.06    0.30
   2   1 -12    0.20    0.34
   2   1 -12   -0.07    0.24
   2   1 -12   -0.05    0.36
   2  -1 -12    0.33    0.29
  -2  -1  12    0.55    0.34
   2  -1 -12   -0.42    0.31
   2  -1 -12   -0.05    0.35
  -2  -1  12    0.00    0.27
  -2   1  11   22.09    0.87
   2   1 -11   21.75    0.73
  -2   1  11   23.85    0.88
   2   1 -11   23.37    0.85
   2   1 -11   24.46    0.95
  -2  -1  11   22.62    0.85
   2  -1 -11   22.27    0.85
  -2  -1  11   23.49    0.91
   2  -1 -11   22.44    0.90
   2  -1 -11   24.54    0.89
  -2   1  10    2.51    0.34
   2   1 -10    1.83    0.27
  -2   1  10    2.19    0.30
   2   1 -10    2.12    0.31
   2   1 -10    2.83    0.38
   2   1 -10    2.43    0.34
  -2   1  10    2.11    0.33
  -2   1  10    1.46    0.26
  -2  -1  10    2.35    0.32
  -2  -1  10    2.05    0.32
   2  -1 -10    1.96    0.28
  -2  -1  10    2.27    0.29
   2  -1 -10    2.15    0.29
   2  -1 -10    2.45    0.31
   2  -1 -10    2.08    0.29
  -2  -1  10    3.05    0.36
   2   1  -9    2.31    0.23
   2   1  -9    2.47    0.29
  -2   1   9    2.46    0.32
  -2   1   9    2.52    0.28
   2   1  -9    2.40    0.29
  -2   1   9    2.52    0.28
  -2   1   9    1.75    0.24
   2   1  -9    2.49    0.31
   2  -1  -9    2.56    0.31
  -2  -1   9    1.80    0.27
  -2  -1   9    1.86    0.26
   2  -1  -9    2.73    0.30
  -2  -1   9    2.11    0.23
   2  -1  -9    2.72    0.30
  -2  -1   9    2.49    0.31
   2  -1  -9    2.87    0.33
  -2   1   8    0.88    0.19
   2   1  -8    1.03    0.14
   2   1  -8    1.17    0.19
   2   1  -8    1.05    0.19
  -2   1   8    0.67    0.17
  -2   1   8    0.98    0.18
  -2   1   8    0.70    0.15
   2   1  -8    0.96    0.17
   2  -1  -8    1.08    0.18
   2  -1  -8    1.03    0.17
   2  -1  -8    1.14    0.19
  -2  -1   8    0.94    0.15
   2  -1  -8    0.99    0.18
  -2  -1   8    1.01    0.16
  -2  -1   8    0.67    0.16
  -2  -1   8    0.55    0.13
   2   1  -7   12.36    0.44
   2   1  -7   11.93    0.48
  -2   1   7   11.96    0.46
  -2   1   7   11.64    0.45
  -2   1   7   11.54    0.45
   2   1  -7   11.57    0.37
   2   1  -7   12.00    0.44
  -2   1   7   11.79    0.45
  -2  -1   7   11.44    0.46
  -2  -1   7   11.55    0.44
   2  -1  -7   11.74    0.44
   2  -1  -7   10.96    0.42
   2  -1  -7   12.30    0.46
  -2  -1   7   11.35    0.37
   2  -1  -7   11.40    0.45
  -2  -1   7   11.63    0.44
  -2   1   6    3.65    0.22
  -2   1   6    3.54    0.22
   2   1  -6    3.56    0.21
   2   1  -6    3.64    0.24
  -2   1   6    3.79    0.23
   2   1  -6    3.65    0.22
   2   1  -6    3.95    0.18
  -2   1   6    3.37    0.23
  -2  -1   6    3.34    0.18
  -2  -1   6    3.43    0.22
   2  -1  -6    3.42    0.22
  -2  -1   6    3.42    0.23
  -2  -1   6    3.47    0.22
   2  -1  -6    3.34    0.22
   2  -1  -6    3.52    0.24
   2  -1  -6    3.54    0.21
  -2   1   5    5.33    0.25
   2   1  -5    5.13    0.19
   2   1  -5    4.96    0.23
   2   1  -5    5.18    0.26
  -2   1   5    5.08    0.23
  -2   1   5    4.69    0.23
   2   1  -5    5.36    0.24
  -2   1   5    5.26    0.25
   2  -1  -5    5.04    0.24
  -2  -1   5    4.79    0.19
   2  -1  -5    5.30    0.25
   2  -1  -5    5.01    0.23
   2  -1  -5    4.88    0.23
  -2  -1   5    4.75    0.24
  -2  -1   5    4.70    0.22
  -2  -1   5    5.25    0.25
  -2   1   4   41.85    1.01
  -2   1   4   41.82    1.00
  -2   1   4   40.74    0.96
   2   1  -4   42.72    0.91
  -2   1   4   41.63    0.98
   2   1  -4   43.06    1.00
   2   1  -4   41.59    0.97
  -2  -1   4   41.63    0.97
   2  -1  -4   41.72    0.97
   2  -1  -4   35.63    0.96
   2  -1  -4   41.38    0.99
   2  -1  -4   41.73    1.00
  -2  -1   4   42.32    1.00
  -2  -1   4   41.82    1.01
  -2  -1   4   42.36    0.92
   2   1  -3  553.41   11.70
   2   1  -3  548.49   11.63
  -2   1   3  547.79   11.70
   2   1  -3  603.25   11.81
  -2   1   3  545.90   11.58
  -2   1   3  549.31   11.75
   2  -1  -3  555.16   11.69
  -2  -1   3  547.56   11.47
   2  -1  -3  538.86   11.75
  -2  -1   3  555.93   11.65
  -2  -1   3  536.54   11.69
  -2  -1   3  547.36   11.63
   2  -1  -3  547.84   11.61
   2  -1  -3  557.43   11.73
   2   1  -2  833.90   17.37
   2   1  -2  827.07   17.03
  -2   1   2  830.77   17.26
   2   1  -2  830.90   17.32
   2   1  -2  808.46   17.13
  -2   1   2  819.28   17.28
  -2   1   2  840.68   17.08
  -2   1   2  799.92   17.38
   2  -1  -2  847.23   17.34
  -2  -1   2  826.73   17.15
   2  -1  -2  826.19   17.24
  -2  -1   2  818.52   17.31
  -2  -1   2  816.57   17.38
   2  -1  -2  833.39   17.10
  -2  -1   2  838.81   17.02
   2  -1  -2  800.06   17.32
  -2   1   1   44.80    1.03
   2   1  -1   47.57    1.03
  -2   1   1   45.85    1.02
  -2   1   1   45.88    1.03
   2   1  -1   47.25    0.98
  -2   1   1   46.66    1.04
   2  -1  -1   48.11    1.03
   2  -1  -1   47.48    1.02
  -2  -1   1   46.65    1.00
   2  -1  -1   47.11    1.03
   2  -1  -1   46.10    1.04
  -2  -1   1   47.43    1.03
  -2  -1   1   46.24    1.03
  -2  -1   1   45.68    0.98
  -2   1   0   19.76    0.45
  -2   1   0   19.64    0.48
  -2   1   0   20.92    0.49
  -2   1   0   20.04    0.47
  -2   1   0   20.12    0.49
   2  -1   0   19.44    0.49
  -2  -1   0   20.00    0.49
   2  -1   0   19.87    0.49
   2  -1   0   20.00    0.44
   2  -1   0   20.24    0.48
   2  -1   0   21.05    0.47
  -2  -1   0   20.44    0.48
   2   1   1    0.00    0.03
   2   1   1    0.06    0.05
  -2   1  -1    0.05    0.03
   2   1   1    0.04    0.03
  -2   1  -1    0.06    0.04
  -2   1  -1   -0.02    0.03
  -2   1  -1    0.02    0.04
  -2  -1  -1   -0.04    0.04
   2  -1   1    0.01    0.04
  -2  -1  -1    0.00    0.04
   2  -1   1    0.07    0.04
   2  -1   1    0.05    0.03
   2  -1   1    0.06    0.04
  -2  -1  -1   -0.01    0.04
  -2  -1  -1    0.02    0.02
   2   1   2   34.47    0.80
  -2   1  -2   33.94    0.74
  -2   1  -2   34.65    0.81
  -2   1  -2   33.80    0.79
   2   1   2   33.94    0.77
   2   1   2   34.45    0.79
   2  -1   2   35.04    0.75
  -2  -1  -2   35.72    0.82
  -2  -1  -2   34.47    0.77
   2  -1   2   34.86    0.80
   2  -1   2   34.19    0.79
  -2  -1  -2   33.98    0.79
   2  -1   2   33.11    0.81
  -2  -1  -2   34.38    0.80
  -2   1  -3    1.82    0.14
  -2   1  -3    1.69    0.09
  -2   1  -3    1.74    0.12
  -2   1  -3    1.47    0.12
   2   1   3    1.86    0.12
   2   1   3    1.73    0.13
  -2  -1  -3    1.84    0.13
  -2  -1  -3    1.74    0.14
  -2  -1  -3    1.76    0.12
  -2  -1  -3    1.95    0.12
   2  -1   3    1.72    0.13
   2  -1   3    1.76    0.12
   2  -1   3    1.78    0.13
  -2   1  -4   62.73    1.38
  -2   1  -4   64.42    1.39
   2   1   4   64.97    1.46
  -2   1  -4   63.18    1.45
   2   1   4   64.99    1.46
  -2   1  -4   62.99    1.47
   2  -1   4   65.38    1.45
   2  -1   4   65.39    1.48
  -2  -1  -4   64.66    1.44
  -2  -1  -4   65.35    1.47
   2  -1   4   62.28    1.47
  -2  -1  -4   62.26    1.43
   2   1   5    7.76    0.30
   2   1   5    7.74    0.32
  -2   1  -5    7.93    0.26
  -2   1  -5    7.51    0.30
  -2   1  -5    8.06    0.34
   2   1   5    8.25    0.32
  -2   1  -5    8.15    0.26
  -2  -1  -5    8.24    0.33
   2  -1   5    7.99    0.33
  -2  -1  -5    8.01    0.31
   2  -1   5    8.31    0.33
  -2  -1  -5    7.94    0.33
   2  -1   5    7.91    0.31
  -2  -1  -5    8.28    0.30
  -2   1  -6    0.91    0.13
   2   1   6    0.83    0.13
  -2   1  -6    0.55    0.13
   2   1   6    0.61    0.12
  -2   1  -6    0.61    0.10
  -2   1  -6    0.49    0.12
   2   1   6    0.65    0.13
  -2   1  -6    0.37    0.11
   2  -1   6    0.41    0.10
  -2  -1  -6    0.74    0.12
  -2  -1  -6    0.73    0.15
  -2  -1  -6    0.54    0.13
   2  -1   6    0.57    0.12
  -2  -1  -6    0.71    0.13
   2  -1   6    0.58    0.11
  -2   1  -7   12.06    0.40
   2   1   7   12.49    0.47
   2   1   7   12.95    0.47
  -2   1  -7   11.86    0.46
   2   1   7   12.62    0.50
  -2   1  -7   11.94    0.48
  -2   1  -7   12.79    0.41
  -2   1  -7   12.32    0.51
   2  -1   7   12.52    0.49
   2  -1   7   12.75    0.49
   2  -1   7   12.52    0.46
  -2  -1  -7   12.50    0.46
  -2  -1  -7   13.24    0.48
  -2  -1  -7   11.85    0.49
  -2  -1  -7   12.85    0.47
   2   1   8   13.31    0.55
   2   1   8   12.84    0.51
  -2   1  -8   13.57    0.45
   2   1   8   13.84    0.53
  -2   1  -8   12.78    0.56
  -2   1  -8   12.78    0.52
  -2   1  -8   13.35    0.55
  -2   1  -8   13.15    0.45
   2  -1   8   14.43    0.53
   2  -1   8   13.91    0.55
  -2  -1  -8   13.08    0.55
  -2  -1  -8   13.49    0.52
  -2  -1  -8   13.38    0.54
   2  -1   8   13.17    0.55
  -2  -1  -8   13.76    0.53
  -2   1  -9    2.84    0.34
   2   1   9    3.39    0.35
  -2   1  -9    3.22    0.27
   2   1   9    3.00    0.32
  -2   1  -9    3.10    0.28
  -2   1  -9    2.88    0.36
  -2   1  -9    3.04    0.33
   2   1   9    2.98    0.38
  -2  -1  -9    2.32    0.34
  -2  -1  -9    2.85    0.32
   2  -1   9    2.87    0.36
  -2  -1  -9    2.44    0.31
  -2  -1  -9    2.66    0.34
   2  -1   9    3.22    0.35
   2  -1   9    2.71    0.30
  -2   1 -10    1.41    0.23
  -2   1 -10    1.25    0.22
  -2   1 -10    1.42    0.30
   2   1  10    1.60    0.29
  -2   1 -10    1.12    0.30
   2   1  10    1.59    0.28
  -2   1 -10    1.39    0.27
  -2  -1 -10    1.46    0.29
   2  -1  10    1.61    0.33
   2  -1  10    1.37    0.26
  -2  -1 -10    0.78    0.28
  -2  -1 -10    1.10    0.25
  -2  -1 -10    1.00    0.25
  -2   1 -11    4.28    0.54
   2   1  11    4.08    0.53
  -2   1 -11    4.55    0.42
  -2   1 -11    4.30    0.53
  -2   1 -11    3.79    0.46
  -2  -1 -11    4.43    0.54
   2  -1  11    5.21    0.47
  -2  -1 -11    5.25    0.52
   2  -1  11    4.55    0.58
  -2  -1 -11    5.34    0.50
  -2   1 -12    6.69    0.68
  -2   1 -12    4.94    0.51
  -2   1 -12    5.75    0.70
   2   1  12    4.61    0.63
  -2  -1 -12    4.84    0.66
   2  -1  12    4.60    0.60
  -2  -1 -12    4.91    0.63
  -2   2  12    1.38    0.36
   2   2 -12    1.50    0.42
   2   2 -12    0.82    0.39
  -2  -2  12    1.51    0.36
   2  -2 -12    1.67    0.42
   2  -2 -12    1.42    0.43
   2   2 -11   -0.04    0.28
  -2   2  11    0.03    0.38
  -2   2  11    0.29    0.27
   2   2 -11   -0.11    0.16
   2   2 -11   -0.03    0.25
  -2  -2  11    0.94    0.37
   2  -2 -11    0.31    0.29
   2  -2 -11    0.29    0.27
  -2  -2  11    0.31    0.25
   2  -2 -11    1.03    0.32
   2   2 -10   19.43    0.75
  -2   2  10   19.43    0.77
  -2   2  10   19.04    0.75
   2   2 -10   19.38    0.82
  -2   2  10   18.77    0.77
   2   2 -10   18.70    0.53
  -2  -2  10   18.56    0.78
   2  -2 -10   18.97    0.74
   2  -2 -10   19.42    0.77
  -2  -2  10   19.78    0.74
   2  -2 -10   20.67    0.76
  -2   2   9    3.13    0.35
  -2   2   9    2.62    0.35
  -2   2   9    2.58    0.38
  -2   2   9    2.43    0.35
   2   2  -9    2.31    0.30
   2   2  -9    2.96    0.20
   2   2  -9    2.59    0.35
   2   2  -9    3.14    0.31
   2  -2  -9    3.21    0.35
  -2  -2   9    3.22    0.34
   2  -2  -9    2.62    0.35
   2  -2  -9    2.55    0.35
   2  -2  -9    3.10    0.33
  -2  -2   9    2.56    0.37
  -2  -2   9    2.43    0.32
   2   2  -8    6.89    0.39
   2   2  -8    6.99    0.24
   2   2  -8    7.78    0.39
  -2   2   8    7.16    0.39
  -2   2   8    6.94    0.42
  -2   2   8    7.09    0.42
   2   2  -8    6.96    0.44
  -2   2   8    7.27    0.39
   2  -2  -8    7.63    0.40
   2  -2  -8    6.90    0.41
   2  -2  -8    7.53    0.39
  -2  -2   8    7.96    0.39
   2  -2  -8    7.30    0.39
  -2  -2   8    6.47    0.39
  -2  -2   8    7.33    0.41
  -2   2   7    0.43    0.13
   2   2  -7    0.31    0.16
  -2   2   7    0.55    0.14
   2   2  -7    0.51    0.07
  -2   2   7    0.55    0.15
  -2   2   7    0.39    0.13
   2   2  -7    0.50    0.15
   2   2  -7    0.63    0.14
   2  -2  -7    0.56    0.14
  -2  -2   7    0.43    0.07
   2  -2  -7    0.54    0.14
   2  -2  -7    0.43    0.13
  -2  -2   7    0.61    0.15
  -2  -2   7    0.54    0.13
  -2  -2   7    0.35    0.11
   2  -2  -7    0.53    0.12
  -2   2   6    3.67    0.27
   2   2  -6    3.81    0.23
  -2   2   6    3.33    0.25
  -2   2   6    3.61    0.23
   2   2  -6    3.42    0.24
   2   2  -6    3.77    0.28
  -2   2   6    3.45    0.24
   2  -2  -6    3.66    0.24
  -2  -2   6    3.77    0.25
  -2  -2   6    3.89    0.23
   2  -2  -6    3.63    0.24
  -2  -2   6    4.11    0.26
   2  -2  -6    3.83    0.27
   2  -2  -6    4.00    0.23
   2   2  -5    1.48    0.18
  -2   2   5    1.72    0.15
   2   2  -5    1.63    0.16
   2   2  -5    1.72    0.15
  -2   2   5    1.49    0.16
  -2   2   5    2.00    0.19
  -2   2   5    1.38    0.17
   2  -2  -5    1.72    0.16
   2  -2  -5    1.87    0.17
   2  -2  -5    1.83    0.20
   2  -2  -5    1.67    0.15
  -2  -2   5    1.84    0.19
  -2  -2   5    1.66    0.18
  -2  -2   5    1.80    0.14
  -2   2   4  113.93    2.51
  -2   2   4  112.26    2.40
  -2   2   4  110.72    2.53
   2   2  -4  115.27    2.51
   2   2  -4  113.11    2.51
  -2   2   4  114.93    2.46
   2   2  -4  112.64    2.44
   2  -2  -4  109.48    2.41
   2  -2  -4  114.51    2.51
  -2  -2   4  113.92    2.45
  -2  -2   4  114.31    2.51
  -2  -2   4  114.09    2.51
   2  -2  -4  111.82    2.51
   2  -2  -4  114.74    2.46
  -2   2   3  117.24    2.63
   2   2  -3  120.61    2.61
   2   2  -3  118.98    2.60
  -2   2   3  118.53    2.49
   2   2  -3  117.70    2.54
  -2   2   3  121.86    2.61
  -2  -2   3  120.91    2.61
  -2  -2   3  120.47    2.47
  -2  -2   3  117.41    2.60
   2  -2  -3  117.33    2.56
   2  -2  -3  123.01    2.50
  -2  -2   3  119.63    2.54
   2  -2  -3  118.12    2.60
   2  -2  -3  119.62    2.62
   2   2  -2   11.27    0.36
  -2   2   2   11.31    0.36
   2   2  -2   11.90    0.31
  -2   2   2   11.84    0.36
  -2   2   2   11.74    0.40
  -2  -2   2   11.72    0.36
   2  -2  -2   11.52    0.34
  -2  -2   2   11.47    0.31
   2  -2  -2   11.84    0.37
  -2  -2   2   12.06    0.38
   2  -2  -2   11.35    0.38
  -2  -2   2   11.90    0.29
  -2   2   1    4.91    0.20
   2   2  -1    4.86    0.14
  -2   2   1    5.00    0.23
  -2   2   1    4.93    0.20
   2   2  -1    4.94    0.20
   2   2  -1    4.79    0.14
  -2  -2   1    4.88    0.21
   2  -2  -1    4.84    0.20
  -2  -2   1    4.90    0.14
   2  -2  -1    4.72    0.19
   2  -2  -1    4.65    0.22
   2  -2  -1    4.89    0.19
  -2  -2   1    4.85    0.17
  -2  -2   1    4.91    0.20
  -2  -2   1    4.92    0.18
  -2   2   0    5.65    0.24
  -2   2   0    5.31    0.21
  -2   2   0    5.42    0.20
  -2  -2   0    5.54    0.21
   2  -2   0    5.31    0.20
   2  -2   0    5.26    0.19
  -2  -2   0    5.41    0.20
   2  -2   0    5.20    0.23
   2  -2   0    5.21    0.20
  -2  -2   0    5.24    0.23
  -2   2  -1   50.69    1.13
   2   2   1   51.00    1.09
  -2   2  -1   52.41    1.17
   2   2   1   52.50    1.21
  -2   2  -1   50.94    1.11
   2  -2   1   50.57    1.20
   2  -2   1   51.32    1.11
  -2  -2  -1   51.22    1.14
   2  -2   1   50.89    1.17
  -2  -2  -1   52.79    1.18
   2  -2   1   50.88    1.12
  -2  -2  -1   49.77    1.19
  -2  -2  -1   50.90    1.08
   2   2   2   44.94    0.97
  -2   2  -2   42.69    1.03
  -2   2  -2   44.18    0.94
   2   2   2   44.29    1.00
  -2   2  -2   44.03    1.02
  -2   2  -2   43.85    1.03
   2   2   2   44.00    1.06
   2  -2   2   43.33    1.01
  -2  -2  -2   44.84    1.06
   2  -2   2   44.06    1.05
  -2  -2  -2   44.61    0.97
  -2  -2  -2   44.96    1.01
   2  -2   2   43.31    0.94
   2  -2   2   41.94    1.03
  -2  -2  -2   43.49    1.05
   2   2   3   26.92    0.64
  -2   2  -3   26.27    0.69
  -2   2  -3   25.91    0.69
   2   2   3   26.26    0.71
   2   2   3   26.03    0.66
  -2  -2  -3   27.30    0.64
   2  -2   3   25.46    0.69
  -2  -2  -3   26.69    0.67
   2  -2   3   25.82    0.69
   2  -2   3   26.12    0.68
  -2  -2  -3   26.92    0.70
  -2   2  -4    2.40    0.18
   2   2   4    2.57    0.18
  -2   2  -4    2.38    0.18
   2   2   4    2.56    0.16
   2   2   4    2.42    0.20
  -2   2  -4    2.85    0.20
  -2  -2  -4    2.38    0.16
  -2  -2  -4    2.38    0.17
   2  -2   4    2.32    0.18
   2  -2   4    2.39    0.19
   2  -2   4    2.40    0.19
  -2  -2  -4    2.36    0.18
  -2  -2  -4    2.13    0.20
   2   2   5    0.25    0.09
  -2   2  -5    0.23    0.11
   2   2   5    0.37    0.10
  -2   2  -5    0.15    0.11
   2   2   5    0.22    0.08
  -2   2  -5    0.17    0.07
   2  -2   5    0.24    0.09
  -2  -2  -5    0.14    0.10
   2  -2   5    0.20    0.10
  -2  -2  -5    0.22    0.09
   2  -2   5    0.25    0.09
  -2  -2  -5    0.26    0.09
  -2  -2  -5    0.10    0.09
  -2   2  -6    7.11    0.35
   2   2   6    7.23    0.37
  -2   2  -6    7.61    0.36
   2   2   6    7.99    0.36
  -2   2  -6    7.67    0.38
  -2  -2  -6    7.86    0.36
  -2  -2  -6    7.95    0.39
   2  -2   6    7.70    0.37
  -2  -2  -6    7.74    0.33
   2  -2   6    7.61    0.36
  -2  -2  -6    7.88    0.35
   2  -2   6    8.01    0.36
  -2   2  -7   18.53    0.64
  -2   2  -7   17.96    0.46
   2   2   7   19.37    0.64
   2   2   7   17.83    0.65
  -2   2  -7   19.32    0.69
  -2   2  -7   18.16    0.63
  -2   2  -7   18.90    0.47
   2  -2   7   18.52    0.64
  -2  -2  -7   18.40    0.66
  -2  -2  -7   19.56    0.63
   2  -2   7   19.87    0.64
   2  -2   7   18.75    0.66
  -2  -2  -7   19.27    0.64
  -2  -2  -7   18.92    0.60
   2   2   8   10.65    0.47
  -2   2  -8   10.88    0.51
  -2   2  -8   11.12    0.55
   2   2   8   11.44    0.53
   2   2   8   11.65    0.53
  -2   2  -8   11.82    0.52
  -2   2  -8   11.06    0.34
  -2   2  -8   11.09    0.33
  -2  -2  -8   11.37    0.52
  -2  -2  -8   12.16    0.54
   2  -2   8   11.06    0.55
  -2  -2  -8   10.34    0.48
   2  -2   8   11.34    0.52
   2  -2   8   11.92    0.52
  -2  -2  -8   11.23    0.49
  -2   2  -9    0.65    0.25
   2   2   9    0.45    0.25
   2   2   9    0.59    0.21
  -2   2  -9    0.07    0.21
   2   2   9    0.24    0.18
  -2   2  -9    0.41    0.23
  -2   2  -9    0.62    0.14
  -2   2  -9    0.55    0.13
  -2  -2  -9    0.35    0.19
  -2  -2  -9    0.24    0.21
  -2  -2  -9    0.14    0.19
  -2  -2  -9    0.38    0.24
   2  -2   9    0.77    0.20
   2  -2   9   -0.36    0.27
   2  -2   9    0.49    0.20
  -2   2 -10    0.36    0.23
   2   2  10    0.50    0.22
  -2   2 -10    0.46    0.16
  -2   2 -10    0.60    0.16
  -2   2 -10    0.74    0.30
   2   2  10    0.63    0.50
   2   2  10    0.32    0.25
   2  -2  10    0.47    0.28
  -2  -2 -10    0.06    0.25
  -2  -2 -10    0.62    0.27
   2  -2  10    0.63    0.26
  -2  -2 -10    0.50    0.27
  -2   2 -11   -0.07    0.33
   2   2  11   -0.34    0.24
  -2   2 -11    0.55    0.32
   2  -2  11   -0.37    0.35
  -2  -2 -11   -0.11    0.33
  -2  -2 -11    0.04    0.31
   2  -2  11   -0.08    0.25
   2   2  12   30.78    1.18
  -2   2 -12   27.51    1.49
  -2   2 -12   29.41    1.17
  -2  -2 -12   28.02    1.17
   2  -2  12   30.28    1.12
  -2  -2 -12   29.24    1.18
  -2   3  11    0.75    0.46
   2   3 -11    0.14    0.28
  -2   3  11    0.74    0.34
   2   3 -11    0.51    0.38
  -2  -3  11    0.06    0.32
   2  -3 -11    0.54    0.35
   2  -3 -11    0.10    0.34
   2   3 -10    4.11    0.54
  -2   3  10    3.87    0.48
   2   3 -10    3.47    0.42
  -2   3  10    3.74    0.54
   2  -3 -10    3.47    0.48
   2  -3 -10    3.33    0.49
  -2  -3  10    3.04    0.39
   2  -3 -10    3.69    0.45
   2   3  -9    0.04    0.19
   2   3  -9    0.17    0.25
  -2   3   9    0.14    0.19
  -2   3   9    0.43    0.23
  -2   3   9    0.00    0.20
   2  -3  -9    0.50    0.20
  -2  -3   9    0.06    0.22
  -2  -3   9   -0.30    0.24
   2  -3  -9    0.15    0.23
   2  -3  -9    0.12    0.23
  -2   3   8    0.48    0.19
  -2   3   8    0.92    0.20
  -2   3   8    1.06    0.21
   2   3  -8    0.66    0.22
   2   3  -8    0.96    0.20
   2   3  -8    0.32    0.20
  -2   3   8    1.17    0.25
   2  -3  -8    0.95    0.20
   2  -3  -8    1.18    0.21
   2  -3  -8    1.13    0.22
   2  -3  -8    0.80    0.18
  -2  -3   8    0.94    0.22
  -2  -3   8    0.64    0.20
  -2  -3   8    0.95    0.25
   2   3  -7    2.52    0.25
   2   3  -7    2.22    0.29
  -2   3   7    1.37    0.23
  -2   3   7    1.79    0.26
  -2   3   7    2.19    0.26
  -2   3   7    1.95    0.28
   2   3  -7    2.66    0.33
   2  -3  -7    2.07    0.25
   2  -3  -7    2.00    0.25
  -2  -3   7    2.13    0.26
  -2  -3   7    2.11    0.32
   2  -3  -7    2.14    0.28
   2  -3  -7    2.17    0.25
  -2  -3   7    1.59    0.21
   2   3  -6    0.02    0.10
  -2   3   6    0.11    0.13
   2   3  -6    0.11    0.12
  -2   3   6    0.18    0.10
  -2   3   6    0.08    0.14
   2   3  -6    0.25    0.15
  -2  -3   6   -0.04    0.09
   2  -3  -6   -0.01    0.09
   2  -3  -6    0.04    0.10
   2  -3  -6    0.02    0.11
  -2  -3   6    0.16    0.14
   2  -3  -6    0.01    0.12
  -2  -3   6   -0.06    0.11
   2   3  -5   21.10    0.60
  -2   3   5   21.30    0.55
   2   3  -5   22.41    0.70
  -2   3   5   21.54    0.68
  -2   3   5   22.05    0.73
  -2  -3   5   21.63    0.68
  -2  -3   5   21.18    0.61
  -2  -3   5   22.38    0.70
   2  -3  -5   21.42    0.56
   2  -3  -5   21.32    0.69
   2  -3  -5   19.94    0.67
   2  -3  -5   20.54    0.62
  -2   3   4    8.89    0.34
  -2   3   4    8.76    0.35
  -2   3   4    9.26    0.41
   2   3  -4    9.08    0.31
   2   3  -4    9.43    0.39
  -2   3   4    9.15    0.39
  -2  -3   4    8.83    0.32
   2  -3  -4    9.15    0.39
  -2  -3   4    8.00    0.37
   2  -3  -4    8.91    0.34
   2  -3  -4    8.91    0.39
  -2  -3   4    9.05    0.39
   2   3  -3    0.50    0.11
  -2   3   3    0.47    0.11
   2   3  -3    0.55    0.08
  -2   3   3    0.60    0.10
  -2   3   3    0.29    0.09
  -2   3   3    0.50    0.12
  -2  -3   3    0.46    0.06
   2  -3  -3    0.48    0.09
   2  -3  -3    0.65    0.13
  -2  -3   3    0.59    0.07
   2  -3  -3    0.55    0.12
  -2  -3   3    0.55    0.08
  -2  -3   3    0.69    0.13
  -2  -3   3    0.60    0.13
   2   3  -2    0.78    0.13
   2   3  -2    0.79    0.11
  -2   3   2    0.62    0.10
  -2   3   2    1.06    0.13
  -2   3   2    0.90    0.14
  -2   3   2    0.60    0.12
   2   3  -2    0.83    0.09
  -2  -3   2    0.84    0.11
   2  -3  -2    0.65    0.12
  -2  -3   2    0.77    0.11
  -2  -3   2    0.71    0.13
   2  -3  -2    1.05    0.15
  -2  -3   2    0.74    0.12
  -2  -3   2    0.85    0.08
   2  -3  -2    0.88    0.13
   2   3  -1    0.02    0.05
   2   3  -1    0.01    0.07
   2   3  -1    0.01    0.04
  -2   3   1    0.04    0.09
  -2   3   1    0.21    0.08
  -2   3   1    0.07    0.07
  -2   3   1    0.02    0.07
   2  -3  -1    0.13    0.08
   2  -3  -1    0.12    0.08
  -2  -3   1   -0.04    0.07
  -2  -3   1    0.10    0.06
  -2  -3   1    0.06    0.04
   2  -3  -1    0.00    0.06
  -2  -3   1    0.05    0.07
   2  -3  -1    0.06    0.07
  -2   3   0   37.87    0.91
  -2   3   0   39.41    0.92
   2   3   0   40.08    0.84
  -2   3   0   39.08    0.93
   2  -3   0   39.16    0.91
  -2  -3   0   39.32    0.91
   2  -3   0   39.08    0.93
   2  -3   0   33.86    0.99
  -2  -3   0   40.34    0.94
   2  -3   0   32.70    0.91
  -2  -3   0   40.17    1.02
  -2   3  -1   -0.01    0.07
  -2   3  -1   -0.11    0.06
  -2   3  -1    0.01    0.05
  -2   3  -1   -0.09    0.06
   2   3   1    0.06    0.04
   2   3   1   -0.09    0.04
  -2  -3  -1    0.03    0.09
   2  -3   1    0.11    0.06
   2  -3   1   -0.08    0.07
  -2  -3  -1   -0.01    0.08
  -2  -3  -1   -0.01    0.05
   2  -3   1   -0.06    0.05
   2  -3   1    0.01    0.06
  -2  -3  -1   -0.06    0.05
  -2  -3  -1   -0.04    0.06
   2   3   2   40.29    0.90
  -2   3  -2   39.18    0.88
  -2   3  -2   39.02    0.97
  -2   3  -2   39.27    0.98
   2   3   2   39.73    1.05
  -2   3  -2   39.97    0.95
   2   3   2   40.22    0.89
   2  -3   2   39.42    1.05
   2  -3   2   40.04    0.98
  -2  -3  -2   39.07    1.03
  -2  -3  -2   39.64    1.01
   2  -3   2   41.42    1.03
  -2  -3  -2   39.91    0.89
   2  -3   2   39.75    0.95
   2  -3   2   39.37    0.88
  -2  -3  -2   39.34    0.93
   2   3   3    3.63    0.17
  -2   3  -3    3.33    0.20
   2   3   3    3.73    0.26
  -2   3  -3    3.54    0.23
  -2  -3  -3    3.40    0.19
  -2  -3  -3    3.41    0.25
  -2  -3  -3    3.34    0.25
   2  -3   3    3.45    0.24
   2  -3   3    3.16    0.21
  -2  -3  -3    3.36    0.17
   2  -3   3    3.41    0.22
   2   3   4    6.15    0.35
  -2   3  -4    5.99    0.32
   2   3   4    5.59    0.24
  -2   3  -4    5.71    0.28
   2   3   4    5.63    0.26
   2  -3   4    5.75    0.29
   2  -3   4    5.98    0.29
  -2  -3  -4    5.42    0.26
  -2  -3  -4    5.73    0.32
  -2  -3  -4    5.61    0.24
   2  -3   4    5.67    0.31
  -2  -3  -4    5.42    0.33
  -2   3  -5    7.38    0.35
   2   3   5    7.49    0.33
   2   3   5    7.66    0.32
   2   3   5    7.92    0.40
  -2   3  -5    7.48    0.39
   2  -3   5    7.33    0.35
   2  -3   5    7.60    0.38
  -2  -3  -5    7.70    0.39
  -2  -3  -5    7.47    0.33
  -2  -3  -5    7.48    0.31
   2  -3   5    7.12    0.36
  -2  -3  -5    7.17    0.38
  -2   3  -6   41.88    1.13
   2   3   6   41.97    1.18
  -2   3  -6   42.60    1.17
   2   3   6   41.02    1.06
   2   3   6   42.44    1.08
  -2  -3  -6   41.52    1.17
   2  -3   6   42.74    1.15
   2  -3   6   41.03    1.14
  -2  -3  -6   41.27    1.13
   2  -3   6   43.38    1.16
  -2  -3  -6   42.18    1.06
  -2  -3  -6   42.09    1.09
   2   3   7    6.57    0.41
  -2   3  -7    5.90    0.45
  -2   3  -7    6.98    0.40
   2   3   7    6.54    0.35
   2   3   7    6.71    0.45
  -2  -3  -7    6.54    0.35
   2  -3   7    6.43    0.43
  -2  -3  -7    6.31    0.41
   2  -3   7    4.77    0.38
  -2  -3  -7    5.95    0.40
  -2  -3  -7    6.58    0.38
   2  -3   7    5.90    0.42
   2   3   8    4.28    0.44
   2   3   8    2.89    0.30
   2   3   8    3.37    0.42
  -2   3  -8    3.43    0.36
  -2   3  -8    3.55    0.44
  -2   3  -8    3.86    0.45
  -2  -3  -8    3.57    0.36
  -2  -3  -8    3.69    0.40
   2  -3   8    3.40    0.38
  -2  -3  -8    3.81    0.35
   2  -3   8    3.74    0.40
   2  -3   8    3.61    0.41
  -2  -3  -8    3.18    0.40
  -2   3  -9    1.47    0.28
  -2   3  -9    2.23    0.36
   2   3   9    2.14    0.34
   2   3   9    1.37    0.22
   2   3   9    1.67    0.32
   2  -3   9    1.20    0.30
  -2  -3  -9    1.88    0.30
   2  -3   9    1.37    0.32
  -2  -3  -9    1.50    0.27
  -2  -3  -9    1.51    0.28
  -2   3 -10    0.51    0.27
  -2   3 -10    0.47    0.36
   2   3  10    0.05    0.28
   2  -3  10    0.55    0.31
  -2  -3 -10    0.38    0.29
  -2  -3 -10    0.40    0.30
  -2   3 -11    0.14    0.35
  -2   3 -11    0.94    0.42
   2   3  11    0.30    0.36
  -2  -3 -11    0.66    0.39
  -2  -3 -11   -0.13    0.38
   2  -3  11    0.26    0.34
   2   4 -10    8.12    0.77
  -2   4  10    8.81    0.76
   2   4 -10    8.28    0.57
   2  -4 -10    5.44    0.66
   2  -4 -10    7.95    0.61
  -2  -4  10    7.22    0.65
   2   4  -9    0.38    0.32
  -2   4   9   -0.02    0.29
   2   4  -9    0.43    0.23
   2  -4  -9   -0.08    0.26
   2  -4  -9    0.30    0.25
  -2  -4   9   -0.16    0.28
  -2   4   8    2.35    0.37
  -2   4   8    2.00    0.30
   2   4  -8    3.21    0.49
   2   4  -8    2.59    0.33
  -2   4   8    2.25    0.34
   2  -4  -8    1.77    0.31
   2  -4  -8    2.83    0.34
  -2  -4   8    2.92    0.42
   2  -4  -8    2.93    0.39
  -2   4   7    7.40    0.51
  -2   4   7    7.36    0.41
  -2   4   7    6.96    0.33
   2   4  -7    7.64    0.39
   2   4  -7    7.35    0.50
  -2  -4   7    5.86    0.50
   2  -4  -7    6.71    0.49
   2  -4  -7    7.71    0.35
  -2  -4   7    7.72    0.48
   2  -4  -7    7.48    0.46
  -2   4   6    3.04    0.27
   2   4  -6    2.67    0.36
  -2   4   6    3.18    0.30
   2   4  -6    3.29    0.26
  -2   4   6    2.79    0.37
  -2   4   6    2.87    0.39
  -2  -4   6    3.19    0.35
   2  -4  -6    2.91    0.33
  -2  -4   6    3.27    0.26
  -2  -4   6    3.09    0.38
   2  -4  -6    2.95    0.31
   2  -4  -6    3.28    0.37
  -2   4   5   12.64    0.57
  -2   4   5   12.91    0.49
   2   4  -5   12.87    0.44
  -2   4   5   11.99    0.56
   2   4  -5   12.80    0.54
  -2   4   5   12.72    0.48
   2  -4  -5   12.73    0.48
   2  -4  -5   12.38    0.56
  -2  -4   5   13.47    0.55
  -2  -4   5   13.15    0.56
  -2  -4   5   12.78    0.45
   2  -4  -5   13.95    0.57
  -2   4   4   41.57    1.21
   2   4  -4   41.70    1.02
   2   4  -4   42.27    1.12
  -2   4   4   42.09    1.06
  -2   4   4   41.81    1.08
   2   4  -4   41.21    1.03
  -2   4   4   41.36    1.15
  -2  -4   4   42.03    1.04
   2  -4  -4   41.32    1.17
  -2  -4   4   43.58    1.17
  -2  -4   4   43.39    1.13
   2  -4  -4   43.26    1.07
   2  -4  -4   41.13    1.15
   2   4  -3    3.53    0.19
  -2   4   3    2.85    0.29
  -2   4   3    3.56    0.31
   2   4  -3    3.07    0.26
  -2   4   3    3.28    0.24
  -2   4   3    3.22    0.24
   2   4  -3    3.25    0.21
   2  -4  -3    3.33    0.25
  -2  -4   3    3.16    0.26
   2  -4  -3    2.91    0.29
  -2  -4   3    3.43    0.29
  -2  -4   3    3.26    0.19
  -2  -4   3    3.43    0.17
  -2  -4   3    3.32    0.17
  -2  -4   3    3.52    0.29
   2  -4  -3    2.81    0.30
  -2   4   2    0.67    0.12
  -2   4   2    0.59    0.16
   2   4  -2    0.60    0.10
  -2   4   2    0.62    0.12
   2   4  -2    0.82    0.15
   2   4  -2    0.49    0.08
  -2   4   2    0.69    0.17
   2  -4  -2    0.49    0.15
  -2  -4   2    0.48    0.14
  -2  -4   2    0.70    0.11
  -2  -4   2    0.53    0.11
   2  -4  -2    0.55    0.13
  -2  -4   2    0.71    0.15
  -2  -4   2    0.87    0.12
  -2  -4   2    0.53    0.16
   2  -4  -2    0.91    0.16
  -2   4   1   24.25    0.68
   2   4  -1   24.60    0.59
  -2   4   1   24.65    0.67
   2   4  -1   25.83    0.60
  -2   4   1   22.54    0.70
  -2  -4   1   24.76    0.67
  -2  -4   1   25.28    0.69
  -2  -4   1   25.64    0.80
   2  -4  -1   23.14    0.77
  -2  -4   1   24.98    0.61
   2  -4  -1   25.27    0.68
   2  -4  -1   25.93    0.71
  -2   4   0    6.08    0.27
  -2   4   0    5.35    0.27
  -2   4   0    5.36    0.28
   2  -4   0    5.54    0.26
  -2  -4   0    5.23    0.34
  -2  -4   0    5.80    0.26
  -2  -4   0    5.25    0.29
   2  -4   0    5.65    0.28
   2  -4   0    5.52    0.34
  -2   4  -1   -0.13    0.09
   2   4   1   -0.02    0.05
  -2   4  -1    0.07    0.09
  -2   4  -1   -0.04    0.08
  -2  -4  -1    0.10    0.09
  -2  -4  -1   -0.05    0.11
   2  -4   1   -0.03    0.09
  -2  -4  -1   -0.02    0.07
   2  -4   1   -0.12    0.12
   2  -4   1    0.05    0.08
  -2  -4  -1    0.17    0.13
  -2   4  -2    2.18    0.22
  -2   4  -2    2.26    0.20
   2   4   2    2.58    0.15
   2   4   2    2.25    0.14
  -2   4  -2    2.47    0.20
   2  -4   2    2.32    0.28
  -2  -4  -2    2.37    0.17
  -2  -4  -2    2.37    0.19
   2  -4   2    2.41    0.20
   2  -4   2    2.19    0.26
  -2  -4  -2    2.31    0.26
  -2  -4  -2    1.87    0.27
  -2  -4  -2    2.34    0.18
   2  -4   2    2.36    0.16
   2  -4   2    2.22    0.19
   2   4   3    0.10    0.14
   2   4   3    0.00    0.07
   2   4   3    0.04    0.09
  -2   4  -3    0.02    0.08
  -2   4  -3    0.01    0.12
  -2   4  -3    0.22    0.12
   2  -4   3    0.00    0.12
  -2  -4  -3   -0.03    0.14
  -2  -4  -3   -0.06    0.15
  -2  -4  -3    0.25    0.11
   2  -4   3    0.20    0.10
   2  -4   3   -0.02    0.10
  -2  -4  -3   -0.02    0.09
   2  -4   3    0.03    0.16
  -2  -4  -3   -0.04    0.08
  -2   4  -4   24.27    0.73
  -2   4  -4   24.44    0.73
   2   4   4   24.19    0.64
  -2   4  -4   24.92    0.75
   2   4   4   24.28    0.82
   2   4   4   22.01    0.64
   2  -4   4   23.74    0.73
  -2  -4  -4   24.17    0.80
   2  -4   4   23.27    0.72
  -2  -4  -4   24.23    0.64
   2  -4   4   24.53    0.80
   2  -4   4   23.33    0.81
  -2  -4  -4   24.71    0.67
  -2  -4  -4   24.55    0.81
   2   4   5   10.08    0.37
  -2   4  -5    9.98    0.43
  -2   4  -5    9.39    0.48
   2   4   5   10.09    0.38
  -2  -4  -5    9.03    0.49
   2  -4   5    9.08    0.45
  -2  -4  -5    9.93    0.53
  -2  -4  -5    9.93    0.40
  -2  -4  -5    9.54    0.39
   2  -4   5   10.45    0.52
   2  -4   5    9.58    0.47
  -2   4  -6   22.74    0.81
  -2   4  -6   23.56    0.76
   2   4   6   23.10    0.68
   2   4   6   23.18    0.85
  -2  -4  -6   22.88    0.82
   2  -4   6   22.49    0.79
   2  -4   6   22.75    0.82
   2  -4   6   20.96    0.77
  -2  -4  -6   23.22    0.69
  -2  -4  -6   22.71    0.84
  -2  -4  -6   22.97    0.70
  -2   4  -7    1.35    0.28
   2   4   7    1.89    0.33
  -2   4  -7    1.51    0.31
   2   4   7    1.66    0.26
   2   4   7    1.71    0.24
   2  -4   7    1.85    0.32
  -2  -4  -7    1.59    0.25
   2  -4   7    1.49    0.28
  -2  -4  -7    1.19    0.23
  -2  -4  -7    1.25    0.29
  -2  -4  -7    1.45    0.34
   2   4   8    2.45    0.34
   2   4   8    2.82    0.39
   2   4   8    2.35    0.28
  -2   4  -8    2.87    0.42
  -2   4  -8    2.25    0.29
  -2  -4  -8    2.60    0.33
   2  -4   8    2.28    0.36
  -2  -4  -8    2.30    0.35
  -2  -4  -8    3.33    0.41
  -2   4  -9    3.18    0.48
  -2   4  -9    3.46    0.49
   2   4   9    3.15    0.45
   2  -4   9    3.81    0.47
  -2  -4  -9    3.27    0.39
  -2  -4  -9    4.59    0.55
  -2   4 -10    5.12    0.65
   2   4  10    4.31    0.55
  -2   4 -10    3.61    0.56
  -2  -4 -10    3.28    0.47
   2  -4  10    3.54    0.54
  -2  -4 -10    5.37    0.72
  -2   5   9    8.97    0.78
  -2   5   9   11.35    1.01
  -2   5   8    2.65    0.44
  -2   5   8    1.74    0.30
   2   5  -8    1.73    0.28
   2   5  -8    1.71    0.43
  -2  -5   8    1.95    0.34
   2  -5  -8    1.11    0.36
  -2   5   7    3.45    0.45
   2   5  -7    3.90    0.35
  -2   5   7    3.46    0.37
   2   5  -7    3.22    0.42
   2   5  -7    4.58    0.63
   2  -5  -7    3.32    0.43
  -2  -5   7    3.00    0.39
   2   5  -6    0.08    0.21
   2   5  -6    0.53    0.29
  -2   5   6    0.40    0.21
  -2   5   6    0.07    0.25
  -2   5   6    0.06    0.18
   2   5  -6    0.24    0.16
   2  -5  -6    0.37    0.25
   2  -5  -6    0.37    0.24
  -2  -5   6    0.15    0.30
  -2  -5   6    0.10    0.28
   2   5  -5    2.48    0.33
   2   5  -5    2.76    0.33
  -2   5   5    3.56    0.30
   2   5  -5    2.48    0.26
  -2   5   5    2.55    0.33
  -2   5   5    2.93    0.41
   2  -5  -5    2.83    0.39
  -2  -5   5    2.73    0.35
   2  -5  -5    3.46    0.45
  -2  -5   5    2.38    0.33
   2   5  -4    0.54    0.16
  -2   5   4    0.11    0.20
  -2   5   4    0.41    0.25
  -2   5   4    0.35    0.18
   2   5  -4    0.62    0.12
   2   5  -4    0.21    0.20
  -2   5   4    0.54    0.15
   2  -5  -4    0.58    0.23
  -2  -5   4    0.74    0.25
  -2  -5   4    0.44    0.21
   2  -5  -4    0.53    0.19
  -2   5   3    0.01    0.12
  -2   5   3   -0.11    0.21
   2   5  -3   -0.11    0.12
  -2   5   3    0.12    0.17
  -2   5   3    0.08    0.15
   2   5  -3    0.13    0.10
   2   5  -3   -0.06    0.15
   2  -5  -3    0.09    0.17
   2  -5  -3    0.06    0.19
  -2  -5   3    0.60    0.25
   2  -5  -3   -0.41    0.28
  -2  -5   3    0.20    0.11
  -2  -5   3    0.11    0.19
  -2  -5   3    0.04    0.11
  -2  -5   3    0.26    0.12
  -2  -5   3    0.01    0.18
   2   5  -2   28.74    0.71
  -2   5   2   28.05    0.79
   2   5  -2   28.90    0.71
  -2   5   2   28.08    0.79
  -2   5   2   27.10    0.87
  -2  -5   2   27.50    0.72
  -2  -5   2   28.86    0.76
  -2  -5   2   28.08    0.75
  -2  -5   2   27.27    0.96
   2  -5  -2   27.07    0.94
   2  -5  -2   28.73    0.87
  -2  -5   2   27.60    0.82
  -2  -5   2   29.31    0.94
   2  -5  -2   29.31    0.81
  -2   5   1   23.24    0.73
  -2   5   1   23.27    0.68
  -2   5   1   23.19    0.68
   2  -5  -1   21.85    0.82
  -2  -5   1   23.65    0.69
  -2  -5   1   23.55    0.81
  -2  -5   1   22.67    0.69
  -2  -5   1   22.70    0.84
   2  -5  -1   23.93    0.74
  -2  -5   1   23.58    0.69
  -2   5   0    0.20    0.15
  -2   5   0    0.09    0.16
  -2   5   0    0.38    0.12
  -2  -5   0    0.09    0.13
  -2  -5   0    0.14    0.15
   2  -5   0    0.41    0.19
   2  -5   0    0.46    0.16
  -2  -5   0    0.03    0.19
  -2  -5   0    0.01    0.14
  -2   5  -1    1.99    0.27
  -2   5  -1    1.41    0.20
   2  -5   1    1.12    0.23
   2  -5   1    1.41    0.18
  -2  -5  -1    1.40    0.20
  -2  -5  -1    1.18    0.20
  -2  -5  -1    1.61    0.29
  -2  -5  -1    1.85    0.24
   2  -5   1    1.72    0.20
  -2   5  -2    0.50    0.14
  -2   5  -2    0.68    0.13
  -2   5  -2    0.65    0.19
   2  -5   2    0.48    0.15
  -2  -5  -2    0.53    0.16
   2  -5   2    0.22    0.24
  -2  -5  -2    0.57    0.19
  -2  -5  -2    0.17    0.24
   2  -5   2    0.67    0.13
   2  -5   2    0.58    0.21
   2  -5   2    0.56    0.15
  -2  -5  -2    0.51    0.12
  -2   5  -3    5.55    0.36
  -2   5  -3    5.22    0.31
  -2   5  -3    5.78    0.39
   2  -5   3    5.38    0.35
  -2  -5  -3    5.55    0.29
  -2  -5  -3    5.62    0.30
  -2  -5  -3    4.41    0.48
  -2  -5  -3    5.14    0.43
  -2  -5  -3    5.59    0.29
   2  -5   3    5.70    0.43
   2   5   4    0.75    0.13
   2   5   4    0.98    0.15
  -2   5  -4    0.45    0.20
  -2   5  -4    0.99    0.23
  -2   5  -4    0.60    0.16
   2   5   4    0.84    0.23
  -2  -5  -4    0.74    0.17
   2  -5   4    1.10    0.26
  -2  -5  -4    0.60    0.25
  -2  -5  -4    0.57    0.17
  -2  -5  -4    0.69    0.16
   2  -5   4    0.84    0.21
  -2   5  -5    0.40    0.24
   2   5   5    0.55    0.17
  -2   5  -5    0.27    0.20
  -2   5  -5    0.57    0.26
   2   5   5    0.58    0.24
   2   5   5    0.46    0.14
   2  -5   5    0.34    0.28
  -2  -5  -5    0.71    0.18
   2  -5   5    0.30    0.24
  -2  -5  -5    0.21    0.19
  -2  -5  -5    0.21    0.24
  -2  -5  -5    0.36    0.18
  -2   5  -6    2.43    0.38
   2   5   6    2.41    0.29
   2   5   6    2.65    0.40
   2   5   6    2.45    0.34
  -2   5  -6    2.50    0.33
  -2  -5  -6    2.59    0.36
  -2  -5  -6    2.89    0.38
   2  -5   6    1.90    0.37
  -2  -5  -6    2.67    0.39
   2  -5   6    2.54    0.39
   2   5   7    7.73    0.66
   2   5   7    7.86    0.47
  -2   5  -7    6.49    0.53
   2   5   7    6.48    0.41
  -2   5  -7    7.97    0.69
   2  -5   7    7.31    0.62
  -2  -5  -7    7.37    0.65
  -2  -5  -7    6.91    0.49
  -2   5  -8    0.96    0.44
   2   5   8    0.90    0.23
  -2   5  -8    0.83    0.31
   2   5   8    1.18    0.38
  -2  -5  -8    0.71    0.39
   2  -5   8    0.76    0.35
   2   6  -6    0.12    0.22
  -2   6   6   -0.26    0.37
   2   6  -6    0.36    0.38
  -2   6   6    1.09    0.28
  -2  -6   6   -0.35    0.39
   2  -6  -6    0.57    0.45
   2   6  -5    3.77    0.36
   2   6  -5    3.01    0.40
  -2   6   5    3.05    0.45
  -2   6   5    2.76    0.31
   2   6  -5    3.01    0.31
  -2  -6   5    3.43    0.45
   2  -6  -5    4.49    0.65
  -2   6   4   -0.20    0.25
   2   6  -4    0.00    0.21
  -2   6   4   -0.10    0.17
   2   6  -4    0.15    0.16
   2  -6  -4   -0.02    0.29
  -2  -6   4   -0.06    0.28
  -2   6   3    9.75    0.45
  -2   6   3    9.69    0.49
   2   6  -3    9.23    0.39
  -2  -6   3   10.89    0.67
  -2  -6   3   10.42    0.48
  -2  -6   3    8.49    0.65
   2  -6  -3   10.07    0.66
  -2   6   2    1.75    0.26
  -2   6   2    1.64    0.22
   2  -6  -2    1.33    0.31
  -2  -6   2    2.28    0.33
  -2  -6   2    1.57    0.33
  -2  -6   2    2.44    0.32
  -2   6   1    1.03    0.24
  -2   6   1    1.22    0.19
  -2  -6   1    1.63    0.25
  -2  -6   1    1.12    0.25
   2  -6  -1    1.14    0.28
  -2  -6   1    0.86    0.29
  -2  -6   1    0.92    0.22
  -2  -6   1    0.85    0.27
  -2   6   0    3.46    0.32
  -2   6   0    4.21    0.40
  -2  -6   0    4.03    0.52
   2  -6   0    2.97    0.42
  -2  -6   0    4.05    0.46
  -2  -6   0    3.26    0.44
  -2  -6   0    4.37    0.49
  -2   6  -1    0.11    0.15
  -2   6  -1   -0.02    0.20
   2  -6   1    0.51    0.30
   2  -6   1    0.13    0.20
  -2  -6  -1    0.33    0.28
  -2   6  -2    2.23    0.28
  -2   6  -2    2.82    0.32
   2  -6   2    2.48    0.30
   2  -6   2    1.97    0.35
  -2  -6  -2    2.81    0.38
  -2   6  -3    8.22    0.45
   2  -6   3    8.29    0.63
  -2  -6  -3    9.25    0.64
  -2   6  -4    0.70    0.23
   2  -6   4    0.94    0.33
  -2  -6  -4    0.40    0.34
  -2   6  -5   16.37    0.68
  -2  -6  -5   17.49    0.93
   2  -6   5   17.81    0.96
   3   0 -13    0.24    0.34
   3   0 -13    0.16    0.43
   3   0 -13    0.61    0.40
  -3   0  13    0.07    0.35
   3   0 -12   31.65    1.17
  -3   0  12   27.89    1.02
  -3   0  12   31.07    1.13
   3   0 -12   29.51    0.98
  -3   0  12   30.59    1.07
   3   0 -12   31.13    1.07
  -3   0  11   -0.08    0.25
  -3   0  11   -0.17    0.22
   3   0 -11    0.25    0.27
  -3   0  11    0.16    0.20
   3   0 -11    0.08    0.22
   3   0 -11   -0.14    0.23
   3   0 -10    0.64    0.19
  -3   0  10    0.98    0.22
   3   0 -10    0.85    0.21
  -3   0  10    0.94    0.22
  -3   0  10    0.77    0.22
   3   0 -10    1.08    0.26
   3   0 -10    1.17    0.22
  -3   0  10    0.72    0.21
   3   0  -9    0.01    0.16
   3   0  -9   -0.17    0.14
  -3   0   9   -0.25    0.14
   3   0  -9   -0.04    0.14
  -3   0   9    0.13    0.17
  -3   0   9    0.07    0.15
  -3   0   9    0.06    0.12
   3   0  -9   -0.09    0.13
   3   0  -8   19.84    0.64
  -3   0   8   20.30    0.66
  -3   0   8   19.39    0.66
   3   0  -8   19.96    0.69
  -3   0   8   20.68    0.63
  -3   0   8   20.14    0.65
   3   0  -8   19.75    0.65
   3   0  -8   20.40    0.62
  -3   0   7    0.00    0.09
   3   0  -7    0.01    0.10
  -3   0   7   -0.02    0.09
   3   0  -7    0.01    0.10
   3   0  -7   -0.05    0.08
  -3   0   7   -0.07    0.08
  -3   0   7   -0.01    0.10
   3   0  -7    0.01    0.09
  -3   0   6    7.28    0.32
  -3   0   6    7.51    0.30
   3   0  -6    8.16    0.32
   3   0  -6    7.19    0.31
   3   0  -6    8.27    0.35
  -3   0   6    6.95    0.31
   3   0  -6    8.28    0.31
  -3   0   6    7.79    0.32
  -3   0   5    0.04    0.06
   3   0  -5    0.03    0.07
  -3   0   5    0.10    0.06
   3   0  -5    0.05    0.07
   3   0  -5    0.04    0.06
   3   0  -5    0.06    0.07
  -3   0   5    0.02    0.06
  -3   0   5    0.00    0.06
  -3   0   4   74.20    1.61
   3   0  -4   71.57    1.61
   3   0  -4   71.78    1.62
  -3   0   4   71.91    1.61
   3   0  -4   74.03    1.64
  -3   0   4   74.44    1.63
   3   0  -4   72.30    1.60
  -3   0   4   72.30    1.63
   3   0  -3    0.01    0.05
  -3   0   3   -0.09    0.04
   3   0  -3   -0.04    0.04
  -3   0   3   -0.02    0.04
   3   0  -3   -0.03    0.04
  -3   0   3    0.02    0.04
  -3   0   3   -0.04    0.04
   3   0  -3   -0.02    0.04
  -3   0   2   85.56    1.78
  -3   0   2   82.63    1.78
  -3   0   2   84.38    1.78
   3   0  -2   82.25    1.78
  -3   0   2   83.11    1.79
   3   0  -2   83.66    1.78
   3   0  -2   85.23    1.78
   3   0  -2   82.80    1.79
   3   0  -1   -0.08    0.03
   3   0  -1   -0.04    0.03
   3   0  -1   -0.01    0.03
  -3   0   1   -0.08    0.03
  -3   0   1   -0.05    0.03
  -3   0   1   -0.06    0.02
  -3   0   1   -0.06    0.03
   3   0  -1   -0.09    0.04
  -3   0   1   -0.08    0.02
  -3   0   0    3.66    0.13
  -3   0   0    3.56    0.13
   3   0   0    3.58    0.13
  -3   0   0    3.73    0.14
   3   0   0    3.69    0.13
   3   0   1   -0.13    0.04
  -3   0  -1   -0.15    0.04
   3   0   1   -0.18    0.04
  -3   0  -1   -0.14    0.02
  -3   0  -1   -0.14    0.03
   3   0   1   -0.16    0.02
  -3   0  -1   -0.20    0.04
   3   0   2   47.42    1.12
  -3   0  -2   52.57    1.17
  -3   0  -2   53.20    1.13
  -3   0  -2   54.21    1.19
   3   0   2   53.99    1.18
   3   0   2   54.54    1.19
  -3   0  -2   53.99    1.17
  -3   0  -3   -0.01    0.04
   3   0   3    0.00    0.05
  -3   0  -3   -0.01    0.04
   3   0   3   -0.01    0.05
   3   0   3   -0.03    0.04
  -3   0  -3   -0.02    0.04
  -3   0  -3    0.07    0.06
   3   0   4  118.59    2.48
  -3   0  -4  119.30    2.51
   3   0   4  116.29    2.54
  -3   0  -4  104.98    2.51
  -3   0  -4  117.53    2.48
  -3   0  -4  117.79    2.55
   3   0   4  116.96    2.52
  -3   0  -5    0.01    0.08
  -3   0  -5   -0.05    0.08
   3   0   5    0.02    0.06
  -3   0  -5   -0.07    0.06
  -3   0  -5   -0.05    0.07
   3   0   5   -0.01    0.06
   3   0   5   -0.02    0.06
  -3   0  -6   31.35    0.87
  -3   0  -6   32.61    0.85
   3   0   6   33.05    0.84
  -3   0  -6   32.76    0.84
   3   0   6   31.69    0.87
  -3   0  -6   31.96    0.90
   3   0   6   32.62    0.89
   3   0   7    0.08    0.10
  -3   0  -7    0.14    0.12
   3   0   7   -0.11    0.11
   3   0   7   -0.04    0.09
  -3   0  -7   -0.26    0.10
  -3   0  -7    0.01    0.10
  -3   0  -7   -0.04    0.11
   3   0   8   13.73    0.55
  -3   0  -8   14.42    0.52
   3   0   8   14.48    0.53
  -3   0  -8   13.23    0.57
   3   0   8   13.59    0.55
  -3   0  -8   14.68    0.54
  -3   0  -8   13.96    0.54
  -3   0  -9   -0.15    0.17
  -3   0  -9   -0.08    0.19
  -3   0  -9   -0.22    0.15
  -3   0  -9   -0.06    0.15
   3   0   9   -0.06    0.15
   3   0   9   -0.18    0.14
   3   0   9    0.13    0.18
  -3   0 -10   21.20    0.76
  -3   0 -10   19.59    0.73
  -3   0 -10   19.49    0.80
   3   0  10   20.03    0.75
   3   0  10   18.84    0.78
  -3   0 -10   19.60    0.78
   3   0  11    0.07    0.27
  -3   0 -11   -0.15    0.24
  -3   0 -11   -0.09    0.26
  -3   0 -11    0.34    0.29
  -3   0 -11    0.31    0.27
   3   0  12    1.91    0.38
  -3   0 -12    1.28    0.35
  -3   0 -12    1.94    0.45
   3   1 -13   17.85    0.98
   3   1 -13   17.05    0.90
  -3   1  13   16.96    0.94
  -3  -1  13   18.19    0.91
   3  -1 -13   17.62    1.00
   3  -1 -13   17.15    0.91
  -3   1  12    7.81    0.63
   3   1 -12    8.25    0.60
   3   1 -12    7.34    0.66
   3   1 -12    8.15    0.51
   3  -1 -12    6.69    0.58
   3  -1 -12    7.86    0.65
  -3  -1  12    9.20    0.59
  -3  -1  12    9.06    0.73
   3  -1 -12    8.99    0.72
   3   1 -11    2.42    0.32
  -3   1  11    2.22    0.33
  -3   1  11    3.38    0.41
  -3   1  11    3.97    0.41
   3   1 -11    3.11    0.40
   3   1 -11    3.43    0.36
   3  -1 -11    3.48    0.45
   3  -1 -11    3.46    0.47
   3  -1 -11    4.00    0.51
  -3  -1  11    2.66    0.38
  -3  -1  11    3.15    0.38
  -3  -1  11    3.76    0.50
  -3   1  10   30.29    0.97
   3   1 -10   29.89    1.01
  -3   1  10   29.23    0.95
  -3   1  10   30.75    0.98
   3   1 -10   31.68    0.96
  -3   1  10   31.02    0.99
   3   1 -10   30.62    0.83
   3   1 -10   27.96    0.94
   3  -1 -10   31.96    0.98
  -3  -1  10   30.14    0.86
   3  -1 -10   30.78    0.99
   3  -1 -10   31.21    0.94
  -3  -1  10   29.96    0.95
   3  -1 -10   28.69    0.94
  -3  -1  10   31.20    0.98
  -3  -1  10   27.85    0.96
  -3   1   9    6.00    0.38
   3   1  -9    6.15    0.31
  -3   1   9    6.15    0.41
  -3   1   9    5.22    0.38
   3   1  -9    6.50    0.43
   3   1  -9    6.27    0.38
   3   1  -9    5.95    0.36
  -3   1   9    6.25    0.40
   3  -1  -9    6.25    0.39
  -3  -1   9    5.37    0.37
   3  -1  -9    6.23    0.41
  -3  -1   9    6.62    0.33
   3  -1  -9    5.87    0.37
  -3  -1   9    6.10    0.39
   3  -1  -9    6.17    0.40
  -3  -1   9    6.40    0.38
  -3   1   8    5.22    0.34
   3   1  -8    5.34    0.32
  -3   1   8    5.36    0.34
   3   1  -8    5.49    0.31
  -3   1   8    5.28    0.33
   3   1  -8    5.73    0.27
   3   1  -8    4.93    0.36
  -3   1   8    5.01    0.33
  -3  -1   8    5.21    0.32
   3  -1  -8    5.12    0.33
  -3  -1   8    5.57    0.29
   3  -1  -8    5.91    0.35
   3  -1  -8    5.33    0.34
   3  -1  -8    5.34    0.32
  -3  -1   8    5.17    0.32
  -3  -1   8    5.29    0.33
   3   1  -7    9.70    0.44
  -3   1   7    9.71    0.41
   3   1  -7   10.17    0.41
  -3   1   7    9.58    0.39
  -3   1   7   10.13    0.42
  -3   1   7    9.78    0.42
   3   1  -7    9.33    0.33
   3   1  -7   10.03    0.39
  -3  -1   7    9.88    0.40
  -3  -1   7    9.69    0.35
   3  -1  -7    9.78    0.41
  -3  -1   7    9.82    0.40
   3  -1  -7    9.72    0.40
  -3  -1   7   10.12    0.42
   3  -1  -7    9.77    0.39
   3  -1  -7   10.17    0.41
  -3   1   6   10.20    0.37
   3   1  -6    9.73    0.37
   3   1  -6   10.04    0.38
  -3   1   6   10.40    0.40
   3   1  -6   10.09    0.31
   3   1  -6   10.14    0.41
  -3   1   6    9.66    0.38
   3  -1  -6    9.83    0.39
  -3  -1   6    9.78    0.39
  -3  -1   6   10.02    0.33
  -3  -1   6   10.14    0.37
   3  -1  -6   10.30    0.38
  -3  -1   6    9.99    0.38
   3  -1  -6   10.19    0.38
   3  -1  -6    9.43    0.36
  -3   1   5   39.98    0.98
  -3   1   5   39.05    0.96
   3   1  -5   39.49    0.99
  -3   1   5   39.11    0.99
   3   1  -5   39.71    0.96
   3   1  -5   38.81    1.01
   3   1  -5   40.81    0.90
  -3   1   5   39.80    0.99
   3  -1  -5   39.08    0.97
  -3  -1   5   39.29    0.99
   3  -1  -5   40.78    0.99
  -3  -1   5   39.61    0.96
   3  -1  -5   39.32    0.97
  -3  -1   5   39.95    0.91
  -3  -1   5   39.49    1.01
   3  -1  -5   39.07    0.98
   3   1  -4  285.89    5.97
   3   1  -4  284.21    5.89
   3   1  -4  282.60    5.91
  -3   1   4  282.64    5.85
   3   1  -4  292.26    5.83
  -3   1   4  274.01    5.87
  -3   1   4  264.79    5.89
  -3  -1   4  280.68    5.91
   3  -1  -4  273.62    5.88
   3  -1  -4  285.01    6.07
  -3  -1   4  295.21    5.87
   3  -1  -4  271.66    5.87
   3  -1  -4  277.45    5.88
  -3  -1   4  278.24    5.89
  -3  -1   4  290.40    5.93
  -3   1   3   27.70    0.68
  -3   1   3   27.95    0.66
  -3   1   3   27.69    0.70
   3   1  -3   27.71    0.69
   3   1  -3   28.25    0.71
   3   1  -3   28.25    0.66
   3   1  -3   28.45    0.64
  -3  -1   3   27.85    0.66
   3  -1  -3   26.87    0.69
   3  -1  -3   27.90    0.70
   3  -1  -3   27.83    0.66
  -3  -1   3   29.34    0.70
  -3  -1   3   28.25    0.64
  -3  -1   3   27.45    0.71
  -3   1   2   73.92    1.62
  -3   1   2   73.92    1.58
   3   1  -2   77.44    1.59
   3   1  -2   73.69    1.63
  -3   1   2   77.57    1.64
   3   1  -2   74.83    1.64
  -3   1   2   74.46    1.64
  -3   1   2   73.82    1.64
   3   1  -2   74.88    1.59
  -3  -1   2   75.92    1.59
  -3  -1   2   74.92    1.65
   3  -1  -2   75.53    1.63
   3  -1  -2   78.51    1.58
   3  -1  -2   74.51    1.63
   3  -1  -2   72.32    1.63
  -3  -1   2   74.17    1.59
  -3  -1   2   74.35    1.63
  -3   1   1   43.44    0.92
  -3   1   1   43.62    0.97
   3   1  -1   44.44    0.98
  -3   1   1   42.11    0.98
   3   1  -1   43.45    0.96
  -3   1   1   42.77    0.97
  -3   1   1   42.23    0.98
   3   1  -1   44.43    0.96
  -3   1   1   43.81    0.93
   3   1  -1   43.91    0.92
  -3  -1   1   44.53    0.99
   3  -1  -1   44.71    0.97
  -3  -1   1   43.93    0.95
  -3  -1   1   42.76    0.96
  -3  -1   1   43.37    0.92
   3  -1  -1   42.54    0.98
   3  -1  -1   43.07    0.98
   3  -1  -1   41.84    0.97
  -3   1   0   19.72    0.49
  -3   1   0   18.83    0.47
  -3   1   0   18.89    0.46
  -3   1   0   18.58    0.44
  -3   1   0   19.14    0.47
   3  -1   0   19.09    0.46
  -3  -1   0   19.26    0.46
   3  -1   0   18.90    0.47
   3  -1   0   18.98    0.44
   3  -1   0   19.32    0.48
  -3  -1   0   18.83    0.47
  -3   1  -1    5.51    0.20
   3   1   1    5.36    0.19
  -3   1  -1    5.70    0.19
   3   1   1    4.92    0.15
  -3   1  -1    5.51    0.17
  -3   1  -1    5.46    0.21
   3   1   1    5.69    0.19
  -3  -1  -1    5.69    0.21
  -3  -1  -1    5.70    0.20
  -3  -1  -1    5.47    0.18
  -3  -1  -1    5.57    0.16
   3  -1   1    5.43    0.18
   3  -1   1    5.38    0.20
   3  -1   1    5.56    0.17
   3  -1   1    5.51    0.18
  -3   1  -2   18.32    0.48
   3   1   2   18.50    0.46
  -3   1  -2   17.47    0.43
   3   1   2   17.90    0.44
  -3   1  -2   17.36    0.45
   3   1   2   18.27    0.48
   3  -1   2   17.79    0.49
   3  -1   2   17.60    0.47
   3  -1   2   18.00    0.46
   3  -1   2   17.81    0.43
  -3  -1  -2   18.24    0.49
  -3  -1  -2   18.43    0.48
  -3  -1  -2   17.93    0.44
  -3  -1  -2   17.87    0.45
  -3   1  -3   17.69    0.44
   3   1   3   18.31    0.49
  -3   1  -3   18.74    0.52
  -3   1  -3   17.84    0.51
  -3   1  -3   17.78    0.48
   3   1   3   18.50    0.50
   3   1   3   18.00    0.47
  -3  -1  -3   17.99    0.47
   3  -1   3   19.02    0.51
  -3  -1  -3   18.13    0.47
   3  -1   3   17.51    0.51
  -3  -1  -3   18.31    0.51
   3  -1   3   18.02    0.48
  -3  -1  -3   18.80    0.52
   3   1   4   14.33    0.42
  -3   1  -4   14.14    0.38
  -3   1  -4   13.13    0.41
  -3   1  -4   14.35    0.46
  -3   1  -4   13.82    0.44
  -3   1  -4   13.61    0.37
   3   1   4   14.28    0.44
   3  -1   4   13.54    0.44
   3  -1   4   14.25    0.42
  -3  -1  -4   14.77    0.46
  -3  -1  -4   13.75    0.41
  -3  -1  -4   15.06    0.46
   3  -1   4   14.49    0.45
  -3  -1  -4   13.81    0.41
  -3   1  -5   39.93    0.95
  -3   1  -5   41.52    0.96
  -3   1  -5   41.13    1.07
  -3   1  -5   42.46    1.05
   3   1   5   40.73    1.04
  -3   1  -5   41.71    1.01
   3   1   5   41.58    1.02
   3   1   5   40.01    1.01
  -3  -1  -5   41.38    1.05
   3  -1   5   42.97    1.06
  -3  -1  -5   40.33    0.99
   3  -1   5   41.47    1.01
  -3  -1  -5   42.84    1.05
  -3  -1  -5   42.13    1.02
   3  -1   5   40.80    1.05
  -3   1  -6    0.34    0.09
   3   1   6    0.69    0.12
  -3   1  -6    0.55    0.13
   3   1   6    0.54    0.12
  -3   1  -6    0.61    0.11
   3   1   6    0.59    0.14
  -3   1  -6    0.60    0.14
  -3   1  -6    0.47    0.14
   3  -1   6    0.34    0.11
  -3  -1  -6    0.48    0.11
  -3  -1  -6    0.53    0.12
  -3  -1  -6    0.68    0.13
   3  -1   6    0.58    0.13
   3  -1   6    0.50    0.12
  -3  -1  -6    0.54    0.14
  -3   1  -7    1.33    0.22
  -3   1  -7    1.19    0.18
  -3   1  -7    1.42    0.19
   3   1   7    1.10    0.18
  -3   1  -7    1.21    0.18
   3   1   7    1.31    0.18
   3   1   7    1.17    0.15
  -3   1  -7    0.93    0.15
  -3  -1  -7    1.45    0.21
  -3  -1  -7    1.15    0.20
   3  -1   7    1.00    0.17
  -3  -1  -7    1.13    0.19
   3  -1   7    1.26    0.18
   3  -1   7    1.24    0.19
  -3  -1  -7    1.11    0.16
  -3   1  -8    0.26    0.11
   3   1   8    0.73    0.19
  -3   1  -8    0.39    0.13
  -3   1  -8    0.32    0.19
   3   1   8    0.51    0.16
  -3   1  -8    0.26    0.17
   3   1   8    0.60    0.18
  -3  -1  -8    0.45    0.16
  -3  -1  -8    0.42    0.14
  -3  -1  -8    0.42    0.14
   3  -1   8    0.42    0.15
   3  -1   8    0.27    0.15
   3  -1   8    0.52    0.18
  -3  -1  -8    0.53    0.16
  -3   1  -9    4.79    0.42
  -3   1  -9    4.06    0.39
   3   1   9    4.55    0.38
  -3   1  -9    4.88    0.32
  -3   1  -9    4.75    0.38
   3   1   9    5.24    0.40
   3   1   9    4.58    0.44
  -3   1  -9    4.85    0.34
   3  -1   9    4.03    0.38
  -3  -1  -9    4.19    0.40
  -3  -1  -9    5.48    0.40
  -3  -1  -9    4.67    0.38
   3  -1   9    5.01    0.41
   3  -1   9    5.41    0.36
  -3  -1  -9    3.81    0.38
  -3   1 -10   26.62    0.96
   3   1  10   26.10    0.91
  -3   1 -10   25.01    0.78
  -3   1 -10   24.82    0.78
  -3   1 -10   24.12    0.89
   3   1  10   25.38    0.90
  -3   1 -10   25.75    0.92
  -3  -1 -10   23.36    0.86
  -3  -1 -10   25.17    0.92
  -3  -1 -10   26.00    0.88
   3  -1  10   24.02    0.92
  -3  -1 -10   24.97    0.90
   3  -1  10   25.62    0.86
   3   1  11   21.38    0.88
  -3   1 -11   21.99    0.93
  -3   1 -11   22.81    0.94
  -3   1 -11   21.53    0.76
  -3  -1 -11   20.60    0.92
   3  -1  11   21.59    0.86
  -3  -1 -11   21.99    0.87
   3  -1  11   22.98    1.11
  -3  -1 -11   21.64    0.87
   3   1  12    5.34    0.63
  -3   1 -12    7.07    0.72
  -3   1 -12    7.02    0.73
  -3  -1 -12    7.03    0.73
   3  -1  12    7.80    0.66
  -3  -1 -12    7.77    0.71
   3   2 -12    0.52    0.29
  -3   2  12    0.66    0.34
   3   2 -12    0.54    0.34
   3  -2 -12    1.03    0.39
   3  -2 -12    1.06    0.43
  -3  -2  12    0.99    0.31
   3   2 -11    1.90    0.28
  -3   2  11    2.29    0.39
  -3   2  11    1.93    0.38
   3   2 -11    1.62    0.35
   3   2 -11    2.74    0.38
   3  -2 -11    2.51    0.38
   3  -2 -11    1.73    0.33
  -3  -2  11    2.37    0.34
   3  -2 -11    2.19    0.34
   3   2 -10    0.23    0.18
  -3   2  10   -0.01    0.27
  -3   2  10    0.05    0.24
  -3   2  10    0.13    0.21
   3   2 -10   -0.04    0.13
   3   2 -10    0.18    0.21
  -3  -2  10    0.55    0.23
   3  -2 -10    0.14    0.20
   3  -2 -10    0.10    0.21
  -3  -2  10    0.25    0.20
   3  -2 -10    0.09    0.23
  -3   2   9    0.68    0.20
   3   2  -9    0.34    0.20
  -3   2   9    0.74    0.19
  -3   2   9    0.98    0.24
   3   2  -9    0.70    0.17
   3   2  -9    0.60    0.19
   3   2  -9    0.56    0.13
  -3   2   9    1.03    0.23
   3  -2  -9    0.29    0.18
  -3  -2   9    1.18    0.23
  -3  -2   9    0.62    0.13
  -3  -2   9    0.46    0.19
   3  -2  -9    0.54    0.19
   3  -2  -9    0.71    0.22
  -3  -2   9    0.39    0.18
   3  -2  -9    0.49    0.19
  -3   2   8    0.17    0.16
   3   2  -8   -0.16    0.15
  -3   2   8    0.20    0.17
   3   2  -8    0.09    0.08
  -3   2   8    0.10    0.13
   3   2  -8    0.20    0.13
  -3   2   8   -0.10    0.15
   3   2  -8    0.12    0.14
  -3  -2   8    0.22    0.15
  -3  -2   8    0.03    0.14
  -3  -2   8    0.17    0.13
   3  -2  -8    0.22    0.16
   3  -2  -8    0.25    0.16
   3  -2  -8   -0.01    0.14
   3  -2  -8    0.23    0.12
  -3  -2   8    0.02    0.08
  -3   2   7    3.65    0.29
  -3   2   7    4.19    0.28
  -3   2   7    4.06    0.26
   3   2  -7    3.86    0.30
   3   2  -7    4.03    0.27
   3   2  -7    3.86    0.28
  -3   2   7    3.88    0.30
   3   2  -7    4.18    0.17
   3  -2  -7    3.90    0.26
  -3  -2   7    4.18    0.27
   3  -2  -7    3.37    0.29
   3  -2  -7    4.45    0.27
  -3  -2   7    4.09    0.29
  -3  -2   7    3.89    0.19
  -3  -2   7    3.49    0.27
   3  -2  -7    4.02    0.28
   3   2  -6   19.06    0.63
  -3   2   6   18.73    0.54
  -3   2   6   18.86    0.63
   3   2  -6   18.85    0.60
  -3   2   6   18.35    0.59
  -3   2   6   19.09    0.62
   3   2  -6   18.52    0.45
   3   2  -6   18.27    0.56
  -3  -2   6   18.13    0.62
  -3  -2   6   18.23    0.56
   3  -2  -6   19.28    0.58
   3  -2  -6   18.88    0.60
  -3  -2   6   19.00    0.61
   3  -2  -6   19.01    0.61
  -3  -2   6   18.73    0.46
   3  -2  -6   18.51    0.55
   3   2  -5   34.81    0.77
  -3   2   5   35.94    0.96
  -3   2   5   34.41    0.84
   3   2  -5   35.84    0.95
  -3   2   5   35.51    0.94
   3   2  -5   34.17    0.87
  -3   2   5   34.40    0.90
   3   2  -5   34.96    0.92
  -3  -2   5   33.90    0.87
  -3  -2   5   35.96    0.95
  -3  -2   5   35.32    0.78
   3  -2  -5   35.85    0.94
  -3  -2   5   36.02    0.93
   3  -2  -5   34.17    0.92
   3  -2  -5   35.23    0.85
   3  -2  -5   35.06    0.90
   3   2  -4  428.25    8.97
  -3   2   4  430.19    9.06
  -3   2   4  432.95    9.07
  -3   2   4  434.71    9.03
   3   2  -4  434.54    9.07
   3   2  -4  428.21    9.08
   3   2  -4  420.50    8.99
  -3   2   4  440.31    9.22
   3  -2  -4  425.55    9.03
   3  -2  -4  424.60    9.07
  -3  -2   4  431.39    9.07
   3  -2  -4  445.53    9.25
   3  -2  -4  436.60    9.06
  -3  -2   4  447.97    9.00
  -3  -2   4  455.95    9.16
  -3  -2   4  447.31    9.19
  -3   2   3   41.31    1.05
   3   2  -3   41.61    0.95
   3   2  -3   41.76    1.02
  -3   2   3   41.03    1.02
   3   2  -3   42.83    1.03
  -3   2   3   42.61    1.01
  -3   2   3   42.50    0.99
   3  -2  -3   41.08    1.03
   3  -2  -3   40.54    0.99
  -3  -2   3   41.63    0.95
  -3  -2   3   42.40    1.03
  -3  -2   3   41.99    1.03
  -3  -2   3   42.46    0.92
   3  -2  -3   42.36    1.02
  -3   2   2    0.91    0.13
  -3   2   2    0.80    0.11
   3   2  -2    0.74    0.10
   3   2  -2    0.80    0.07
  -3   2   2    0.74    0.11
  -3   2   2    0.70    0.10
  -3  -2   2    0.60    0.09
   3  -2  -2    0.54    0.09
   3  -2  -2    0.82    0.11
  -3  -2   2    0.75    0.08
  -3  -2   2    0.68    0.10
   3  -2  -2    0.62    0.10
  -3  -2   2    0.74    0.06
  -3   2   1   34.89    0.83
  -3   2   1   34.52    0.87
  -3   2   1   33.27    0.86
  -3   2   1   34.48    0.83
   3   2  -1   35.07    0.83
  -3  -2   1   33.40    0.83
  -3  -2   1   34.66    0.80
   3  -2  -1   34.35    0.83
   3  -2  -1   34.07    0.82
   3  -2  -1   34.34    0.86
   3  -2  -1   34.42    0.82
  -3  -2   1   34.93    0.84
  -3   2   0    1.89    0.13
  -3   2   0    1.86    0.09
  -3   2   0    1.75    0.14
  -3   2   0    1.98    0.13
  -3   2   0    1.76    0.12
   3  -2   0    1.77    0.08
   3  -2   0    1.61    0.14
  -3  -2   0    1.90    0.13
  -3  -2   0    1.79    0.14
  -3  -2   0    1.72    0.12
   3  -2   0    1.60    0.12
   3  -2   0    1.98    0.13
   3  -2   0    1.98    0.12
  -3  -2   0    1.67    0.13
  -3   2  -1    1.84    0.14
  -3   2  -1    1.99    0.12
   3   2   1    1.77    0.15
  -3   2  -1    1.91    0.11
  -3   2  -1    1.96    0.14
   3  -2   1    1.98    0.15
  -3  -2  -1    2.12    0.15
  -3  -2  -1    1.83    0.14
   3  -2   1    1.81    0.11
   3  -2   1    1.87    0.13
   3  -2   1    1.95    0.11
  -3  -2  -1    1.85    0.13
  -3   2  -2    1.81    0.14
   3   2   2    1.93    0.16
  -3   2  -2    2.07    0.14
   3   2   2    1.84    0.10
  -3   2  -2    2.12    0.10
  -3   2  -2    1.82    0.15
   3  -2   2    2.23    0.14
   3  -2   2    2.19    0.15
  -3  -2  -2    2.02    0.10
   3  -2   2    1.80    0.14
   3  -2   2    1.93    0.10
  -3  -2  -2    2.10    0.16
  -3  -2  -2    1.77    0.16
  -3  -2  -2    2.09    0.14
   3   2   3   12.52    0.35
   3   2   3   12.41    0.41
   3   2   3   12.62    0.39
  -3   2  -3   12.29    0.31
  -3   2  -3   12.42    0.41
  -3   2  -3   12.43    0.41
   3  -2   3   12.60    0.42
  -3  -2  -3   13.11    0.43
  -3  -2  -3   12.72    0.35
   3  -2   3   12.62    0.32
  -3  -2  -3   12.71    0.41
   3  -2   3   12.52    0.41
   3  -2   3   12.48    0.40
  -3  -2  -3   12.43    0.39
  -3   2  -4    0.19    0.07
   3   2   4    0.16    0.07
  -3   2  -4    0.16    0.05
  -3   2  -4    0.18    0.10
   3   2   4    0.15    0.10
   3   2   4    0.35    0.09
  -3   2  -4    0.22    0.05
  -3  -2  -4    0.36    0.09
   3  -2   4    0.18    0.09
  -3  -2  -4    0.16    0.09
  -3  -2  -4    0.23    0.10
  -3  -2  -4    0.18    0.07
   3  -2   4    0.04    0.09
   3  -2   4    0.14    0.09
   3   2   5   38.75    0.97
  -3   2  -5   38.72    1.01
   3   2   5   39.77    1.03
  -3   2  -5   38.28    0.87
  -3   2  -5   39.42    0.88
   3   2   5   41.42    1.01
  -3   2  -5   40.43    1.06
  -3   2  -5   40.34    1.04
  -3  -2  -5   38.46    1.05
   3  -2   5   38.34    1.04
  -3  -2  -5   39.98    0.97
   3  -2   5   39.56    1.04
  -3  -2  -5   39.25    1.02
   3  -2   5   40.31    1.02
  -3  -2  -5   41.18    1.01
   3   2   6   28.48    0.82
   3   2   6   28.30    0.80
   3   2   6   28.02    0.77
  -3   2  -6   27.88    0.82
  -3   2  -6   27.47    0.80
  -3   2  -6   27.96    0.65
  -3   2  -6   27.91    0.85
  -3   2  -6   28.01    0.66
  -3  -2  -6   28.36    0.82
   3  -2   6   28.26    0.83
   3  -2   6   28.76    0.83
  -3  -2  -6   28.00    0.84
  -3  -2  -6   27.75    0.78
   3  -2   6   28.54    0.80
  -3  -2  -6   28.64    0.77
  -3   2  -7    2.74    0.31
  -3   2  -7    2.21    0.16
  -3   2  -7    2.17    0.16
   3   2   7    2.92    0.31
  -3   2  -7    2.75    0.29
  -3   2  -7    2.41    0.29
   3   2   7    2.74    0.29
   3  -2   7    2.10    0.29
  -3  -2  -7    1.95    0.28
   3  -2   7    1.90    0.26
  -3  -2  -7    1.94    0.23
  -3  -2  -7    2.37    0.25
  -3  -2  -7    2.26    0.27
   3  -2   7    2.04    0.28
   3   2   8    0.14    0.18
   3   2   8    0.29    0.18
  -3   2  -8    0.22    0.11
  -3   2  -8   -0.03    0.17
  -3   2  -8    0.27    0.21
   3   2   8    0.11    0.24
  -3   2  -8    0.18    0.11
  -3   2  -8    0.31    0.17
  -3  -2  -8    0.36    0.18
   3  -2   8    0.16    0.18
  -3  -2  -8    0.23    0.17
  -3  -2  -8    0.16    0.19
   3  -2   8   -0.11    0.14
   3  -2   8   -0.16    0.16
  -3  -2  -8    0.08    0.17
   3   2   9    0.42    0.28
   3   2   9    0.60    0.23
   3   2   9    0.67    0.22
  -3   2  -9    0.37    0.14
  -3   2  -9    0.23    0.21
  -3   2  -9    0.57    0.25
  -3   2  -9    0.38    0.14
  -3   2  -9    0.31    0.20
  -3  -2  -9    0.50    0.22
   3  -2   9    0.50    0.19
  -3  -2  -9    0.48    0.22
   3  -2   9    0.09    0.18
  -3  -2  -9    0.58    0.23
  -3  -2  -9    0.29    0.20
  -3   2 -10    2.75    0.37
  -3   2 -10    2.93    0.27
   3   2  10    3.34    0.44
  -3   2 -10    2.23    0.40
  -3  -2 -10    1.65    0.30
  -3  -2 -10    2.82    0.41
  -3  -2 -10    2.58    0.39
   3  -2  10    2.54    0.34
   3  -2  10    3.38    0.44
   3   2  11    1.63    0.37
  -3   2 -11    1.98    0.39
   3  -2  11    1.76    0.36
  -3  -2 -11    1.82    0.40
  -3  -2 -11    1.45    0.36
   3  -2  11    1.83    0.54
   3   3 -11    0.46    0.34
   3   3 -11   -0.20    0.26
  -3   3  11    0.46    0.34
  -3  -3  11   -0.18    0.30
   3  -3 -11    0.56    0.39
   3  -3 -11    0.06    0.35
   3   3 -10    6.45    0.59
  -3   3  10    5.38    0.53
   3   3 -10    5.50    0.45
  -3   3  10    5.74    0.53
   3  -3 -10    5.07    0.50
  -3  -3  10    4.27    0.49
   3  -3 -10    5.50    0.50
   3  -3 -10    4.86    0.52
  -3   3   9    0.52    0.22
  -3   3   9    0.29    0.23
   3   3  -9    0.70    0.21
   3   3  -9    0.27    0.22
  -3   3   9    0.24    0.21
   3  -3  -9    0.28    0.21
   3  -3  -9    0.48    0.21
  -3  -3   9    0.06    0.23
  -3  -3   9    0.33    0.22
   3  -3  -9    0.06    0.23
   3   3  -8    0.84    0.26
   3   3  -8    0.70    0.17
  -3   3   8    0.91    0.24
   3   3  -8    0.62    0.20
  -3   3   8    1.01    0.20
  -3   3   8    0.84    0.21
  -3   3   8    0.33    0.17
   3  -3  -8    0.58    0.16
  -3  -3   8    0.80    0.21
   3  -3  -8    0.69    0.19
  -3  -3   8    0.80    0.23
   3  -3  -8    0.72    0.19
  -3  -3   8    0.78    0.19
   3  -3  -8    1.10    0.19
   3   3  -7    1.70    0.21
  -3   3   7    1.54    0.22
  -3   3   7    2.12    0.28
   3   3  -7    1.72    0.28
  -3   3   7    1.66    0.22
  -3   3   7    1.84    0.23
   3   3  -7    1.51    0.21
   3  -3  -7    1.41    0.20
   3  -3  -7    1.79    0.23
   3  -3  -7    2.00    0.24
  -3  -3   7    1.12    0.18
  -3  -3   7    1.31    0.21
  -3  -3   7    2.07    0.31
   3  -3  -7    1.34    0.24
  -3   3   6   14.76    0.57
   3   3  -6   16.64    0.51
  -3   3   6   14.99    0.46
  -3   3   6   16.30    0.63
   3   3  -6   17.74    0.62
  -3   3   6   15.85    0.54
   3   3  -6   15.40    0.57
   3  -3  -6   16.70    0.48
   3  -3  -6   15.83    0.55
  -3  -3   6   15.34    0.60
  -3  -3   6   14.98    0.51
   3  -3  -6   14.12    0.56
  -3  -3   6   15.68    0.58
   3  -3  -6   16.16    0.60
  -3   3   5    2.39    0.25
   3   3  -5    2.85    0.19
   3   3  -5    2.89    0.27
  -3   3   5    3.06    0.23
  -3   3   5    2.73    0.26
   3  -3  -5    2.82    0.23
  -3  -3   5    2.89    0.25
   3  -3  -5    2.80    0.26
  -3  -3   5    2.66    0.26
   3  -3  -5    3.04    0.18
   3  -3  -5    2.43    0.24
  -3  -3   5    3.00    0.19
  -3   3   4   31.01    0.84
   3   3  -4   31.26    0.77
  -3   3   4   30.54    0.91
   3   3  -4   31.62    0.87
  -3   3   4   30.86    0.88
   3  -3  -4   32.14    0.88
   3  -3  -4   31.54    0.82
   3  -3  -4   31.78    0.89
  -3  -3   4   31.62    0.78
  -3  -3   4   32.01    0.89
  -3  -3   4   31.38    0.87
  -3   3   3   31.75    0.84
   3   3  -3   33.12    0.76
  -3   3   3   31.42    0.86
   3   3  -3   32.42    0.85
  -3   3   3   32.10    0.92
   3  -3  -3   31.33    0.88
  -3  -3   3   32.41    0.76
   3  -3  -3   32.10    0.86
   3  -3  -3   30.91    0.81
  -3  -3   3   32.28    0.74
  -3  -3   3   31.88    0.88
  -3  -3   3   31.98    0.85
  -3  -3   3   30.80    0.72
  -3   3   2    0.75    0.11
  -3   3   2    0.63    0.10
   3   3  -2    0.63    0.08
  -3   3   2    0.87    0.15
  -3   3   2    0.81    0.14
   3   3  -2    0.78    0.12
   3   3  -2    0.67    0.09
  -3  -3   2    0.78    0.08
  -3  -3   2    0.84    0.13
   3  -3  -2    0.59    0.10
  -3  -3   2    0.82    0.11
   3  -3  -2    0.60    0.12
   3  -3  -2    0.69    0.13
  -3  -3   2    0.78    0.11
  -3  -3   2    0.67    0.13
  -3   3   1   10.27    0.35
  -3   3   1   11.20    0.38
  -3   3   1   11.02    0.38
   3  -3  -1   10.92    0.41
  -3  -3   1   10.41    0.34
  -3  -3   1   10.37    0.36
   3  -3  -1   10.94    0.37
   3  -3  -1   10.58    0.36
  -3  -3   1    9.66    0.40
  -3  -3   1   10.46    0.39
  -3  -3   1   11.10    0.35
   3  -3  -1   10.47    0.36
  -3   3   0   36.55    0.90
  -3   3   0   34.33    0.86
  -3  -3   0   34.52    0.94
  -3  -3   0   36.23    0.88
   3  -3   0   35.89    0.88
  -3  -3   0   34.86    0.87
   3  -3   0   34.87    0.85
  -3   3  -1    0.86    0.13
  -3   3  -1    0.70    0.10
  -3   3  -1    0.70    0.09
   3  -3   1    0.79    0.10
  -3  -3  -1    0.95    0.14
   3  -3   1    0.90    0.13
   3  -3   1    0.89    0.11
  -3  -3  -1    0.88    0.12
   3  -3   1    0.79    0.14
  -3  -3  -1    0.77    0.10
  -3  -3  -1    0.78    0.12
  -3   3  -2   39.85    0.92
  -3   3  -2   40.62    1.02
   3   3   2   40.73    0.90
  -3   3  -2   41.61    0.98
   3   3   2   40.90    1.07
   3  -3   2   41.75    1.03
  -3  -3  -2   40.41    1.04
   3  -3   2   40.58    0.91
   3  -3   2   40.45    0.97
  -3  -3  -2   40.22    0.90
  -3  -3  -2   40.27    0.97
   3  -3   2   41.05    1.05
   3  -3   2   40.86    1.08
  -3   3  -3   52.96    1.29
  -3   3  -3   52.51    1.26
   3   3   3   52.72    1.33
  -3   3  -3   52.37    1.28
   3   3   3   54.14    1.18
  -3  -3  -3   53.32    1.32
  -3  -3  -3   54.94    1.33
   3  -3   3   52.99    1.31
  -3  -3  -3   52.48    1.24
   3  -3   3   50.95    1.29
   3  -3   3   52.38    1.25
   3  -3   3   51.73    1.13
  -3  -3  -3   52.44    1.17
  -3   3  -4    0.09    0.11
  -3   3  -4    0.08    0.10
   3   3   4    0.10    0.10
   3   3   4    0.07    0.11
  -3   3  -4    0.03    0.09
   3   3   4    0.06    0.08
  -3  -3  -4   -0.06    0.07
   3  -3   4   -0.03    0.10
  -3  -3  -4   -0.05    0.09
  -3  -3  -4    0.21    0.11
  -3  -3  -4    0.08    0.11
   3  -3   4   -0.08    0.08
   3  -3   4    0.00    0.10
   3   3   5   51.86    1.24
   3   3   5   49.88    1.20
   3   3   5   48.94    1.32
  -3   3  -5   51.45    1.30
  -3   3  -5   49.63    1.28
  -3  -3  -5   49.51    1.33
  -3  -3  -5   49.56    1.28
   3  -3   5   50.59    1.30
  -3  -3  -5   51.16    1.19
   3  -3   5   49.74    1.29
  -3  -3  -5   51.16    1.25
   3  -3   5   49.24    1.28
   3   3   6    3.23    0.25
  -3   3  -6    3.46    0.29
   3   3   6    3.53    0.29
   3   3   6    3.26    0.31
  -3   3  -6    3.23    0.33
  -3  -3  -6    3.63    0.31
   3  -3   6    3.47    0.30
  -3  -3  -6    3.65    0.29
   3  -3   6    2.79    0.29
  -3  -3  -6    3.74    0.26
   3  -3   6    2.88    0.32
   3   3   7    1.29    0.19
  -3   3  -7    1.36    0.24
  -3   3  -7    0.97    0.16
   3   3   7    1.14    0.25
   3   3   7    1.19    0.23
   3  -3   7    0.98    0.22
  -3  -3  -7    1.10    0.22
  -3  -3  -7    1.04    0.22
  -3  -3  -7    1.22    0.20
   3  -3   7    0.85    0.21
  -3  -3  -7    1.20    0.21
   3  -3   7    0.92    0.23
   3   3   8    2.29    0.35
   3   3   8    2.09    0.26
  -3   3  -8    1.93    0.31
   3   3   8    2.46    0.31
  -3   3  -8    1.97    0.29
   3  -3   8    2.02    0.31
   3  -3   8    1.75    0.31
  -3  -3  -8    2.08    0.29
   3  -3   8    2.94    0.38
  -3  -3  -8    2.09    0.30
  -3  -3  -8    2.17    0.27
  -3  -3  -8    2.32    0.31
  -3   3  -9    0.66    0.30
   3   3   9    0.19    0.22
  -3   3  -9    0.10    0.23
   3   3   9    0.27    0.32
   3   3   9   -0.11    0.25
   3  -3   9    0.02    0.24
  -3  -3  -9    0.06    0.26
  -3  -3  -9   -0.47    0.24
   3  -3   9    0.00    0.28
  -3  -3  -9    0.06    0.25
   3   3  10    1.74    0.40
  -3   3 -10    1.83    0.45
  -3   3 -10    1.60    0.36
  -3  -3 -10    1.88    0.37
   3  -3  10    1.85    0.37
  -3  -3 -10    1.36    0.36
  -3   3 -11    3.67    0.51
   3   3  11    3.75    0.56
  -3   3 -11    2.67    0.53
  -3  -3 -11    3.36    0.47
   3  -3  11    3.29    0.47
  -3  -3 -11    2.99    0.51
   3   4 -10    1.89    0.35
  -3   4  10    1.97    0.43
   3   4 -10    1.66    0.46
   3  -4 -10    1.44    0.38
  -3  -4  10    1.95    0.39
   3  -4 -10    1.90    0.36
   3   4  -9    3.64    0.38
   3   4  -9    4.11    0.48
  -3   4   9    2.67    0.41
  -3  -4   9    3.89    0.50
   3  -4  -9    3.23    0.34
   3  -4  -9    2.31    0.33
   3   4  -8    3.81    0.35
  -3   4   8    2.71    0.37
  -3   4   8    3.70    0.39
   3   4  -8    2.19    0.35
  -3   4   8    2.28    0.31
   3  -4  -8    2.85    0.36
  -3  -4   8    2.97    0.42
   3  -4  -8    2.19    0.32
   3  -4  -8    3.06    0.34
   3   4  -7    4.42    0.31
  -3   4   7    3.06    0.36
  -3   4   7    3.66    0.42
  -3   4   7    4.25    0.36
   3   4  -7    3.69    0.44
   3  -4  -7    3.86    0.36
  -3  -4   7    4.75    0.41
  -3  -4   7    4.01    0.47
   3  -4  -7    4.38    0.45
   3   4  -6    3.34    0.25
  -3   4   6    3.83    0.30
  -3   4   6    3.77    0.38
  -3   4   6    3.78    0.32
   3   4  -6    3.54    0.37
  -3   4   6    3.20    0.41
   3  -4  -6    2.65    0.30
  -3  -4   6    4.72    0.41
   3  -4  -6    3.19    0.37
  -3  -4   6    3.36    0.25
   3  -4  -6    2.76    0.33
  -3  -4   6    3.23    0.34
   3   4  -5    0.87    0.13
   3   4  -5    0.46    0.18
  -3   4   5    0.85    0.18
  -3   4   5    0.55    0.14
  -3   4   5    0.70    0.21
  -3   4   5    0.57    0.18
  -3  -4   5    0.78    0.19
   3  -4  -5    0.73    0.20
  -3  -4   5    0.92    0.14
   3  -4  -5    0.50    0.15
   3  -4  -5    0.66    0.20
  -3  -4   5    0.98    0.20
  -3   4   4   30.37    0.86
  -3   4   4   28.43    0.83
   3   4  -4   30.69    0.77
  -3   4   4   30.29    0.97
  -3   4   4   29.29    0.91
   3   4  -4   30.91    0.78
   3   4  -4   31.11    0.89
  -3  -4   4   31.51    0.94
   3  -4  -4   31.15    0.92
  -3  -4   4   29.44    0.77
  -3  -4   4   30.73    0.90
   3  -4  -4   31.36    0.94
   3  -4  -4   31.28    0.85
  -3   4   3   54.61    1.31
  -3   4   3   54.89    1.46
  -3   4   3   54.44    1.38
   3   4  -3   54.77    1.34
  -3   4   3   54.54    1.33
   3   4  -3   54.42    1.22
   3   4  -3   54.14    1.22
   3  -4  -3   54.17    1.43
  -3  -4   3   51.87    1.43
  -3  -4   3   54.47    1.22
   3  -4  -3   54.86    1.32
  -3  -4   3   54.29    1.41
   3  -4  -3   54.64    1.37
  -3  -4   3   52.44    1.35
  -3  -4   3   53.39    1.23
  -3  -4   3   54.24    1.21
  -3   4   2    8.24    0.35
  -3   4   2    8.25    0.35
   3   4  -2    8.29    0.25
  -3   4   2    7.84    0.39
  -3   4   2    7.43    0.42
  -3  -4   2    8.10    0.32
  -3  -4   2    8.07    0.37
   3  -4  -2    7.44    0.40
   3  -4  -2    8.45    0.38
   3  -4  -2    8.65    0.37
  -3  -4   2    8.34    0.31
  -3  -4   2    8.13    0.26
  -3  -4   2    7.84    0.39
  -3  -4   2    8.21    0.42
  -3   4   1   -0.06    0.10
  -3   4   1   -0.01    0.13
  -3   4   1   -0.03    0.09
  -3  -4   1    0.00    0.10
  -3  -4   1    0.11    0.11
   3  -4  -1   -0.01    0.13
  -3  -4   1    0.18    0.13
  -3  -4   1   -0.07    0.11
  -3  -4   1    0.01    0.11
   3  -4  -1   -0.03    0.10
   3  -4  -1   -0.17    0.09
  -3   4   0   11.57    0.41
  -3   4   0   10.71    0.40
  -3   4   0   10.76    0.41
  -3  -4   0   10.91    0.38
   3  -4   0   11.35    0.48
   3  -4   0   11.05    0.41
  -3  -4   0   11.52    0.50
  -3  -4   0   11.43    0.43
  -3  -4   0   11.11    0.40
   3  -4   0   11.16    0.39
  -3   4  -1   17.38    0.47
  -3   4  -1   17.68    0.51
  -3   4  -1   18.59    0.57
  -3   4  -1   18.69    0.56
   3  -4   1   17.23    0.64
  -3  -4  -1   17.36    0.59
  -3  -4  -1   18.23    0.52
   3  -4   1   18.50    0.57
   3  -4   1   18.07    0.51
  -3  -4  -1   16.86    0.64
  -3  -4  -1   17.36    0.53
   3  -4   1   17.57    0.47
  -3   4  -2   31.11    0.86
  -3   4  -2   31.11    0.75
  -3   4  -2   31.01    0.80
  -3   4  -2   32.64    0.86
   3  -4   2   31.39    0.79
   3  -4   2   31.67    0.88
   3  -4   2   31.46    0.95
   3  -4   2   32.34    0.93
  -3  -4  -2   30.94    0.91
   3  -4   2   31.32    0.75
  -3  -4  -2   31.33    0.82
  -3  -4  -2   31.50    0.94
  -3  -4  -2   30.91    0.80
   3   4   3    2.60    0.29
   3   4   3    2.50    0.16
  -3   4  -3    2.22    0.25
  -3   4  -3    2.61    0.26
   3   4   3    2.27    0.16
  -3   4  -3    2.38    0.23
   3  -4   3    1.94    0.24
  -3  -4  -3    2.32    0.17
  -3  -4  -3    2.49    0.29
   3  -4   3    2.24    0.28
  -3  -4  -3    2.23    0.30
  -3  -4  -3    2.64    0.22
   3  -4   3    2.32    0.25
   3  -4   3    2.38    0.30
  -3  -4  -3    2.41    0.22
  -3   4  -4   31.38    0.90
   3   4   4   32.78    0.79
  -3   4  -4   31.68    0.90
   3   4   4   32.37    1.00
   3   4   4   32.58    0.80
  -3   4  -4   28.01    1.03
   3  -4   4   31.84    0.89
   3  -4   4   32.12    0.96
   3  -4   4   30.92    1.00
  -3  -4  -4   31.58    0.97
   3  -4   4   32.17    0.92
  -3  -4  -4   32.36    0.85
  -3  -4  -4   32.47    0.98
  -3  -4  -4   32.25    0.78
  -3   4  -5   -0.09    0.12
   3   4   5    0.04    0.16
  -3   4  -5    0.10    0.20
  -3   4  -5   -0.20    0.18
   3   4   5    0.13    0.12
  -3  -4  -5   -0.22    0.19
   3  -4   5    0.15    0.18
  -3  -4  -5    0.15    0.13
   3  -4   5   -0.08    0.17
   3  -4   5    0.21    0.17
  -3  -4  -5    0.02    0.13
  -3  -4  -5    0.19    0.19
   3   4   6   -0.07    0.13
  -3   4  -6   -0.22    0.16
   3   4   6    0.24    0.21
  -3   4  -6   -0.16    0.22
  -3   4  -6    0.20    0.18
   3  -4   6    0.13    0.22
  -3  -4  -6    0.11    0.22
   3  -4   6   -0.01    0.20
  -3  -4  -6    0.02    0.21
  -3  -4  -6    0.18    0.18
  -3  -4  -6   -0.28    0.15
   3   4   7    1.19    0.20
  -3   4  -7    1.12    0.31
   3   4   7    1.69    0.31
   3   4   7    1.56    0.27
  -3   4  -7    1.39    0.27
  -3  -4  -7    1.24    0.25
  -3  -4  -7    1.08    0.27
  -3  -4  -7    0.93    0.30
   3  -4   7    1.36    0.27
   3  -4   7    0.87    0.29
  -3  -4  -7    1.08    0.23
  -3   4  -8    0.72    0.30
   3   4   8    0.68    0.23
   3   4   8    0.25    0.30
  -3   4  -8    0.64    0.35
   3   4   8    0.62    0.32
  -3  -4  -8    0.63    0.28
  -3  -4  -8    0.81    0.36
  -3  -4  -8    1.05    0.30
   3  -4   8    0.92    0.27
   3   4   9    2.47    0.45
  -3   4  -9    1.39    0.29
  -3   4  -9    1.55    0.41
   3  -4   9    2.25    0.40
  -3  -4  -9    1.80    0.38
  -3  -4  -9    1.57    0.33
  -3   5   9    1.73    0.37
   3   5  -9    1.28    0.48
  -3   5   9    1.85    0.68
  -3   5   8    0.25    0.38
  -3   5   8   -0.43    0.23
   3   5  -8   -0.01    0.20
   3   5  -8    0.15    0.39
   3  -5  -8    0.37    0.39
  -3  -5   8    0.04    0.28
   3   5  -7    4.20    0.34
  -3   5   7    5.52    0.45
   3   5  -7    5.23    0.60
  -3   5   7    5.66    0.60
   3   5  -7    4.37    0.46
   3  -5  -7    4.74    0.58
  -3  -5   7    4.20    0.49
   3   5  -6    2.94    0.38
  -3   5   6    3.30    0.46
  -3   5   6    2.82    0.34
   3   5  -6    3.01    0.29
   3   5  -6    3.13    0.37
  -3   5   6    3.32    0.42
   3  -5  -6    2.73    0.32
   3  -5  -6    2.91    0.40
  -3  -5   6    2.21    0.36
  -3  -5   6    3.15    0.45
  -3   5   5    0.88    0.19
   3   5  -5    0.17    0.23
   3   5  -5    0.65    0.19
   3   5  -5    0.64    0.16
  -3   5   5    0.67    0.27
  -3   5   5    0.92    0.21
   3  -5  -5    0.51    0.28
   3  -5  -5    0.47    0.22
  -3  -5   5    0.92    0.26
  -3  -5   5    0.54    0.24
  -3   5   4    0.00    0.18
   3   5  -4    0.07    0.13
  -3   5   4    0.00    0.21
   3   5  -4   -0.03    0.11
  -3   5   4   -0.26    0.13
  -3   5   4   -0.09    0.26
   3   5  -4   -0.02    0.19
  -3  -5   4    0.03    0.21
  -3  -5   4   -0.01    0.19
   3  -5  -4    0.00    0.21
   3  -5  -4    0.35    0.20
  -3   5   3    0.33    0.15
   3   5  -3    0.74    0.12
  -3   5   3    0.42    0.25
  -3   5   3    0.49    0.19
  -3   5   3    0.60    0.22
   3   5  -3    0.39    0.12
  -3  -5   3    0.52    0.14
  -3  -5   3    0.08    0.19
  -3  -5   3   -0.26    0.38
  -3  -5   3    0.51    0.14
   3  -5  -3    0.69    0.22
  -3  -5   3    0.51    0.14
   3  -5  -3    0.47    0.22
  -3  -5   3    0.71    0.20
  -3   5   2    7.00    0.36
  -3   5   2    6.81    0.47
  -3   5   2    7.22    0.38
  -3  -5   2    7.40    0.47
  -3  -5   2    6.93    0.35
  -3  -5   2    6.84    0.41
  -3  -5   2    7.26    0.35
   3  -5  -2    6.83    0.40
   3  -5  -2    6.61    0.43
   3  -5  -2    6.39    0.46
  -3  -5   2    7.12    0.49
  -3   5   1    0.10    0.12
  -3   5   1   -0.01    0.18
  -3   5   1    0.22    0.16
  -3  -5   1    0.18    0.20
  -3  -5   1   -0.21    0.14
  -3  -5   1    0.01    0.17
   3  -5  -1    0.11    0.18
   3  -5  -1   -0.12    0.19
  -3  -5   1    0.12    0.21
  -3  -5   1    0.04    0.16
  -3   5   0    0.14    0.13
  -3   5   0   -0.27    0.16
  -3   5   0    0.12    0.12
   3  -5   0   -0.04    0.15
   3  -5   0   -0.14    0.20
  -3  -5   0    0.25    0.17
  -3  -5   0    0.29    0.22
  -3  -5   0    0.27    0.14
   3  -5   0    0.07    0.13
  -3  -5   0    0.17    0.16
  -3  -5   0    0.36    0.18
  -3   5  -1    6.78    0.35
  -3   5  -1    6.10    0.33
  -3   5  -1    7.13    0.38
   3  -5   1    6.03    0.33
  -3  -5  -1    6.14    0.35
   3  -5   1    5.99    0.35
   3  -5   1    5.18    0.46
  -3  -5  -1    5.86    0.32
  -3  -5  -1    6.72    0.41
  -3  -5  -1    6.59    0.51
  -3   5  -2    0.24    0.18
  -3  -5  -2   -0.29    0.25
   3  -5   2    0.29    0.18
   3  -5   2    0.16    0.11
   3  -5   2   -0.02    0.24
  -3  -5  -2    0.40    0.15
  -3  -5  -2   -0.08    0.18
  -3  -5  -2    0.30    0.13
   3  -5   2    0.13    0.13
   3  -5   2    0.34    0.22
  -3   5  -3   12.80    0.52
  -3   5  -3   13.09    0.56
  -3   5  -3   12.27    0.48
  -3  -5  -3   11.54    0.66
  -3  -5  -3   13.61    0.48
  -3  -5  -3   12.80    0.45
  -3  -5  -3   12.74    0.61
   3  -5   3   12.76    0.50
   3  -5   3   12.78    0.61
  -3   5  -4    1.36    0.27
  -3   5  -4    1.05    0.23
   3   5   4    1.16    0.27
  -3   5  -4    1.15    0.25
   3  -5   4    1.47    0.27
   3  -5   4    1.25    0.27
  -3  -5  -4    1.13    0.21
  -3  -5  -4    0.83    0.27
  -3  -5  -4    1.04    0.19
  -3  -5  -4    1.13    0.17
  -3   5  -5    0.19    0.25
   3   5   5    0.12    0.15
  -3   5  -5    0.06    0.22
  -3   5  -5   -0.23    0.17
   3   5   5    0.31    0.27
  -3  -5  -5    0.29    0.22
   3  -5   5    0.16    0.26
  -3  -5  -5   -0.05    0.26
   3  -5   5   -0.22    0.27
  -3  -5  -5   -0.08    0.18
  -3  -5  -5    0.29    0.18
  -3   5  -6   -0.35    0.29
   3   5   6   -0.08    0.17
   3   5   6    0.01    0.16
   3   5   6   -0.11    0.31
  -3   5  -6    0.09    0.22
   3  -5   6    0.22    0.31
  -3  -5  -6   -0.28    0.27
   3  -5   6    0.23    0.33
  -3  -5  -6    0.12    0.22
  -3  -5  -6    0.29    0.21
   3   5   7    3.63    0.51
  -3   5  -7    3.28    0.46
  -3   5  -7    3.32    0.44
   3   5   7    3.12    0.34
   3   5   7    2.96    0.39
   3  -5   7    2.39    0.41
  -3  -5  -7    3.71    0.48
  -3  -5  -7    2.54    0.39
   3   5   8    2.06    0.46
  -3   5  -8    2.33    0.47
   3   5   8    1.24    0.25
  -3   5  -8    1.39    0.32
  -3  -5  -8    1.56    0.45
   3  -5   8    2.00    0.42
  -3  -5  -8    1.57    0.41
  -3   6   6   -0.22    0.44
  -3   6   6   -0.19    0.27
   3   6  -6    0.54    0.40
   3   6  -6    0.50    0.22
   3  -6  -6    0.71    0.44
  -3  -6   6    1.40    0.47
  -3   6   5    4.30    0.40
   3   6  -5    4.30    0.40
  -3   6   5    5.56    0.60
   3   6  -5    4.83    0.34
   3  -6  -5    4.14    0.50
  -3  -6   5    4.94    0.64
   3   6  -4    0.65    0.16
  -3   6   4    0.34    0.20
  -3  -6   4   -0.17    0.32
  -3  -6   4    1.43    0.50
   3  -6  -4   -0.46    0.30
  -3   6   3    1.30    0.28
  -3   6   3    1.95    0.25
  -3  -6   3    0.88    0.32
  -3  -6   3    1.20    0.21
  -3  -6   3    1.89    0.33
   3  -6  -3    1.56    0.34
  -3   6   2    8.20    0.65
  -3   6   2    9.14    0.45
  -3   6   2    9.32    0.52
  -3  -6   2   10.10    0.63
  -3  -6   2    9.31    0.47
  -3  -6   2    9.02    0.56
   3  -6  -2    9.70    0.60
  -3   6   1    0.85    0.25
  -3   6   1    0.77    0.19
  -3  -6   1    0.34    0.26
   3  -6  -1    0.14    0.25
  -3  -6   1    0.48    0.24
  -3  -6   1    0.62    0.23
  -3  -6   1    0.98    0.33
  -3  -6   1    0.31    0.27
  -3   6   0   11.53    0.57
  -3   6   0   11.24    0.50
  -3  -6   0   11.09    0.66
  -3  -6   0   11.01    0.48
  -3  -6   0   12.70    0.60
  -3  -6   0   11.70    0.63
   3  -6   0   11.19    0.54
  -3  -6   0   10.71    0.63
  -3   6  -1    1.13    0.29
  -3   6  -1    1.37    0.25
  -3  -6  -1    1.94    0.34
   3  -6   1    1.33    0.33
   3  -6   1    1.25    0.23
  -3  -6  -1    1.50    0.31
  -3  -6  -1    1.42    0.21
  -3   6  -2    0.30    0.17
   3  -6   2   -0.19    0.28
   3  -6   2    0.09    0.18
  -3  -6  -2    0.09    0.28
  -3   6  -3    5.51    0.40
  -3  -6  -3    7.65    0.62
   3  -6   3    5.37    0.59
  -3   6  -4    0.72    0.27
  -3  -6  -4    0.87    0.35
   3  -6   4    1.77    0.39
  -3   6  -5    7.92    0.54
  -3  -6  -5    7.36    0.76
   3  -6   5    7.83    0.82
   4   0 -13    0.19    0.42
   4   0 -13    0.02    0.39
   4   0 -13    0.11    0.33
  -4   0  13    0.54    0.35
  -4   0  12   43.73    1.40
  -4   0  12   40.73    1.30
   4   0 -12   46.93    1.39
   4   0 -12   43.81    1.27
  -4   0  12   45.05    1.37
   4   0 -12   44.04    1.44
  -4   0  11    0.07    0.22
  -4   0  11   -0.31    0.25
   4   0 -11   -0.15    0.25
   4   0 -11    0.09    0.20
  -4   0  11    0.38    0.20
   4   0 -11   -0.02    0.19
  -4   0  10   10.41    0.50
   4   0 -10   10.15    0.57
  -4   0  10    9.28    0.50
  -4   0  10    9.69    0.53
   4   0 -10    8.91    0.47
   4   0 -10    9.68    0.50
   4   0 -10    9.85    0.46
  -4   0  10    8.61    0.54
   4   0  -9   -0.16    0.14
  -4   0   9   -0.10    0.15
   4   0  -9    0.24    0.15
  -4   0   9   -0.11    0.12
   4   0  -9    0.10    0.14
  -4   0   9   -0.04    0.14
  -4   0   8    5.87    0.33
  -4   0   8    5.51    0.33
  -4   0   8    5.73    0.32
   4   0  -8    5.29    0.30
   4   0  -8    5.30    0.32
  -4   0   8    5.42    0.35
   4   0  -8    5.82    0.32
   4   0  -8    5.89    0.36
  -4   0   7    0.12    0.09
   4   0  -7   -0.03    0.09
  -4   0   7    0.02    0.09
  -4   0   7   -0.05    0.10
  -4   0   7   -0.02    0.09
   4   0  -7    0.13    0.09
   4   0  -7    0.01    0.12
   4   0  -7   -0.07    0.09
  -4   0   6   15.11    0.48
   4   0  -6   15.69    0.47
   4   0  -6   15.76    0.52
   4   0  -6   14.88    0.48
   4   0  -6   15.69    0.49
  -4   0   6   14.84    0.48
  -4   0   6   15.09    0.49
  -4   0   6   14.67    0.50
   4   0  -5   -0.01    0.07
  -4   0   5   -0.01    0.07
  -4   0   5   -0.03    0.06
   4   0  -5   -0.06    0.06
  -4   0   5   -0.08    0.06
  -4   0   5   -0.06    0.06
   4   0  -5   -0.03    0.07
   4   0  -5    0.04    0.06
  -4   0   4   13.95    0.42
  -4   0   4   14.95    0.42
   4   0  -4   14.62    0.42
  -4   0   4   14.59    0.43
   4   0  -4   14.04    0.42
   4   0  -4   15.07    0.42
   4   0  -4   15.00    0.44
  -4   0   3   -0.10    0.04
   4   0  -3   -0.01    0.05
  -4   0   3   -0.07    0.04
   4   0  -3   -0.05    0.05
   4   0  -3   -0.06    0.04
  -4   0   3   -0.06    0.04
  -4   0   3   -0.09    0.04
   4   0  -3   -0.06    0.05
   4   0  -2    2.54    0.14
   4   0  -2    2.67    0.13
  -4   0   2    2.72    0.13
  -4   0   2    2.52    0.13
   4   0  -2    2.76    0.12
  -4   0   2    2.74    0.13
  -4   0   2    2.64    0.13
   4   0  -2    2.74    0.14
   4   0  -1   -0.12    0.04
  -4   0   1   -0.09    0.03
  -4   0   1   -0.13    0.03
  -4   0   1   -0.07    0.04
  -4   0   1   -0.07    0.04
   4   0  -1   -0.06    0.03
   4   0  -1   -0.11    0.04
  -4   0   1   -0.12    0.03
   4   0   0  123.57    2.61
   4   0   0  126.36    2.65
  -4   0   0  124.75    2.61
  -4   0   0  120.16    2.60
  -4   0   0  125.80    2.62
  -4   0  -1    0.01    0.04
  -4   0  -1    0.00    0.04
   4   0   1    0.02    0.04
   4   0   1   -0.01    0.04
  -4   0  -1    0.00    0.04
   4   0   2    7.69    0.19
  -4   0  -2    6.77    0.19
   4   0   2    6.71    0.24
  -4   0  -2    6.72    0.24
   4   0   2    6.96    0.25
  -4   0  -2    6.75    0.23
  -4   0  -3    0.06    0.06
  -4   0  -3    0.01    0.05
  -4   0  -3   -0.04    0.04
  -4   0  -3    0.01    0.03
   4   0   3    0.01    0.06
   4   0   3    0.03    0.05
   4   0   3   -0.03    0.04
   4   0   4   71.69    1.57
  -4   0  -4   73.12    1.62
  -4   0  -4   72.12    1.58
  -4   0  -4   73.14    1.63
   4   0   4   69.64    1.63
   4   0   4   73.23    1.65
  -4   0  -4   72.66    1.66
  -4   0  -4   68.41    1.60
   4   0   5   -0.01    0.08
  -4   0  -5    0.06    0.07
   4   0   5    0.09    0.07
  -4   0  -5   -0.01    0.07
  -4   0  -5   -0.06    0.08
  -4   0  -5   -0.02    0.07
  -4   0  -5    0.05    0.08
   4   0   5    0.05    0.07
   4   0   6   28.00    0.74
  -4   0  -6   28.15    0.76
  -4   0  -6   26.87    0.73
   4   0   6   26.75    0.78
  -4   0  -6   27.28    0.78
  -4   0  -6   27.47    0.75
  -4   0  -6   27.28    0.81
   4   0   7    0.13    0.12
  -4   0  -7   -0.05    0.10
  -4   0  -7   -0.03    0.11
  -4   0  -7    0.00    0.12
  -4   0  -7   -0.06    0.12
  -4   0  -7   -0.10    0.12
   4   0   7    0.05    0.11
   4   0   7   -0.16    0.11
  -4   0  -8   51.43    1.39
  -4   0  -8   50.56    1.30
  -4   0  -8   49.59    1.28
   4   0   8   48.99    1.34
  -4   0  -8   48.65    1.27
   4   0   8   50.99    1.29
  -4   0  -8   52.22    1.34
   4   0   9    0.07    0.19
  -4   0  -9   -0.11    0.18
  -4   0  -9   -0.01    0.18
   4   0   9    0.00    0.20
   4   0   9   -0.32    0.14
  -4   0  -9   -0.20    0.18
  -4   0  -9   -0.24    0.15
   4   0  10   35.39    1.14
  -4   0 -10   30.81    1.03
  -4   0 -10   37.32    1.14
  -4   0 -10   33.95    1.03
   4   0  10   38.00    1.08
  -4   0 -10   35.29    1.16
  -4   0 -10   34.98    1.08
  -4   0 -11   -0.11    0.27
  -4   0 -11   -0.09    0.33
  -4   0 -11   -0.24    0.30
   4   0  11   -0.45    0.26
  -4   0 -12    1.24    0.41
   4   0  12    1.41    0.40
  -4   0 -12    2.71    0.48
   4   1 -13   -0.17    0.36
  -4   1  13    0.05    0.37
   4   1 -13    0.93    0.45
   4  -1 -13   -0.27    0.48
  -4  -1  13    0.42    0.35
   4  -1 -13   -0.12    0.36
   4  -1 -13    0.16    0.45
  -4   1  12    3.52    0.50
   4   1 -12    2.49    0.46
   4   1 -12    2.71    0.32
   4   1 -12    3.12    0.41
  -4  -1  12    1.64    0.42
  -4  -1  12    2.69    0.33
   4  -1 -12    2.32    0.38
   4  -1 -12    2.63    0.42
  -4  -1  12    2.90    0.36
   4  -1 -12    1.91    0.41
  -4   1  11    0.83    0.25
   4   1 -11    0.05    0.21
   4   1 -11    0.41    0.26
   4   1 -11    0.10    0.20
  -4   1  11    0.07    0.26
  -4   1  11    0.14    0.37
  -4   1  11    0.37    0.28
   4  -1 -11    0.30    0.29
   4  -1 -11    0.53    0.25
  -4  -1  11    0.68    0.23
  -4  -1  11    0.78    0.31
  -4  -1  11    0.33    0.21
   4  -1 -11    0.46    0.24
  -4   1  10    5.64    0.45
  -4   1  10    4.90    0.46
   4   1 -10    5.00    0.34
  -4   1  10    4.04    0.43
   4   1 -10    6.88    0.48
   4   1 -10    4.76    0.39
  -4   1  10    5.04    0.40
   4   1 -10    6.45    0.40
  -4  -1  10    5.24    0.39
   4  -1 -10    4.94    0.46
  -4  -1  10    4.84    0.44
  -4  -1  10    5.33    0.39
   4  -1 -10    5.13    0.41
  -4  -1  10    5.38    0.38
   4  -1 -10    5.15    0.43
   4  -1 -10    5.25    0.40
   4   1  -9    7.47    0.41
  -4   1   9    7.90    0.42
   4   1  -9    7.90    0.47
  -4   1   9    7.84    0.43
   4   1  -9    7.55    0.40
  -4   1   9    6.98    0.45
   4   1  -9    7.78    0.35
  -4   1   9    7.13    0.42
   4  -1  -9    7.28    0.43
   4  -1  -9    7.50    0.42
  -4  -1   9    6.88    0.39
   4  -1  -9    7.53    0.44
  -4  -1   9    7.77    0.44
  -4  -1   9    7.52    0.37
  -4  -1   9    7.90    0.44
   4  -1  -9    7.80    0.40
   4   1  -8    0.13    0.11
  -4   1   8    0.06    0.12
   4   1  -8    0.33    0.14
  -4   1   8    0.06    0.15
  -4   1   8    0.12    0.11
   4   1  -8    0.07    0.14
  -4   1   8    0.06    0.14
   4   1  -8    0.13    0.11
   4  -1  -8    0.23    0.15
  -4  -1   8   -0.01    0.10
  -4  -1   8    0.32    0.13
   4  -1  -8    0.00    0.12
  -4  -1   8    0.21    0.14
   4  -1  -8    0.36    0.14
  -4  -1   8    0.16    0.13
   4  -1  -8   -0.04    0.12
   4   1  -7    1.56    0.22
  -4   1   7    1.38    0.20
  -4   1   7    1.29    0.19
   4   1  -7    1.41    0.19
  -4   1   7    1.15    0.18
   4   1  -7    1.42    0.16
  -4   1   7    1.54    0.20
   4   1  -7    1.11    0.15
  -4  -1   7    1.62    0.17
  -4  -1   7    1.45    0.19
   4  -1  -7    1.75    0.19
   4  -1  -7    1.53    0.22
   4  -1  -7    1.26    0.18
  -4  -1   7    1.39    0.19
  -4  -1   7    1.54    0.19
   4  -1  -7    1.28    0.18
  -4   1   6   53.85    1.33
   4   1  -6   53.86    1.35
   4   1  -6   55.58    1.22
   4   1  -6   53.66    1.29
  -4   1   6   53.99    1.29
   4   1  -6   54.17    1.32
  -4   1   6   54.52    1.32
  -4   1   6   53.42    1.30
  -4  -1   6   53.36    1.29
  -4  -1   6   53.80    1.24
   4  -1  -6   53.49    1.30
   4  -1  -6   54.44    1.30
   4  -1  -6   53.85    1.30
  -4  -1   6   54.71    1.32
   4  -1  -6   51.80    1.30
  -4  -1   6   53.10    1.34
   4   1  -5    8.08    0.26
  -4   1   5    7.90    0.32
  -4   1   5    7.93    0.31
   4   1  -5    7.54    0.29
  -4   1   5    7.84    0.30
   4   1  -5    7.75    0.30
   4   1  -5    7.90    0.33
  -4   1   5    7.29    0.30
  -4  -1   5    7.83    0.31
  -4  -1   5    8.04    0.29
   4  -1  -5    7.72    0.30
   4  -1  -5    7.63    0.30
   4  -1  -5    7.55    0.30
   4  -1  -5    7.53    0.31
  -4  -1   5    7.46    0.26
   4   1  -4   21.65    0.59
  -4   1   4   21.20    0.59
  -4   1   4   21.04    0.59
  -4   1   4   21.58    0.58
   4   1  -4   22.12    0.53
  -4   1   4   21.29    0.56
   4   1  -4   21.56    0.55
   4  -1  -4   20.97    0.58
   4  -1  -4   20.38    0.57
  -4  -1   4   21.32    0.55
  -4  -1   4   21.49    0.58
  -4  -1   4   21.64    0.53
  -4  -1   4   21.26    0.60
   4  -1  -4   21.87    0.58
   4  -1  -4   21.29    0.56
   4   1  -3    0.19    0.05
   4   1  -3    0.27    0.06
  -4   1   3    0.30    0.06
  -4   1   3    0.36    0.08
   4   1  -3    0.23    0.08
  -4   1   3    0.28    0.07
  -4   1   3    0.24    0.08
   4   1  -3    0.23    0.06
  -4  -1   3    0.28    0.07
   4  -1  -3    0.21    0.06
   4  -1  -3    0.15    0.06
   4  -1  -3    0.31    0.06
   4  -1  -3    0.17    0.06
  -4  -1   3    0.27    0.05
  -4  -1   3    0.29    0.07
  -4  -1   3    0.17    0.05
   4   1  -2    6.52    0.19
  -4   1   2    6.53    0.24
   4   1  -2    6.48    0.21
  -4   1   2    6.30    0.20
   4   1  -2    6.46    0.24
   4   1  -2    6.35    0.22
  -4   1   2    6.19    0.23
  -4   1   2    6.03    0.23
  -4  -1   2    6.42    0.20
  -4  -1   2    6.58    0.22
   4  -1  -2    6.13    0.22
  -4  -1   2    6.67    0.24
  -4  -1   2    6.52    0.19
   4  -1  -2    6.37    0.20
   4  -1  -2    6.39    0.22
   4  -1  -2    6.43    0.23
   4   1  -1    1.37    0.09
  -4   1   1    1.20    0.10
  -4   1   1    1.27    0.10
  -4   1   1    1.17    0.11
   4   1  -1    1.23    0.10
  -4   1   1    1.23    0.08
   4   1  -1    1.35    0.07
  -4   1   1    1.23    0.08
  -4   1   1    1.18    0.10
  -4  -1   1    1.25    0.07
   4  -1  -1    1.30    0.10
   4  -1  -1    1.15    0.10
  -4  -1   1    1.29    0.09
   4  -1  -1    1.33    0.11
  -4  -1   1    1.33    0.07
  -4  -1   1    1.33    0.10
  -4  -1   1    1.28    0.09
   4  -1  -1    1.35    0.11
   4   1   0    9.17    0.23
  -4   1   0    9.31    0.27
   4   1   0    9.47    0.29
  -4   1   0    8.91    0.27
  -4   1   0    9.01    0.29
  -4   1   0    9.01    0.28
  -4   1   0    9.45    0.26
   4  -1   0    8.87    0.29
  -4  -1   0    9.40    0.29
   4  -1   0    9.17    0.25
  -4  -1   0    8.92    0.23
  -4  -1   0    9.30    0.28
   4  -1   0    9.32    0.27
  -4  -1   0    9.30    0.22
  -4  -1   0    9.38    0.26
   4  -1   0    9.33    0.29
   4  -1   0    9.04    0.27
   4   1   1   36.66    0.81
   4   1   1   37.50    0.87
  -4   1  -1   36.12    0.83
  -4   1  -1   37.46    0.85
  -4   1  -1   38.03    0.87
  -4   1  -1   36.49    0.88
   4   1   1   36.53    0.82
   4  -1   1   36.64    0.82
   4  -1   1   35.38    0.83
   4  -1   1   37.31    0.84
  -4  -1  -1   35.98    0.87
   4  -1   1   36.79    0.83
  -4  -1  -1   37.52    0.87
  -4  -1  -1   36.78    0.82
  -4  -1  -1   36.69    0.81
   4   1   2   77.43    1.71
  -4   1  -2   81.89    1.77
   4   1   2   78.74    1.72
  -4   1  -2   80.81    1.78
  -4   1  -2   79.78    1.71
   4   1   2   79.79    1.76
  -4  -1  -2   82.05    1.77
  -4  -1  -2   79.84    1.72
   4  -1   2   78.73    1.75
  -4  -1  -2   79.77    1.71
   4  -1   2   81.20    1.72
  -4  -1  -2   80.86    1.77
   4  -1   2   77.03    1.77
   4  -1   2   79.83    1.72
   4   1   3    4.52    0.19
   4   1   3    4.81    0.21
  -4   1  -3    4.34    0.21
   4   1   3    4.56    0.19
  -4   1  -3    4.72    0.23
  -4   1  -3    4.41    0.17
  -4   1  -3    4.28    0.18
   4  -1   3    4.42    0.21
  -4  -1  -3    4.50    0.18
   4  -1   3    4.39    0.19
   4  -1   3    4.43    0.22
  -4  -1  -3    4.64    0.22
  -4  -1  -3    4.43    0.22
  -4  -1  -3    4.43    0.19
   4   1   4    0.03    0.05
   4   1   4    0.30    0.08
  -4   1  -4    0.17    0.07
  -4   1  -4    0.05    0.08
  -4   1  -4    0.07    0.08
   4   1   4    0.22    0.09
  -4   1  -4    0.12    0.06
  -4  -1  -4    0.24    0.10
  -4  -1  -4    0.14    0.09
   4  -1   4    0.15    0.07
   4  -1   4    0.12    0.08
   4  -1   4    0.12    0.07
  -4  -1  -4    0.16    0.06
  -4  -1  -4    0.11    0.06
  -4   1  -5   17.94    0.49
   4   1   5   17.98    0.53
   4   1   5   17.74    0.56
  -4   1  -5   17.59    0.52
  -4   1  -5   18.49    0.50
  -4   1  -5   18.20    0.59
  -4   1  -5   17.91    0.57
  -4  -1  -5   18.48    0.52
  -4  -1  -5   19.08    0.58
  -4  -1  -5   17.57    0.57
   4  -1   5   18.14    0.53
   4  -1   5   17.44    0.56
   4  -1   5   18.01    0.56
  -4  -1  -5   17.83    0.53
  -4   1  -6    0.05    0.09
   4   1   6    0.07    0.11
  -4   1  -6    0.33    0.10
   4   1   6    0.07    0.10
  -4   1  -6    0.15    0.10
   4   1   6    0.31    0.12
  -4   1  -6    0.14    0.10
  -4   1  -6    0.04    0.08
   4  -1   6    0.14    0.10
  -4  -1  -6    0.16    0.10
  -4  -1  -6    0.08    0.09
  -4  -1  -6    0.19    0.11
   4  -1   6   -0.06    0.09
   4  -1   6    0.09    0.09
  -4  -1  -6    0.03    0.10
  -4   1  -7    3.68    0.30
   4   1   7    3.92    0.29
  -4   1  -7    4.15    0.28
   4   1   7    3.72    0.28
  -4   1  -7    3.75    0.25
  -4   1  -7    3.98    0.25
   4   1   7    3.13    0.29
  -4  -1  -7    4.11    0.32
   4  -1   7    3.84    0.27
  -4  -1  -7    3.77    0.30
  -4  -1  -7    3.83    0.26
   4  -1   7    3.70    0.28
  -4  -1  -7    3.90    0.28
   4  -1   7    4.19    0.30
  -4   1  -8    1.62    0.24
  -4   1  -8    2.13    0.25
   4   1   8    1.87    0.25
  -4   1  -8    2.39    0.29
  -4   1  -8    1.57    0.26
   4   1   8    1.77    0.22
   4   1   8    2.09    0.30
  -4  -1  -8    2.10    0.27
   4  -1   8    2.23    0.28
   4  -1   8    1.96    0.25
   4  -1   8    1.83    0.23
  -4  -1  -8    1.91    0.27
  -4  -1  -8    1.92    0.27
  -4  -1  -8    1.73    0.27
   4   1   9   12.49    0.61
  -4   1  -9   13.02    0.51
  -4   1  -9   12.82    0.58
   4   1   9   12.49    0.58
  -4   1  -9   12.42    0.62
   4   1   9   13.00    0.57
  -4   1  -9   12.94    0.51
  -4   1  -9   12.59    0.60
   4  -1   9   13.27    0.55
  -4  -1  -9   12.17    0.56
  -4  -1  -9   13.72    0.57
  -4  -1  -9   13.03    0.59
   4  -1   9   13.20    0.60
  -4   1 -10   24.57    0.91
  -4   1 -10   27.00    0.96
   4   1  10   25.82    0.90
  -4   1 -10   25.69    0.81
  -4   1 -10   25.93    0.98
  -4   1 -10   25.91    0.80
   4   1  10   24.49    0.90
  -4  -1 -10   27.86    0.93
   4  -1  10   26.25    0.87
  -4  -1 -10   25.43    0.91
  -4  -1 -10   23.37    0.88
  -4  -1 -10   25.64    0.96
   4  -1  10   26.14    0.96
   4   1  11   -0.13    0.26
  -4   1 -11   -0.41    0.33
  -4   1 -11   -0.01    0.25
  -4   1 -11    0.66    0.34
  -4  -1 -11   -0.08    0.30
   4  -1  11    0.34    0.26
  -4  -1 -11    0.47    0.35
   4   1  12    0.06    0.38
  -4  -1 -12   -0.05    0.43
   4  -1  12   -0.15    0.35
  -4  -1 -12    0.44    0.40
  -4   2  12    4.11    0.59
   4   2 -12    2.97    0.42
   4  -2 -12    4.23    0.69
  -4  -2  12    4.16    0.52
   4  -2 -12    5.01    0.66
   4  -2 -12    4.29    0.61
  -4   2  11    0.35    0.34
   4   2 -11    0.77    0.30
   4   2 -11    0.26    0.17
   4   2 -11    0.07    0.22
  -4   2  11    0.29    0.24
   4  -2 -11    0.14    0.31
   4  -2 -11    0.37    0.28
  -4  -2  11    0.44    0.23
   4  -2 -11    0.49    0.28
  -4   2  10    0.07    0.19
   4   2 -10    0.23    0.19
   4   2 -10    0.60    0.23
  -4   2  10    0.88    0.29
   4   2 -10    0.03    0.14
  -4   2  10    0.09    0.19
   4  -2 -10    0.34    0.23
  -4  -2  10    0.11    0.15
   4  -2 -10    0.29    0.22
  -4  -2  10    0.53    0.24
   4  -2 -10    0.16    0.24
  -4  -2  10    0.03    0.19
   4   2  -9    3.43    0.36
  -4   2   9    4.17    0.37
  -4   2   9    4.06    0.36
   4   2  -9    4.49    0.40
   4   2  -9    4.16    0.33
   4   2  -9    3.99    0.23
  -4   2   9    3.32    0.41
  -4   2   9    3.61    0.38
  -4  -2   9    3.85    0.35
   4  -2  -9    3.96    0.34
  -4  -2   9    4.44    0.36
   4  -2  -9    3.68    0.36
  -4  -2   9    4.19    0.25
   4  -2  -9    3.84    0.36
  -4  -2   9    4.03    0.35
   4  -2  -9    4.59    0.39
   4   2  -8    9.68    0.32
  -4   2   8    7.99    0.45
  -4   2   8    8.93    0.45
  -4   2   8    9.90    0.48
   4   2  -8    9.53    0.45
   4   2  -8    9.62    0.43
  -4   2   8    9.60    0.44
   4   2  -8   10.39    0.51
  -4  -2   8    9.74    0.34
   4  -2  -8   10.27    0.45
   4  -2  -8    9.98    0.44
  -4  -2   8    9.89    0.46
   4  -2  -8    9.82    0.47
  -4  -2   8    9.77    0.43
   4  -2  -8   10.65    0.46
  -4  -2   8   10.55    0.49
   4   2  -7    3.27    0.26
  -4   2   7    3.16    0.27
   4   2  -7    3.19    0.17
  -4   2   7    3.71    0.28
  -4   2   7    3.15    0.24
   4   2  -7    3.47    0.24
   4   2  -7    3.59    0.29
  -4   2   7    3.27    0.27
  -4  -2   7    3.30    0.24
   4  -2  -7    3.33    0.25
  -4  -2   7    3.03    0.27
  -4  -2   7    3.91    0.28
   4  -2  -7    3.63    0.27
   4  -2  -7    3.13    0.29
   4  -2  -7    3.42    0.27
  -4  -2   7    3.31    0.19
   4   2  -6   43.44    1.12
   4   2  -6   41.40    0.96
  -4   2   6   42.75    1.15
   4   2  -6   43.05    1.06
  -4   2   6   43.12    1.13
   4   2  -6   43.83    1.16
  -4   2   6   42.34    1.09
  -4   2   6   42.30    1.04
  -4  -2   6   42.75    1.06
   4  -2  -6   43.42    1.11
  -4  -2   6   43.34    1.15
   4  -2  -6   42.97    1.05
  -4  -2   6   42.27    0.97
  -4  -2   6   43.24    1.12
   4  -2  -6   43.23    1.13
   4  -2  -6   42.95    1.10
  -4   2   5  261.25    5.55
   4   2  -5  267.46    5.51
   4   2  -5  258.11    5.36
  -4   2   5  255.10    5.48
  -4   2   5  257.68    5.40
   4   2  -5  264.69    5.54
  -4   2   5  262.57    5.53
   4   2  -5  251.72    5.43
  -4  -2   5  259.19    5.53
  -4  -2   5  253.67    5.44
   4  -2  -5  259.51    5.51
   4  -2  -5  260.31    5.51
   4  -2  -5  252.74    5.41
   4  -2  -5  258.31    5.48
  -4  -2   5  258.24    5.36
  -4  -2   5  263.72    5.51
  -4   2   4    7.96    0.32
  -4   2   4    7.39    0.25
   4   2  -4    8.03    0.27
  -4   2   4    9.34    0.36
   4   2  -4    7.90    0.34
  -4   2   4    8.24    0.33
   4   2  -4    7.91    0.25
   4   2  -4    8.35    0.33
  -4  -2   4    8.21    0.25
   4  -2  -4    7.78    0.26
   4  -2  -4    8.39    0.34
  -4  -2   4    7.48    0.33
   4  -2  -4    8.86    0.32
   4  -2  -4    8.16    0.32
  -4  -2   4    8.12    0.33
  -4  -2   4    8.26    0.27
  -4   2   3    9.07    0.34
   4   2  -3    9.55    0.28
   4   2  -3    9.76    0.36
  -4   2   3    9.22    0.36
   4   2  -3    9.20    0.34
  -4   2   3    9.48    0.33
   4   2  -3    9.48    0.28
   4  -2  -3    9.50    0.35
  -4  -2   3    9.71    0.28
   4  -2  -3    9.26    0.33
  -4  -2   3    9.51    0.35
  -4  -2   3    9.51    0.27
   4  -2  -3    9.53    0.35
  -4   2   2   38.21    0.95
  -4   2   2   40.01    0.97
  -4   2   2   39.42    0.97
  -4   2   2   39.58    0.99
   4   2  -2   39.99    0.87
   4   2  -2   41.01    0.98
  -4  -2   2   40.12    0.87
  -4  -2   2   40.66    0.97
   4  -2  -2   40.35    0.95
   4  -2  -2   39.79    0.98
  -4  -2   2   39.65    0.98
   4  -2  -2   40.08    0.96
  -4  -2   2   39.95    0.91
  -4   2   1   16.05    0.48
  -4   2   1   15.72    0.47
  -4   2   1   15.44    0.45
  -4   2   1   15.26    0.44
  -4  -2   1   16.01    0.46
   4  -2  -1   14.95    0.47
  -4  -2   1   15.85    0.43
   4  -2  -1   15.44    0.44
   4  -2  -1   16.36    0.47
   4  -2  -1   15.55    0.45
  -4  -2   1   16.19    0.45
  -4   2   0   57.59    1.25
  -4   2   0   58.89    1.34
  -4   2   0   57.67    1.30
  -4   2   0   56.66    1.32
  -4   2   0   56.60    1.34
   4  -2   0   57.66    1.24
   4  -2   0   58.24    1.32
   4  -2   0   58.26    1.34
  -4  -2   0   58.67    1.32
  -4  -2   0   57.05    1.33
  -4  -2   0   58.09    1.31
   4  -2   0   59.14    1.34
   4  -2   0   58.26    1.29
  -4   2  -1   87.06    1.90
  -4   2  -1   84.95    1.91
  -4   2  -1   84.57    1.85
  -4   2  -1   85.72    1.84
   4  -2   1   85.99    1.84
   4  -2   1   84.37    1.91
  -4  -2  -1   84.55    1.89
   4  -2   1   84.25    1.84
   4  -2   1   83.79    1.91
  -4  -2  -1   87.68    1.89
  -4  -2  -1   89.94    1.91
  -4  -2  -1   85.81    1.90
  -4   2  -2   15.94    0.46
   4   2   2   16.34    0.48
  -4   2  -2   16.08    0.49
   4   2   2   16.18    0.39
  -4   2  -2   15.36    0.41
  -4   2  -2   15.51    0.48
   4  -2   2   15.94    0.49
  -4  -2  -2   16.51    0.47
  -4  -2  -2   15.87    0.47
   4  -2   2   16.22    0.47
  -4  -2  -2   15.77    0.39
  -4  -2  -2   16.49    0.50
   4  -2   2   16.04    0.45
   4  -2   2   15.66    0.48
   4  -2   2   15.75    0.41
   4   2   3   24.63    0.61
  -4   2  -3   25.25    0.68
   4   2   3   25.62    0.69
   4   2   3   24.68    0.67
  -4   2  -3   23.96    0.58
  -4   2  -3   24.45    0.69
  -4  -2  -3   25.17    0.61
   4  -2   3   24.91    0.67
   4  -2   3   24.90    0.67
  -4  -2  -3   25.49    0.67
  -4  -2  -3   23.82    0.66
   4  -2   3   24.98    0.59
  -4  -2  -3   26.13    0.72
   4  -2   3   24.76    0.70
  -4   2  -4   20.90    0.63
   4   2   4   20.65    0.56
  -4   2  -4   21.19    0.64
   4   2   4   21.86    0.62
  -4   2  -4   20.95    0.50
   4   2   4   20.51    0.60
   4  -2   4   20.40    0.63
  -4  -2  -4   20.69    0.64
  -4  -2  -4   20.83    0.61
   4  -2   4   21.70    0.62
   4  -2   4   20.96    0.60
  -4  -2  -4   20.84    0.59
  -4  -2  -4   20.71    0.56
  -4   2  -5    0.28    0.08
   4   2   5    0.21    0.13
   4   2   5    0.31    0.11
  -4   2  -5    0.25    0.07
  -4   2  -5    0.16    0.09
  -4   2  -5    0.23    0.12
  -4   2  -5    0.31    0.11
   4   2   5    0.26    0.09
   4  -2   5    0.18    0.11
  -4  -2  -5    0.11    0.10
   4  -2   5    0.10    0.09
  -4  -2  -5    0.20    0.11
  -4  -2  -5    0.31    0.11
   4  -2   5    0.30    0.11
  -4  -2  -5    0.21    0.10
  -4   2  -6    7.13    0.25
   4   2   6    7.88    0.39
  -4   2  -6    6.84    0.39
   4   2   6    8.19    0.38
  -4   2  -6    6.78    0.35
   4   2   6    7.68    0.33
  -4   2  -6    7.67    0.27
  -4   2  -6    8.01    0.39
  -4  -2  -6    7.60    0.33
  -4  -2  -6    7.79    0.34
   4  -2   6    7.57    0.39
   4  -2   6    8.14    0.38
   4  -2   6    7.53    0.39
  -4  -2  -6    7.73    0.39
  -4  -2  -6    7.06    0.37
   4   2   7    9.84    0.49
   4   2   7    9.85    0.46
  -4   2  -7    9.28    0.33
  -4   2  -7    9.71    0.45
  -4   2  -7   10.40    0.48
  -4   2  -7    9.70    0.32
  -4   2  -7    9.38    0.48
   4   2   7    9.81    0.42
  -4  -2  -7   10.20    0.47
   4  -2   7    9.36    0.48
  -4  -2  -7   10.26    0.43
  -4  -2  -7    9.90    0.48
   4  -2   7    9.58    0.45
   4  -2   7    9.39    0.48
  -4  -2  -7    9.38    0.42
   4   2   8    1.86    0.30
  -4   2  -8    1.63    0.21
  -4   2  -8    2.38    0.36
  -4   2  -8    1.90    0.20
  -4   2  -8    2.28    0.33
   4   2   8    2.21    0.29
  -4   2  -8    1.16    0.20
  -4  -2  -8    2.23    0.30
  -4  -2  -8    1.74    0.24
   4  -2   8    1.45    0.24
   4  -2   8    1.36    0.25
   4  -2   8    2.25    0.32
  -4  -2  -8    1.72    0.29
  -4  -2  -8    2.02    0.30
   4   2   9   -0.13    0.21
   4   2   9    0.18    0.27
  -4   2  -9    0.05    0.19
  -4   2  -9    0.07    0.14
  -4   2  -9   -0.06    0.21
  -4   2  -9   -0.05    0.25
   4   2   9    0.24    0.20
  -4   2  -9   -0.11    0.15
   4  -2   9    0.17    0.19
   4  -2   9    0.15    0.21
  -4  -2  -9   -0.01    0.20
  -4  -2  -9   -0.16    0.19
  -4  -2  -9   -0.16    0.23
  -4   2 -10    0.30    0.30
   4   2  10    0.60    0.29
  -4   2 -10    0.37    0.29
  -4   2 -10    0.47    0.18
   4  -2  10    0.83    0.27
   4  -2  10    0.00    0.31
  -4  -2 -10    0.66    0.27
  -4  -2 -10    0.10    0.29
  -4  -2 -10    0.26    0.29
  -4   2 -11    6.93    0.69
   4   2  11    4.78    0.61
  -4   2 -11    4.61    0.67
  -4  -2 -11    4.18    0.58
  -4  -2 -11    5.11    0.66
   4   3 -11    0.93    0.29
   4   3 -11    0.44    0.35
  -4   3  11    1.09    0.38
   4  -3 -11    0.43    0.34
   4  -3 -11    0.83    0.38
  -4  -3  11    0.60    0.31
  -4   3  10    1.25    0.29
   4   3 -10    1.02    0.26
  -4   3  10    1.28    0.32
   4   3 -10    1.02    0.33
   4  -3 -10    1.01    0.26
  -4  -3  10    0.83    0.27
   4  -3 -10    1.10    0.29
   4  -3 -10    1.21    0.29
  -4   3   9   10.89    0.57
  -4   3   9   11.29    0.54
   4   3  -9   11.59    0.63
  -4   3   9   12.95    0.62
   4   3  -9   10.78    0.50
   4  -3  -9   12.06    0.61
   4  -3  -9   11.89    0.54
  -4  -3   9   11.00    0.58
   4  -3  -9   11.94    0.59
  -4   3   8    0.28    0.18
  -4   3   8    0.22    0.21
   4   3  -8    0.41    0.14
  -4   3   8    0.52    0.19
   4   3  -8    0.32    0.22
  -4   3   8    0.54    0.19
   4   3  -8    0.60    0.22
  -4  -3   8    0.52    0.18
  -4  -3   8    0.67    0.25
   4  -3  -8    0.49    0.16
  -4  -3   8    0.39    0.19
   4  -3  -8    0.45    0.17
   4  -3  -8    0.51    0.17
   4  -3  -8    0.41    0.22
  -4   3   7    9.33    0.48
   4   3  -7    8.03    0.39
  -4   3   7    9.47    0.47
  -4   3   7   10.22    0.39
   4   3  -7   10.14    0.47
  -4   3   7   10.33    0.51
   4   3  -7   10.47    0.51
   4  -3  -7   10.23    0.47
  -4  -3   7    9.36    0.52
   4  -3  -7    9.80    0.39
   4  -3  -7   10.10    0.49
  -4  -3   7   11.24    0.49
   4  -3  -7   10.35    0.46
  -4  -3   7   10.30    0.42
  -4   3   6  189.18    4.29
  -4   3   6  191.98    4.04
  -4   3   6  193.07    4.25
  -4   3   6  188.77    4.18
   4   3  -6  188.94    4.12
   4   3  -6  193.13    4.24
   4   3  -6  199.41    4.26
   4  -3  -6  187.53    4.06
   4  -3  -6  197.62    4.19
  -4  -3   6  199.64    4.25
  -4  -3   6  190.16    4.14
  -4  -3   6  191.74    4.26
   4  -3  -6  191.34    4.24
   4  -3  -6  192.99    4.24
  -4   3   5    1.05    0.15
  -4   3   5    0.74    0.14
   4   3  -5    0.96    0.18
  -4   3   5    0.80    0.16
   4   3  -5    1.01    0.14
  -4   3   5    0.73    0.15
   4  -3  -5    1.11    0.15
   4  -3  -5    0.77    0.14
  -4  -3   5    1.20    0.19
   4  -3  -5    1.11    0.19
  -4  -3   5    1.09    0.14
  -4  -3   5    1.30    0.19
   4   3  -4    7.22    0.35
  -4   3   4    7.09    0.32
  -4   3   4    6.83    0.33
  -4   3   4    7.32    0.37
   4   3  -4    7.10    0.26
  -4   3   4    7.40    0.36
   4  -3  -4    7.61    0.35
   4  -3  -4    7.00    0.32
   4  -3  -4    7.32    0.36
  -4  -3   4    6.99    0.35
  -4  -3   4    7.23    0.23
  -4  -3   4    7.10    0.35
  -4  -3   4    7.33    0.26
  -4   3   3    7.83    0.38
  -4   3   3    7.62    0.33
  -4   3   3    7.91    0.35
   4   3  -3    8.11    0.25
   4   3  -3    8.31    0.35
  -4  -3   3    8.45    0.36
   4  -3  -3    7.75    0.36
  -4  -3   3    8.20    0.25
  -4  -3   3    8.18    0.27
   4  -3  -3    7.82    0.33
  -4  -3   3    8.22    0.36
   4  -3  -3    8.10    0.36
  -4  -3   3    7.92    0.26
  -4   3   2    0.63    0.14
   4   3  -2    0.64    0.12
  -4   3   2    0.73    0.12
  -4   3   2    0.56    0.12
  -4  -3   2    0.60    0.12
  -4  -3   2    0.67    0.10
  -4  -3   2    0.62    0.12
   4  -3  -2    0.68    0.12
   4  -3  -2    0.69    0.12
   4  -3  -2    0.90    0.14
  -4  -3   2    0.62    0.10
  -4   3   1    1.68    0.19
  -4   3   1    1.63    0.17
  -4   3   1    1.57    0.16
  -4  -3   1    1.76    0.16
  -4  -3   1    1.96    0.17
   4  -3  -1    1.70    0.19
   4  -3  -1    1.67    0.16
   4  -3  -1    1.63    0.17
  -4  -3   1    1.23    0.18
   4  -3  -1    1.62    0.16
  -4  -3   1    1.62    0.16
  -4  -3   1    1.79    0.18
  -4   3   0   57.71    1.35
  -4   3   0   57.33    1.39
  -4  -3   0   60.15    1.38
   4  -3   0   60.25    1.44
  -4  -3   0   57.96    1.43
  -4  -3   0   58.53    1.37
   4  -3   0   58.54    1.34
  -4  -3   0   57.18    1.37
   4  -3   0   61.03    1.40
   4  -3   0   60.14    1.39
  -4   3  -1    0.59    0.09
  -4   3  -1    0.55    0.09
  -4   3  -1    0.59    0.11
  -4   3  -1    0.37    0.08
   4  -3   1    0.62    0.09
  -4  -3  -1    0.52    0.12
   4  -3   1    0.56    0.09
  -4  -3  -1    0.82    0.15
  -4  -3  -1    0.75    0.12
  -4  -3  -1    0.54    0.11
   4  -3   1    0.53    0.11
   4  -3   1    0.66    0.13
  -4   3  -2    0.09    0.10
  -4   3  -2   -0.07    0.07
   4   3   2    0.14    0.11
  -4   3  -2   -0.13    0.07
  -4   3  -2    0.07    0.08
   4  -3   2    0.00    0.06
  -4  -3  -2   -0.16    0.08
  -4  -3  -2   -0.04    0.08
   4  -3   2    0.08    0.08
   4  -3   2    0.04    0.08
   4  -3   2    0.09    0.09
  -4  -3  -2   -0.21    0.09
   4  -3   2   -0.06    0.07
  -4   3  -3   41.32    0.93
  -4   3  -3   41.37    1.08
  -4   3  -3   39.92    1.06
  -4   3  -3   41.78    1.04
   4   3   3   41.39    0.94
   4   3   3   42.62    1.10
   4  -3   3   42.25    1.03
   4  -3   3   41.07    1.08
  -4  -3  -3   41.86    0.94
   4  -3   3   42.37    1.11
   4  -3   3   41.49    1.08
   4  -3   3   40.89    0.92
  -4  -3  -3   42.90    1.09
  -4  -3  -3   40.77    1.03
  -4  -3  -3   42.70    1.11
   4   3   4    1.58    0.23
  -4   3  -4    1.64    0.22
   4   3   4    0.81    0.15
  -4   3  -4    0.96    0.16
   4   3   4    1.03    0.15
  -4   3  -4    1.09    0.17
   4  -3   4    1.16    0.18
  -4  -3  -4    1.39    0.18
  -4  -3  -4    1.45    0.15
   4  -3   4    1.11    0.18
  -4  -3  -4    0.90    0.16
   4  -3   4    1.24    0.18
  -4  -3  -4    1.36    0.20
   4   3   5   31.94    0.89
   4   3   5   33.92    0.97
  -4   3  -5   33.13    0.94
  -4   3  -5   32.53    0.93
   4   3   5   32.13    0.83
  -4  -3  -5   32.92    0.90
   4  -3   5   33.42    0.94
   4  -3   5   31.66    0.94
   4  -3   5   32.85    0.92
  -4  -3  -5   31.58    0.96
  -4  -3  -5   32.24    0.91
  -4  -3  -5   31.82    0.83
   4   3   6   -0.04    0.15
   4   3   6    0.06    0.11
   4   3   6    0.08    0.13
  -4   3  -6   -0.04    0.14
  -4   3  -6    0.00    0.16
   4  -3   6    0.08    0.17
  -4  -3  -6   -0.05    0.12
  -4  -3  -6   -0.10    0.15
  -4  -3  -6    0.08    0.15
   4  -3   6    0.11    0.15
  -4  -3  -6   -0.04    0.16
   4  -3   6    0.00    0.17
  -4   3  -7    1.76    0.27
  -4   3  -7    1.43    0.27
   4   3   7    1.16    0.25
   4   3   7    1.49    0.20
   4   3   7    1.36    0.25
   4  -3   7    1.51    0.25
  -4  -3  -7    1.75    0.24
  -4  -3  -7    1.27    0.25
   4  -3   7    1.24    0.23
   4  -3   7    1.47    0.28
  -4  -3  -7    1.58    0.25
  -4  -3  -7    1.51    0.23
   4   3   8    1.01    0.28
   4   3   8    0.47    0.21
   4   3   8    0.44    0.28
  -4   3  -8    0.62    0.28
  -4   3  -8    0.94    0.21
  -4  -3  -8    0.55    0.27
   4  -3   8    0.60    0.28
   4  -3   8    0.68    0.24
  -4  -3  -8    0.47    0.24
  -4  -3  -8    1.01    0.24
  -4  -3  -8    0.78    0.25
   4  -3   8    0.75    0.28
   4   3   9   17.54    0.78
  -4   3  -9   17.00    0.83
  -4   3  -9   16.87    0.76
   4   3   9   20.49    1.05
   4   3   9   14.88    0.79
  -4  -3  -9   17.04    0.79
  -4  -3  -9   17.98    0.77
   4  -3   9   16.91    0.75
   4  -3   9   14.96    0.82
  -4  -3  -9   17.72    0.77
  -4   3 -10    5.53    0.67
   4   3  10    5.17    0.64
  -4   3 -10    4.29    0.61
   4  -3  10    5.70    0.57
  -4  -3 -10    4.33    0.51
  -4  -3 -10    4.87    0.61
  -4   4  10    2.14    0.43
   4   4 -10    1.38    0.41
  -4   4  10    1.46    0.38
   4   4 -10    1.06    0.28
  -4  -4  10    1.30    0.35
   4  -4 -10    1.77    0.38
   4  -4 -10    1.92    0.34
  -4   4   9    1.08    0.35
  -4   4   9    0.50    0.23
   4   4  -9    0.49    0.21
   4   4  -9    0.42    0.33
  -4  -4   9    1.03    0.29
   4  -4  -9    0.37    0.27
   4  -4  -9    0.95    0.24
   4   4  -8    0.96    0.19
  -4   4   8    0.32    0.17
  -4   4   8    0.95    0.26
   4   4  -8    0.87    0.29
  -4   4   8    0.86    0.29
   4  -4  -8    0.85    0.26
  -4  -4   8    0.75    0.21
   4  -4  -8    0.65    0.18
   4  -4  -8    1.09    0.27
  -4   4   7    0.44    0.21
   4   4  -7    0.42    0.15
  -4   4   7    0.22    0.17
   4   4  -7    0.20    0.24
   4  -4  -7    0.47    0.24
  -4  -4   7    0.34    0.19
  -4  -4   7    1.16    0.30
   4  -4  -7    0.46    0.22
   4   4  -6    2.85    0.35
   4   4  -6    2.37    0.22
  -4   4   6    2.77    0.34
  -4   4   6    2.57    0.30
  -4   4   6    2.83    0.41
  -4  -4   6    1.87    0.23
   4  -4  -6    2.85    0.34
  -4  -4   6    3.19    0.40
   4  -4  -6    2.94    0.37
  -4  -4   6    2.46    0.34
   4  -4  -6    2.47    0.32
  -4   4   5    0.23    0.16
  -4   4   5    0.30    0.14
  -4   4   5    0.72    0.20
   4   4  -5    0.34    0.11
   4   4  -5    0.06    0.18
  -4   4   5    0.44    0.20
   4  -4  -5    0.36    0.16
   4  -4  -5    0.39    0.18
  -4  -4   5    0.30    0.10
  -4  -4   5    0.18    0.18
   4  -4  -5    0.39    0.17
  -4  -4   5    0.42    0.17
   4   4  -4   18.73    0.64
  -4   4   4   19.35    0.61
  -4   4   4   18.53    0.71
  -4   4   4   17.86    0.68
   4   4  -4   18.82    0.51
  -4   4   4   19.40    0.64
   4   4  -4   18.37    0.52
   4  -4  -4   18.78    0.67
  -4  -4   4   18.68    0.49
   4  -4  -4   18.61    0.66
  -4  -4   4   18.85    0.47
  -4  -4   4   18.83    0.68
  -4  -4   4   18.65    0.52
  -4  -4   4   17.91    0.66
   4  -4  -4   18.59    0.61
  -4   4   3    0.05    0.13
   4   4  -3    0.36    0.08
  -4   4   3    0.25    0.17
   4   4  -3    0.14    0.12
  -4   4   3    0.19    0.12
  -4   4   3    0.26    0.13
   4   4  -3    0.32    0.07
   4  -4  -3    0.10    0.15
   4  -4  -3    0.42    0.15
  -4  -4   3    0.18    0.14
   4  -4  -3    0.01    0.12
  -4  -4   3    0.09    0.13
  -4  -4   3    0.24    0.10
  -4  -4   3    0.08    0.16
  -4  -4   3    0.09    0.10
  -4  -4   3    0.23    0.08
  -4   4   2   20.11    0.66
  -4   4   2   19.10    0.71
  -4   4   2   20.12    0.62
  -4   4   2   20.16    0.63
  -4  -4   2   20.45    0.58
  -4  -4   2   20.70    0.72
   4  -4  -2   19.33    0.69
  -4  -4   2   19.76    0.56
  -4  -4   2   19.45    0.64
  -4  -4   2   19.99    0.68
   4  -4  -2   20.28    0.64
   4  -4  -2   19.98    0.63
  -4   4   1    3.64    0.25
  -4   4   1    3.06    0.24
  -4   4   1    2.96    0.28
   4  -4  -1    2.80    0.30
  -4  -4   1    3.30    0.24
  -4  -4   1    3.41    0.31
   4  -4  -1    3.58    0.26
  -4  -4   1    3.34    0.28
   4  -4  -1    2.85    0.25
  -4  -4   1    2.61    0.25
   4  -4  -1    3.08    0.24
  -4  -4   1    3.57    0.25
  -4   4   0    0.00    0.12
  -4   4   0    0.01    0.13
  -4   4   0    0.04    0.10
  -4  -4   0    0.10    0.11
   4  -4   0    0.13    0.11
   4  -4   0    0.23    0.14
  -4  -4   0    0.27    0.10
   4  -4   0   -0.05    0.10
  -4  -4   0    0.16    0.12
  -4  -4   0    0.21    0.11
  -4  -4   0   -0.15    0.14
  -4   4  -1   10.17    0.41
  -4   4  -1    9.82    0.41
  -4   4  -1    9.76    0.37
  -4  -4  -1   10.68    0.44
  -4  -4  -1   10.29    0.48
   4  -4   1   10.60    0.50
  -4  -4  -1    9.95    0.39
   4  -4   1    9.94    0.35
  -4  -4  -1    9.72    0.37
   4  -4   1   10.62    0.43
  -4   4  -2    0.30    0.12
  -4   4  -2    0.09    0.13
  -4   4  -2   -0.06    0.12
  -4   4  -2    0.12    0.10
  -4  -4  -2    0.28    0.11
  -4  -4  -2    0.18    0.15
  -4  -4  -2    0.36    0.12
   4  -4   2    0.25    0.17
   4  -4   2    0.33    0.16
   4  -4   2    0.14    0.13
   4  -4   2    0.14    0.10
  -4  -4  -2    0.36    0.17
   4  -4   2    0.12    0.09
   4   4   3   40.50    1.15
  -4   4  -3   40.56    1.09
  -4   4  -3   41.61    1.04
  -4   4  -3   40.41    0.90
   4  -4   3   40.87    0.90
   4  -4   3   41.06    1.17
   4  -4   3   41.34    1.13
  -4  -4  -3   40.16    1.14
   4  -4   3   40.00    1.10
   4  -4   3   40.75    1.02
  -4  -4  -3   39.86    1.13
  -4  -4  -3   41.33    1.03
  -4  -4  -3   35.52    1.01
  -4   4  -4   17.94    0.64
  -4   4  -4   19.41    0.65
  -4   4  -4   18.21    0.64
   4   4   4   18.63    0.51
   4   4   4   18.99    0.72
   4   4   4   18.84    0.51
   4  -4   4   19.28    0.69
   4  -4   4   18.99    0.67
  -4  -4  -4   19.67    0.71
   4  -4   4   19.36    0.63
   4  -4   4   18.77    0.73
  -4  -4  -4   16.59    0.50
  -4  -4  -4   18.33    0.70
  -4  -4  -4   18.84    0.60
  -4   4  -5    0.45    0.20
   4   4   5    0.03    0.12
   4   4   5    0.14    0.18
  -4   4  -5   -0.31    0.16
  -4   4  -5   -0.02    0.15
  -4  -4  -5    0.11    0.14
  -4  -4  -5    0.09    0.18
   4  -4   5   -0.13    0.20
  -4  -4  -5    0.18    0.14
  -4  -4  -5   -0.14    0.22
   4  -4   5    0.26    0.19
   4  -4   5    0.18    0.18
   4  -4   5    0.08    0.18
  -4   4  -6    0.65    0.25
   4   4   6    0.15    0.22
  -4   4  -6    0.20    0.22
   4   4   6    0.22    0.14
  -4   4  -6    0.32    0.20
  -4  -4  -6    0.50    0.21
   4  -4   6    0.40    0.23
  -4  -4  -6    0.43    0.17
   4  -4   6    0.14    0.25
  -4  -4  -6    0.17    0.23
  -4  -4  -6    0.49    0.20
   4  -4   6    0.41    0.25
   4   4   7    1.29    0.31
  -4   4  -7    0.72    0.26
   4   4   7    0.66    0.20
  -4   4  -7    0.83    0.31
  -4   4  -7    0.75    0.22
   4  -4   7    0.95    0.27
  -4  -4  -7    0.21    0.25
   4  -4   7    0.74    0.30
  -4  -4  -7    1.35    0.26
  -4  -4  -7    0.56    0.27
  -4  -4  -7    0.69    0.23
   4   4   8    3.01    0.42
   4   4   8    2.21    0.38
  -4   4  -8    3.46    0.49
   4   4   8    2.29    0.29
  -4  -4  -8    2.75    0.38
  -4  -4  -8    2.28    0.35
   4  -4   8    3.93    0.52
   4   4   9    6.89    0.70
  -4   4  -9    6.84    0.63
  -4   4  -9    9.00    0.82
  -4  -4  -9    5.94    0.63
  -4  -4  -9    6.16    0.69
   4  -4   9    6.36    0.65
  -4   5   8   -0.11    0.23
   4   5  -8   -0.11    0.19
  -4   5   8    0.00    0.35
   4   5  -8    0.44    0.38
   4  -5  -8    0.63    0.38
  -4  -5   8    0.24    0.28
   4   5  -7    1.25    0.27
   4   5  -7    1.74    0.22
  -4   5   7    2.04    0.30
  -4   5   7    2.12    0.39
   4   5  -7    1.69    0.40
   4  -5  -7    2.05    0.41
  -4  -5   7    1.71    0.35
   4   5  -6   12.80    0.53
   4   5  -6   13.32    0.48
  -4   5   6   13.13    0.60
  -4   5   6   14.14    0.61
   4   5  -6   11.73    0.66
  -4   5   6   13.51    0.71
   4  -5  -6   12.61    0.72
   4  -5  -6   13.06    0.63
  -4  -5   6   13.28    0.68
  -4  -5   6   13.56    0.74
   4   5  -5    4.83    0.33
  -4   5   5    6.34    0.41
  -4   5   5    4.49    0.46
  -4   5   5    4.84    0.41
   4   5  -5    5.04    0.46
   4   5  -5    5.80    0.29
  -4  -5   5    5.50    0.52
   4  -5  -5    4.78    0.44
  -4  -5   5    5.42    0.49
   4  -5  -5    5.35    0.50
  -4   5   4   10.28    0.48
   4   5  -4    9.99    0.34
  -4   5   4    9.25    0.59
  -4   5   4    8.84    0.61
   4   5  -4    9.58    0.36
   4   5  -4    9.87    0.50
  -4   5   4    9.65    0.49
  -4  -5   4    9.85    0.57
  -4  -5   4    9.49    0.32
   4  -5  -4    9.58    0.55
  -4  -5   4    9.91    0.33
   4  -5  -4   10.96    0.52
  -4  -5   4    9.12    0.54
  -4   5   3    4.39    0.48
  -4   5   3    3.96    0.35
  -4   5   3    4.93    0.42
  -4   5   3    4.02    0.33
  -4  -5   3    5.03    0.42
  -4  -5   3    4.98    0.43
   4  -5  -3    4.70    0.41
   4  -5  -3    4.57    0.39
  -4  -5   3    4.05    0.28
  -4  -5   3    4.76    0.29
  -4   5   2    5.88    0.48
  -4   5   2    5.74    0.39
  -4  -5   2    6.17    0.50
   4  -5  -2    6.06    0.42
   4  -5  -2    6.07    0.41
  -4  -5   2    6.33    0.41
  -4  -5   2    5.59    0.34
  -4  -5   2    5.57    0.43
  -4  -5   2    5.93    0.35
   4  -5  -2    6.24    0.48
  -4   5   1    0.23    0.17
  -4   5   1    0.31    0.20
   4  -5  -1    0.29    0.19
   4  -5  -1    0.42    0.26
  -4  -5   1    0.45    0.19
  -4  -5   1    0.42    0.19
  -4  -5   1    0.54    0.20
  -4  -5   1    0.26    0.24
  -4  -5   1    0.17    0.17
  -4   5   0    1.95    0.24
  -4   5   0    1.78    0.25
  -4   5   0    1.97    0.24
   4  -5   0    2.16    0.32
  -4  -5   0    2.31    0.33
   4  -5   0    1.88    0.28
  -4  -5   0    1.75    0.25
  -4  -5   0    1.94    0.23
  -4  -5   0    2.16    0.26
  -4  -5   0    2.18    0.27
   4  -5   0    1.53    0.22
  -4   5  -1   11.58    0.51
  -4   5  -1   11.42    0.48
  -4   5  -1   10.91    0.44
  -4  -5  -1   10.70    0.61
   4  -5   1   11.09    0.50
  -4  -5  -1   11.02    0.47
  -4  -5  -1   10.81    0.53
  -4  -5  -1   10.52    0.44
   4  -5   1   11.18    0.43
   4  -5   1   10.33    0.60
  -4  -5  -1   11.76    0.53
  -4   5  -2    5.63    0.35
  -4   5  -2    5.49    0.41
  -4   5  -2    4.95    0.28
  -4  -5  -2    4.96    0.35
   4  -5   2    4.99    0.44
  -4  -5  -2    4.96    0.51
   4  -5   2    4.56    0.27
   4  -5   2    5.07    0.28
   4  -5   2    5.17    0.52
  -4  -5  -2    5.24    0.43
  -4  -5  -2    4.81    0.32
  -4   5  -3    8.39    0.43
  -4   5  -3    7.26    0.46
  -4   5  -3    8.58    0.41
   4  -5   3    8.07    0.39
  -4  -5  -3    8.81    0.40
  -4  -5  -3    7.72    0.60
  -4  -5  -3    8.26    0.42
   4  -5   3    7.92    0.52
  -4  -5  -3    7.83    0.53
  -4   5  -4    5.53    0.41
  -4   5  -4    6.04    0.48
  -4   5  -4    6.89    0.46
   4  -5   4    5.45    0.41
   4  -5   4    6.42    0.52
  -4  -5  -4    5.81    0.52
  -4  -5  -4    7.03    0.42
  -4  -5  -4    5.96    0.39
  -4   5  -5    2.61    0.37
   4   5   5    3.49    0.46
  -4   5  -5    3.21    0.44
   4  -5   5    3.07    0.41
  -4  -5  -5    2.10    0.34
  -4  -5  -5    2.80    0.35
  -4  -5  -5    2.78    0.41
   4  -5   5    2.41    0.32
  -4   5  -6    1.39    0.35
  -4   5  -6    1.10    0.30
   4   5   6    0.82    0.32
   4   5   6    0.83    0.18
   4   5   6    1.16    0.18
   4  -5   6    1.18    0.35
  -4  -5  -6    0.94    0.36
  -4  -5  -6    1.48    0.24
   4  -5   6    0.82    0.34
  -4  -5  -6    1.33    0.29
   4   5   7    7.23    0.69
  -4   5  -7    7.24    0.62
  -4   5  -7    9.49    0.74
   4   5   7    7.73    0.45
   4   5   7    7.45    0.41
   4  -5   7    6.86    0.65
  -4  -5  -7    8.10    0.58
  -4  -5  -7    6.61    0.74
   4   6  -6   -0.41    0.35
   4   6  -6    0.14    0.19
   4   6  -6    0.01    0.28
   4  -6  -6    0.07    0.37
  -4  -6   6   -0.40    0.67
  -4   6   5    8.91    0.54
  -4   6   5   10.13    0.73
  -4  -6   5   10.73    0.76
   4  -6  -5   11.12    0.77
  -4   6   4    0.64    0.23
  -4  -6   4    0.59    0.45
  -4  -6   4    0.44    0.33
   4  -6  -4    0.65    0.36
  -4   6   3   -0.29    0.19
  -4  -6   3    0.02    0.32
  -4  -6   3    0.12    0.29
  -4  -6   3   -0.01    0.20
   4  -6  -3   -0.35    0.29
  -4   6   2    0.16    0.36
  -4   6   2    0.20    0.18
  -4  -6   2   -0.30    0.27
  -4  -6   2    0.38    0.28
  -4  -6   2   -0.28    0.23
   4  -6  -2   -0.39    0.26
  -4  -6   2   -0.03    0.22
  -4   6   1    1.49    0.33
  -4   6   1    0.67    0.31
  -4   6   1    0.56    0.20
  -4  -6   1    1.04    0.25
   4  -6  -1    1.01    0.28
  -4  -6   1    0.73    0.30
  -4  -6   1    1.03    0.27
  -4  -6   1    1.09    0.30
  -4  -6   1    0.77    0.31
  -4   6   0    4.91    0.38
   4  -6   0    4.28    0.44
  -4  -6   0    4.32    0.42
  -4  -6   0    5.12    0.58
  -4  -6   0    4.48    0.48
  -4  -6   0    4.40    0.51
  -4  -6   0    5.83    0.58
  -4   6  -1    1.08    0.22
  -4  -6  -1    1.00    0.23
  -4  -6  -1    0.74    0.38
   4  -6   1    1.19    0.35
   4  -6   1    1.00    0.24
  -4  -6  -1    0.72    0.29
  -4   6  -2   12.10    0.54
  -4  -6  -2   11.98    0.50
   4  -6   2   10.36    0.70
  -4  -6  -2   12.21    0.69
   4  -6   2   12.79    0.58
  -4   6  -3    5.05    0.43
   4  -6   3    7.22    0.64
  -4  -6  -3    7.08    0.65
  -4  -6  -3    6.37    0.53
  -4   6  -4    1.61    0.32
   4  -6   4    1.82    0.41
  -4  -6  -4    2.00    0.39
   5   0 -13    0.35    0.42
   5   0 -13    0.12    0.34
  -5   0  13    0.83    0.35
   5   0 -13   -0.17    0.37
  -5   0  12    1.03    0.37
   5   0 -12    1.21    0.32
   5   0 -12    1.07    0.31
  -5   0  12    1.00    0.27
   5   0 -12    1.81    0.38
  -5   0  12    0.55    0.40
  -5   0  11   -0.15    0.27
  -5   0  11   -0.06    0.23
   5   0 -11    0.07    0.21
   5   0 -11   -0.10    0.22
  -5   0  11    0.16    0.20
   5   0 -11   -0.07    0.26
   5   0 -10    0.22    0.19
  -5   0  10    0.00    0.20
  -5   0  10    0.30    0.20
   5   0 -10   -0.04    0.18
   5   0 -10    0.14    0.19
  -5   0  10    0.49    0.17
  -5   0  10   -0.05    0.20
   5   0 -10    0.26    0.22
  -5   0   9    0.06    0.17
  -5   0   9    0.41    0.18
   5   0  -9   -0.31    0.14
   5   0  -9   -0.06    0.16
   5   0  -9   -0.05    0.17
  -5   0   9    0.01    0.11
   5   0  -9   -0.01    0.15
  -5   0   9    0.14    0.16
   5   0  -8   73.02    1.73
   5   0  -8   70.36    1.67
   5   0  -8   70.54    1.76
  -5   0   8   73.46    1.73
  -5   0   8   71.42    1.70
  -5   0   8   70.51    1.76
  -5   0   8   70.84    1.74
   5   0  -8   70.24    1.73
   5   0  -7    0.10    0.10
  -5   0   7    0.00    0.09
  -5   0   7    0.10    0.11
   5   0  -7   -0.11    0.10
  -5   0   7    0.20    0.10
   5   0  -7    0.03    0.08
   5   0  -7    0.01    0.09
  -5   0   7   -0.05    0.10
  -5   0   6   63.75    1.52
  -5   0   6   64.67    1.50
   5   0  -6   64.56    1.49
  -5   0   6   65.45    1.55
   5   0  -6   63.86    1.52
   5   0  -6   65.89    1.55
   5   0  -6   65.93    1.52
  -5   0   6   61.83    1.51
   5   0  -5    1.12    0.15
   5   0  -5    1.09    0.14
   5   0  -5    1.14    0.15
   5   0  -4   56.84    1.28
  -5   0   4   55.39    1.28
   5   0  -4   56.54    1.27
  -5   0   4   55.84    1.28
   5   0  -4   54.51    1.30
   5   0  -4   56.71    1.28
  -5   0   4   54.78    1.30
  -5   0   4   55.08    1.27
   5   0  -3   -0.02    0.04
   5   0  -3    0.03    0.04
  -5   0   3    0.03    0.05
   5   0  -3   -0.01    0.04
  -5   0   3    0.00    0.04
  -5   0   3    0.00    0.05
  -5   0   3   -0.01    0.05
   5   0  -3   -0.01    0.05
  -5   0   2   64.57    1.42
  -5   0   2   63.63    1.44
  -5   0   2   63.70    1.40
   5   0  -2   63.78    1.40
   5   0  -2   64.87    1.43
   5   0  -2   66.24    1.42
  -5   0   2   66.47    1.43
   5   0  -2   66.12    1.44
  -5   0   2   64.88    1.43
  -5   0   1   -0.03    0.03
   5   0  -1   -0.03    0.04
  -5   0   1    0.05    0.03
  -5   0   1    0.00    0.04
  -5   0   1    0.02    0.04
   5   0  -1    0.02    0.03
  -5   0   1   -0.02    0.03
   5   0  -1   -0.04    0.03
  -5   0   0   28.12    0.68
   5   0   0   28.27    0.69
  -5   0   0   27.09    0.68
  -5   0   0   28.82    0.69
  -5   0   0   28.51    0.67
   5   0   0   30.03    0.68
  -5   0  -1   -0.07    0.04
   5   0   1   -0.14    0.04
  -5   0  -1   -0.12    0.04
  -5   0  -1   -0.10    0.04
   5   0   1   -0.18    0.04
  -5   0  -1   -0.09    0.05
   5   0   2   89.20    1.92
   5   0   2   85.69    1.82
  -5   0  -2   87.41    1.91
  -5   0  -2   85.79    1.93
   5   0   2   89.48    1.93
  -5   0  -2   86.53    1.82
  -5   0  -2   86.89    1.90
   5   0   2   86.36    1.91
   5   0   3    0.04    0.04
  -5   0  -3    0.02    0.04
  -5   0  -3   -0.04    0.05
   5   0   3   -0.02    0.06
  -5   0  -3    0.13    0.07
   5   0   3   -0.02    0.06
  -5   0  -3    0.05    0.06
  -5   0  -4    0.69    0.12
   5   0   4    0.95    0.13
   5   0   4    0.89    0.13
   5   0   4    0.80    0.10
  -5   0  -4    0.70    0.10
  -5   0  -4    0.64    0.09
  -5   0  -4    0.72    0.10
  -5   0  -5   -0.01    0.06
  -5   0  -5   -0.05    0.06
   5   0   5    0.09    0.07
   5   0   5   -0.08    0.07
   5   0   5    0.00    0.06
  -5   0  -5    0.06    0.08
  -5   0  -5   -0.03    0.09
  -5   0  -5   -0.07    0.07
   5   0   6    1.88    0.19
  -5   0  -6    1.59    0.21
  -5   0  -6    2.02    0.22
  -5   0  -6    1.71    0.21
  -5   0  -6    1.88    0.21
   5   0   6    1.84    0.18
   5   0   6    1.74    0.21
  -5   0  -6    1.35    0.17
  -5   0  -7   -0.20    0.12
  -5   0  -7    0.04    0.11
  -5   0  -7    0.03    0.13
   5   0   7    0.14    0.11
  -5   0  -7    0.02    0.11
   5   0   7    0.09    0.11
   5   0   7   -0.02    0.11
  -5   0  -7   -0.03    0.11
   5   0   8  147.89    3.40
   5   0   8  147.21    3.41
  -5   0  -8  150.15    3.39
  -5   0  -8  149.43    3.35
   5   0   8  150.18    3.32
  -5   0  -8  150.26    3.46
  -5   0  -8  151.91    3.33
  -5   0  -8  153.22    3.32
  -5   0  -9    0.16    0.21
  -5   0  -9    0.10    0.20
   5   0   9   -0.21    0.15
  -5   0  -9   -0.16    0.19
   5   0   9    0.09    0.23
  -5   0  -9    0.38    0.20
  -5   0  -9    0.36    0.21
   5   0  10    0.87    0.23
   5   0  10    1.51    0.26
  -5   0 -10    0.32    0.25
  -5   0 -10    0.41    0.27
  -5   0 -10    0.75    0.27
  -5   0 -10    0.73    0.27
  -5   0 -10    0.97    0.29
  -5   0 -11    0.25    0.31
   5   0  11    0.15    0.29
  -5   0 -11    0.39    0.36
  -5   0 -11   -0.49    0.30
   5   1 -13    1.26    0.43
  -5   1  13    2.88    0.47
   5  -1 -13    1.35    0.45
  -5  -1  13    1.59    0.38
   5  -1 -13    1.12    0.42
   5  -1 -13    1.89    0.47
  -5   1  12    5.89    0.55
   5   1 -12    5.19    0.50
   5   1 -12    6.76    0.56
   5   1 -12    6.40    0.64
  -5  -1  12    4.64    0.53
  -5  -1  12    5.99    0.50
   5  -1 -12    5.35    0.56
   5  -1 -12    4.94    0.60
   5  -1 -12    4.71    0.60
  -5   1  11   -0.25    0.28
  -5   1  11   -0.26    0.29
  -5   1  11    0.82    0.23
  -5   1  11    0.08    0.27
   5   1 -11    1.01    0.31
   5   1 -11    0.49    0.20
   5   1 -11    0.18    0.23
   5  -1 -11    0.20    0.24
  -5  -1  11    0.46    0.23
  -5  -1  11   -0.04    0.19
   5  -1 -11    0.18    0.26
   5  -1 -11    0.44    0.26
  -5  -1  11    0.29    0.31
   5   1 -10    1.01    0.19
  -5   1  10    0.98    0.27
   5   1 -10    0.67    0.22
  -5   1  10    0.90    0.27
   5   1 -10    1.18    0.24
  -5   1  10    1.20    0.26
  -5   1  10    1.31    0.24
   5   1 -10    1.11    0.22
  -5  -1  10    0.78    0.22
   5  -1 -10    1.23    0.29
  -5  -1  10    1.09    0.17
   5  -1 -10    1.30    0.26
   5  -1 -10    1.49    0.25
  -5  -1  10    1.27    0.28
  -5  -1  10    1.31    0.22
   5  -1 -10    1.55    0.26
  -5   1   9    5.86    0.42
  -5   1   9    5.44    0.40
   5   1  -9    6.35    0.33
   5   1  -9    5.86    0.37
  -5   1   9    5.84    0.37
   5   1  -9    6.34    0.38
  -5   1   9    5.75    0.40
   5   1  -9    5.66    0.41
   5  -1  -9    6.08    0.41
  -5  -1   9    6.49    0.41
  -5  -1   9    6.33    0.37
  -5  -1   9    5.43    0.36
   5  -1  -9    5.46    0.40
  -5  -1   9    5.52    0.39
   5  -1  -9    5.76    0.40
   5  -1  -9    6.09    0.38
  -5   1   8    5.80    0.36
   5   1  -8    5.59    0.37
  -5   1   8    5.99    0.38
  -5   1   8    5.87    0.35
   5   1  -8    5.16    0.31
   5   1  -8    5.88    0.29
   5   1  -8    5.80    0.33
  -5   1   8    5.33    0.34
   5  -1  -8    5.40    0.34
   5  -1  -8    5.83    0.35
  -5  -1   8    6.02    0.30
  -5  -1   8    5.65    0.34
   5  -1  -8    5.66    0.35
   5  -1  -8    5.47    0.33
  -5  -1   8    5.78    0.35
  -5  -1   8    5.88    0.34
   5   1  -7    0.30    0.11
   5   1  -7    0.44    0.11
  -5   1   7    0.41    0.14
  -5   1   7    0.35    0.13
  -5   1   7    0.36    0.11
  -5   1   7    0.41    0.13
   5   1  -7    0.40    0.11
   5   1  -7    0.26    0.11
   5  -1  -7    0.34    0.10
  -5  -1   7    0.51    0.12
  -5  -1   7    0.69    0.15
  -5  -1   7    0.42    0.12
   5  -1  -7    0.47    0.14
  -5  -1   7    0.40    0.12
   5  -1  -7    0.35    0.13
   5  -1  -7    0.26    0.12
   5   1  -6    0.87    0.14
   5   1  -6    0.61    0.11
   5   1  -6    0.44    0.11
  -5   1   6    0.97    0.15
  -5   1   6    0.89    0.14
  -5   1   6    0.61    0.12
  -5   1   6    0.93    0.14
   5   1  -6    0.71    0.11
  -5  -1   6    0.85    0.13
  -5  -1   6    0.66    0.10
   5  -1  -6    0.68    0.12
  -5  -1   6    0.83    0.13
  -5  -1   6    0.48    0.11
   5  -1  -6    0.89    0.14
   5  -1  -6    0.81    0.14
   5  -1  -6    1.01    0.13
   5   1  -5    2.77    0.18
  -5   1   5    2.61    0.18
  -5   1   5    2.96    0.20
  -5   1   5    2.66    0.19
   5   1  -5    2.74    0.21
  -5   1   5    2.72    0.19
   5   1  -5    2.91    0.17
   5   1  -5    3.00    0.18
  -5  -1   5    2.70    0.17
   5  -1  -5    2.75    0.17
  -5  -1   5    2.80    0.17
  -5  -1   5    2.71    0.20
  -5  -1   5    2.48    0.19
   5  -1  -5    2.88    0.19
   5  -1  -5    2.80    0.20
   5  -1  -5    2.82    0.19
   5   1  -4   55.32    1.32
  -5   1   4   53.21    1.26
  -5   1   4   52.95    1.28
  -5   1   4   57.41    1.30
  -5   1   4   54.45    1.30
   5   1  -4   56.15    1.29
   5   1  -4   54.92    1.23
   5   1  -4   56.82    1.25
  -5  -1   4   54.60    1.25
  -5  -1   4   55.90    1.28
  -5  -1   4   55.60    1.24
   5  -1  -4   55.86    1.26
   5  -1  -4   55.83    1.29
   5  -1  -4   54.21    1.28
   5  -1  -4   54.36    1.28
  -5   1   3   22.84    0.62
   5   1  -3   23.70    0.64
  -5   1   3   22.95    0.62
   5   1  -3   24.11    0.58
   5   1  -3   23.20    0.57
  -5   1   3   23.02    0.58
  -5   1   3   24.03    0.63
   5   1  -3   23.25    0.61
  -5   1   3   22.63    0.61
  -5  -1   3   23.97    0.61
   5  -1  -3   23.28    0.61
  -5  -1   3   23.63    0.58
  -5  -1   3   23.42    0.57
   5  -1  -3   22.99    0.61
   5  -1  -3   23.86    0.58
   5  -1  -3   24.16    0.62
  -5  -1   3   23.54    0.64
   5   1  -2   47.52    1.03
  -5   1   2   46.25    1.08
  -5   1   2   43.69    1.09
  -5   1   2   46.58    1.08
   5   1  -2   45.32    1.06
  -5   1   2   47.98    1.08
   5   1  -2   48.01    1.11
   5   1  -2   47.52    1.06
  -5   1   2   46.77    1.05
   5  -1  -2   46.47    1.08
  -5  -1   2   46.85    1.06
  -5  -1   2   47.69    1.06
  -5  -1   2   47.29    1.11
  -5  -1   2   48.62    1.03
   5  -1  -2   45.56    1.06
   5  -1  -2   46.84    1.08
  -5   1   1   17.84    0.43
   5   1  -1   17.40    0.41
  -5   1   1   17.57    0.46
  -5   1   1   16.99    0.47
  -5   1   1   17.02    0.48
   5   1  -1   17.27    0.46
  -5   1   1   17.37    0.45
   5  -1  -1   16.69    0.48
   5  -1  -1   17.46    0.47
  -5  -1   1   17.37    0.48
  -5  -1   1   17.25    0.41
  -5  -1   1   17.98    0.42
  -5  -1   1   17.24    0.45
  -5  -1   1   17.05    0.43
   5  -1  -1   17.08    0.44
   5  -1  -1   17.37    0.46
   5   1   0    2.99    0.16
   5   1   0    2.64    0.11
  -5   1   0    2.70    0.14
  -5   1   0    2.66    0.15
  -5   1   0    2.59    0.14
  -5   1   0    2.56    0.13
   5  -1   0    2.75    0.14
   5  -1   0    2.52    0.16
  -5  -1   0    2.70    0.10
   5  -1   0    2.49    0.15
  -5  -1   0    2.73    0.16
  -5  -1   0    2.73    0.14
  -5  -1   0    2.78    0.12
   5  -1   0    2.60    0.13
  -5  -1   0    2.80    0.12
  -5  -1   0    2.83    0.11
   5  -1   0    2.73    0.13
  -5   1  -1   58.14    1.28
  -5   1  -1   56.54    1.25
  -5   1  -1   56.94    1.26
   5   1   1   54.85    1.22
   5  -1   1   57.88    1.25
   5  -1   1   54.91    1.29
  -5  -1  -1   56.82    1.22
  -5  -1  -1   54.94    1.21
   5  -1   1   54.89    1.23
  -5  -1  -1   55.80    1.21
   5  -1   1   56.60    1.22
  -5  -1  -1   56.42    1.29
   5  -1   1   57.52    1.26
  -5  -1  -1   54.11    1.27
  -5   1  -2    5.84    0.25
   5   1   2    5.57    0.24
  -5   1  -2    5.61    0.24
   5   1   2    5.42    0.20
  -5   1  -2    5.53    0.21
  -5   1  -2    5.81    0.24
   5   1   2    5.70    0.20
   5  -1   2    5.79    0.23
   5  -1   2    5.58    0.24
   5  -1   2    5.63    0.20
  -5  -1  -2    5.42    0.24
  -5  -1  -2    5.64    0.18
   5  -1   2    5.70    0.22
  -5  -1  -2    5.91    0.21
  -5  -1  -2    5.91    0.25
  -5   1  -3  123.76    2.77
  -5   1  -3  125.21    2.69
  -5   1  -3  123.10    2.69
   5   1   3  125.16    2.69
   5   1   3  131.24    2.77
   5   1   3  128.73    2.72
  -5   1  -3  128.02    2.77
   5  -1   3  129.67    2.69
   5  -1   3  130.26    2.76
  -5  -1  -3  125.13    2.71
  -5  -1  -3  122.53    2.75
  -5  -1  -3  125.00    2.67
   5  -1   3  126.71    2.77
   5  -1   3  127.92    2.71
  -5  -1  -3  128.03    2.77
  -5   1  -4   11.12    0.35
   5   1   4   11.87    0.36
  -5   1  -4   11.84    0.42
  -5   1  -4   11.03    0.35
  -5  -1  -4    9.90    0.38
  -5  -1  -4   11.17    0.34
  -5  -1  -4   11.72    0.41
   5  -1   4   11.54    0.36
   5  -1   4   12.12    0.41
  -5  -1  -4   11.02    0.37
   5  -1   4   11.54    0.42
  -5  -1  -4   11.58    0.42
   5   1   5    0.99    0.14
  -5   1  -5    0.90    0.12
  -5   1  -5    0.89    0.13
   5   1   5    1.06    0.14
  -5   1  -5    0.71    0.12
  -5   1  -5    0.80    0.11
  -5   1  -5    0.84    0.15
   5  -1   5    0.88    0.12
  -5  -1  -5    0.98    0.16
   5  -1   5    0.68    0.12
  -5  -1  -5    0.95    0.15
  -5  -1  -5    0.91    0.12
  -5  -1  -5    1.17    0.17
  -5  -1  -5    1.19    0.17
   5  -1   5    0.92    0.16
  -5   1  -6   25.89    0.70
   5   1   6   26.63    0.77
   5   1   6   26.42    0.79
  -5   1  -6   25.73    0.79
  -5   1  -6   26.04    0.73
  -5   1  -6   26.41    0.72
   5   1   6   27.17    0.74
  -5   1  -6   27.10    0.82
  -5  -1  -6   26.66    0.79
   5  -1   6   26.77    0.73
   5  -1   6   26.59    0.79
   5  -1   6   26.56    0.80
  -5  -1  -6   26.32    0.72
  -5  -1  -6   27.99    0.82
  -5  -1  -6   27.00    0.79
  -5  -1  -6   27.23    0.76
  -5   1  -7   11.96    0.53
  -5   1  -7   12.32    0.43
  -5   1  -7   12.39    0.44
  -5   1  -7   12.16    0.46
  -5   1  -7   11.99    0.51
   5   1   7   11.86    0.48
   5   1   7   12.08    0.52
   5   1   7   11.63    0.46
  -5  -1  -7   11.26    0.50
   5  -1   7   12.27    0.53
   5  -1   7   12.04    0.45
  -5  -1  -7   11.84    0.45
  -5  -1  -7   12.33    0.48
  -5  -1  -7   12.25    0.53
  -5  -1  -7   12.55    0.52
   5  -1   7   11.48    0.49
  -5   1  -8    1.14    0.24
  -5   1  -8    1.03    0.19
   5   1   8    1.04    0.25
  -5   1  -8    0.69    0.17
   5   1   8    0.83    0.20
  -5   1  -8    0.93    0.18
   5   1   8    1.12    0.20
  -5   1  -8    1.09    0.21
   5  -1   8    1.56    0.27
  -5  -1  -8    1.11    0.27
  -5  -1  -8    1.32    0.24
   5  -1   8    1.03    0.20
  -5  -1  -8    1.39    0.23
  -5  -1  -8    0.92    0.21
   5  -1   8    1.07    0.19
  -5  -1  -8    0.97    0.20
  -5   1  -9   11.39    0.51
   5   1   9   11.80    0.58
  -5   1  -9   10.29    0.57
  -5   1  -9   11.83    0.50
  -5   1  -9   10.85    0.58
   5   1   9   11.27    0.53
  -5   1  -9   10.66    0.54
  -5  -1  -9   11.17    0.60
  -5  -1  -9   11.68    0.56
  -5  -1  -9   11.15    0.60
   5  -1   9   11.46    0.59
   5  -1   9   11.46    0.52
  -5  -1  -9   10.72    0.53
  -5  -1  -9   11.36    0.58
  -5   1 -10    1.22    0.33
  -5   1 -10    1.97    0.29
  -5   1 -10    2.71    0.39
  -5   1 -10    2.30    0.30
   5   1  10    2.01    0.31
  -5   1 -10    1.34    0.33
  -5  -1 -10    1.70    0.32
  -5  -1 -10    1.92    0.32
  -5  -1 -10    1.75    0.35
  -5  -1 -10    1.55    0.31
   5  -1  10    2.04    0.31
   5  -1  10    1.74    0.34
   5   1  11    2.92    0.42
  -5   1 -11    3.42    0.49
  -5   1 -11    3.03    0.42
  -5   1 -11    2.85    0.42
  -5  -1 -11    2.03    0.44
   5  -1  11    4.09    0.53
  -5  -1 -11    2.64    0.44
   5   2 -12    3.85    0.51
  -5   2  12    2.97    0.43
   5   2 -12    3.83    0.54
   5  -2 -12    4.42    0.62
   5  -2 -12    3.48    0.47
  -5  -2  12    4.47    0.51
   5  -2 -12    4.07    0.52
   5   2 -11   13.39    0.47
  -5   2  11   13.35    0.68
   5   2 -11   12.24    0.62
  -5   2  11   11.88    0.74
   5   2 -11   13.54    0.72
   5  -2 -11   13.06    0.69
   5  -2 -11   12.60    0.70
   5  -2 -11   12.17    0.68
  -5  -2  11   12.63    0.64
  -5  -2  11   10.54    0.49
  -5   2  10    2.71    0.35
   5   2 -10    2.56    0.34
  -5   2  10    2.97    0.38
   5   2 -10    2.69    0.35
  -5   2  10    2.85    0.37
   5   2 -10    2.83    0.26
   5  -2 -10    2.22    0.31
  -5  -2  10    2.77    0.30
   5  -2 -10    1.76    0.25
  -5  -2  10    2.99    0.37
  -5  -2  10    2.48    0.35
   5  -2 -10    2.77    0.39
  -5   2   9    7.23    0.46
  -5   2   9    7.08    0.45
  -5   2   9    7.69    0.48
  -5   2   9    7.28    0.44
   5   2  -9    8.27    0.43
   5   2  -9    7.77    0.31
   5   2  -9    7.95    0.44
   5   2  -9    8.34    0.50
   5  -2  -9    7.59    0.44
  -5  -2   9    8.40    0.45
   5  -2  -9    7.64    0.44
  -5  -2   9    7.79    0.34
  -5  -2   9    8.43    0.49
   5  -2  -9    7.61    0.46
   5  -2  -9    7.22    0.47
  -5  -2   9    7.63    0.42
   5   2  -8   33.43    0.80
  -5   2   8   30.99    0.98
   5   2  -8   34.40    0.97
  -5   2   8   32.35    0.96
   5   2  -8   32.29    0.92
  -5   2   8   32.41    0.92
   5  -2  -8   32.92    0.92
  -5  -2   8   32.66    0.82
  -5  -2   8   33.71    1.01
   5  -2  -8   31.94    0.97
   5  -2  -8   32.50    0.95
  -5  -2   8   33.06    0.93
   5  -2  -8   34.20    0.97
  -5   2   7   53.11    1.36
   5   2  -7   53.58    1.32
  -5   2   7   52.80    1.30
   5   2  -7   54.89    1.39
  -5   2   7   54.81    1.40
   5   2  -7   55.12    1.22
   5   2  -7   53.08    1.42
  -5   2   7   54.89    1.42
   5  -2  -7   54.31    1.32
  -5  -2   7   53.52    1.33
  -5  -2   7   56.00    1.39
  -5  -2   7   55.18    1.24
   5  -2  -7   52.23    1.36
   5  -2  -7   53.87    1.38
   5  -2  -7   53.34    1.36
  -5  -2   7   53.83    1.42
  -5   2   6   10.82    0.44
   5   2  -6   11.18    0.47
  -5   2   6   10.28    0.45
  -5   2   6   10.59    0.37
   5   2  -6   10.82    0.43
   5   2  -6   11.01    0.39
   5   2  -6   10.78    0.33
  -5   2   6   10.79    0.43
  -5  -2   6   10.91    0.34
   5  -2  -6   10.82    0.44
   5  -2  -6   11.05    0.42
  -5  -2   6   11.11    0.44
   5  -2  -6   11.51    0.43
  -5  -2   6   10.58    0.39
   5  -2  -6   10.81    0.38
  -5  -2   6   11.07    0.46
   5   2  -5    0.59    0.09
   5   2  -5    0.86    0.12
  -5   2   5    0.71    0.13
  -5   2   5    0.67    0.14
   5   2  -5    0.82    0.16
  -5   2   5    0.69    0.14
  -5   2   5    0.56    0.10
   5   2  -5    0.59    0.09
   5  -2  -5    0.63    0.13
  -5  -2   5    0.64    0.09
  -5  -2   5    0.71    0.10
   5  -2  -5    0.65    0.10
   5  -2  -5    0.65    0.11
   5  -2  -5    0.57    0.11
  -5  -2   5    0.61    0.12
  -5  -2   5    0.42    0.11
  -5   2   4    1.78    0.13
   5   2  -4    1.88    0.17
   5   2  -4    1.77    0.13
   5   2  -4    1.92    0.18
  -5   2   4    1.86    0.17
  -5   2   4    2.26    0.20
   5   2  -4    1.78    0.13
  -5   2   4    1.95    0.17
  -5   2   4    1.78    0.18
   5  -2  -4    1.66    0.18
  -5  -2   4    1.99    0.14
   5  -2  -4    1.90    0.16
  -5  -2   4    1.56    0.17
  -5  -2   4    1.79    0.12
   5  -2  -4    1.73    0.12
  -5  -2   4    1.73    0.18
   5  -2  -4    1.90    0.17
  -5   2   3    3.61    0.14
   5   2  -3    3.90    0.18
  -5   2   3    4.02    0.24
   5   2  -3    3.50    0.22
  -5   2   3    3.83    0.22
  -5   2   3    3.44    0.21
  -5   2   3    3.93    0.22
   5   2  -3    3.88    0.21
   5   2  -3    3.86    0.16
  -5  -2   3    3.99    0.15
  -5  -2   3    3.89    0.22
   5  -2  -3    3.77    0.22
   5  -2  -3    3.94    0.22
  -5  -2   3    4.00    0.22
   5  -2  -3    3.83    0.21
  -5  -2   3    3.67    0.17
   5   2  -2   21.37    0.48
  -5   2   2   21.25    0.59
  -5   2   2   20.69    0.60
  -5   2   2   20.93    0.61
   5   2  -2   21.70    0.56
  -5   2   2   20.66    0.58
   5   2  -2   21.17    0.60
   5  -2  -2   23.03    0.59
   5  -2  -2   20.60    0.59
  -5  -2   2   21.48    0.49
  -5  -2   2   20.92    0.54
   5  -2  -2   21.13    0.58
  -5  -2   2   21.10    0.58
  -5  -2   2   21.14    0.60
  -5   2   1    2.80    0.19
  -5   2   1    2.97    0.19
  -5   2   1    3.06    0.18
  -5   2   1    2.89    0.19
   5  -2  -1    2.76    0.19
  -5  -2   1    2.99    0.16
  -5  -2   1    3.28    0.18
   5  -2  -1    3.02    0.18
  -5  -2   1    3.05    0.18
   5  -2  -1    2.66    0.18
   5  -2  -1    3.26    0.18
  -5   2   0    8.07    0.28
  -5   2   0    7.98    0.30
  -5   2   0    8.30    0.25
  -5   2   0    8.19    0.31
  -5  -2   0    8.55    0.31
  -5  -2   0    8.29    0.30
   5  -2   0    8.07    0.24
  -5  -2   0    7.80    0.29
   5  -2   0    7.66    0.31
   5  -2   0    8.25    0.31
   5  -2   0    8.52    0.28
  -5  -2   0    8.61    0.30
   5  -2   0    8.20    0.30
  -5   2  -1   12.87    0.41
  -5   2  -1   13.11    0.38
  -5   2  -1   13.25    0.38
  -5   2  -1   13.00    0.43
  -5  -2  -1   13.09    0.40
  -5  -2  -1   13.86    0.42
   5  -2   1   12.70    0.43
   5  -2   1   13.28    0.42
   5  -2   1   13.32    0.37
   5  -2   1   12.94    0.37
  -5  -2  -1   13.49    0.42
  -5   2  -2    6.91    0.24
   5   2   2    7.52    0.22
  -5   2  -2    7.00    0.28
   5   2   2    7.26    0.28
  -5   2  -2    7.00    0.30
  -5   2  -2    7.01    0.30
  -5  -2  -2    6.95    0.22
  -5  -2  -2    7.02    0.28
   5  -2   2    7.07    0.27
   5  -2   2    7.28    0.29
  -5  -2  -2    7.22    0.31
   5  -2   2    6.74    0.28
   5  -2   2    6.71    0.30
   5  -2   2    6.81    0.24
  -5  -2  -2    7.30    0.29
  -5  -2  -2    7.09    0.29
   5   2   3    0.03    0.08
   5   2   3    0.15    0.08
  -5   2  -3    0.16    0.07
   5   2   3    0.02    0.05
  -5   2  -3    0.10    0.08
  -5   2  -3    0.09    0.07
  -5   2  -3   -0.06    0.09
   5  -2   3    0.06    0.06
  -5  -2  -3    0.09    0.06
  -5  -2  -3    0.09    0.08
   5  -2   3    0.08    0.06
  -5  -2  -3    0.07    0.08
   5  -2   3    0.16    0.09
  -5  -2  -3    0.07    0.08
   5  -2   3    0.14    0.09
   5   2   4   17.09    0.49
  -5   2  -4   16.96    0.45
   5   2   4   17.46    0.55
  -5   2  -4   18.12    0.57
   5   2   4   17.35    0.54
   5  -2   4   18.20    0.54
  -5  -2  -4   17.51    0.56
   5  -2   4   17.24    0.57
   5  -2   4   17.62    0.55
  -5  -2  -4   16.83    0.51
  -5  -2  -4   18.18    0.59
  -5  -2  -4   17.22    0.49
   5   2   5    0.22    0.12
  -5   2  -5    0.23    0.09
   5   2   5    0.04    0.10
  -5   2  -5    0.12    0.08
  -5   2  -5    0.24    0.14
  -5   2  -5    0.11    0.10
   5   2   5    0.16    0.09
  -5  -2  -5    0.15    0.11
  -5  -2  -5    0.13    0.12
   5  -2   5    0.08    0.10
  -5  -2  -5    0.22    0.13
   5  -2   5    0.15    0.10
   5  -2   5    0.21    0.10
  -5  -2  -5    0.14    0.10
   5   2   6    2.47    0.30
  -5   2  -6    2.29    0.19
   5   2   6    1.55    0.19
   5   2   6    2.92    0.26
  -5   2  -6    2.43    0.27
  -5   2  -6    2.26    0.28
  -5   2  -6    2.23    0.18
  -5   2  -6    2.09    0.25
   5  -2   6    2.14    0.26
   5  -2   6    2.33    0.26
  -5  -2  -6    2.26    0.23
   5  -2   6    2.32    0.27
  -5  -2  -6    2.24    0.22
  -5  -2  -6    2.40    0.28
  -5  -2  -6    2.39    0.26
  -5   2  -7    5.12    0.26
  -5   2  -7    5.16    0.26
   5   2   7    5.14    0.31
   5   2   7    5.40    0.35
   5   2   7    5.50    0.41
  -5   2  -7    5.58    0.37
  -5   2  -7    3.79    0.36
  -5   2  -7    4.62    0.35
   5  -2   7    4.63    0.37
   5  -2   7    5.64    0.35
  -5  -2  -7    5.06    0.38
  -5  -2  -7    4.50    0.35
  -5  -2  -7    4.41    0.31
  -5  -2  -7    5.09    0.33
   5  -2   7    5.29    0.39
   5   2   8    2.67    0.33
  -5   2  -8    1.58    0.27
  -5   2  -8    2.35    0.32
  -5   2  -8    2.62    0.30
   5   2   8    2.88    0.35
  -5   2  -8    2.50    0.24
  -5   2  -8    2.33    0.24
  -5  -2  -8    2.23    0.31
   5  -2   8    2.29    0.30
  -5  -2  -8    2.70    0.32
  -5  -2  -8    2.36    0.32
   5  -2   8    2.40    0.32
  -5  -2  -8    2.20    0.31
   5  -2   8    1.66    0.27
  -5   2  -9    1.51    0.30
  -5   2  -9    1.08    0.31
   5   2   9    1.49    0.30
  -5   2  -9    1.32    0.21
  -5   2  -9    1.70    0.33
  -5   2  -9    1.38    0.20
  -5  -2  -9    1.53    0.31
   5  -2   9    1.44    0.30
   5  -2   9    1.00    0.26
  -5  -2  -9    1.24    0.25
  -5  -2  -9    1.38    0.30
  -5  -2  -9    1.48    0.30
  -5   2 -10    1.91    0.25
  -5   2 -10    2.19    0.40
   5   2  10    2.34    0.36
  -5   2 -10    1.40    0.36
  -5  -2 -10    1.65    0.33
   5  -2  10    1.53    0.37
   5  -2  10    2.06    0.34
  -5  -2 -10    1.88    0.40
   5   2  11    0.58    0.35
  -5   2 -11    0.67    0.41
  -5   2 -11   -0.13    0.41
   5  -2  11    0.96    0.34
  -5  -2 -11    0.10    0.39
  -5  -2 -11   -0.18    0.38
   5   3 -11    0.20    0.26
   5   3 -11   -0.02    0.35
  -5   3  11    0.46    0.32
   5  -3 -11    0.95    0.34
   5  -3 -11    0.32    0.34
  -5  -3  11    0.46    0.30
  -5   3  10    2.73    0.37
   5   3 -10    2.90    0.42
   5   3 -10    2.18    0.28
  -5   3  10    3.28    0.45
   5  -3 -10    3.55    0.44
   5  -3 -10    2.15    0.34
  -5  -3  10    3.50    0.43
   5  -3 -10    2.83    0.35
  -5   3   9    1.49    0.29
   5   3  -9    1.23    0.21
  -5   3   9    1.03    0.26
   5   3  -9    1.04    0.24
  -5   3   9    1.52    0.26
   5  -3  -9    1.42    0.24
   5  -3  -9    1.18    0.26
   5  -3  -9    0.95    0.24
  -5  -3   9    1.42    0.27
  -5   3   8    8.87    0.49
  -5   3   8    9.42    0.42
  -5   3   8    8.63    0.51
   5   3  -8    9.04    0.49
   5   3  -8   10.49    0.56
   5   3  -8    9.61    0.43
  -5   3   8    9.71    0.53
   5  -3  -8   10.67    0.44
  -5  -3   8   10.28    0.51
  -5  -3   8    9.96    0.56
   5  -3  -8   10.41    0.49
   5  -3  -8    9.42    0.49
   5  -3  -8    9.90    0.53
  -5  -3   8    9.30    0.46
  -5   3   7   80.33    1.80
   5   3  -7   78.73    1.86
   5   3  -7   68.12    1.95
  -5   3   7   81.14    1.99
  -5   3   7   79.25    1.93
  -5   3   7   82.54    2.04
   5   3  -7   81.68    1.97
   5  -3  -7   80.12    1.96
   5  -3  -7   81.88    1.98
   5  -3  -7   81.16    1.81
  -5  -3   7   82.36    1.98
  -5  -3   7   80.95    1.88
  -5  -3   7   81.64    2.02
   5  -3  -7   81.17    1.93
  -5   3   6  114.11    2.61
  -5   3   6  119.89    2.74
  -5   3   6  115.61    2.68
   5   3  -6  111.83    2.53
   5   3  -6  115.66    2.68
  -5   3   6  113.02    2.46
   5   3  -6  114.38    2.66
  -5   3   6  117.50    2.65
  -5  -3   6  116.51    2.67
  -5  -3   6  113.63    2.43
   5  -3  -6  116.16    2.66
  -5  -3   6  113.07    2.68
   5  -3  -6  113.18    2.47
  -5  -3   6  114.70    2.55
   5  -3  -6  119.62    2.63
   5  -3  -6  114.46    2.66
  -5   3   5   37.11    1.08
  -5   3   5   36.69    1.00
  -5   3   5   37.01    1.02
   5   3  -5   36.71    1.03
  -5   3   5   37.01    1.03
   5   3  -5   37.72    0.91
   5  -3  -5   37.42    0.99
  -5  -3   5   37.24    0.85
  -5  -3   5   36.17    0.91
  -5  -3   5   38.11    1.04
   5  -3  -5   37.38    1.03
   5  -3  -5   37.17    1.03
  -5  -3   5   38.05    1.04
   5   3  -4    5.94    0.33
  -5   3   4    6.28    0.35
  -5   3   4    6.06    0.31
  -5   3   4    6.48    0.32
  -5   3   4    6.79    0.34
   5   3  -4    6.18    0.24
  -5  -3   4    6.75    0.24
   5  -3  -4    6.61    0.34
   5  -3  -4    6.57    0.32
  -5  -3   4    6.05    0.34
   5  -3  -4    6.17    0.34
  -5  -3   4    6.08    0.23
  -5  -3   4    6.96    0.34
  -5   3   3    9.99    0.44
   5   3  -3   10.71    0.29
  -5   3   3   10.30    0.40
  -5   3   3   10.53    0.41
   5   3  -3   10.91    0.42
  -5   3   3   10.46    0.42
  -5  -3   3   10.56    0.42
   5  -3  -3   10.15    0.39
  -5  -3   3   10.78    0.42
  -5  -3   3   10.09    0.29
   5  -3  -3   11.11    0.43
  -5  -3   3   10.25    0.33
   5  -3  -3   10.76    0.41
  -5   3   2    0.23    0.11
  -5   3   2    0.54    0.13
  -5   3   2    0.45    0.11
  -5   3   2    0.30    0.10
  -5  -3   2    0.37    0.08
   5  -3  -2    0.39    0.12
   5  -3  -2    0.25    0.11
   5  -3  -2    0.46    0.14
  -5  -3   2    0.43    0.12
  -5  -3   2    0.43    0.11
  -5   3   1    3.39    0.25
  -5   3   1    3.37    0.23
  -5   3   1    3.66    0.22
  -5   3   1    3.38    0.21
   5  -3  -1    3.37    0.24
  -5  -3   1    3.85    0.22
  -5  -3   1    3.42    0.23
   5  -3  -1    3.34    0.23
  -5  -3   1    3.44    0.21
   5  -3  -1    3.47    0.21
  -5  -3   1    3.60    0.22
   5  -3  -1    3.29    0.22
  -5   3   0   13.62    0.46
  -5   3   0   13.76    0.47
  -5   3   0   13.49    0.43
  -5  -3   0   14.03    0.46
  -5  -3   0   13.77    0.45
  -5  -3   0   14.25    0.46
   5  -3   0   15.48    0.51
   5  -3   0   14.01    0.47
  -5  -3   0   12.95    0.48
  -5  -3   0   14.01    0.46
   5  -3   0   13.73    0.48
   5  -3   0   13.78    0.42
  -5   3  -1    0.78    0.12
  -5   3  -1    0.82    0.15
  -5   3  -1    0.91    0.14
  -5   3  -1    1.00    0.12
   5  -3   1    0.67    0.11
   5  -3   1    0.94    0.15
   5  -3   1    1.05    0.12
  -5  -3  -1    0.76    0.13
  -5  -3  -1    1.12    0.16
  -5  -3  -1    0.91    0.15
   5  -3   1    0.93    0.11
  -5  -3  -1    1.17    0.16
  -5  -3  -1    1.24    0.17
  -5   3  -2    5.54    0.23
  -5   3  -2    5.56    0.26
  -5   3  -2    4.94    0.28
  -5   3  -2    5.38    0.29
   5  -3   2    5.61    0.29
   5  -3   2    5.47    0.22
   5  -3   2    5.72    0.31
   5  -3   2    5.34    0.30
   5  -3   2    5.69    0.24
  -5  -3  -2    5.03    0.29
  -5  -3  -2    5.70    0.32
  -5  -3  -2    5.72    0.28
  -5  -3  -2    5.50    0.29
  -5   3  -3    1.68    0.15
  -5   3  -3    1.82    0.20
  -5   3  -3    1.34    0.20
   5   3   3    1.50    0.21
  -5   3  -3    1.54    0.21
  -5  -3  -3    1.35    0.18
   5  -3   3    1.36    0.12
  -5  -3  -3    1.71    0.22
   5  -3   3    1.35    0.18
   5  -3   3    1.60    0.23
  -5  -3  -3    1.66    0.22
   5  -3   3    1.77    0.21
  -5  -3  -3    1.37    0.13
   5  -3   3    1.80    0.20
  -5   3  -4    1.48    0.14
   5   3   4    1.57    0.15
   5   3   4    1.51    0.22
  -5   3  -4    1.73    0.22
  -5   3  -4    1.45    0.19
  -5   3  -4    1.72    0.23
  -5  -3  -4    2.02    0.21
   5  -3   4    1.44    0.20
  -5  -3  -4    1.92    0.24
   5  -3   4    1.54    0.22
  -5  -3  -4    1.81    0.17
   5  -3   4    1.75    0.22
  -5  -3  -4    1.73    0.22
   5   3   5    0.97    0.20
  -5   3  -5    0.50    0.16
  -5   3  -5    0.65    0.18
  -5   3  -5    0.55    0.16
   5   3   5    0.74    0.13
   5   3   5    0.39    0.16
   5  -3   5    0.64    0.17
   5  -3   5    0.73    0.19
  -5  -3  -5    0.86    0.15
   5  -3   5    0.85    0.19
  -5  -3  -5    0.87    0.18
  -5  -3  -5    0.66    0.16
  -5  -3  -5    0.58    0.17
   5   3   6    0.22    0.17
   5   3   6    0.21    0.16
   5   3   6    0.08    0.13
  -5   3  -6    0.15    0.17
  -5   3  -6    0.33    0.18
  -5  -3  -6    0.05    0.17
   5  -3   6   -0.10    0.18
  -5  -3  -6    0.23    0.16
  -5  -3  -6    0.05    0.13
   5  -3   6    0.35    0.18
  -5  -3  -6    0.27    0.17
   5  -3   6    0.15    0.18
   5   3   7    3.68    0.37
  -5   3  -7    3.84    0.42
   5   3   7    4.60    0.32
   5   3   7    4.13    0.42
  -5   3  -7    4.14    0.40
   5  -3   7    4.15    0.41
   5  -3   7    3.20    0.41
   5  -3   7    3.90    0.37
  -5  -3  -7    4.03    0.37
  -5  -3  -7    4.53    0.37
  -5  -3  -7    4.07    0.42
  -5  -3  -7    4.27    0.35
  -5   3  -8    0.15    0.27
   5   3   8    0.10    0.29
   5   3   8   -0.28    0.17
   5   3   8    0.10    0.22
  -5  -3  -8    0.36    0.24
   5  -3   8   -0.04    0.23
  -5  -3  -8    0.18    0.21
  -5  -3  -8    0.14    0.22
   5  -3   8    0.39    0.32
  -5  -3  -8    0.10    0.23
  -5   3  -9   15.19    0.78
  -5   3  -9   14.53    0.81
   5   3   9   15.11    0.74
  -5  -3  -9   13.44    0.76
  -5  -3  -9   14.65    0.74
   5  -3   9   14.42    0.79
   5  -3   9   15.34    0.74
  -5   3 -10    0.46    0.43
  -5   3 -10   -0.15    0.30
   5   3  10    0.22    0.36
  -5  -3 -10   -0.14    0.35
  -5  -3 -10   -0.05    0.34
   5  -3  10    0.11    0.33
  -5   4  10    0.18    0.27
  -5   4  10   -0.05    0.35
   5   4 -10    0.17    0.26
   5   4 -10    0.94    0.41
  -5  -4  10    0.01    0.32
   5  -4 -10    0.05    0.30
  -5   4   9    6.50    0.60
  -5   4   9    6.33    0.53
   5   4  -9    6.60    0.41
   5   4  -9    6.65    0.64
   5  -4  -9    5.55    0.56
   5  -4  -9    6.00    0.40
  -5  -4   9    6.72    0.55
   5   4  -8   23.44    0.91
  -5   4   8   23.21    0.84
  -5   4   8   23.41    0.85
  -5   4   8   24.51    0.94
   5   4  -8   22.94    0.73
   5  -4  -8   22.37    0.88
   5  -4  -8   22.97    0.84
  -5  -4   8   25.69    0.90
  -5   4   7    9.94    0.51
  -5   4   7    9.77    0.56
   5   4  -7    9.64    0.57
   5   4  -7    9.62    0.40
  -5   4   7    9.44    0.52
  -5  -4   7    9.14    0.60
   5  -4  -7    8.97    0.55
   5  -4  -7    8.43    0.49
  -5  -4   7    8.68    0.52
   5   4  -6    0.16    0.12
  -5   4   6    0.17    0.18
   5   4  -6   -0.07    0.21
  -5   4   6    0.01    0.23
  -5   4   6    0.38    0.26
  -5   4   6    0.14    0.18
  -5  -4   6   -0.14    0.16
  -5  -4   6   -0.14    0.12
   5  -4  -6    0.37    0.16
   5  -4  -6    0.16    0.19
   5  -4  -6   -0.18    0.17
  -5  -4   6   -0.05    0.24
  -5   4   5    6.27    0.43
   5   4  -5    5.16    0.39
   5   4  -5    5.50    0.26
  -5   4   5    5.18    0.44
  -5   4   5    5.67    0.36
  -5  -4   5    5.51    0.42
  -5  -4   5    5.84    0.41
  -5  -4   5    5.32    0.26
   5  -4  -5    5.01    0.40
  -5  -4   5    5.84    0.22
   5  -4  -5    5.42    0.36
  -5  -4   5    5.54    0.23
   5  -4  -5    5.90    0.40
  -5   4   4    3.34    0.38
   5   4  -4    3.78    0.19
  -5   4   4    3.04    0.36
  -5   4   4    3.18    0.29
   5   4  -4    3.75    0.21
   5   4  -4    3.16    0.30
   5  -4  -4    3.42    0.30
   5  -4  -4    3.60    0.33
   5  -4  -4    4.43    0.34
  -5  -4   4    3.48    0.21
  -5  -4   4    3.19    0.34
  -5  -4   4    3.12    0.32
  -5  -4   4    3.27    0.19
  -5  -4   4    3.45    0.21
   5   4  -3   13.15    0.51
  -5   4   3   13.73    0.58
  -5   4   3   13.75    0.56
  -5   4   3   13.45    0.52
   5  -4  -3   13.69    0.57
  -5  -4   3   13.30    0.55
  -5  -4   3   12.79    0.43
   5  -4  -3   13.51    0.51
  -5  -4   3   12.95    0.53
  -5  -4   3   13.94    0.58
   5  -4  -3   13.54    0.52
  -5  -4   3   12.89    0.42
  -5   4   2    2.12    0.23
  -5   4   2    3.11    0.32
  -5   4   2    1.94    0.28
  -5  -4   2    1.95    0.25
   5  -4  -2    2.20    0.26
  -5  -4   2    2.15    0.21
   5  -4  -2    1.82    0.26
   5  -4  -2    2.35    0.29
  -5  -4   2    1.69    0.22
  -5  -4   2    2.22    0.31
  -5  -4   2    1.93    0.26
  -5   4   1   32.84    0.90
  -5   4   1   32.47    0.91
   5  -4  -1   32.50    0.87
   5  -4  -1   31.22    0.90
  -5  -4   1   32.11    0.97
   5  -4  -1   32.84    0.90
  -5  -4   1   33.17    0.91
   5  -4  -1   31.96    0.97
  -5  -4   1   33.02    0.94
  -5  -4   1   32.33    0.86
  -5  -4   1   32.87    0.88
  -5   4   0    0.76    0.14
  -5   4   0    0.72    0.17
  -5  -4   0    1.18    0.17
   5  -4   0    0.75    0.19
   5  -4   0    0.76    0.14
  -5  -4   0    0.87    0.17
   5  -4   0    0.55    0.15
  -5  -4   0    0.87    0.18
  -5  -4   0    0.65    0.14
  -5  -4   0    0.87    0.17
  -5   4  -1    7.76    0.38
  -5   4  -1    7.42    0.34
  -5  -4  -1    7.98    0.35
  -5  -4  -1    8.26    0.41
   5  -4   1    8.86    0.41
   5  -4   1    7.36    0.32
  -5  -4  -1    7.73    0.42
  -5  -4  -1    7.10    0.38
  -5  -4  -1    8.19    0.37
   5  -4   1    7.54    0.42
  -5   4  -2   12.85    0.51
  -5   4  -2   13.12    0.42
  -5   4  -2   12.84    0.50
  -5   4  -2   12.26    0.43
  -5  -4  -2   13.14    0.54
   5  -4   2   12.48    0.56
  -5  -4  -2   12.43    0.45
  -5  -4  -2   12.78    0.52
   5  -4   2   12.50    0.39
   5  -4   2   12.71    0.52
  -5  -4  -2   12.36    0.54
   5  -4   2   11.76    0.49
   5  -4   2   12.57    0.41
  -5  -4  -2   12.66    0.47
  -5   4  -3    0.37    0.17
  -5   4  -3    0.70    0.17
  -5   4  -3    0.29    0.10
  -5   4  -3    0.17    0.12
   5  -4   3    0.33    0.22
  -5  -4  -3    0.29    0.19
  -5  -4  -3    0.24    0.13
  -5  -4  -3    0.44    0.18
   5  -4   3    0.43    0.18
   5  -4   3    0.12    0.09
   5  -4   3    0.17    0.13
   5  -4   3    0.19    0.14
  -5   4  -4    2.03    0.28
  -5   4  -4    1.21    0.18
   5   4   4    1.58    0.16
  -5   4  -4    2.06    0.31
   5   4   4    1.68    0.26
   5  -4   4    1.87    0.30
  -5  -4  -4    1.79    0.19
   5  -4   4    1.99    0.26
   5  -4   4    1.74    0.23
   5  -4   4    1.77    0.24
  -5  -4  -4    1.90    0.23
  -5  -4  -4    1.77    0.27
  -5   4  -5    6.11    0.45
   5   4   5    5.80    0.43
   5   4   5    6.11    0.28
  -5   4  -5    6.22    0.45
  -5   4  -5    5.06    0.38
  -5  -4  -5    5.27    0.38
   5  -4   5    6.92    0.46
   5  -4   5    5.94    0.41
   5  -4   5    6.29    0.45
  -5  -4  -5    5.22    0.42
  -5  -4  -5    6.17    0.31
   5  -4   5    6.03    0.50
  -5  -4  -5    6.08    0.49
  -5   4  -6    0.36    0.25
  -5   4  -6    0.18    0.21
  -5   4  -6    0.27    0.26
   5   4   6    0.40    0.15
   5   4   6    0.26    0.24
   5  -4   6   -0.02    0.23
   5  -4   6    0.17    0.24
  -5  -4  -6   -0.25    0.22
  -5  -4  -6    0.06    0.15
  -5  -4  -6    0.20    0.22
  -5  -4  -6    0.44    0.20
   5  -4   6    0.25    0.26
  -5   4  -7    9.40    0.58
  -5   4  -7    9.94    0.66
   5   4   7    9.05    0.44
   5   4   7    9.66    0.61
  -5  -4  -7    9.47    0.56
   5  -4   7    7.90    0.60
  -5  -4  -7   10.51    0.60
  -5  -4  -7    8.32    0.61
  -5  -4  -7    9.31    0.48
   5  -4   7    9.24    0.57
   5   4   8    2.18    0.42
   5   4   8    2.74    0.42
  -5   4  -8    1.99    0.33
  -5   4  -8    2.76    0.44
  -5  -4  -8    1.58    0.37
  -5  -4  -8    1.94    0.34
   5  -4   8    1.82    0.35
   5   4   9    0.01    0.37
  -5   4  -9    0.03    0.42
  -5   4  -9    0.26    0.34
  -5  -4  -9    0.17    0.36
  -5  -4  -9   -0.12    0.37
   5  -4   9   -0.02    0.37
  -5   5   8    2.78    0.44
   5   5  -8    2.26    0.43
  -5   5   8    2.17    0.35
   5   5  -8    2.52    0.34
   5  -5  -8    1.60    0.39
  -5  -5   8    2.43    0.40
  -5   5   7    1.94    0.31
  -5   5   7    2.52    0.41
   5   5  -7    2.06    0.28
   5   5  -7    2.69    0.28
   5   5  -7    1.49    0.35
  -5  -5   7    2.78    0.35
   5  -5  -7    2.22    0.40
   5   5  -6   -0.10    0.25
   5   5  -6   -0.24    0.17
  -5   5   6   -0.14    0.36
  -5   5   6   -0.14    0.24
  -5   5   6   -0.43    0.19
   5   5  -6    0.11    0.13
  -5  -5   6    0.75    0.38
   5  -5  -6    0.39    0.28
  -5  -5   6   -0.12    0.25
   5  -5  -6    0.32    0.25
   5   5  -5    0.11    0.22
  -5   5   5   -0.16    0.19
   5   5  -5    0.11    0.13
  -5   5   5   -0.10    0.21
  -5   5   5    0.11    0.22
   5   5  -5    0.06    0.12
  -5  -5   5   -0.27    0.28
   5  -5  -5   -0.05    0.24
  -5  -5   5    0.53    0.27
   5  -5  -5   -0.15    0.24
  -5   5   4    1.32    0.24
  -5   5   4    1.01    0.28
  -5   5   4    0.77    0.25
  -5   5   4    0.42    0.29
  -5  -5   4    0.89    0.16
   5  -5  -4    0.91    0.26
  -5  -5   4    0.82    0.15
   5  -5  -4    0.99    0.25
  -5  -5   4    0.84    0.25
  -5  -5   4    1.02    0.29
  -5   5   3    0.64    0.22
  -5   5   3    0.35    0.18
  -5   5   3    0.45    0.22
  -5   5   3    0.46    0.27
  -5  -5   3    0.41    0.21
   5  -5  -3    0.34    0.21
  -5  -5   3    0.80    0.17
   5  -5  -3    0.39    0.21
  -5  -5   3    0.28    0.23
  -5  -5   3    0.19    0.17
  -5   5   2   18.49    0.65
  -5   5   2   18.08    0.71
  -5   5   2   18.16    0.66
  -5  -5   2   19.05    0.60
  -5  -5   2   18.15    0.72
  -5  -5   2   18.40    0.62
   5  -5  -2   18.79    0.68
  -5  -5   2   17.46    0.69
  -5  -5   2   17.61    0.78
   5  -5  -2   18.32    0.67
  -5   5   1    7.06    0.43
  -5   5   1    7.78    0.47
  -5   5   1    7.10    0.40
   5  -5  -1    7.55    0.41
   5  -5  -1    6.50    0.51
  -5  -5   1    6.94    0.43
  -5  -5   1    7.34    0.49
  -5  -5   1    6.47    0.54
  -5  -5   1    7.06    0.40
  -5  -5   1    7.36    0.42
  -5  -5   1    7.28    0.44
  -5   5   0   20.72    0.71
  -5   5   0   19.83    0.67
  -5  -5   0   19.84    0.69
  -5  -5   0   21.50    0.77
  -5  -5   0   20.85    0.67
   5  -5   0   21.31    0.66
  -5  -5   0   20.85    0.83
  -5  -5   0   21.35    0.72
  -5  -5   0   20.56    0.72
   5  -5   0   19.32    0.83
   5  -5   0   21.16    0.73
  -5   5  -1   53.48    1.32
  -5   5  -1   56.04    1.42
  -5   5  -1   55.41    1.43
   5  -5   1   55.08    1.31
  -5  -5  -1   52.35    1.52
   5  -5   1   55.94    1.50
  -5  -5  -1   54.60    1.36
  -5  -5  -1   55.44    1.46
   5  -5   1   57.86    1.56
  -5  -5  -1   53.45    1.38
  -5  -5  -1   51.82    1.42
  -5   5  -2   34.42    1.00
  -5   5  -2   33.88    0.99
  -5   5  -2   32.16    0.84
  -5  -5  -2   33.17    1.03
  -5  -5  -2   33.44    0.93
   5  -5   2   33.91    1.07
  -5  -5  -2   33.39    1.05
  -5  -5  -2   32.86    0.94
   5  -5   2   32.03    0.82
  -5  -5  -2   31.67    1.08
   5  -5   2   33.08    0.83
  -5   5  -3    2.09    0.25
  -5   5  -3    1.94    0.27
  -5  -5  -3    1.83    0.35
  -5  -5  -3    1.60    0.30
   5  -5   3    2.13    0.34
  -5  -5  -3    2.03    0.27
  -5  -5  -3    2.07    0.25
  -5  -5  -3    1.91    0.32
   5  -5   3    2.23    0.29
  -5   5  -4    3.76    0.42
  -5   5  -4    3.15    0.36
   5  -5   4    4.15    0.48
  -5  -5  -4    4.33    0.41
   5  -5   4    4.08    0.40
  -5  -5  -4    4.42    0.37
  -5  -5  -4    4.69    0.47
  -5   5  -5    0.44    0.28
  -5   5  -5   -0.24    0.19
   5   5   5   -0.16    0.25
  -5  -5  -5    0.46    0.23
  -5  -5  -5   -0.02    0.29
   5  -5   5    0.10    0.26
  -5  -5  -5    0.14    0.26
   5  -5   5    0.01    0.28
  -5   5  -6    1.59    0.37
   5   5   6    1.29    0.37
  -5   5  -6    0.76    0.28
  -5  -5  -6    1.01    0.23
   5  -5   6    0.69    0.38
  -5  -5  -6    1.39    0.30
   5  -5   6    1.23    0.35
  -5  -5  -6    1.27    0.37
   5   5   7   13.77    0.55
  -5   5  -7   13.89    0.84
   5   5   7   13.34    0.52
  -5   5  -7   13.64    0.76
   5   5   7   12.35    0.81
  -5  -5  -7   14.12    0.71
  -5  -5  -7   12.71    0.85
   5  -5   7   12.68    0.79
  -5   6   5   -0.21    0.31
  -5   6   5    0.06    0.26
  -5  -6   5    1.01    0.42
   5  -6  -5    0.31    0.37
  -5   6   4    1.20    0.29
   5  -6  -4    1.06    0.36
  -5  -6   4    0.76    0.35
  -5  -6   4    1.30    0.45
  -5   6   3    0.54    0.25
   5  -6  -3    0.15    0.33
  -5  -6   3    0.92    0.24
  -5  -6   3    0.00    0.36
  -5  -6   3    0.49    0.35
  -5   6   2   -0.04    0.37
  -5   6   2    0.46    0.21
   5  -6  -2    0.29    0.28
  -5  -6   2   -0.04    0.23
  -5  -6   2   -0.18    0.29
  -5  -6   2    0.13    0.34
  -5  -6   2    0.07    0.24
  -5   6   1    4.83    0.42
  -5   6   1    3.48    0.50
  -5  -6   1    3.88    0.54
  -5  -6   1    4.07    0.48
  -5  -6   1    4.60    0.59
  -5  -6   1    5.39    0.46
  -5  -6   1    5.29    0.57
   5  -6  -1    3.50    0.48
   5  -6   0   -0.17    0.24
  -5  -6   0    0.10    0.33
  -5  -6   0    0.04    0.27
  -5  -6   0   -0.24    0.25
  -5  -6   0    0.27    0.30
  -5   6  -1   -0.13    0.21
  -5  -6  -1    0.57    0.33
  -5  -6  -1   -0.14    0.31
   5  -6   1    0.17    0.23
  -5  -6  -1    0.01    0.22
   5  -6   1    0.04    0.31
  -5   6  -2    4.51    0.43
  -5  -6  -2    4.10    0.41
  -5  -6  -2    5.16    0.61
   5  -6   2    4.16    0.49
  -5   6  -3    3.35    0.45
  -5  -6  -3    3.19    0.48
   5  -6   3    3.34    0.47
  -5  -6  -3    3.91    0.43
  -5   6  -4    0.91    0.30
  -5  -6  -4    0.65    0.41
   5  -6   4    1.83    0.42
   6   0 -13   -0.14    0.34
   6   0 -13   -0.05    0.40
  -6   0  13    0.48    0.35
   6   0 -13   -0.03    0.32
  -6   0  12   -0.02    0.38
   6   0 -12   -0.30    0.26
   6   0 -12    0.84    0.35
  -6   0  12    0.24    0.25
  -6   0  12   -0.10    0.32
   6   0 -12   -0.06    0.30
  -6   0  11   -0.01    0.28
  -6   0  11   -0.03    0.18
   6   0 -11    0.06    0.27
   6   0 -11    0.15    0.20
   6   0 -11   -0.23    0.22
  -6   0  11   -0.26    0.30
   6   0 -10    1.81    0.25
   6   0 -10    2.03    0.30
   6   0 -10    2.17    0.28
  -6   0  10    2.07    0.29
  -6   0  10    2.21    0.31
   6   0 -10    2.55    0.33
  -6   0  10    1.96    0.32
  -6   0  10    2.27    0.31
   6   0  -9    0.18    0.16
   6   0  -9    0.04    0.15
  -6   0   9    0.04    0.17
   6   0  -9   -0.34    0.13
   6   0  -9    0.07    0.13
  -6   0   9   -0.10    0.16
  -6   0   9   -0.07    0.12
  -6   0   9    0.17    0.19
  -6   0   8    2.88    0.29
   6   0  -8    2.95    0.25
  -6   0   8    3.28    0.27
  -6   0   8    3.16    0.30
   6   0  -8    2.85    0.26
  -6   0   8    3.29    0.31
   6   0  -8    2.54    0.28
   6   0  -8    2.80    0.28
  -6   0   7   -0.08    0.09
   6   0  -7    0.11    0.10
  -6   0   7    0.04    0.10
   6   0  -7   -0.02    0.11
   6   0  -7    0.01    0.11
  -6   0   7   -0.06    0.12
  -6   0   7   -0.06    0.10
   6   0  -7   -0.15    0.09
  -6   0   6   22.79    0.65
  -6   0   6   21.86    0.67
   6   0  -6   23.40    0.66
   6   0  -6   20.26    0.63
   6   0  -6   22.84    0.68
   6   0  -6   23.19    0.63
  -6   0   6   22.86    0.64
  -6   0   6   20.98    0.64
   6   0  -5    0.00    0.08
   6   0  -5    0.01    0.07
   6   0  -5   -0.05    0.06
  -6   0   5    0.06    0.07
  -6   0   5    0.04    0.07
  -6   0   5    0.08    0.06
   6   0  -5    0.13    0.06
  -6   0   5   -0.05    0.06
   6   0  -4   16.33    0.49
  -6   0   4   16.63    0.48
   6   0  -4   16.27    0.47
   6   0  -4   16.63    0.47
  -6   0   4   16.31    0.47
   6   0  -4   16.03    0.47
  -6   0   4   16.26    0.49
  -6   0   4   16.33    0.47
   6   0  -3   -0.08    0.04
   6   0  -3   -0.02    0.05
  -6   0   3    0.04    0.05
   6   0  -3   -0.03    0.05
  -6   0   3   -0.07    0.04
   6   0  -3    0.00    0.05
  -6   0   3    0.00    0.05
  -6   0   3    0.00    0.05
   6   0  -2   33.57    0.76
  -6   0   2   32.97    0.79
  -6   0   2   33.58    0.82
  -6   0   2   33.27    0.81
   6   0  -2   33.41    0.80
   6   0  -2   34.39    0.79
  -6   0   2   32.89    0.80
  -6   0   2   32.75    0.76
  -6   0   1    0.03    0.05
   6   0  -1    0.02    0.05
  -6   0   1   -0.06    0.03
  -6   0   1   -0.07    0.05
  -6   0   1   -0.06    0.03
   6   0  -1   -0.01    0.03
   6   0  -1   -0.01    0.04
  -6   0   0   16.71    0.45
   6   0   0   18.42    0.47
   6   0   0   17.77    0.48
  -6   0   0   16.52    0.46
  -6   0   0   17.40    0.48
  -6   0   0   17.07    0.47
  -6   0  -1   -0.23    0.04
   6   0   1   -0.26    0.04
   6   0   1   -0.24    0.05
  -6   0  -1   -0.30    0.04
  -6   0  -1   -0.27    0.05
  -6   0  -1   -0.21    0.05
   6   0   2  110.09    2.43
  -6   0  -2  113.47    2.43
  -6   0  -2  110.93    2.42
   6   0   2  114.75    2.44
   6   0   2  112.40    2.45
  -6   0  -2  110.15    2.45
   6   0   3   -0.05    0.06
  -6   0  -3    0.05    0.06
  -6   0  -3    0.04    0.04
  -6   0  -3    0.10    0.06
  -6   0  -3    0.05    0.06
   6   0   3   -0.05    0.06
   6   0   3    0.00    0.04
  -6   0  -4    3.23    0.16
   6   0   4    3.38    0.21
   6   0   4    2.86    0.20
  -6   0  -4    3.42    0.21
  -6   0  -4    3.49    0.21
  -6   0  -4    3.85    0.23
   6   0   4    3.39    0.16
  -6   0  -5   -0.02    0.09
   6   0   5    0.03    0.09
  -6   0  -5   -0.02    0.08
  -6   0  -5    0.09    0.09
   6   0   5    0.01    0.07
  -6   0  -5    0.05    0.07
  -6   0  -5   -0.08    0.08
   6   0   5   -0.06    0.08
   6   0   6   17.42    0.60
   6   0   6   17.54    0.52
  -6   0  -6   17.41    0.52
  -6   0  -6   17.57    0.58
  -6   0  -6   17.20    0.57
  -6   0  -6   17.94    0.60
  -6   0  -6   18.04    0.63
   6   0   6   17.48    0.59
  -6   0  -7    0.03    0.13
  -6   0  -7    0.10    0.13
   6   0   7    0.10    0.15
  -6   0  -7    0.03    0.11
  -6   0  -7    0.00    0.14
   6   0   7    0.04    0.12
   6   0   7    0.16    0.12
  -6   0  -7   -0.10    0.12
  -6   0  -8   32.64    0.93
  -6   0  -8   33.88    0.99
   6   0   8   33.82    1.02
  -6   0  -8   34.26    1.01
   6   0   8   31.78    1.01
  -6   0  -8   34.08    0.97
  -6   0  -8   34.20    1.06
   6   0   8   33.69    0.93
  -6   0  -9    0.18    0.22
  -6   0  -9    0.08    0.20
  -6   0  -9   -0.22    0.23
   6   0   9   -0.37    0.19
  -6   0  -9    0.20    0.23
   6   0   9   -0.08    0.19
  -6   0  -9    0.16    0.23
  -6   0 -10   -0.04    0.28
   6   0  10    0.82    0.25
  -6   0 -10    0.77    0.33
  -6   0 -10    0.39    0.31
  -6   0 -10    0.34    0.26
  -6   0 -10   -0.24    0.23
   6   0  11   -0.25    0.30
  -6   0 -11   -0.74    0.32
  -6   0 -11   -0.39    0.34
   6   1 -13    0.15    0.45
   6   1 -13    0.08    0.45
  -6   1  13   -0.13    0.35
   6  -1 -13    0.42    0.42
  -6  -1  13    0.79    0.41
   6  -1 -13    0.36    0.45
   6  -1 -13    0.30    0.36
   6   1 -12    2.76    0.45
   6   1 -12    2.99    0.40
  -6   1  12    3.50    0.50
   6   1 -12    3.02    0.35
   6  -1 -12    2.59    0.41
  -6  -1  12    3.15    0.38
  -6  -1  12    2.78    0.38
   6  -1 -12    3.44    0.45
   6  -1 -12    2.92    0.42
  -6   1  11    4.58    0.56
   6   1 -11    5.15    0.42
  -6   1  11    4.65    0.53
  -6   1  11    5.22    0.44
   6   1 -11    5.25    0.53
   6   1 -11    4.03    0.46
  -6  -1  11    5.01    0.42
   6  -1 -11    5.26    0.50
   6  -1 -11    4.86    0.49
   6  -1 -11    5.69    0.54
  -6  -1  11    4.87    0.56
  -6  -1  11    5.71    0.47
   6   1 -10   27.90    0.80
  -6   1  10   28.38    0.93
   6   1 -10   26.90    0.89
  -6   1  10   27.32    0.92
  -6   1  10   27.61    0.93
  -6   1  10   26.90    0.94
   6   1 -10   27.72    0.96
  -6  -1  10   26.98    0.92
  -6  -1  10   27.26    0.90
  -6  -1  10   27.14    0.84
   6  -1 -10   27.73    0.92
   6  -1 -10   27.70    0.93
   6  -1 -10   26.32    0.88
   6   1  -9    0.24    0.15
  -6   1   9    0.39    0.19
  -6   1   9   -0.19    0.15
  -6   1   9    0.21    0.15
   6   1  -9    0.18    0.15
   6   1  -9    0.16    0.16
  -6   1   9    0.44    0.21
   6   1  -9    0.22    0.17
  -6  -1   9    0.27    0.16
  -6  -1   9    0.26    0.18
  -6  -1   9    0.00    0.17
   6  -1  -9    0.13    0.18
  -6  -1   9    0.27    0.14
   6  -1  -9    0.17    0.17
   6  -1  -9    0.58    0.18
   6  -1  -9    0.35    0.17
   6   1  -8    0.04    0.11
  -6   1   8   -0.04    0.13
  -6   1   8    0.14    0.11
  -6   1   8    0.06    0.13
   6   1  -8    0.09    0.14
   6   1  -8    0.10    0.14
   6   1  -8   -0.09    0.13
  -6   1   8    0.19    0.15
   6  -1  -8    0.06    0.13
  -6  -1   8    0.14    0.13
   6  -1  -8    0.21    0.15
  -6  -1   8    0.06    0.12
  -6  -1   8   -0.12    0.13
  -6  -1   8   -0.10    0.14
   6  -1  -8    0.15    0.13
   6  -1  -8   -0.12    0.11
  -6   1   7   28.22    0.80
   6   1  -7   28.70    0.82
   6   1  -7   27.51    0.73
  -6   1   7   28.53    0.83
  -6   1   7   26.88    0.80
   6   1  -7   28.12    0.85
   6   1  -7   28.34    0.79
  -6   1   7   28.13    0.82
  -6  -1   7   27.11    0.78
   6  -1  -7   27.47    0.80
   6  -1  -7   27.50    0.80
  -6  -1   7   27.60    0.75
   6  -1  -7   27.10    0.79
  -6  -1   7   28.41    0.81
   6  -1  -7   26.67    0.79
  -6  -1   7   26.73    0.83
   6   1  -6    1.96    0.18
  -6   1   6    1.78    0.19
  -6   1   6    1.70    0.19
   6   1  -6    1.71    0.17
  -6   1   6    2.04    0.19
   6   1  -6    1.77    0.21
  -6   1   6    1.57    0.20
   6   1  -6    1.74    0.19
   6  -1  -6    1.52    0.17
  -6  -1   6    1.80    0.18
   6  -1  -6    1.67    0.20
   6  -1  -6    1.79    0.19
   6  -1  -6    1.69    0.20
  -6  -1   6    1.65    0.19
  -6  -1   6    1.59    0.16
  -6  -1   6    2.16    0.18
  -6   1   5    4.99    0.26
  -6   1   5    4.65    0.25
   6   1  -5    4.94    0.22
  -6   1   5    4.75    0.24
   6   1  -5    4.80    0.23
   6   1  -5    4.73    0.27
   6   1  -5    4.84    0.24
  -6  -1   5    4.66    0.22
  -6  -1   5    4.73    0.24
  -6  -1   5    4.63    0.25
   6  -1  -5    5.05    0.24
  -6  -1   5    4.77    0.23
   6  -1  -5    5.00    0.26
   6  -1  -5    4.92    0.24
   6  -1  -5    4.78    0.25
  -6   1   4   21.97    0.63
   6   1  -4   23.23    0.59
  -6   1   4   23.03    0.61
  -6   1   4   22.92    0.64
   6   1  -4   22.98    0.62
  -6   1   4   23.15    0.64
   6   1  -4   23.41    0.59
   6   1  -4   23.67    0.66
  -6  -1   4   23.44    0.60
   6  -1  -4   23.02    0.63
  -6  -1   4   22.73    0.62
  -6  -1   4   22.69    0.66
   6  -1  -4   22.29    0.61
   6  -1  -4   22.21    0.62
   6  -1  -4   22.62    0.60
  -6  -1   4   23.05    0.59
  -6   1   3    0.55    0.10
   6   1  -3    0.88    0.10
   6   1  -3    0.86    0.11
  -6   1   3    0.83    0.12
  -6   1   3    0.80    0.11
  -6   1   3    0.88    0.10
  -6   1   3    0.76    0.11
   6   1  -3    0.81    0.11
   6   1  -3    0.88    0.13
  -6  -1   3    1.04    0.12
  -6  -1   3    0.80    0.09
   6  -1  -3    0.76    0.11
   6  -1  -3    0.86    0.12
   6  -1  -3    0.90    0.11
  -6  -1   3    0.97    0.11
  -6  -1   3    0.78    0.11
   6  -1  -3    0.96    0.12
  -6   1   2   47.50    1.09
   6   1  -2   46.52    1.06
   6   1  -2   47.61    1.08
  -6   1   2   48.58    1.11
  -6   1   2   46.30    1.11
  -6   1   2   48.49    1.12
   6   1  -2   49.13    1.11
  -6   1   2   48.10    1.14
  -6  -1   2   46.46    1.07
  -6  -1   2   47.15    1.14
  -6  -1   2   47.18    1.06
   6  -1  -2   47.25    1.09
  -6  -1   2   48.23    1.10
  -6  -1   2   50.89    1.09
   6  -1  -2   48.73    1.12
   6  -1  -2   49.17    1.12
  -6   1   1   47.79    1.11
  -6   1   1   49.43    1.14
  -6   1   1   48.25    1.14
   6   1  -1   49.35    1.14
  -6   1   1   50.19    1.11
  -6   1   1   51.08    1.17
   6   1  -1   49.46    1.08
   6  -1  -1   50.75    1.17
  -6  -1   1   49.13    1.09
   6  -1  -1   49.71    1.13
   6  -1  -1   48.52    1.10
  -6  -1   1   49.63    1.09
  -6  -1   1   47.45    1.13
  -6  -1   1   48.69    1.07
   6  -1  -1   49.57    1.14
  -6   1   0   51.77    1.18
  -6   1   0   49.99    1.16
   6   1   0   50.16    1.12
  -6   1   0   50.66    1.13
   6   1   0   51.61    1.19
  -6   1   0   52.47    1.16
  -6   1   0   50.88    1.20
   6  -1   0   51.82    1.17
   6  -1   0   50.32    1.13
  -6  -1   0   52.78    1.12
  -6  -1   0   51.40    1.18
  -6  -1   0   50.36    1.11
   6  -1   0   51.86    1.19
  -6  -1   0   51.15    1.19
  -6  -1   0   49.64    1.10
   6  -1   0   51.13    1.20
   6  -1   0   51.10    1.16
  -6  -1   0   52.27    1.13
  -6   1  -1   16.95    0.45
  -6   1  -1   15.69    0.47
   6   1   1   16.16    0.49
   6   1   1   16.34    0.43
  -6   1  -1   16.83    0.49
  -6   1  -1   16.59    0.47
   6  -1   1   15.94    0.49
   6  -1   1   16.71    0.41
  -6  -1  -1   16.61    0.49
   6  -1   1   16.42    0.45
   6  -1   1   15.75    0.45
  -6  -1  -1   16.02    0.41
  -6  -1  -1   16.74    0.40
   6  -1   1   15.73    0.42
  -6  -1  -1   16.19    0.47
  -6  -1  -1   16.69    0.43
  -6   1  -2    5.11    0.25
  -6   1  -2    4.89    0.24
   6   1   2    4.14    0.19
   6   1   2    4.97    0.23
   6   1   2    5.35    0.18
  -6   1  -2    5.07    0.21
  -6   1  -2    5.37    0.24
  -6  -1  -2    5.23    0.24
   6  -1   2    5.06    0.23
  -6  -1  -2    5.10    0.17
   6  -1   2    5.39    0.18
   6  -1   2    4.82    0.24
   6  -1   2    5.01    0.22
  -6  -1  -2    5.16    0.23
  -6  -1  -2    5.50    0.21
  -6   1  -3    1.09    0.14
  -6   1  -3    1.03    0.13
   6   1   3    0.99    0.13
   6   1   3    1.15    0.11
   6   1   3    0.98    0.12
  -6   1  -3    1.19    0.15
  -6  -1  -3    1.05    0.14
  -6  -1  -3    1.01    0.09
   6  -1   3    1.02    0.11
  -6  -1  -3    0.99    0.14
   6  -1   3    1.21    0.16
  -6  -1  -3    1.05    0.12
   6  -1   3    1.18    0.13
   6  -1   3    0.97    0.14
   6   1   4   14.59    0.45
   6   1   4   14.36    0.42
   6   1   4   14.51    0.49
  -6   1  -4   14.61    0.50
  -6   1  -4   14.33    0.43
  -6   1  -4   13.89    0.41
  -6  -1  -4   14.92    0.49
  -6  -1  -4   14.44    0.48
   6  -1   4   14.36    0.48
   6  -1   4   14.47    0.42
  -6  -1  -4   13.89    0.44
   6  -1   4   13.27    0.48
  -6  -1  -4   13.93    0.40
  -6  -1  -4   14.26    0.49
  -6   1  -5    5.84    0.26
   6   1   5    6.00    0.31
  -6   1  -5    6.20    0.33
  -6   1  -5    6.06    0.33
  -6   1  -5    6.10    0.27
   6   1   5    5.80    0.27
   6  -1   5    5.85    0.31
   6  -1   5    6.02    0.26
  -6  -1  -5    6.32    0.32
  -6  -1  -5    6.62    0.33
  -6  -1  -5    5.95    0.31
  -6  -1  -5    6.04    0.28
  -6  -1  -5    5.77    0.25
   6   1   6   30.53    1.02
  -6   1  -6   34.05    0.90
  -6   1  -6   35.33    0.91
  -6   1  -6   35.13    0.99
  -6   1  -6   34.88    0.89
   6   1   6   35.42    0.91
   6   1   6   35.67    0.99
  -6   1  -6   36.29    1.02
  -6  -1  -6   32.74    0.99
   6  -1   6   34.74    1.00
  -6  -1  -6   34.83    0.94
  -6  -1  -6   35.46    0.89
  -6  -1  -6   34.09    0.96
   6  -1   6   35.34    0.98
   6  -1   6   36.68    0.90
  -6  -1  -6   36.01    0.99
  -6   1  -7   17.87    0.58
   6   1   7   17.71    0.63
  -6   1  -7   17.86    0.68
  -6   1  -7   17.94    0.65
   6   1   7   18.21    0.59
  -6   1  -7   18.30    0.59
  -6   1  -7   18.25    0.57
   6   1   7   17.51    0.65
   6  -1   7   17.92    0.58
  -6  -1  -7   17.57    0.65
  -6  -1  -7   18.18    0.64
  -6  -1  -7   17.64    0.57
   6  -1   7   18.40    0.65
  -6  -1  -7   18.07    0.62
  -6  -1  -7   17.73    0.68
   6  -1   7   17.66    0.67
  -6   1  -8    0.29    0.15
  -6   1  -8    0.29    0.17
  -6   1  -8    0.59    0.18
  -6   1  -8    0.71    0.18
   6   1   8    0.54    0.19
  -6   1  -8    0.32    0.21
   6   1   8    0.63    0.21
   6   1   8    0.00    0.14
  -6  -1  -8    0.20    0.21
   6  -1   8    0.60    0.18
   6  -1   8    0.12    0.19
  -6  -1  -8    0.07    0.19
   6  -1   8    0.40    0.22
  -6  -1  -8    0.24    0.17
  -6  -1  -8    0.40    0.20
  -6  -1  -8    0.64    0.20
   6   1   9    1.90    0.28
  -6   1  -9    1.68    0.28
  -6   1  -9    1.87    0.30
  -6   1  -9    2.56    0.30
  -6   1  -9    1.79    0.28
  -6   1  -9    1.64    0.25
   6   1   9    2.09    0.28
  -6  -1  -9    1.79    0.33
  -6  -1  -9    1.27    0.29
   6  -1   9    1.84    0.29
   6  -1   9    2.22    0.29
  -6  -1  -9    2.23    0.30
  -6  -1  -9    1.86    0.34
  -6  -1  -9    2.40    0.33
  -6   1 -10    4.05    0.47
  -6   1 -10    4.62    0.47
  -6   1 -10    4.01    0.52
  -6   1 -10    4.44    0.50
  -6   1 -10    4.30    0.56
   6   1  10    5.01    0.47
  -6  -1 -10    4.95    0.51
  -6  -1 -10    4.02    0.52
   6  -1  10    4.99    0.47
  -6  -1 -10    4.92    0.50
  -6  -1 -10    4.38    0.50
  -6   1 -11   -0.63    0.31
   6   1  11    0.17    0.31
  -6   1 -11    0.15    0.31
  -6   1 -11   -0.05    0.36
  -6  -1 -11   -0.65    0.32
  -6  -1 -11   -0.26    0.32
   6  -1  11    0.23    0.31
  -6   2  12    0.21    0.32
   6   2 -12    0.36    0.29
   6   2 -12    1.22    0.39
   6  -2 -12    0.33    0.35
  -6  -2  12    0.17    0.26
   6  -2 -12   -0.32    0.37
   6  -2 -12    0.66    0.35
  -6   2  11    4.10    0.50
   6   2 -11    5.50    0.55
   6   2 -11    4.09    0.46
   6   2 -11    3.66    0.35
  -6   2  11    3.45    0.46
   6  -2 -11    5.71    0.52
   6  -2 -11    5.00    0.54
  -6  -2  11    4.52    0.41
   6  -2 -11    3.72    0.52
  -6  -2  11    4.31    0.46
  -6   2  10    4.04    0.45
  -6   2  10    3.90    0.50
  -6   2  10    4.29    0.41
   6   2 -10    4.58    0.31
   6   2 -10    5.09    0.48
   6   2 -10    4.76    0.39
   6  -2 -10    5.02    0.44
  -6  -2  10    4.18    0.35
   6  -2 -10    4.59    0.46
  -6  -2  10    4.95    0.45
  -6  -2  10    4.78    0.43
   6  -2 -10    4.41    0.45
  -6   2   9    3.19    0.35
  -6   2   9    3.75    0.44
  -6   2   9    3.48    0.35
   6   2  -9    3.54    0.25
   6   2  -9    3.39    0.35
  -6   2   9    3.69    0.39
   6   2  -9    3.41    0.32
   6   2  -9    3.32    0.39
  -6  -2   9    4.01    0.36
  -6  -2   9    3.84    0.36
  -6  -2   9    4.34    0.39
   6  -2  -9    3.58    0.35
  -6  -2   9    3.05    0.30
   6  -2  -9    4.26    0.36
   6  -2  -9    3.81    0.39
   6  -2  -9    3.15    0.34
   6   2  -8   14.97    0.47
  -6   2   8   15.35    0.56
   6   2  -8   15.00    0.62
   6   2  -8   15.47    0.55
  -6   2   8   15.35    0.63
  -6   2   8   15.21    0.62
  -6   2   8   15.95    0.61
   6   2  -8   15.01    0.59
   6  -2  -8   14.80    0.55
   6  -2  -8   14.72    0.59
  -6  -2   8   16.04    0.63
   6  -2  -8   14.79    0.56
  -6  -2   8   16.49    0.61
  -6  -2   8   16.05    0.57
  -6  -2   8   15.92    0.50
   6   2  -7   46.74    1.09
  -6   2   7   47.09    1.22
   6   2  -7   47.50    1.24
   6   2  -7   45.80    1.17
   6   2  -7   47.14    1.27
  -6   2   7   46.14    1.15
  -6   2   7   47.30    1.28
  -6   2   7   47.76    1.25
  -6  -2   7   48.34    1.25
   6  -2  -7   46.13    1.21
   6  -2  -7   45.81    1.16
  -6  -2   7   46.26    1.17
  -6  -2   7   44.99    1.26
   6  -2  -7   45.48    1.21
  -6  -2   7   46.47    1.11
   6  -2  -7   46.76    1.23
  -6   2   6   29.31    0.78
  -6   2   6   30.71    0.88
   6   2  -6   29.76    0.86
   6   2  -6   31.22    0.90
  -6   2   6   30.15    0.89
   6   2  -6   29.84    0.74
  -6   2   6   29.76    0.85
   6   2  -6   29.73    0.79
  -6  -2   6   30.39    0.75
   6  -2  -6   29.47    0.78
   6  -2  -6   31.93    0.87
   6  -2  -6   29.96    0.85
  -6  -2   6   29.54    0.88
  -6  -2   6   30.20    0.80
   6  -2  -6   29.68    0.85
  -6  -2   6   30.93    0.87
  -6   2   5    2.40    0.22
  -6   2   5    2.45    0.22
  -6   2   5    1.92    0.20
   6   2  -5    2.43    0.22
  -6   2   5    2.56    0.23
   6   2  -5    2.39    0.17
   6   2  -5    2.33    0.21
  -6   2   5    2.49    0.17
   6   2  -5    2.22    0.16
  -6  -2   5    2.85    0.23
   6  -2  -5    2.22    0.21
  -6  -2   5    2.02    0.20
  -6  -2   5    2.00    0.15
   6  -2  -5    2.06    0.21
  -6  -2   5    2.29    0.17
   6  -2  -5    1.66    0.19
   6  -2  -5    2.25    0.16
  -6   2   4    1.03    0.14
   6   2  -4    0.77    0.10
  -6   2   4    0.85    0.15
  -6   2   4    0.66    0.13
  -6   2   4    0.71    0.10
   6   2  -4    0.77    0.12
   6   2  -4    0.81    0.10
   6   2  -4    0.68    0.13
  -6   2   4    0.73    0.13
   6  -2  -4    0.75    0.13
  -6  -2   4    0.84    0.14
  -6  -2   4    1.01    0.12
   6  -2  -4    0.65    0.09
  -6  -2   4    0.64    0.09
   6  -2  -4    0.93    0.15
   6  -2  -4    0.54    0.11
  -6  -2   4    0.86    0.13
  -6   2   3   24.39    0.68
   6   2  -3   24.10    0.68
  -6   2   3   24.52    0.67
   6   2  -3   24.31    0.62
   6   2  -3   23.35    0.65
  -6   2   3   23.36    0.57
  -6   2   3   23.01    0.65
  -6   2   3   23.71    0.69
   6   2  -3   23.57    0.57
  -6  -2   3   24.08    0.65
  -6  -2   3   23.58    0.60
   6  -2  -3   22.83    0.65
   6  -2  -3   24.10    0.66
  -6  -2   3   22.29    0.56
  -6  -2   3   23.96    0.69
   6  -2  -3   23.58    0.66
   6   2  -2   43.61    1.04
  -6   2   2   43.85    1.09
  -6   2   2   44.23    1.09
   6   2  -2   43.34    0.94
  -6   2   2   42.69    0.96
  -6   2   2   43.66    0.97
  -6   2   2   43.87    1.07
  -6   2   2   42.03    1.06
  -6  -2   2   43.77    1.02
  -6  -2   2   43.75    1.05
  -6  -2   2   44.57    0.95
  -6  -2   2   45.03    1.09
   6  -2  -2   44.48    1.09
   6  -2  -2   44.02    1.06
  -6  -2   2   44.18    0.96
   6  -2  -2   42.93    1.06
   6  -2  -2   43.11    1.06
  -6   2   1   29.22    0.68
  -6   2   1   31.01    0.80
  -6   2   1   29.85    0.76
  -6   2   1   28.89    0.78
  -6   2   1   29.74    0.77
   6  -2  -1   29.90    0.75
  -6  -2   1   30.26    0.79
   6  -2  -1   30.14    0.80
  -6  -2   1   29.10    0.75
  -6  -2   1   29.40    0.74
   6  -2  -1   28.76    0.76
   6  -2  -1   30.12    0.78
  -6   2   0   42.06    0.95
  -6   2   0   41.16    0.98
  -6   2   0   39.75    1.01
  -6  -2   0   41.59    1.00
  -6  -2   0   41.80    1.01
   6  -2   0   40.89    0.94
  -6  -2   0   40.72    1.01
   6  -2   0   40.95    1.03
  -6  -2   0   41.78    0.99
   6  -2   0   40.13    1.00
   6  -2   0   42.61    0.98
   6  -2   0   40.47    1.02
  -6  -2   0   40.61    0.96
  -6   2  -1   86.47    1.98
  -6   2  -1   85.48    1.90
  -6   2  -1   87.22    1.91
  -6   2  -1   84.10    1.95
  -6  -2  -1   88.95    1.96
   6  -2   1   83.64    1.93
  -6  -2  -1   88.59    1.96
   6  -2   1   89.57    1.90
  -6  -2  -1   86.40    1.92
   6  -2   1   87.57    1.90
   6  -2   1   87.39    1.98
  -6   2  -2   28.44    0.73
  -6   2  -2   27.50    0.76
   6   2   2   27.46    0.71
  -6   2  -2   27.78    0.77
   6   2   2   27.73    0.65
  -6   2  -2   27.40    0.69
   6  -2   2   27.98    0.71
   6  -2   2   27.14    0.71
   6  -2   2   27.82    0.69
  -6  -2  -2   27.02    0.64
   6  -2   2   27.71    0.77
  -6  -2  -2   26.52    0.75
  -6  -2  -2   28.04    0.71
   6  -2   2   28.05    0.73
  -6  -2  -2   28.49    0.76
   6   2   3    6.10    0.29
  -6   2  -3    6.18    0.31
   6   2   3    6.46    0.27
   6   2   3    6.17    0.24
  -6   2  -3    5.95    0.29
  -6   2  -3    5.93    0.24
  -6   2  -3    5.23    0.29
  -6  -2  -3    6.31    0.30
  -6  -2  -3    5.54    0.26
  -6  -2  -3    6.03    0.23
  -6  -2  -3    6.06    0.30
  -6  -2  -3    6.42    0.31
   6  -2   3    5.97    0.24
   6  -2   3    6.42    0.29
   6  -2   3    6.48    0.27
   6   2   4   13.10    0.41
  -6   2  -4   13.52    0.49
   6   2   4   12.62    0.44
  -6   2  -4   12.51    0.38
   6   2   4   13.74    0.48
  -6   2  -4   13.00    0.48
  -6  -2  -4   12.93    0.40
   6  -2   4   12.90    0.46
  -6  -2  -4   12.50    0.47
   6  -2   4   12.34    0.49
  -6  -2  -4   13.34    0.42
  -6  -2  -4   13.06    0.48
  -6  -2  -4   13.45    0.50
   6  -2   4   12.85    0.43
   6   2   5    3.55    0.29
  -6   2  -5    3.50    0.29
   6   2   5    3.46    0.25
  -6   2  -5    3.30    0.28
   6   2   5    3.66    0.23
  -6   2  -5    3.46    0.21
   6  -2   5    3.53    0.28
  -6  -2  -5    3.19    0.27
  -6  -2  -5    3.93    0.23
  -6  -2  -5    3.69    0.23
  -6  -2  -5    3.58    0.27
  -6  -2  -5    3.62    0.29
   6  -2   5    3.82    0.28
   6  -2   5    3.79    0.26
   6   2   6   24.74    0.78
  -6   2  -6   25.20    0.82
   6   2   6   24.98    0.75
  -6   2  -6   24.20    0.64
   6   2   6   25.13    0.73
  -6   2  -6   25.15    0.80
  -6   2  -6   24.10    0.66
  -6  -2  -6   24.80    0.72
   6  -2   6   24.55    0.73
   6  -2   6   26.16    0.82
  -6  -2  -6   24.56    0.81
  -6  -2  -6   24.16    0.79
  -6  -2  -6   24.94    0.71
   6  -2   6   24.49    0.80
  -6  -2  -6   25.90    0.82
   6   2   7    3.33    0.39
  -6   2  -7    3.86    0.37
  -6   2  -7    3.41    0.33
  -6   2  -7    3.44    0.25
   6   2   7    3.58    0.30
  -6   2  -7    3.29    0.25
  -6   2  -7    4.02    0.38
   6   2   7    3.62    0.32
  -6  -2  -7    4.43    0.35
   6  -2   7    2.87    0.36
  -6  -2  -7    3.89    0.38
  -6  -2  -7    3.58    0.30
   6  -2   7    3.79    0.38
  -6  -2  -7    3.83    0.30
  -6  -2  -7    3.48    0.36
   6  -2   7    3.54    0.32
  -6   2  -8   20.68    0.84
   6   2   8   20.59    0.73
   6   2   8   21.53    0.75
  -6   2  -8   20.00    0.75
   6   2   8   20.47    0.85
  -6   2  -8   20.25    0.63
  -6   2  -8   22.31    0.82
  -6   2  -8   21.24    0.62
  -6  -2  -8   21.91    0.83
  -6  -2  -8   22.69    0.82
   6  -2   8   21.60    0.73
   6  -2   8   21.41    0.82
  -6  -2  -8   20.65    0.73
  -6  -2  -8   21.65    0.72
  -6   2  -9    9.78    0.44
   6   2   9   10.14    0.57
  -6   2  -9    9.14    0.43
  -6   2  -9    7.84    0.58
  -6   2  -9   10.05    0.61
  -6   2  -9    9.28    0.62
  -6  -2  -9    9.10    0.64
  -6  -2  -9    8.88    0.55
  -6  -2  -9    9.90    0.63
   6  -2   9    9.45    0.66
  -6  -2  -9    9.63    0.56
   6  -2   9    9.07    0.51
  -6   2 -10    0.41    0.32
  -6   2 -10    0.23    0.32
   6   2  10    0.26    0.29
  -6  -2 -10    0.07    0.31
  -6  -2 -10   -0.16    0.32
   6  -2  10    0.04    0.27
  -6  -2 -10   -0.31    0.32
   6   3 -11    0.15    0.32
   6   3 -11    0.57    0.28
  -6   3  11    0.41    0.30
  -6  -3  11    0.54    0.30
   6  -3 -11    0.59    0.34
   6  -3 -11    0.37    0.32
  -6   3  10    5.44    0.49
   6   3 -10    4.90    0.42
  -6   3  10    4.07    0.48
   6   3 -10    5.13    0.54
  -6  -3  10    5.00    0.49
   6  -3 -10    5.13    0.46
   6  -3 -10    4.26    0.53
   6  -3 -10    4.22    0.54
  -6   3   9    5.21    0.41
   6   3  -9    5.79    0.37
   6   3  -9    5.75    0.50
  -6   3   9    5.72    0.49
  -6   3   9    5.64    0.47
  -6  -3   9    5.41    0.26
   6  -3  -9    5.62    0.48
   6  -3  -9    5.66    0.46
   6  -3  -9    5.67    0.40
  -6  -3   9    5.52    0.45
   6   3  -8   55.37    1.53
   6   3  -8   56.56    1.42
  -6   3   8   57.03    1.37
  -6   3   8   55.54    1.50
  -6   3   8   58.07    1.59
   6   3  -8   57.86    1.57
   6  -3  -8   58.12    1.51
   6  -3  -8   57.05    1.51
   6  -3  -8   56.78    1.53
   6  -3  -8   56.43    1.38
  -6  -3   8   59.11    1.54
  -6  -3   8   55.40    1.43
  -6  -3   8   55.47    1.56
  -6  -3   8   56.85    1.27
  -6   3   7    0.29    0.18
  -6   3   7   -0.25    0.15
   6   3  -7    0.11    0.17
   6   3  -7    0.00    0.11
  -6   3   7    0.01    0.13
   6   3  -7    0.13    0.17
  -6   3   7    0.01    0.16
   6   3  -7   -0.03    0.08
  -6   3   7    0.13    0.14
  -6  -3   7    0.13    0.11
  -6  -3   7    0.24    0.19
   6  -3  -7    0.13    0.16
   6  -3  -7   -0.01    0.12
   6  -3  -7    0.26    0.17
  -6  -3   7    0.01    0.09
  -6  -3   7   -0.08    0.15
   6  -3  -7   -0.01    0.16
  -6   3   6    3.80    0.31
  -6   3   6    2.49    0.20
  -6   3   6    3.23    0.30
   6   3  -6    3.77    0.22
   6  -3  -6    3.06    0.20
  -6  -3   6    3.07    0.20
  -6  -3   6    3.10    0.20
   6   3  -5    1.74    0.25
  -6   3   5    2.01    0.27
  -6   3   5    1.73    0.24
  -6   3   5    1.86    0.26
  -6   3   5    1.79    0.24
   6   3  -5    1.76    0.16
   6  -3  -5    1.87    0.23
  -6  -3   5    1.65    0.23
   6  -3  -5    2.10    0.24
  -6  -3   5    1.62    0.16
  -6  -3   5    1.83    0.24
   6  -3  -5    1.69    0.24
  -6  -3   5    1.64    0.15
   6   3  -4    3.06    0.27
  -6   3   4    3.29    0.28
  -6   3   4    3.13    0.27
  -6   3   4    2.67    0.25
  -6   3   4    3.18    0.27
   6   3  -4    3.17    0.17
  -6  -3   4    3.33    0.28
   6  -3  -4    3.20    0.25
  -6  -3   4    3.09    0.15
  -6  -3   4    3.26    0.27
  -6  -3   4    3.25    0.19
   6  -3  -4    3.75    0.28
   6  -3  -4    3.37    0.26
  -6   3   3   13.97    0.51
   6   3  -3   13.65    0.50
  -6   3   3   14.05    0.51
  -6   3   3   13.61    0.49
  -6   3   3   14.70    0.55
  -6  -3   3   14.64    0.43
   6  -3  -3   14.40    0.50
  -6  -3   3   14.58    0.51
  -6  -3   3   14.19    0.52
   6  -3  -3   13.65    0.51
  -6   3   2    0.66    0.12
  -6   3   2    0.91    0.16
  -6   3   2    0.78    0.15
  -6   3   2    0.93    0.16
  -6  -3   2    0.75    0.13
   6  -3  -2    0.93    0.15
   6  -3  -2    0.80    0.16
  -6  -3   2    0.69    0.12
   6  -3  -2    0.83    0.13
  -6  -3   2    0.72    0.14
  -6   3   1   50.98    1.32
  -6   3   1   52.16    1.27
  -6   3   1   53.30    1.30
  -6   3   1   50.01    1.27
   6  -3  -1   51.42    1.31
  -6  -3   1   53.25    1.28
  -6  -3   1   54.75    1.30
   6  -3  -1   53.04    1.31
   6  -3  -1   52.03    1.25
  -6  -3   1   53.04    1.25
  -6   3   0    0.16    0.10
  -6   3   0    0.13    0.07
  -6   3   0    0.01    0.08
  -6   3   0    0.32    0.11
  -6  -3   0    0.25    0.08
   6  -3   0    0.12    0.10
  -6  -3   0    0.29    0.11
   6  -3   0    0.31    0.11
  -6  -3   0    0.16    0.10
   6  -3   0    0.13    0.06
   6  -3   0    0.25    0.09
   6  -3   0    0.24    0.12
  -6  -3   0    0.22    0.11
  -6  -3   0    0.33    0.10
  -6   3  -1    0.85    0.14
  -6   3  -1    0.80    0.12
  -6   3  -1    0.59    0.12
  -6   3  -1    0.80    0.13
   6  -3   1    0.97    0.13
  -6  -3  -1    0.69    0.14
   6  -3   1    0.91    0.13
  -6  -3  -1    0.79    0.13
   6  -3   1    0.41    0.11
  -6  -3  -1    1.21    0.17
  -6  -3  -1    0.74    0.15
   6  -3   1    0.75    0.14
  -6  -3  -1    1.18    0.16
  -6   3  -2    9.24    0.35
  -6   3  -2    9.47    0.40
  -6   3  -2    9.50    0.41
  -6   3  -2    9.23    0.33
   6  -3   2    9.33    0.32
   6  -3   2    9.37    0.34
   6  -3   2    9.73    0.39
  -6  -3  -2    9.80    0.39
  -6  -3  -2   10.20    0.43
   6  -3   2    9.20    0.41
   6  -3   2    9.20    0.41
  -6  -3  -2    9.74    0.40
  -6  -3  -2    9.70    0.39
   6   3   3   18.76    0.62
  -6   3  -3   18.10    0.59
  -6   3  -3   19.11    0.63
  -6   3  -3   18.22    0.51
   6   3   3   19.69    0.49
  -6  -3  -3   18.71    0.61
   6  -3   3   18.20    0.63
   6  -3   3   19.77    0.62
   6  -3   3   19.34    0.58
   6  -3   3   19.45    0.65
  -6  -3  -3   20.02    0.67
  -6  -3  -3   19.91    0.63
  -6  -3  -3   19.25    0.48
   6  -3   3   18.63    0.51
  -6  -3  -3   19.10    0.61
   6   3   4    2.29    0.17
  -6   3  -4    2.29    0.27
  -6   3  -4    2.19    0.25
  -6   3  -4    1.98    0.18
  -6   3  -4    2.49    0.28
   6   3   4    1.98    0.24
  -6  -3  -4    2.40    0.24
  -6  -3  -4    2.05    0.18
   6  -3   4    2.20    0.27
   6  -3   4    2.04    0.16
  -6  -3  -4    2.30    0.24
   6  -3   4    2.44    0.25
   6  -3   4    2.14    0.26
   6  -3   4    2.22    0.26
  -6  -3  -4    1.96    0.24
  -6  -3  -4    2.19    0.27
  -6   3  -5   -0.14    0.14
  -6   3  -5    0.03    0.15
   6   3   5    0.18    0.10
  -6   3  -5    0.21    0.15
  -6   3  -5    0.05    0.09
   6   3   5    0.21    0.17
   6   3   5    0.14    0.14
   6  -3   5   -0.09    0.15
   6  -3   5   -0.17    0.15
   6  -3   5   -0.14    0.14
  -6  -3  -5    0.12    0.14
  -6  -3  -5    0.15    0.13
  -6  -3  -5    0.06    0.16
  -6  -3  -5    0.07    0.11
  -6  -3  -5    0.07    0.14
  -6   3  -6    8.29    0.48
   6   3   6    9.02    0.39
   6   3   6    8.54    0.48
  -6   3  -6    8.59    0.49
  -6   3  -6    8.52    0.28
   6   3   6    8.88    0.46
  -6   3  -6    8.71    0.48
   6  -3   6    9.12    0.45
  -6  -3  -6    8.98    0.50
  -6  -3  -6    8.96    0.43
   6  -3   6    9.64    0.52
  -6  -3  -6    8.90    0.39
   6  -3   6    9.02    0.50
  -6  -3  -6    8.78    0.46
  -6   3  -7    2.10    0.33
   6   3   7    1.50    0.27
  -6   3  -7    1.27    0.28
   6   3   7    1.73    0.24
   6   3   7    1.58    0.29
  -6  -3  -7    1.49    0.27
   6  -3   7    0.86    0.24
   6  -3   7    1.85    0.31
  -6  -3  -7    1.47    0.26
  -6  -3  -7    1.66    0.30
  -6  -3  -7    1.14    0.22
   6  -3   7    0.94    0.27
   6   3   8    4.54    0.45
  -6   3  -8    4.92    0.53
  -6   3  -8    4.93    0.52
   6   3   8    4.61    0.42
  -6  -3  -8    4.51    0.47
  -6  -3  -8    3.25    0.41
  -6  -3  -8    4.10    0.43
   6  -3   8    3.94    0.56
   6  -3   8    4.26    0.47
  -6  -3  -8    4.80    0.48
   6   3   9    0.10    0.27
  -6   3  -9    0.05    0.34
  -6   3  -9   -0.04    0.31
   6  -3   9    0.13    0.46
  -6  -3  -9    0.38    0.28
   6  -3   9   -0.18    0.28
  -6  -3  -9   -0.13    0.31
   6   3  10   12.15    0.77
  -6   3 -10   13.52    0.82
  -6   3 -10   12.83    0.91
   6  -3  10   12.96    0.76
  -6  -3 -10   14.44    0.85
  -6  -3 -10   11.68    0.89
   6   4 -10    0.61    0.27
   6   4 -10    0.86    0.40
  -6   4  10    0.64    0.37
  -6   4  10    0.39    0.31
   6  -4 -10    1.00    0.37
  -6  -4  10    0.73    0.36
  -6   4   9   14.08    0.78
  -6   4   9   14.14    0.71
   6   4  -9   13.08    0.56
   6   4  -9   12.61    0.78
  -6  -4   9   13.73    0.70
   6  -4  -9   13.50    0.51
   6  -4  -9   14.03    0.75
   6   4  -8   61.77    1.54
   6   4  -8   64.57    1.76
  -6   4   8   63.43    1.76
  -6   4   8   62.92    1.70
  -6   4   8   62.85    1.79
   6  -4  -8   62.54    1.66
   6  -4  -8   60.36    1.71
  -6  -4   8   64.51    1.72
  -6   4   7    0.23    0.22
   6   4  -7   -0.23    0.12
   6   4  -7    0.22    0.26
  -6   4   7    0.00    0.21
  -6   4   7   -0.15    0.17
   6  -4  -7    0.10    0.20
  -6  -4   7   -0.36    0.19
  -6  -4   7    0.01    0.24
   6  -4  -7    0.00    0.22
  -6   4   6    6.47    0.42
  -6   4   6    5.49    0.52
   6   4  -6    5.80    0.29
   6   4  -6    5.53    0.45
  -6   4   6    5.77    0.43
   6  -4  -6    5.73    0.46
  -6  -4   6    5.88    0.44
  -6  -4   6    6.14    0.32
   6  -4  -6    5.30    0.42
  -6  -4   6    5.87    0.48
   6  -4  -6    5.88    0.43
  -6  -4   6    5.61    0.24
  -6   4   5    3.06    0.32
   6   4  -5    3.28    0.21
  -6   4   5    3.35    0.33
  -6   4   5    4.09    0.39
   6   4  -5    3.32    0.35
  -6   4   5    3.85    0.45
   6  -4  -5    3.36    0.36
  -6  -4   5    3.35    0.21
   6  -4  -5    3.23    0.36
  -6  -4   5    3.47    0.36
  -6  -4   5    3.80    0.39
  -6  -4   5    3.64    0.23
   6  -4  -5    3.81    0.33
  -6  -4   5    3.79    0.23
  -6   4   4    2.11    0.27
  -6   4   4    2.66    0.38
  -6   4   4    1.87    0.28
   6   4  -4    1.69    0.24
  -6   4   4    1.67    0.23
   6  -4  -4    1.64    0.25
  -6  -4   4    1.51    0.17
   6  -4  -4    1.68    0.23
  -6  -4   4    2.06    0.29
   6  -4  -4    2.20    0.28
  -6  -4   4    1.67    0.26
  -6  -4   4    1.98    0.21
  -6  -4   4    1.62    0.15
  -6   4   3   10.18    0.46
  -6   4   3   10.32    0.52
  -6   4   3   10.68    0.47
  -6   4   3    9.30    0.49
   6  -4  -3   10.42    0.51
  -6  -4   3   10.65    0.40
   6  -4  -3   10.57    0.47
  -6  -4   3   10.87    0.39
  -6  -4   3   10.91    0.48
  -6  -4   3   10.29    0.49
  -6  -4   3   10.07    0.51
   6  -4  -3   10.25    0.46
  -6   4   2    0.25    0.14
  -6   4   2    0.45    0.17
  -6   4   2    0.29    0.14
  -6   4   2    0.47    0.20
  -6  -4   2    0.26    0.18
  -6  -4   2    0.62    0.17
   6  -4  -2    0.48    0.16
  -6  -4   2    0.42    0.16
  -6  -4   2    0.45    0.14
  -6  -4   2    0.23    0.12
   6  -4  -2    0.51    0.15
   6  -4  -2    0.70    0.21
  -6   4   1   21.18    0.68
  -6   4   1   20.67    0.69
  -6   4   1   21.13    0.68
   6  -4  -1   21.25    0.68
  -6  -4   1   21.52    0.69
  -6  -4   1   21.29    0.65
   6  -4  -1   20.74    0.73
  -6  -4   1   21.61    0.67
  -6  -4   1   22.19    0.74
  -6  -4   1   21.61    0.70
   6  -4  -1   20.67    0.69
   6  -4  -1   20.67    0.64
  -6   4   0    4.69    0.33
  -6   4   0    4.72    0.32
  -6   4   0    5.17    0.32
   6  -4   0    4.91    0.37
  -6  -4   0    5.57    0.33
  -6  -4   0    5.23    0.37
  -6  -4   0    5.26    0.33
   6  -4   0    5.10    0.33
  -6  -4   0    4.82    0.33
   6  -4   0    5.28    0.29
  -6  -4   0    5.26    0.31
  -6  -4   0    5.24    0.34
  -6   4  -1   40.08    1.00
  -6   4  -1   39.62    1.07
  -6   4  -1   38.84    1.08
  -6  -4  -1   40.56    1.08
   6  -4   1   38.27    0.97
  -6  -4  -1   39.85    1.04
  -6  -4  -1   39.58    1.06
  -6  -4  -1   39.92    1.09
   6  -4   1   38.03    0.91
  -6  -4  -1   39.45    1.11
   6  -4   1   37.45    1.12
   6  -4   1   40.37    1.10
  -6   4  -2    1.26    0.16
  -6   4  -2    1.12    0.21
  -6   4  -2    1.51    0.22
  -6   4  -2    0.87    0.16
   6  -4   2    1.40    0.25
  -6  -4  -2    1.11    0.20
   6  -4   2    1.07    0.20
   6  -4   2    1.24    0.15
   6  -4   2    1.28    0.16
   6  -4   2    0.87    0.17
  -6  -4  -2    0.70    0.20
  -6  -4  -2    1.14    0.20
  -6  -4  -2    0.75    0.19
  -6  -4  -2    1.33    0.21
  -6   4  -3    8.98    0.33
  -6   4  -3    8.13    0.44
  -6   4  -3    9.11    0.41
  -6   4  -3    9.22    0.45
   6  -4   3    8.66    0.31
  -6  -4  -3    8.90    0.48
   6  -4   3    8.25    0.47
   6  -4   3    8.83    0.50
  -6  -4  -3    9.01    0.49
  -6  -4  -3    8.61    0.40
   6  -4   3    7.38    0.37
  -6  -4  -3    9.30    0.47
   6  -4   3    8.86    0.46
   6   4   4    0.22    0.17
  -6   4  -4    0.15    0.12
  -6   4  -4    0.07    0.19
  -6   4  -4    0.05    0.18
   6  -4   4    0.09    0.22
   6  -4   4    0.18    0.17
  -6  -4  -4    0.04    0.16
   6  -4   4    0.09    0.18
  -6  -4  -4    0.32    0.21
   6  -4   4   -0.35    0.21
  -6  -4  -4    0.03    0.20
   6  -4   4    0.03    0.08
  -6  -4  -4    0.34    0.19
   6   4   5    4.30    0.40
  -6   4  -5    4.53    0.44
  -6   4  -5    4.46    0.42
  -6   4  -5    3.81    0.38
   6   4   5    4.33    0.25
   6  -4   5    4.30    0.44
   6  -4   5    4.56    0.42
  -6  -4  -5    4.40    0.29
   6  -4   5    4.01    0.40
  -6  -4  -5    4.00    0.37
  -6  -4  -5    4.60    0.46
   6  -4   5    4.16    0.46
  -6  -4  -5    4.13    0.42
  -6   4  -6    1.87    0.34
  -6   4  -6    2.76    0.37
   6   4   6    2.50    0.28
   6   4   6    2.76    0.36
  -6   4  -6    2.58    0.37
  -6  -4  -6    2.92    0.39
   6  -4   6    2.25    0.35
   6  -4   6    1.98    0.34
   6  -4   6    2.46    0.32
  -6  -4  -6    2.12    0.30
  -6  -4  -6    2.44    0.31
   6  -4   6    2.41    0.38
  -6  -4  -6    2.37    0.34
   6   4   7    7.90    0.57
  -6   4  -7    9.17    0.63
   6   4   7    8.63    0.44
  -6   4  -7    8.60    0.60
  -6  -4  -7    9.68    0.56
  -6  -4  -7    6.92    0.58
  -6  -4  -7    7.99    0.57
   6  -4   7    8.02    0.56
  -6  -4  -7    7.58    0.46
   6   4   8    8.97    0.66
  -6   4  -8    9.06    0.72
  -6   4  -8    9.17    0.76
   6  -4   8    8.10    0.67
  -6  -4  -8    8.77    0.69
  -6  -4  -8    9.39    0.64
  -6   5   8    5.12    0.57
  -6   5   8    6.65    0.71
   6   5  -8    4.82    0.37
   6   5  -8    4.55    0.67
   6  -5  -8    5.14    0.67
  -6  -5   8    5.90    0.62
  -6   5   7    1.95    0.44
   6   5  -7    1.49    0.38
   6   5  -7    1.77    0.22
  -6   5   7    1.48    0.31
   6  -5  -7    1.95    0.37
  -6  -5   7    1.42    0.32
   6   5  -6   -0.07    0.19
   6   5  -6   -0.02    0.28
   6   5  -6    0.13    0.14
  -6   5   6    0.06    0.21
  -6   5   6   -0.30    0.27
   6  -5  -6    0.02    0.39
   6  -5  -6   -0.16    0.27
  -6  -5   6    0.35    0.27
  -6   5   5   12.11    0.68
   6   5  -5   11.46    0.60
  -6   5   5   10.88    0.59
  -6   5   5   11.11    0.59
  -6  -5   5   11.26    0.68
  -6  -5   5   12.44    0.65
   6  -5  -5   11.34    0.63
   6  -5  -5   10.97    0.61
  -6   5   4   10.13    0.67
  -6   5   4   10.63    0.64
  -6   5   4   10.69    0.54
  -6   5   4    9.82    0.52
   6  -5  -4    9.60    0.57
  -6  -5   4   10.12    0.40
  -6  -5   4   10.54    0.59
  -6  -5   4    9.94    0.59
  -6  -5   4    9.74    0.42
   6  -5  -4    9.83    0.56
  -6   5   3    1.81    0.27
  -6   5   3    1.26    0.23
  -6   5   3    1.41    0.35
  -6   5   3    1.94    0.31
   6  -5  -3    1.59    0.29
   6  -5  -3    1.79    0.27
  -6  -5   3    1.66    0.31
  -6  -5   3    1.68    0.22
  -6  -5   3    2.00    0.24
  -6  -5   3    1.62    0.29
  -6   5   2   -0.20    0.24
  -6   5   2    0.01    0.21
  -6   5   2    0.22    0.17
  -6  -5   2   -0.15    0.25
   6  -5  -2    0.25    0.20
  -6  -5   2    0.23    0.23
   6  -5  -2   -0.16    0.17
  -6  -5   2    0.33    0.19
  -6  -5   2   -0.03    0.20
  -6  -5   2    0.43    0.20
  -6   5   1    0.67    0.24
  -6   5   1    0.55    0.21
  -6   5   1    0.44    0.24
  -6  -5   1    1.12    0.24
  -6  -5   1    0.10    0.20
   6  -5  -1    0.05    0.31
  -6  -5   1    0.74    0.19
  -6  -5   1    0.16    0.22
   6  -5  -1    0.54    0.20
  -6  -5   1    0.83    0.21
  -6  -5   1    0.40    0.28
  -6   5   0   -0.05    0.22
  -6   5   0    0.26    0.18
  -6   5   0    0.00    0.20
  -6  -5   0    0.49    0.21
  -6  -5   0   -0.14    0.21
   6  -5   0    0.04    0.17
   6  -5   0   -0.11    0.27
  -6  -5   0   -0.05    0.26
  -6  -5   0    0.08    0.17
  -6  -5   0    0.20    0.20
  -6  -5   0    0.28    0.22
  -6   5  -1    5.91    0.40
  -6   5  -1    6.04    0.40
  -6  -5  -1    6.39    0.44
   6  -5   1    6.20    0.54
  -6  -5  -1    5.78    0.54
  -6  -5  -1    5.53    0.38
   6  -5   1    5.06    0.46
  -6  -5  -1    6.64    0.49
  -6  -5  -1    6.56    0.48
   6  -5   1    5.55    0.36
  -6   5  -2   -0.03    0.17
  -6   5  -2   -0.02    0.16
  -6  -5  -2    0.34    0.26
  -6  -5  -2    0.19    0.22
   6  -5   2    0.11    0.15
   6  -5   2    0.17    0.24
  -6  -5  -2   -0.16    0.20
  -6  -5  -2   -0.12    0.17
  -6  -5  -2   -0.16    0.29
  -6   5  -3   13.92    0.43
  -6   5  -3   14.16    0.54
  -6   5  -3   14.30    0.62
  -6   5  -3   12.71    0.89
   6  -5   3   14.53    0.68
   6  -5   3   14.58    0.43
  -6  -5  -3   14.43    0.71
   6  -5   3   13.07    0.51
  -6  -5  -3   14.97    0.63
  -6  -5  -3   15.12    0.73
  -6  -5  -3   14.54    0.57
  -6   5  -4    1.34    0.31
  -6   5  -4    1.29    0.27
  -6  -5  -4    1.42    0.26
  -6  -5  -4    0.95    0.28
   6  -5   4    1.24    0.26
   6  -5   4    1.13    0.31
  -6   5  -5    0.03    0.29
  -6   5  -5    0.03    0.22
  -6  -5  -5    0.55    0.26
  -6  -5  -5    0.71    0.29
   6  -5   5    0.21    0.28
  -6  -5  -5    0.48    0.33
   6  -5   5    0.40    0.28
  -6   5  -6   17.32    0.81
   6   5   6   17.13    0.84
  -6   5  -6   17.89    0.85
  -6  -5  -6   17.90    0.93
  -6  -5  -6   18.21    0.77
   6  -5   6   19.54    1.19
   6  -5   6   18.11    0.88
   6   5   7   26.84    0.79
   6   5   7   26.86    1.14
  -6   5  -7   27.05    1.07
  -6   5  -7   26.67    1.13
  -6  -5  -7   27.97    1.04
  -6  -5  -7   29.22    1.48
   6  -5   7   26.97    1.06
  -6   6   5    0.46    0.36
  -6   6   5    0.42    0.32
   6  -6  -5    0.58    0.41
  -6  -6   5    0.90    0.41
  -6   6   4    7.25    0.53
  -6  -6   4    7.14    0.71
   6  -6  -4    8.12    0.67
  -6   6   3    0.67    0.28
  -6  -6   3    1.50    0.35
  -6  -6   3    0.91    0.42
  -6  -6   3    0.79    0.26
   6  -6  -3    0.97    0.33
  -6   6   2    0.65    0.42
  -6   6   2    0.40    0.26
  -6  -6   2    1.40    0.29
  -6  -6   2    0.03    0.36
  -6  -6   2    0.25    0.27
   6  -6  -2    0.54    0.31
  -6  -6   2    0.67    0.34
  -6   6   1    0.31    0.22
   6  -6  -1    0.50    0.30
  -6  -6   1    0.11    0.27
  -6  -6   1    0.72    0.33
  -6  -6   1   -0.07    0.30
  -6  -6   1   -0.20    0.26
  -6  -6   1   -0.29    0.37
  -6   6   0   20.95    0.78
  -6  -6   0   20.01    0.90
  -6  -6   0   18.95    0.88
  -6  -6   0   18.92    0.82
  -6  -6   0   20.85    0.77
   6  -6   0   19.53    0.74
  -6   6  -1   -0.35    0.22
  -6  -6  -1   -0.11    0.28
   6  -6   1    0.30    0.33
   6  -6   1   -0.05    0.23
  -6  -6  -1   -0.07    0.25
  -6  -6  -1   -0.33    0.29
  -6   6  -2    0.17    0.24
  -6  -6  -2   -0.30    0.25
   6  -6   2   -0.17    0.34
  -6  -6  -2    0.06    0.34
  -6   6  -3    4.47    0.50
   6  -6   3    4.03    0.51
  -6  -6  -3    3.43    0.48
  -6  -6  -3    3.99    0.46
   7   0 -13    0.05    0.40
   7   0 -13    0.39    0.37
  -7   0  13   -0.03    0.33
   7   0 -13   -0.20    0.43
   7   0 -12   16.59    0.74
   7   0 -12   17.00    0.85
  -7   0  12   15.10    0.86
   7   0 -12   16.35    0.80
  -7   0  12   18.02    0.80
  -7   0  11   -0.17    0.31
   7   0 -11    0.00    0.25
   7   0 -11   -0.11    0.22
  -7   0  11   -0.08    0.19
   7   0 -11   -0.01    0.22
  -7   0  11    0.20    0.30
   7   0 -10    0.13    0.20
   7   0 -10    0.04    0.17
  -7   0  10    0.43    0.22
  -7   0  10    0.06    0.15
  -7   0  10   -0.16    0.24
  -7   0  10    0.12    0.23
   7   0 -10    0.02    0.17
   7   0  -9   -0.01    0.17
  -7   0   9   -0.04    0.16
   7   0  -9    0.05    0.15
  -7   0   9    0.01    0.13
   7   0  -9    0.11    0.14
   7   0  -9   -0.37    0.15
  -7   0   9    0.00    0.16
  -7   0   9    0.20    0.20
   7   0  -8   11.57    0.48
  -7   0   8   10.87    0.47
  -7   0   8   12.07    0.49
  -7   0   8   11.57    0.51
   7   0  -8   10.69    0.46
   7   0  -8   11.29    0.45
  -7   0   8   11.58    0.48
   7   0  -8   11.23    0.50
  -7   0   7    1.77    0.21
  -7   0   7    1.86    0.22
  -7   0   7    2.32    0.24
   7   0  -7    2.79    0.23
   7   0  -6   46.97    1.19
   7   0  -6   48.27    1.15
  -7   0   6   46.72    1.16
  -7   0   6   46.16    1.17
   7   0  -6   46.86    1.16
  -7   0   6   45.06    1.18
   7   0  -6   47.21    1.16
  -7   0   6   45.84    1.16
   7   0  -5   -0.01    0.07
  -7   0   5    0.07    0.08
   7   0  -5    0.06    0.08
  -7   0   5    0.02    0.08
  -7   0   5   -0.03    0.07
   7   0  -5   -0.07    0.07
  -7   0   5    0.04    0.07
   7   0  -5    0.05    0.08
   7   0  -4   44.28    1.07
  -7   0   4   45.73    1.09
  -7   0   4   45.82    1.08
   7   0  -4   45.12    1.08
  -7   0   4   44.16    1.07
   7   0  -4   44.49    1.08
   7   0  -4   45.71    1.10
  -7   0   4   44.65    1.11
  -7   0   3   -0.12    0.05
   7   0  -3    0.04    0.06
   7   0  -3   -0.07    0.05
  -7   0   3   -0.02    0.05
  -7   0   3    0.05    0.06
  -7   0   3   -0.06    0.05
   7   0  -3   -0.04    0.05
  -7   0   3    0.05    0.07
   7   0  -3    0.00    0.06
   7   0  -2    6.93    0.25
  -7   0   2    6.79    0.26
  -7   0   2    6.30    0.26
   7   0  -2    6.98    0.27
  -7   0   2    6.86    0.22
  -7   0   2    6.68    0.27
   7   0  -2    6.61    0.22
  -7   0   2    6.27    0.24
  -7   0   1   -0.04    0.05
  -7   0   1    0.03    0.03
  -7   0   1   -0.05    0.04
   7   0  -1   -0.01    0.05
   7   0  -1   -0.03    0.03
  -7   0   1   -0.02    0.06
   7   0  -1   -0.05    0.05
  -7   0   1    0.04    0.06
  -7   0   0  177.31    3.74
  -7   0   0  174.83    3.71
  -7   0   0  176.77    3.73
   7   0   0  178.60    3.74
  -7   0   0  170.98    3.73
   7   0   0  177.31    3.72
  -7   0  -1   -0.03    0.05
   7   0   1   -0.01    0.06
   7   0   1    0.02    0.08
  -7   0  -1    0.03    0.05
  -7   0  -1   -0.02    0.05
  -7   0  -1    0.00    0.06
   7   0   1   -0.04    0.05
   7   0   2   11.64    0.39
  -7   0  -2   12.02    0.38
  -7   0  -2   11.56    0.37
   7   0   2   11.61    0.38
  -7   0  -2   11.08    0.37
   7   0   2   11.63    0.39
  -7   0  -2   11.54    0.40
   7   0   3    0.00    0.07
   7   0   3    0.04    0.06
   7   0   3    0.05    0.04
  -7   0  -3    0.04    0.06
  -7   0  -3    0.01    0.04
  -7   0  -3    0.08    0.07
  -7   0  -3    0.06    0.07
  -7   0  -4    8.48    0.35
   7   0   4    8.76    0.36
  -7   0  -4    7.93    0.36
   7   0   4    8.66    0.27
   7   0   4    8.48    0.36
  -7   0  -4    8.44    0.27
  -7   0  -4    8.51    0.34
  -7   0  -5    0.10    0.11
   7   0   5   -0.01    0.10
  -7   0  -5   -0.05    0.07
  -7   0  -5    0.05    0.11
  -7   0  -5    0.02    0.10
   7   0   5    0.02    0.13
   7   0   5    0.09    0.08
  -7   0  -6   19.41    0.63
   7   0   6   18.62    0.65
   7   0   6   19.94    0.67
  -7   0  -6   19.56    0.66
  -7   0  -6   19.90    0.64
  -7   0  -6   19.49    0.68
   7   0   6   20.29    0.57
  -7   0  -6   19.12    0.56
  -7   0  -7    0.06    0.14
  -7   0  -7    0.05    0.12
  -7   0  -7    0.20    0.15
   7   0   7    0.04    0.11
   7   0   7   -0.18    0.14
  -7   0  -7    0.12    0.16
  -7   0  -7    0.01    0.13
   7   0   7   -0.01    0.14
  -7   0  -8   17.42    0.71
   7   0   8   16.65    0.68
  -7   0  -8   16.26    0.59
   7   0   8   17.30    0.59
  -7   0  -8   17.41    0.66
  -7   0  -8   16.35    0.63
  -7   0  -8   16.81    0.67
  -7   0  -9    0.25    0.22
  -7   0  -9    0.19    0.24
   7   0   9   -0.35    0.25
  -7   0  -9    0.33    0.26
   7   0   9    0.41    0.20
  -7   0  -9   -0.20    0.24
  -7   0 -10    5.12    0.56
  -7   0 -10    4.83    0.68
   7   0  10    4.67    0.48
  -7   0 -10    4.38    0.51
  -7   0 -10    3.91    0.42
  -7   0 -10    4.72    0.57
  -7   0 -11    0.01    0.37
   7   0  11    0.03    0.34
  -7   0 -11   -0.11    0.37
   7   1 -13    1.03    0.42
   7   1 -13    1.29    0.44
   7   1 -13    0.81    0.47
   7  -1 -13    1.36    0.37
   7  -1 -13    1.00    0.48
   7  -1 -13    1.21    0.40
   7   1 -12    1.64    0.38
   7   1 -12    1.02    0.29
  -7   1  12    1.65    0.33
   7   1 -12    1.60    0.35
   7  -1 -12    1.31    0.35
   7  -1 -12    1.72    0.37
  -7  -1  12    1.75    0.32
   7  -1 -12    1.33    0.36
  -7  -1  12    1.72    0.37
   7   1 -11    3.08    0.39
  -7   1  11    3.66    0.41
  -7   1  11    3.00    0.41
   7   1 -11    3.65    0.50
   7   1 -11    2.95    0.43
   7  -1 -11    3.43    0.49
  -7  -1  11    2.93    0.42
  -7  -1  11    3.17    0.47
   7  -1 -11    3.89    0.45
  -7  -1  11    3.02    0.36
   7  -1 -11    4.83    0.48
  -7   1  10   32.80    1.05
  -7   1  10   33.47    1.10
   7   1 -10   33.30    1.10
  -7   1  10   32.85    1.06
  -7   1  10   33.21    1.06
   7   1 -10   34.39    1.03
   7   1 -10   34.66    0.94
   7  -1 -10   35.04    1.06
   7  -1 -10   34.82    1.03
  -7  -1  10   32.91    0.98
  -7  -1  10   33.63    1.05
   7  -1 -10   34.76    1.07
  -7  -1  10   33.58    1.05
   7   1  -9   31.21    0.99
  -7   1   9   29.82    0.94
  -7   1   9   30.85    0.96
  -7   1   9   29.60    0.95
  -7   1   9   30.03    0.94
   7   1  -9   28.92    0.93
   7   1  -9   31.13    0.92
   7   1  -9   29.88    0.84
  -7  -1   9   29.59    0.98
   7  -1  -9   30.54    0.93
  -7  -1   9   29.94    0.92
   7  -1  -9   30.13    0.94
  -7  -1   9   32.02    0.95
  -7  -1   9   31.39    0.89
   7  -1  -9   28.62    0.90
   7  -1  -9   29.31    0.91
  -7   1   8    6.98    0.40
   7   1  -8    6.66    0.40
  -7   1   8    6.81    0.38
   7   1  -8    6.59    0.35
  -7   1   8    6.58    0.38
   7   1  -8    6.02    0.37
   7   1  -8    6.60    0.33
  -7   1   8    7.05    0.42
  -7  -1   8    6.55    0.34
   7  -1  -8    6.38    0.38
   7  -1  -8    5.97    0.35
  -7  -1   8    6.45    0.39
  -7  -1   8    6.10    0.36
  -7  -1   8    6.25    0.36
   7  -1  -8    6.33    0.37
   7  -1  -8    6.56    0.37
   7   1  -7    1.39    0.21
   7   1  -7    1.45    0.21
   7   1  -7    1.40    0.17
  -7   1   7    1.48    0.20
  -7   1   7    1.80    0.24
   7   1  -7    1.70    0.21
  -7   1   7    1.94    0.22
  -7   1   7    1.67    0.21
  -7  -1   7    1.54    0.21
  -7  -1   7    1.14    0.17
   7  -1  -7    1.46    0.21
   7  -1  -7    1.82    0.21
  -7  -1   7    1.41    0.21
   7  -1  -7    1.64    0.21
  -7  -1   7    1.50    0.20
   7  -1  -7    1.45    0.21
   7   1  -6    6.68    0.33
  -7   1   6    7.00    0.33
   7   1  -6    7.34    0.36
  -7   1   6    7.52    0.35
   7   1  -6    7.15    0.31
  -7   1   6    7.25    0.34
   7   1  -6    7.63    0.31
  -7   1   6    6.89    0.33
   7  -1  -6    6.93    0.33
   7  -1  -6    7.20    0.33
  -7  -1   6    7.40    0.31
  -7  -1   6    7.12    0.33
  -7  -1   6    6.95    0.35
   7  -1  -6    6.98    0.33
   7  -1  -6    7.16    0.33
  -7  -1   6    7.13    0.31
  -7   1   5    0.84    0.13
   7   1  -5    0.94    0.13
  -7   1   5    0.77    0.12
  -7   1   5    0.85    0.13
   7   1  -5    1.07    0.15
  -7   1   5    0.94    0.14
   7   1  -5    0.84    0.12
   7   1  -5    0.64    0.11
  -7  -1   5    0.93    0.12
  -7  -1   5    1.07    0.16
   7  -1  -5    0.70    0.13
   7  -1  -5    0.88    0.13
  -7  -1   5    1.00    0.14
   7  -1  -5    0.79    0.13
  -7  -1   5    1.13    0.16
   7  -1  -5    0.95    0.14
   7   1  -4   35.11    0.89
  -7   1   4   34.40    0.90
   7   1  -4   36.06    0.87
  -7   1   4   36.26    0.93
  -7   1   4   34.37    0.88
  -7   1   4   36.09    0.92
  -7   1   4   35.15    0.91
   7   1  -4   36.39    0.94
   7   1  -4   35.73    0.86
   7  -1  -4   36.26    0.91
   7  -1  -4   35.37    0.88
   7  -1  -4   35.34    0.90
  -7  -1   4   36.09    0.94
  -7  -1   4   36.06    0.86
   7  -1  -4   34.78    0.88
  -7  -1   4   36.91    0.88
  -7  -1   4   35.79    0.89
  -7   1   3   42.88    1.04
   7   1  -3   42.12    1.01
  -7   1   3   42.50    1.07
   7   1  -3   43.81    0.99
   7   1  -3   42.92    1.07
  -7   1   3   41.97    1.02
   7   1  -3   43.01    1.02
  -7   1   3   43.53    1.05
  -7   1   3   43.50    1.05
  -7  -1   3   44.01    1.00
  -7  -1   3   43.18    1.02
  -7  -1   3   43.03    1.01
   7  -1  -3   42.05    1.01
   7  -1  -3   43.42    1.04
   7  -1  -3   43.25    1.04
  -7  -1   3   44.34    1.08
   7   1  -2    0.02    0.05
   7   1  -2    0.05    0.05
  -7   1   2    0.09    0.06
  -7   1   2   -0.03    0.05
  -7   1   2    0.00    0.05
   7   1  -2    0.07    0.06
  -7   1   2    0.01    0.07
  -7   1   2    0.09    0.07
   7  -1  -2   -0.04    0.06
  -7  -1   2    0.05    0.06
  -7  -1   2   -0.02    0.04
  -7  -1   2    0.05    0.05
   7  -1  -2   -0.02    0.05
  -7  -1   2    0.02    0.05
   7  -1  -2    0.01    0.05
  -7  -1   2   -0.01    0.06
   7  -1  -2   -0.05    0.07
   7   1  -1   11.09    0.31
  -7   1   1   10.92    0.32
  -7   1   1   10.94    0.36
  -7   1   1   10.46    0.35
  -7   1   1   11.15    0.34
   7   1  -1   10.79    0.36
  -7   1   1   10.74    0.38
  -7  -1   1   10.98    0.37
   7  -1  -1   10.40    0.37
   7  -1  -1   10.95    0.35
  -7  -1   1   10.54    0.35
   7  -1  -1   10.72    0.36
  -7  -1   1   10.85    0.32
  -7  -1   1   10.75    0.30
   7  -1  -1   10.64    0.31
  -7  -1   1   10.99    0.30
   7   1   0   43.43    1.05
  -7   1   0   43.87    1.02
  -7   1   0   42.51    1.03
  -7   1   0   42.12    0.96
  -7   1   0   43.67    1.02
   7   1   0   43.46    0.98
  -7  -1   0   41.87    0.93
  -7  -1   0   42.63    0.95
  -7  -1   0   43.46    1.05
   7  -1   0   43.67    1.02
  -7  -1   0   43.26    0.96
   7  -1   0   42.58    1.04
  -7  -1   0   44.00    1.03
   7  -1   0   41.11    1.05
   7  -1   0   42.05    0.96
  -7  -1   0   43.68    0.98
  -7   1  -1   58.18    1.32
  -7   1  -1   57.73    1.34
   7   1   1   57.03    1.29
  -7   1  -1   57.82    1.34
   7   1   1   56.12    1.36
  -7  -1  -1   57.32    1.23
  -7  -1  -1   59.66    1.23
   7  -1   1   58.46    1.37
  -7  -1  -1   58.25    1.35
  -7  -1  -1   57.84    1.29
   7  -1   1   57.87    1.33
  -7  -1  -1   58.17    1.37
   7  -1   1   56.78    1.26
   7  -1   1   57.30    1.33
   7  -1   1   58.80    1.25
  -7  -1  -1   57.01    1.28
  -7   1  -2    0.99    0.14
   7   1   2    0.77    0.11
   7   1   2    0.87    0.11
  -7   1  -2    0.85    0.12
  -7   1  -2    0.88    0.11
  -7   1  -2    0.65    0.10
   7  -1   2    0.79    0.12
  -7  -1  -2    0.88    0.12
  -7  -1  -2    0.66    0.11
  -7  -1  -2    0.67    0.07
   7  -1   2    0.51    0.10
   7  -1   2    0.73    0.12
   7  -1   2    0.76    0.09
  -7  -1  -2    0.92    0.11
   7  -1   2    0.68    0.09
  -7   1  -3   -0.06    0.06
   7   1   3    0.12    0.07
  -7   1  -3   -0.18    0.08
   7   1   3    0.03    0.05
  -7   1  -3   -0.04    0.07
   7   1   3    0.00    0.05
  -7   1  -3    0.00    0.07
  -7  -1  -3   -0.02    0.07
   7  -1   3   -0.08    0.06
   7  -1   3   -0.03    0.06
   7  -1   3    0.02    0.06
  -7  -1  -3    0.03    0.07
  -7  -1  -3   -0.02    0.05
  -7  -1  -3   -0.04    0.05
   7  -1   3    0.11    0.09
   7   1   4    0.59    0.11
   7   1   4    0.60    0.09
  -7   1  -4    0.51    0.11
   7   1   4    0.42    0.11
  -7   1  -4    0.59    0.12
  -7   1  -4    0.46    0.11
   7  -1   4    0.63    0.12
  -7  -1  -4    0.66    0.09
   7  -1   4    0.62    0.11
  -7  -1  -4    0.45    0.10
  -7  -1  -4    0.62    0.13
  -7  -1  -4    0.48    0.13
   7  -1   4    0.46    0.11
  -7   1  -5   50.47    1.30
  -7   1  -5   50.18    1.28
  -7   1  -5   48.03    1.16
   7   1   5   48.78    1.27
  -7   1  -5   48.78    1.19
   7   1   5   48.75    1.16
  -7  -1  -5   47.39    1.21
   7  -1   5   50.19    1.28
  -7  -1  -5   50.46    1.30
  -7  -1  -5   49.50    1.14
  -7  -1  -5   49.66    1.27
   7  -1   5   48.57    1.15
  -7  -1  -5   50.78    1.26
   7  -1   5   49.32    1.27
  -7   1  -6   86.37    1.99
  -7   1  -6   87.98    2.01
  -7   1  -6   88.58    2.10
  -7   1  -6   86.83    1.98
   7   1   6   87.99    1.99
   7   1   6   88.38    2.10
  -7   1  -6   89.47    2.13
   7  -1   6   86.34    2.10
  -7  -1  -6   87.39    2.04
  -7  -1  -6   87.48    1.96
  -7  -1  -6   90.03    2.10
  -7  -1  -6   88.19    2.12
  -7  -1  -6   86.35    2.07
   7  -1   6   86.39    2.11
   7  -1   6   86.95    1.97
  -7   1  -7    0.18    0.15
  -7   1  -7    0.16    0.15
   7   1   7    0.13    0.13
   7   1   7    0.08    0.17
   7   1   7   -0.04    0.14
  -7   1  -7   -0.15    0.14
  -7   1  -7   -0.08    0.15
  -7   1  -7    0.31    0.19
  -7  -1  -7   -0.15    0.15
   7  -1   7    0.29    0.20
   7  -1   7    0.20    0.12
  -7  -1  -7    0.01    0.15
   7  -1   7    0.03    0.13
  -7  -1  -7    0.07    0.13
  -7  -1  -7   -0.09    0.17
  -7  -1  -7   -0.04    0.12
   7   1   8    1.47    0.23
   7   1   8    1.00    0.21
  -7   1  -8    1.57    0.27
  -7   1  -8    0.97    0.19
  -7   1  -8    1.17    0.22
  -7   1  -8    1.11    0.23
  -7   1  -8    1.21    0.23
   7  -1   8    0.87    0.28
  -7  -1  -8    1.17    0.25
  -7  -1  -8    0.81    0.21
  -7  -1  -8    0.75    0.21
   7  -1   8    1.28    0.21
  -7  -1  -8    1.09    0.23
  -7  -1  -8    0.96    0.25
  -7   1  -9   -0.02    0.28
   7   1   9   -0.13    0.24
  -7   1  -9    0.13    0.21
   7   1   9   -0.37    0.20
  -7   1  -9    0.15    0.24
  -7   1  -9    0.13    0.24
  -7   1  -9    0.16    0.26
   7  -1   9   -0.37    0.27
   7  -1   9    0.15    0.21
  -7  -1  -9    0.18    0.24
  -7  -1  -9    0.30    0.25
  -7  -1  -9    0.07    0.25
  -7  -1  -9    0.07    0.23
  -7   1 -10    0.20    0.29
   7   1  10   -0.06    0.27
  -7   1 -10   -0.21    0.32
  -7   1 -10   -0.02    0.31
  -7   1 -10    0.33    0.25
   7  -1  10    0.08    0.26
  -7  -1 -10    0.33    0.30
  -7  -1 -10   -0.12    0.30
  -7  -1 -10    0.54    0.32
  -7   1 -11    1.27    0.56
   7   1  11    1.61    0.37
   7  -1  11    1.22    0.39
  -7  -1 -11    0.73    0.39
  -7  -1 -11    0.80    0.38
  -7   2  12   -0.12    0.32
   7   2 -12    0.48    0.37
   7   2 -12    0.44    0.35
   7  -2 -12    0.65    0.37
  -7  -2  12    0.92    0.29
   7  -2 -12    0.06    0.29
   7  -2 -12    0.40    0.38
  -7   2  11    5.58    0.53
  -7   2  11    4.83    0.60
   7   2 -11    5.99    0.39
   7   2 -11    5.32    0.55
   7   2 -11    5.55    0.48
  -7  -2  11    4.86    0.50
   7  -2 -11    5.88    0.54
  -7  -2  11    5.13    0.46
   7  -2 -11    5.37    0.57
   7  -2 -11    4.36    0.55
  -7   2  10    0.05    0.26
   7   2 -10   -0.05    0.21
   7   2 -10    0.32    0.22
   7   2 -10    0.33    0.18
  -7   2  10    0.11    0.20
  -7   2  10    0.04    0.24
  -7  -2  10   -0.01    0.20
   7  -2 -10    0.28    0.20
  -7  -2  10    0.65    0.23
   7  -2 -10    0.50    0.23
   7  -2 -10    0.11    0.23
  -7   2   9    0.47    0.21
  -7   2   9    0.78    0.24
  -7   2   9    0.39    0.17
   7   2  -9    0.69    0.22
   7   2  -9    0.67    0.20
  -7   2   9    0.75    0.25
   7   2  -9    0.41    0.18
   7   2  -9    0.44    0.15
  -7  -2   9    0.51    0.21
  -7  -2   9    0.62    0.19
   7  -2  -9    0.48    0.22
   7  -2  -9    0.42    0.19
  -7  -2   9    0.85    0.18
   7  -2  -9    0.63    0.18
  -7  -2   9    0.55    0.21
   7  -2  -9    0.82    0.26
  -7   2   8   22.29    0.79
   7   2  -8   21.61    0.75
  -7   2   8   21.42    0.74
   7   2  -8   18.50    0.66
   7   2  -8   22.71    0.79
  -7   2   8   22.26    0.69
   7   2  -8   22.38    0.62
   7  -2  -8   22.40    0.75
  -7  -2   8   21.76    0.75
  -7  -2   8   22.91    0.72
  -7  -2   8   21.30    0.78
   7  -2  -8   21.49    0.69
   7  -2  -8   21.66    0.72
  -7  -2   8   22.25    0.64
   7  -2  -8   21.84    0.75
   7   2  -7    0.25    0.12
  -7   2   7    0.17    0.14
  -7   2   7    0.14    0.13
  -7   2   7   -0.02    0.11
   7   2  -7    0.41    0.12
   7   2  -7    0.37    0.17
  -7   2   7   -0.07    0.13
   7   2  -7    0.00    0.14
   7  -2  -7    0.03    0.11
   7  -2  -7    0.28    0.12
   7  -2  -7    0.17    0.13
   7  -2  -7    0.15    0.13
  -7  -2   7    0.29    0.14
  -7  -2   7    0.20    0.12
  -7  -2   7   -0.10    0.14
  -7  -2   7    0.39    0.12
  -7   2   6    6.60    0.30
  -7   2   6    6.54    0.36
   7   2  -6    6.59    0.28
   7   2  -6    6.58    0.35
  -7   2   6    6.71    0.36
   7   2  -6    6.45    0.29
  -7   2   6    6.45    0.35
   7   2  -6    6.18    0.36
  -7  -2   6    5.85    0.34
  -7  -2   6    6.31    0.34
   7  -2  -6    6.10    0.34
  -7  -2   6    6.46    0.28
   7  -2  -6    6.26    0.29
   7  -2  -6    6.77    0.33
   7  -2  -6    6.28    0.34
  -7  -2   6    6.85    0.29
   7   2  -5    0.56    0.13
  -7   2   5    0.64    0.14
   7   2  -5    0.78    0.11
   7   2  -5    0.56    0.11
  -7   2   5    0.57    0.14
   7   2  -5    0.71    0.14
  -7   2   5    0.67    0.14
  -7   2   5    0.50    0.12
  -7   2   5    0.65    0.11
  -7  -2   5    0.62    0.09
   7  -2  -5    0.65    0.11
  -7  -2   5    0.69    0.14
  -7  -2   5    0.75    0.12
  -7  -2   5    0.88    0.14
   7  -2  -5    0.54    0.12
   7  -2  -5    0.57    0.12
   7  -2  -5    0.64    0.13
   7   2  -4    0.99    0.15
  -7   2   4    0.80    0.15
   7   2  -4    1.15    0.18
  -7   2   4    0.97    0.13
   7   2  -4    1.15    0.15
  -7   2   4    1.32    0.19
   7   2  -4    1.22    0.12
  -7   2   4    1.16    0.15
  -7   2   4    0.97    0.13
  -7  -2   4    1.32    0.11
  -7  -2   4    1.26    0.17
   7  -2  -4    1.16    0.16
  -7  -2   4    1.19    0.15
   7  -2  -4    1.30    0.17
  -7  -2   4    1.38    0.17
   7  -2  -4    1.22    0.15
  -7   2   3    4.65    0.25
   7   2  -3    4.45    0.25
  -7   2   3    4.89    0.27
  -7   2   3    4.16    0.26
   7   2  -3    4.51    0.23
   7   2  -3    4.83    0.18
  -7   2   3    4.40    0.26
  -7   2   3    4.62    0.19
  -7   2   3    4.77    0.19
   7   2  -3    4.92    0.25
  -7  -2   3    4.52    0.22
  -7  -2   3    4.86    0.24
   7  -2  -3    5.01    0.26
  -7  -2   3    4.63    0.17
  -7  -2   3    4.94    0.26
   7  -2  -3    4.67    0.26
   7  -2  -3    4.41    0.24
  -7   2   2    0.70    0.10
   7   2  -2    0.76    0.07
  -7   2   2    0.56    0.08
  -7   2   2    0.68    0.11
  -7   2   2    0.91    0.16
  -7   2   2    0.71    0.12
  -7   2   2    0.59    0.13
   7   2  -2    0.67    0.11
  -7  -2   2    0.75    0.09
  -7  -2   2    0.72    0.07
   7  -2  -2    0.68    0.12
   7  -2  -2    0.75    0.12
   7  -2  -2    0.66    0.11
  -7  -2   2    0.69    0.10
  -7  -2   2    0.45    0.09
   7  -2  -2    0.58    0.12
  -7  -2   2    0.72    0.11
  -7   2   1    0.01    0.08
  -7   2   1    0.09    0.08
  -7   2   1   -0.04    0.05
  -7   2   1    0.11    0.08
   7   2  -1    0.00    0.07
  -7   2   1    0.00    0.08
  -7  -2   1    0.07    0.07
  -7  -2   1    0.04    0.05
   7  -2  -1    0.08    0.08
   7  -2  -1    0.07    0.07
  -7  -2   1    0.11    0.07
   7  -2  -1   -0.06    0.09
   7  -2  -1    0.17    0.09
  -7   2   0    0.27    0.08
  -7   2   0    0.22    0.09
  -7   2   0    0.35    0.10
  -7   2   0    0.42    0.08
  -7  -2   0    0.36    0.09
  -7  -2   0    0.39    0.10
   7  -2   0    0.29    0.07
   7  -2   0    0.28    0.09
  -7  -2   0    0.39    0.10
  -7  -2   0    0.34    0.09
   7  -2   0    0.26    0.09
   7  -2   0    0.34    0.09
  -7  -2   0    0.22    0.08
   7  -2   0    0.27    0.10
  -7   2  -1    3.54    0.20
  -7   2  -1    3.55    0.24
  -7   2  -1    3.54    0.20
  -7   2  -1    3.42    0.23
   7   2   1    3.51    0.14
   7  -2   1    3.52    0.19
   7  -2   1    3.18    0.23
  -7  -2  -1    3.32    0.13
  -7  -2  -1    3.66    0.19
   7  -2   1    3.33    0.19
  -7  -2  -1    3.72    0.21
   7  -2   1    3.29    0.20
  -7  -2  -1    3.09    0.13
  -7  -2  -1    3.75    0.22
  -7   2  -2    2.08    0.21
  -7   2  -2    2.04    0.21
  -7   2  -2    2.20    0.17
  -7   2  -2    2.08    0.18
   7   2   2    2.43    0.13
   7  -2   2    2.19    0.18
  -7  -2  -2    1.84    0.18
   7  -2   2    2.24    0.17
  -7  -2  -2    2.09    0.16
   7  -2   2    1.96    0.16
  -7  -2  -2    1.77    0.19
   7  -2   2    2.10    0.17
   7  -2   2    2.11    0.20
  -7  -2  -2    2.13    0.13
  -7   2  -3    2.55    0.19
  -7   2  -3    2.30    0.23
   7   2   3    2.77    0.19
  -7   2  -3    2.85    0.22
  -7   2  -3    2.60    0.22
   7   2   3    2.65    0.16
   7   2   3    2.75    0.22
  -7  -2  -3    2.23    0.17
   7  -2   3    2.26    0.23
   7  -2   3    2.64    0.19
   7  -2   3    2.77    0.20
   7  -2   3    2.61    0.21
  -7  -2  -3    2.31    0.21
  -7  -2  -3    3.00    0.24
  -7  -2  -3    2.28    0.21
   7  -2   3    2.04    0.17
  -7  -2  -3    2.65    0.16
  -7   2  -4   43.84    1.06
  -7   2  -4   45.22    1.19
   7   2   4   45.89    1.11
   7   2   4   44.99    1.09
   7   2   4   46.20    1.18
  -7   2  -4   45.62    1.18
  -7   2  -4   42.93    1.17
  -7  -2  -4   43.94    1.17
   7  -2   4   45.47    1.20
  -7  -2  -4   44.86    1.19
   7  -2   4   45.19    1.16
   7  -2   4   46.19    1.09
  -7  -2  -4   45.45    1.18
   7  -2   4   45.34    1.10
  -7  -2  -4   45.11    1.08
  -7  -2  -4   43.87    1.07
  -7   2  -5    0.50    0.17
  -7   2  -5    0.49    0.12
   7   2   5    0.67    0.17
  -7   2  -5    0.50    0.15
   7   2   5    0.23    0.12
   7   2   5    0.40    0.12
  -7  -2  -5    0.37    0.14
  -7  -2  -5    0.45    0.12
   7  -2   5    0.28    0.12
  -7  -2  -5    0.25    0.15
  -7  -2  -5    0.31    0.14
   7  -2   5    0.43    0.13
   7  -2   5    0.35    0.14
  -7  -2  -5    0.51    0.12
  -7   2  -6   -0.13    0.15
   7   2   6    0.17    0.14
  -7   2  -6   -0.11    0.11
   7   2   6    0.10    0.18
   7   2   6    0.06    0.11
  -7   2  -6    0.08    0.13
  -7   2  -6    0.05    0.16
  -7  -2  -6    0.02    0.15
  -7  -2  -6    0.01    0.12
  -7  -2  -6   -0.06    0.13
   7  -2   6    0.06    0.16
  -7  -2  -6    0.16    0.16
   7  -2   6    0.08    0.14
   7  -2   6    0.33    0.20
  -7  -2  -6    0.06    0.14
  -7   2  -7    5.37    0.32
   7   2   7    5.74    0.38
  -7   2  -7    5.64    0.32
   7   2   7    5.42    0.36
   7   2   7    5.13    0.43
  -7   2  -7    5.72    0.43
  -7   2  -7    5.78    0.44
   7  -2   7    5.46    0.43
  -7  -2  -7    5.04    0.42
   7  -2   7    5.66    0.47
  -7  -2  -7    5.30    0.42
  -7  -2  -7    5.88    0.44
  -7  -2  -7    5.91    0.37
  -7  -2  -7    6.06    0.35
   7  -2   7    5.93    0.37
   7   2   8    9.71    0.51
  -7   2  -8    9.44    0.43
  -7   2  -8    9.99    0.58
   7   2   8   10.04    0.50
  -7   2  -8    9.13    0.59
  -7   2  -8    9.81    0.43
   7  -2   8   10.04    0.59
   7  -2   8    9.39    0.48
  -7  -2  -8    9.03    0.52
  -7  -2  -8    9.97    0.57
  -7  -2  -8    9.72    0.57
  -7  -2  -8    9.45    0.50
  -7   2  -9    5.51    0.59
   7   2   9    4.16    0.46
  -7   2  -9    5.17    0.56
  -7   2  -9    5.84    0.41
  -7   2  -9    5.43    0.53
   7  -2   9    5.64    0.58
  -7  -2  -9    5.96    0.53
   7  -2   9    5.70    0.45
  -7  -2  -9    5.08    0.60
  -7  -2  -9    3.88    0.48
  -7   2 -10    5.47    0.68
  -7   2 -10    7.30    0.66
   7   2  10    5.61    0.58
  -7  -2 -10    6.73    0.69
  -7  -2 -10    6.40    0.68
   7  -2  10    6.37    0.55
  -7   3  11    1.31    0.36
   7   3 -11    2.01    0.37
   7   3 -11    1.27    0.33
   7  -3 -11    1.32    0.33
  -7  -3  11    1.97    0.36
   7  -3 -11    0.94    0.35
   7   3 -10    1.81    0.28
  -7   3  10    1.98    0.37
   7   3 -10    2.03    0.38
  -7   3  10    1.62    0.34
   7  -3 -10    1.70    0.30
   7  -3 -10    1.92    0.34
  -7  -3  10    2.35    0.38
   7  -3 -10    1.49    0.35
   7   3  -9   25.81    0.66
  -7   3   9   25.54    0.95
   7   3  -9   27.26    0.83
  -7   3   9   27.54    0.82
  -7   3   9   24.41    0.90
   7   3  -9   24.88    0.95
   7  -3  -9   26.82    0.91
  -7  -3   9   24.80    0.68
   7  -3  -9   25.17    0.90
  -7  -3   9   25.59    0.91
   7  -3  -9   25.16    0.79
   7   3  -8    4.70    0.44
  -7   3   8    4.72    0.35
  -7   3   8    5.19    0.43
   7   3  -8    5.67    0.34
  -7   3   8    6.15    0.47
   7   3  -8    4.80    0.49
   7   3  -8    4.95    0.26
  -7   3   8    4.50    0.45
  -7  -3   8    4.75    0.53
  -7  -3   8    5.44    0.42
   7  -3  -8    5.73    0.45
   7  -3  -8    5.26    0.41
  -7  -3   8    4.96    0.27
   7  -3  -8    5.25    0.32
  -7   3   7    9.95    0.50
  -7   3   7   11.07    0.55
  -7   3   7    8.15    0.47
   7   3  -7    9.47    0.39
   7   3  -7    9.74    0.34
  -7   3   7    9.75    0.38
   7   3  -7   10.02    0.52
  -7   3   7   11.06    0.53
   7   3  -7    9.73    0.51
   7  -3  -7    9.69    0.49
  -7  -3   7    9.66    0.53
   7  -3  -7    9.63    0.48
  -7  -3   7   10.06    0.51
   7  -3  -7    9.86    0.49
   7  -3  -7    9.89    0.37
  -7  -3   7    9.32    0.38
  -7  -3   7    9.81    0.36
   7   3  -6    0.28    0.18
  -7   3   6    0.46    0.18
   7   3  -6    0.61    0.19
  -7   3   6    0.36    0.12
   7   3  -6    0.55    0.11
   7   3  -6    0.40    0.11
  -7   3   6    0.44    0.17
  -7   3   6    0.24    0.18
  -7   3   6    0.35    0.17
  -7  -3   6    0.07    0.16
   7  -3  -6    0.41    0.14
  -7  -3   6    0.52    0.17
  -7  -3   6    0.60    0.11
   7  -3  -6    0.31    0.17
   7  -3  -6    0.31    0.17
  -7  -3   6    0.60    0.13
   7   3  -5    1.16    0.19
   7   3  -5    1.39    0.15
  -7   3   5    0.97    0.18
  -7   3   5    1.34    0.20
   7   3  -5    1.20    0.15
  -7   3   5    1.46    0.23
  -7   3   5    1.33    0.20
   7  -3  -5    1.28    0.22
   7  -3  -5    1.46    0.21
  -7  -3   5    1.31    0.23
  -7  -3   5    1.75    0.14
  -7  -3   5    1.51    0.18
  -7  -3   5    1.45    0.21
   7  -3  -5    1.40    0.21
  -7   3   4    2.55    0.27
  -7   3   4    2.79    0.26
  -7   3   4    2.44    0.26
   7   3  -4    2.80    0.26
  -7   3   4    3.03    0.28
   7   3  -4    2.62    0.15
  -7  -3   4    2.68    0.27
  -7  -3   4    2.92    0.27
  -7  -3   4    2.95    0.21
   7  -3  -4    2.69    0.25
  -7  -3   4    2.62    0.14
   7  -3  -4    3.04    0.26
   7  -3  -4    2.80    0.26
  -7   3   3    0.13    0.13
  -7   3   3    0.14    0.11
  -7   3   3   -0.02    0.10
  -7   3   3    0.05    0.13
  -7  -3   3    0.12    0.11
   7  -3  -3    0.10    0.11
  -7  -3   3    0.10    0.11
   7  -3  -3   -0.11    0.11
   7  -3  -3    0.31    0.12
  -7  -3   3    0.11    0.09
  -7   3   2    0.66    0.15
  -7   3   2    0.85    0.16
  -7   3   2    0.92    0.17
  -7   3   2    0.65    0.15
   7  -3  -2    0.82    0.17
   7  -3  -2    0.78    0.16
  -7  -3   2    0.77    0.14
  -7  -3   2    0.93    0.17
   7  -3  -2    0.91    0.15
   7  -3  -2    0.73    0.14
  -7  -3   2    1.00    0.14
  -7   3   1    3.75    0.26
  -7   3   1    3.62    0.26
  -7   3   1    3.97    0.28
  -7   3   1    4.27    0.27
   7  -3  -1    3.54    0.27
  -7  -3   1    4.08    0.24
  -7  -3   1    4.12    0.27
   7  -3  -1    3.89    0.27
  -7  -3   1    3.33    0.26
   7  -3  -1    3.62    0.27
  -7  -3   1    4.07    0.25
   7  -3  -1    3.85    0.24
  -7   3   0    5.86    0.32
  -7   3   0    5.76    0.23
  -7   3   0    5.89    0.30
  -7   3   0    5.39    0.31
   7  -3   0    5.28    0.33
  -7  -3   0    5.62    0.28
   7  -3   0    5.86    0.28
   7  -3   0    5.12    0.31
  -7  -3   0    5.19    0.29
  -7  -3   0    5.82    0.31
  -7  -3   0    5.88    0.30
  -7  -3   0    5.36    0.30
   7  -3   0    5.72    0.32
  -7   3  -1    0.35    0.14
  -7   3  -1    0.49    0.12
  -7   3  -1    0.28    0.11
  -7   3  -1    0.36    0.10
   7  -3   1    0.31    0.09
  -7  -3  -1    0.44    0.11
   7  -3   1    0.51    0.12
  -7  -3  -1    0.58    0.14
   7  -3   1    0.48    0.13
  -7  -3  -1    0.55    0.13
  -7  -3  -1    0.35    0.13
   7  -3   1    0.40    0.11
  -7  -3  -1    0.60    0.13
  -7   3  -2    2.57    0.22
  -7   3  -2    2.91    0.21
  -7   3  -2    2.46    0.25
  -7   3  -2    2.57    0.25
  -7  -3  -2    2.52    0.25
  -7  -3  -2    2.27    0.22
   7  -3   2    1.90    0.24
   7  -3   2    2.70    0.24
   7  -3   2    2.26    0.25
  -7  -3  -2    2.57    0.25
  -7  -3  -2    2.56    0.23
   7  -3   2    2.27    0.19
   7  -3   2    2.44    0.21
  -7   3  -3    0.57    0.15
  -7   3  -3    0.79    0.19
   7   3   3    0.72    0.09
  -7   3  -3    0.64    0.14
  -7   3  -3    0.61    0.17
   7  -3   3    0.71    0.16
   7  -3   3    0.57    0.14
  -7  -3  -3    0.49    0.14
   7  -3   3    0.77    0.12
   7  -3   3    0.75    0.18
  -7  -3  -3    0.82    0.10
  -7  -3  -3    0.71    0.16
  -7  -3  -3    0.93    0.17
   7  -3   3    0.54    0.17
  -7  -3  -3    0.74    0.17
  -7   3  -4   10.51    0.48
  -7   3  -4   10.68    0.47
   7   3   4    9.99    0.44
  -7   3  -4   10.75    0.50
  -7   3  -4   10.18    0.36
   7   3   4   10.93    0.36
  -7  -3  -4   10.50    0.47
   7  -3   4   10.17    0.47
  -7  -3  -4   10.13    0.42
   7  -3   4   10.53    0.36
  -7  -3  -4   10.09    0.49
   7  -3   4   11.21    0.50
  -7  -3  -4   10.42    0.46
   7  -3   4   10.65    0.45
   7  -3   4   11.06    0.46
  -7  -3  -4   11.27    0.36
  -7   3  -5    3.25    0.31
  -7   3  -5    2.47    0.31
  -7   3  -5    2.89    0.36
  -7   3  -5    3.27    0.23
   7   3   5    3.34    0.25
   7   3   5    3.25    0.30
   7   3   5    3.73    0.36
  -7  -3  -5    3.33    0.25
   7  -3   5    3.43    0.33
  -7  -3  -5    3.49    0.32
  -7  -3  -5    3.52    0.30
   7  -3   5    2.64    0.29
   7  -3   5    2.80    0.32
  -7  -3  -5    3.69    0.32
   7  -3   5    3.69    0.35
  -7  -3  -5    4.17    0.34
   7   3   6   -0.39    0.19
  -7   3  -6    0.08    0.12
  -7   3  -6    0.08    0.19
  -7   3  -6    0.22    0.20
  -7   3  -6   -0.11    0.18
   7   3   6    0.19    0.17
  -7   3  -6    0.00    0.12
   7   3   6    0.06    0.13
   7  -3   6    0.08    0.22
   7  -3   6    0.24    0.21
  -7  -3  -6    0.19    0.16
  -7  -3  -6    0.22    0.15
  -7  -3  -6    0.07    0.17
   7  -3   6    0.05    0.17
  -7  -3  -6    0.11    0.17
  -7   3  -7   28.25    0.95
  -7   3  -7   24.90    0.65
  -7   3  -7   26.54    0.95
  -7   3  -7   26.57    0.67
   7   3   7   26.09    0.87
   7   3   7   25.48    0.94
   7   3   7   26.47    0.81
  -7   3  -7   24.92    0.92
   7  -3   7   26.73    0.93
   7  -3   7   26.09    0.96
  -7  -3  -7   27.30    0.92
   7  -3   7   21.58    0.83
  -7  -3  -7   27.58    0.95
  -7  -3  -7   27.49    0.81
  -7  -3  -7   25.26    0.82
   7   3   8    6.58    0.46
  -7   3  -8    6.89    0.58
   7   3   8    6.28    0.54
  -7   3  -8    6.92    0.61
   7  -3   8    6.93    0.53
  -7  -3  -8    6.36    0.52
   7  -3   8    7.10    0.66
  -7  -3  -8    6.36    0.56
  -7  -3  -8    5.94    0.58
   7   3   9   16.23    0.78
  -7   3  -9   16.27    0.89
  -7   3  -9   18.05    0.88
   7  -3   9   16.32    0.78
  -7  -3  -9   15.95    0.87
  -7  -3  -9   16.98    0.93
  -7  -3  -9   16.70    0.83
   7   4 -10   24.06    1.08
  -7   4  10   26.55    1.05
   7   4 -10   23.26    0.85
   7  -4 -10   24.74    1.00
  -7  -4  10   25.42    1.02
  -7   4   9   47.68    1.45
  -7   4   9   48.79    1.55
   7   4  -9   46.76    1.28
   7   4  -9   49.03    1.51
   7  -4  -9   47.43    1.43
  -7  -4   9   49.77    1.47
   7   4  -8    0.04    0.29
  -7   4   8   -0.10    0.24
  -7   4   8    0.13    0.27
   7   4  -8    0.04    0.16
   7  -4  -8   -0.30    0.28
  -7  -4   8    0.25    0.25
   7  -4  -8    0.03    0.24
  -7   4   7    1.43    0.29
   7   4  -7    0.96    0.17
  -7   4   7    1.52    0.28
   7   4  -7    1.19    0.29
  -7   4   7    1.39    0.30
  -7  -4   7    1.08    0.25
   7  -4  -7    1.03    0.25
   7  -4  -7    1.28    0.27
  -7   4   6    3.05    0.37
  -7   4   6    2.48    0.30
  -7   4   6    4.22    0.56
   7   4  -6    2.46    0.37
  -7   4   6    2.71    0.35
   7   4  -6    2.30    0.22
   7  -4  -6    3.08    0.35
   7  -4  -6    2.65    0.39
  -7  -4   6    2.54    0.22
  -7  -4   6    2.70    0.24
  -7  -4   6    2.99    0.36
  -7  -4   6    2.35    0.36
  -7   4   5    5.91    0.52
  -7   4   5    7.20    0.48
  -7   4   5    7.17    0.45
   7   4  -5    6.50    0.44
   7   4  -5    6.85    0.27
  -7   4   5    7.35    0.43
  -7  -4   5    6.77    0.31
  -7  -4   5    6.33    0.28
   7  -4  -5    6.71    0.45
   7  -4  -5    6.84    0.47
  -7  -4   5    6.80    0.47
  -7  -4   5    6.99    0.31
   7  -4  -5    5.04    0.39
  -7  -4   5    6.58    0.44
  -7   4   4    6.15    0.38
  -7   4   4    5.29    0.44
  -7   4   4    5.65    0.39
  -7   4   4    6.11    0.43
  -7  -4   4    5.56    0.41
  -7  -4   4    5.37    0.39
   7  -4  -4    6.06    0.39
  -7  -4   4    5.80    0.30
   7  -4  -4    6.25    0.40
  -7  -4   4    5.84    0.31
   7  -4  -4    6.45    0.46
  -7   4   3    7.87    0.47
  -7   4   3    6.87    0.41
  -7   4   3    7.71    0.42
  -7   4   3    7.53    0.46
   7  -4  -3    7.46    0.41
   7  -4  -3    7.63    0.46
  -7  -4   3    7.58    0.44
  -7  -4   3    7.21    0.45
  -7  -4   3    8.16    0.36
  -7  -4   3    7.38    0.42
   7  -4  -3    7.80    0.41
  -7  -4   3    6.54    0.33
  -7   4   2   36.36    1.09
  -7   4   2   37.48    1.05
  -7   4   2   36.90    1.02
  -7   4   2   35.74    1.04
  -7  -4   2   36.77    1.04
  -7  -4   2   37.45    1.05
  -7  -4   2   37.92    0.97
   7  -4  -2   36.47    1.03
  -7  -4   2   37.13    1.09
   7  -4  -2   34.67    1.07
   7  -4  -2   36.46    1.00
  -7  -4   2   37.39    0.98
  -7   4   1    3.97    0.31
  -7   4   1    3.71    0.32
  -7   4   1    4.59    0.37
  -7  -4   1    4.31    0.35
  -7  -4   1    4.00    0.33
   7  -4  -1    3.66    0.34
  -7  -4   1    4.58    0.31
  -7  -4   1    3.83    0.31
  -7  -4   1    4.47    0.34
   7  -4  -1    3.94    0.36
   7  -4  -1    4.45    0.35
   7  -4  -1    4.13    0.31
  -7  -4   1    3.86    0.29
  -7   4   0   14.66    0.56
  -7   4   0   14.13    0.56
  -7   4   0   13.79    0.53
  -7  -4   0   14.46    0.55
  -7  -4   0   14.18    0.54
  -7  -4   0   14.25    0.58
   7  -4   0   14.19    0.58
   7  -4   0   14.32    0.61
  -7  -4   0   14.58    0.54
  -7  -4   0   14.63    0.55
   7  -4   0   14.34    0.49
  -7  -4   0   14.60    0.55
  -7   4  -1   22.97    0.61
  -7   4  -1   23.03    0.75
  -7   4  -1   23.41    0.69
  -7   4  -1   23.65    0.77
   7  -4   1   22.49    0.59
  -7  -4  -1   23.43    0.73
  -7  -4  -1   23.37    0.74
  -7  -4  -1   22.38    0.75
   7  -4   1   22.82    0.78
   7  -4   1   23.55    0.78
  -7  -4  -1   23.73    0.78
   7  -4   1   23.22    0.65
  -7  -4  -1   23.58    0.77
  -7   4  -2    2.06    0.30
  -7   4  -2    2.27    0.25
  -7   4  -2    1.90    0.25
  -7   4  -2    2.66    0.35
  -7  -4  -2    2.45    0.26
  -7  -4  -2    2.38    0.28
  -7  -4  -2    1.85    0.26
   7  -4   2    2.25    0.22
  -7  -4  -2    2.04    0.27
   7  -4   2    2.40    0.30
   7  -4   2    2.44    0.32
   7  -4   2    2.38    0.22
   7  -4   2    2.36    0.32
  -7  -4  -2    2.06    0.32
  -7   4  -3    5.68    0.36
  -7   4  -3    6.13    0.31
  -7   4  -3    5.99    0.43
  -7   4  -3    6.12    0.41
   7  -4   3    6.07    0.41
   7  -4   3    5.87    0.28
  -7  -4  -3    5.73    0.43
  -7  -4  -3    6.28    0.43
   7  -4   3    6.19    0.45
  -7  -4  -3    5.82    0.36
   7  -4   3    5.67    0.45
  -7  -4  -3    6.76    0.43
   7  -4   3    6.43    0.35
  -7   4  -4   16.87    0.48
  -7   4  -4   15.97    0.62
  -7   4  -4   15.55    0.65
   7  -4   4   15.55    0.67
  -7  -4  -4   16.70    0.66
   7  -4   4   16.92    0.46
   7  -4   4   16.02    0.60
  -7  -4  -4   15.78    0.72
  -7  -4  -4   16.32    0.69
   7  -4   4   13.44    0.62
   7  -4   4   17.11    0.71
  -7  -4  -4   16.58    0.62
  -7   4  -5   29.57    0.95
  -7   4  -5   29.42    0.99
  -7   4  -5   30.16    0.97
   7   4   5   30.36    0.96
  -7  -4  -5   30.25    0.75
  -7  -4  -5   24.16    0.89
   7  -4   5   29.67    1.01
  -7  -4  -5   29.24    0.93
   7  -4   5   29.71    0.96
   7  -4   5   28.26    0.91
   7  -4   5   28.66    0.99
  -7  -4  -5   30.31    1.02
  -7   4  -6    8.74    0.58
  -7   4  -6    8.04    0.58
   7   4   6    8.45    0.38
   7   4   6    8.20    0.56
  -7  -4  -6    8.32    0.53
   7  -4   6    8.91    0.54
  -7  -4  -6    7.93    0.41
  -7  -4  -6    7.69    0.61
  -7  -4  -6    8.45    0.57
   7  -4   6    7.81    0.61
   7  -4   6    9.32    0.58
   7   4   7    0.24    0.31
  -7   4  -7    0.27    0.35
  -7   4  -7   -0.20    0.24
   7   4   7    0.07    0.21
  -7  -4  -7    0.06    0.29
  -7  -4  -7    0.50    0.30
   7  -4   7    0.34    0.28
  -7  -4  -7   -0.17    0.29
  -7   4  -8    0.79    0.35
   7   4   8    0.38    0.35
  -7   4  -8    0.65    0.39
  -7  -4  -8    0.55    0.38
   7  -4   8    0.59    0.38
  -7  -4  -8    0.52    0.35
  -7   5   8   -0.10    0.30
   7   5  -8    0.15    0.39
   7   5  -8    0.20    0.22
  -7   5   8    0.43    0.38
  -7  -5   8   -0.17    0.33
   7  -5  -8   -0.54    0.36
  -7   5   7    0.84    0.37
   7   5  -7    0.14    0.33
  -7   5   7    0.26    0.29
   7   5  -7   -0.19    0.17
  -7  -5   7    0.44    0.30
   7  -5  -7   -0.07    0.34
  -7   5   6    0.49    0.27
  -7   5   6    0.25    0.26
   7   5  -6   -0.29    0.27
   7  -5  -6   -0.37    0.28
  -7  -5   6   -0.16    0.26
  -7   5   5    3.90    0.52
  -7   5   5    4.60    0.45
   7  -5  -5    3.60    0.50
   7  -5  -5    3.65    0.48
  -7  -5   5    3.05    0.50
  -7  -5   5    3.95    0.32
  -7  -5   5    3.85    0.32
  -7  -5   5    3.64    0.52
  -7   5   4    1.82    0.26
  -7   5   4    1.51    0.43
  -7   5   4    1.70    0.34
   7  -5  -4    1.34    0.28
  -7  -5   4    1.60    0.30
  -7  -5   4    1.18    0.22
   7  -5  -4    1.67    0.31
  -7  -5   4    1.82    0.23
  -7  -5   4    1.46    0.34
  -7   5   3    1.23    0.36
  -7   5   3    1.54    0.32
  -7   5   3    1.02    0.23
   7  -5  -3    1.02    0.26
  -7  -5   3    1.56    0.34
  -7  -5   3    1.16    0.27
   7  -5  -3    1.32    0.29
  -7  -5   3    1.37    0.24
  -7  -5   3    1.10    0.23
  -7   5   2    8.02    0.47
  -7   5   2    7.60    0.56
  -7  -5   2    7.29    0.43
  -7  -5   2    6.94    0.52
  -7  -5   2    7.00    0.49
   7  -5  -2    7.37    0.50
  -7  -5   2    7.29    0.55
  -7  -5   2    7.48    0.45
   7  -5  -2    7.34    0.46
  -7   5   1   31.77    0.99
  -7   5   1   31.89    0.99
   7  -5  -1   31.59    0.93
  -7  -5   1   31.79    0.96
  -7  -5   1   31.72    0.94
  -7  -5   1   31.97    1.01
  -7  -5   1   30.53    1.09
  -7  -5   1   31.53    0.94
  -7  -5   1   30.88    0.98
  -7   5   0    6.66    0.44
  -7   5   0    6.71    0.48
   7  -5   0    6.20    0.39
  -7  -5   0    6.49    0.42
  -7  -5   0    6.44    0.47
  -7  -5   0    5.77    0.46
  -7  -5   0    6.26    0.46
  -7  -5   0    7.14    0.50
  -7  -5   0    6.22    0.51
  -7   5  -1    2.73    0.36
  -7   5  -1    2.90    0.39
  -7   5  -1    2.90    0.36
  -7  -5  -1    2.87    0.34
  -7  -5  -1    2.31    0.35
   7  -5   1    3.02    0.32
  -7  -5  -1    3.78    0.44
   7  -5   1    2.68    0.33
  -7  -5  -1    2.96    0.41
  -7  -5  -1    2.94    0.36
  -7  -5  -1    2.36    0.35
  -7   5  -2    8.94    0.44
  -7   5  -2   10.48    0.59
  -7   5  -2    9.88    0.53
   7  -5   2    9.05    0.57
  -7  -5  -2    9.27    0.53
  -7  -5  -2    7.69    0.86
   7  -5   2    9.10    0.40
  -7  -5  -2    8.89    0.47
  -7  -5  -2   10.77    0.59
  -7  -5  -2    9.71    0.62
  -7   5  -3    4.99    0.45
  -7   5  -3    4.48    0.39
   7  -5   3    3.89    0.43
  -7  -5  -3    4.77    0.54
   7  -5   3    4.10    0.35
   7  -5   3    3.79    0.27
  -7  -5  -3    4.36    0.59
  -7  -5  -3    4.04    0.39
  -7  -5  -3    5.05    0.49
  -7   5  -4    1.11    0.28
  -7   5  -4    1.08    0.30
  -7  -5  -4    1.20    0.39
   7  -5   4    1.32    0.33
  -7  -5  -4    1.60    0.27
  -7  -5  -4    1.23    0.31
   7  -5   4    1.93    0.30
  -7   5  -5   -0.23    0.33
  -7  -5  -5   -0.30    0.28
  -7  -5  -5    0.04    0.31
   7  -5   5    0.73    0.34
  -7   5  -6    5.00    0.58
  -7   5  -6    5.47    0.70
  -7  -5  -6    5.40    0.57
  -7  -5  -6    7.21    0.75
   7  -5   6    4.91    0.68
  -7   6   5   -0.16    0.30
  -7   6   5    0.97    0.48
  -7  -6   5    0.28    0.42
   7  -6  -5    0.16    0.38
  -7   6   4    9.63    0.63
  -7  -6   4    9.70    0.76
   7  -6  -4    9.07    0.71
  -7   6   3   20.70    0.83
  -7  -6   3   19.64    0.75
   7  -6  -3   20.73    0.88
  -7  -6   3   19.69    0.93
  -7   6   2   -0.24    0.28
  -7  -6   2    0.02    0.47
   7  -6  -2    0.06    0.28
  -7  -6   2   -0.30    0.30
  -7  -6   2    0.47    0.29
  -7  -6   2   -0.01    0.28
  -7   6   1   21.84    0.86
  -7  -6   1   22.50    0.86
  -7  -6   1   22.83    0.82
  -7  -6   1   22.46    0.94
   7  -6  -1   22.69    0.83
  -7   6   0    5.89    0.51
   7  -6   0    6.17    0.52
  -7  -6   0    4.65    0.60
  -7  -6   0    5.38    0.55
  -7  -6   0    7.13    0.60
  -7   6  -1   -0.21    0.27
   7  -6   1   -0.04    0.26
  -7  -6  -1    0.84    0.35
   7  -6   1    0.61    0.34
  -7  -6  -1    0.70    0.34
  -7   6  -2    0.54    0.30
  -7  -6  -2    1.01    0.35
  -7  -6  -2   -0.01    0.37
   7  -6   2    0.06    0.34
  -7  -6  -2    0.07    0.26
  -7  -6  -3    1.20    0.45
  -7  -6  -3    1.53    0.36
   7  -6   3    2.13    0.45
   8   0 -13   -0.59    0.37
  -8   0  13    0.14    0.53
   8   0 -13   -0.34    0.41
   8   0 -13   -0.04    0.39
   8   0 -12   31.69    1.06
   8   0 -12   30.63    1.15
  -8   0  12   31.30    1.31
   8   0 -12   31.09    1.10
  -8   0  12   32.65    1.13
   8   0 -11    0.09    0.24
  -8   0  11   -0.11    0.20
  -8   0  11    0.65    0.35
   8   0 -11    0.04    0.23
   8   0 -11    0.27    0.23
  -8   0  11   -0.44    0.28
   8   0 -10   24.62    0.88
  -8   0  10   29.83    0.97
   8   0 -10   30.94    1.01
  -8   0  10   31.00    0.98
  -8   0  10   29.51    1.02
  -8   0  10   30.06    0.97
   8   0 -10   31.78    0.97
  -8   0   9    0.26    0.23
  -8   0   9   -0.05    0.18
  -8   0   9    0.28    0.16
   8   0  -9   -0.02    0.16
  -8   0   9   -0.08    0.17
   8   0  -9   -0.16    0.18
   8   0  -9   -0.02    0.16
   8   0  -9    0.04    0.17
   8   0  -8    1.09    0.19
  -8   0   8    0.53    0.16
   8   0  -8    1.03    0.18
  -8   0   8    0.85    0.19
   8   0  -8    0.64    0.17
  -8   0   8    1.07    0.20
  -8   0   8    0.96    0.18
   8   0  -8    0.97    0.17
   8   0  -7   -0.14    0.11
  -8   0   7    0.17    0.12
   8   0  -7    0.10    0.13
  -8   0   7   -0.07    0.10
  -8   0   7   -0.12    0.12
  -8   0   7   -0.18    0.12
   8   0  -7    0.02    0.12
   8   0  -7   -0.04    0.11
   8   0  -6   34.68    0.93
  -8   0   6   35.63    0.94
   8   0  -6   34.92    0.92
  -8   0   6   35.24    0.93
   8   0  -6   34.97    0.96
   8   0  -6   35.85    0.93
  -8   0   6   34.99    0.96
  -8   0   6   34.88    0.93
   8   0  -5   -0.14    0.09
   8   0  -5    0.02    0.08
  -8   0   5   -0.04    0.09
  -8   0   5   -0.01    0.09
  -8   0   5    0.03    0.09
   8   0  -5   -0.03    0.08
  -8   0   5    0.00    0.07
   8   0  -5   -0.03    0.07
  -8   0   4   88.76    2.02
  -8   0   4   89.94    2.04
  -8   0   4   89.46    2.01
  -8   0   4   91.72    2.00
   8   0  -4   89.32    1.98
   8   0  -4   87.66    1.99
   8   0  -4   89.30    2.00
  -8   0   4   88.33    1.98
   8   0  -4   90.16    2.03
  -8   0   3   -0.06    0.06
  -8   0   3    0.01    0.07
   8   0  -3    0.03    0.06
  -8   0   3   -0.06    0.07
  -8   0   3   -0.10    0.06
  -8   0   3   -0.02    0.05
   8   0  -3   -0.09    0.05
   8   0  -3   -0.11    0.06
   8   0  -2   76.83    1.70
  -8   0   2   80.36    1.78
   8   0  -2   79.32    1.78
  -8   0   2   80.06    1.76
  -8   0   2   77.47    1.70
  -8   0   2   77.81    1.79
   8   0  -2   81.92    1.76
  -8   0   2   77.37    1.77
   8   0  -1   -0.02    0.03
  -8   0   1    0.08    0.06
  -8   0   1    0.10    0.06
   8   0  -1    0.02    0.07
   8   0  -1    0.06    0.06
  -8   0   1   -0.06    0.03
  -8   0   1   -0.01    0.06
  -8   0   1    0.00    0.04
  -8   0   0   26.64    0.69
   8   0   0   26.71    0.70
  -8   0   0   25.29    0.67
   8   0   0   26.66    0.68
  -8   0   0   25.75    0.69
  -8   0   0   26.14    0.70
  -8   0  -1    0.05    0.05
  -8   0  -1   -0.04    0.05
   8   0   1    0.10    0.06
  -8   0  -1   -0.01    0.06
  -8   0  -1    0.01    0.05
   8   0   1   -0.01    0.06
  -8   0  -2    1.52    0.15
  -8   0  -2    1.54    0.15
  -8   0  -2    1.41    0.15
   8   0   2    1.42    0.17
   8   0   2    1.60    0.16
   8   0   2    1.39    0.14
  -8   0  -2    1.52    0.14
  -8   0  -3    0.02    0.07
  -8   0  -3    0.09    0.08
   8   0   3    0.14    0.08
   8   0   3   -0.03    0.07
  -8   0  -3    0.15    0.08
  -8   0  -3   -0.14    0.06
  -8   0  -4   11.56    0.45
  -8   0  -4   11.21    0.42
   8   0   4   10.87    0.42
  -8   0  -4   11.58    0.43
  -8   0  -4   11.02    0.31
   8   0   4   11.18    0.44
   8   0   4   11.03    0.32
   8   0   5   -0.04    0.11
  -8   0  -5    0.01    0.11
   8   0   5    0.08    0.08
   8   0   5    0.15    0.12
  -8   0  -5    0.10    0.11
  -8   0  -5    0.04    0.08
  -8   0  -5   -0.04    0.12
  -8   0  -6    0.66    0.16
  -8   0  -6    0.65    0.13
  -8   0  -6    0.55    0.15
   8   0   6    0.65    0.13
   8   0   6    0.69    0.16
  -8   0  -6    0.55    0.14
  -8   0  -6    0.67    0.18
   8   0   6    0.71    0.19
  -8   0  -7    0.25    0.15
   8   0   7    0.12    0.12
  -8   0  -7    0.06    0.14
  -8   0  -7   -0.25    0.16
   8   0   7    0.26    0.19
   8   0   7    0.23    0.19
  -8   0  -7    0.16    0.16
  -8   0  -7    0.12    0.17
  -8   0  -8    1.71    0.27
   8   0   8    1.55    0.34
  -8   0  -8    1.17    0.23
  -8   0  -8    1.16    0.26
  -8   0  -8    1.38    0.24
   8   0   8    1.39    0.22
  -8   0  -8    1.93    0.31
   8   0   9   -0.11    0.22
  -8   0  -9    0.23    0.30
  -8   0  -9    0.08    0.25
  -8   0  -9    0.08    0.25
  -8   0  -9    0.32    0.26
  -8   0  -9   -0.45    0.22
   8   0  10   -0.26    0.28
  -8   0 -10   -0.31    0.25
  -8   0 -10   -0.26    0.31
  -8   1  12    4.53    0.55
   8   1 -12    4.76    0.50
   8   1 -12    4.32    0.55
   8   1 -12    3.49    0.46
   8  -1 -12    3.95    0.54
   8  -1 -12    4.38    0.59
  -8  -1  12    4.54    0.52
   8  -1 -12    4.21    0.58
  -8  -1  12    3.64    0.45
   8   1 -11    0.52    0.26
  -8   1  11    0.87    0.25
   8   1 -11    0.91    0.25
   8   1 -11    0.34    0.29
  -8   1  11    1.11    0.34
  -8  -1  11    1.62    0.34
   8  -1 -11    0.85    0.31
   8  -1 -11    0.50    0.29
  -8  -1  11    0.91    0.27
   8  -1 -11    0.49    0.26
   8   1 -10    8.27    0.54
   8   1 -10    8.87    0.45
  -8   1  10    8.24    0.50
  -8   1  10    7.91    0.53
  -8   1  10    7.96    0.54
  -8   1  10    7.67    0.57
   8   1 -10    7.98    0.48
  -8  -1  10    8.78    0.51
   8  -1 -10    8.04    0.52
   8  -1 -10    8.29    0.51
  -8  -1  10    7.89    0.49
   8  -1 -10    8.58    0.52
  -8  -1  10    7.61    0.54
   8   1  -9    9.36    0.52
   8   1  -9    9.32    0.46
  -8   1   9    9.30    0.52
  -8   1   9    9.49    0.48
   8   1  -9    8.82    0.49
   8   1  -9    9.43    0.44
  -8   1   9    8.99    0.53
  -8   1   9    9.02    0.51
   8  -1  -9    9.65    0.48
  -8  -1   9    9.69    0.48
  -8  -1   9    9.61    0.49
   8  -1  -9    8.95    0.47
  -8  -1   9    9.16    0.46
   8  -1  -9    9.63    0.49
   8  -1  -9    9.21    0.49
  -8  -1   9    9.53    0.52
  -8   1   8   24.35    0.79
  -8   1   8   24.41    0.77
   8   1  -8   23.22    0.69
  -8   1   8   23.61    0.78
   8   1  -8   22.19    0.76
   8   1  -8   24.09    0.80
  -8   1   8   23.06    0.78
   8   1  -8   23.12    0.73
   8  -1  -8   23.19    0.76
   8  -1  -8   23.07    0.75
  -8  -1   8   23.32    0.76
  -8  -1   8   23.99    0.74
   8  -1  -8   22.84    0.74
   8  -1  -8   23.77    0.76
  -8  -1   8   22.10    0.79
  -8  -1   8   23.18    0.71
  -8   1   7    0.23    0.14
   8   1  -7    0.14    0.11
  -8   1   7    0.26    0.12
  -8   1   7    0.02    0.13
   8   1  -7    0.01    0.12
  -8   1   7    0.05    0.12
   8   1  -7    0.07    0.11
   8   1  -7    0.19    0.13
   8  -1  -7    0.01    0.10
  -8  -1   7    0.09    0.12
  -8  -1   7    0.07    0.13
  -8  -1   7    0.26    0.12
   8  -1  -7    0.14    0.12
   8  -1  -7    0.27    0.12
   8  -1  -7    0.22    0.12
  -8  -1   7    0.04    0.11
   8   1  -6    1.02    0.15
  -8   1   6    0.55    0.13
  -8   1   6    0.86    0.15
   8   1  -6    0.62    0.13
  -8   1   6    0.77    0.15
  -8   1   6    1.01    0.16
   8   1  -6    1.00    0.14
   8   1  -6    0.91    0.15
   8  -1  -6    0.81    0.14
   8  -1  -6    0.90    0.15
   8  -1  -6    0.87    0.17
  -8  -1   6    0.53    0.13
  -8  -1   6    0.79    0.15
  -8  -1   6    0.47    0.13
  -8  -1   6    0.87    0.12
   8  -1  -6    0.71    0.14
   8   1  -5   23.90    0.72
  -8   1   5   24.12    0.72
  -8   1   5   22.83    0.69
  -8   1   5   23.13    0.68
  -8   1   5   23.42    0.69
  -8   1   5   23.35    0.69
   8   1  -5   24.42    0.66
   8   1  -5   23.94    0.65
  -8  -1   5   24.30    0.65
  -8  -1   5   23.77    0.66
   8  -1  -5   24.68    0.70
  -8  -1   5   23.76    0.72
  -8  -1   5   23.31    0.67
   8  -1  -5   23.55    0.66
   8  -1  -5   23.48    0.69
   8  -1  -5   24.15    0.67
  -8   1   4    0.20    0.09
  -8   1   4    0.32    0.11
  -8   1   4    0.34    0.10
   8   1  -4    0.36    0.11
   8   1  -4    0.10    0.08
   8   1  -4    0.35    0.09
   8   1  -4    0.25    0.07
  -8   1   4    0.36    0.10
  -8   1   4    0.21    0.11
   8  -1  -4    0.30    0.10
   8  -1  -4    0.32    0.09
  -8  -1   4    0.23    0.08
  -8  -1   4    0.35    0.07
   8  -1  -4    0.35    0.10
  -8  -1   4    0.30    0.09
   8  -1  -4    0.30    0.09
  -8  -1   4    0.22    0.08
  -8   1   3    0.05    0.07
  -8   1   3    0.09    0.08
  -8   1   3    0.04    0.06
   8   1  -3    0.08    0.07
   8   1  -3    0.11    0.07
   8   1  -3    0.03    0.06
  -8   1   3    0.01    0.06
  -8   1   3    0.01    0.08
  -8  -1   3    0.03    0.06
   8  -1  -3    0.05    0.06
  -8  -1   3    0.06    0.05
   8  -1  -3   -0.03    0.06
  -8  -1   3    0.01    0.06
   8  -1  -3    0.04    0.07
  -8  -1   3    0.03    0.07
  -8  -1   3   -0.01    0.06
  -8   1   2   93.18    2.05
  -8   1   2   89.72    2.01
  -8   1   2   90.29    2.01
   8   1  -2   94.12    1.99
  -8   1   2   91.11    2.07
   8   1  -2   90.54    1.98
  -8   1   2   92.15    2.03
  -8   1   2   92.04    2.05
   8   1  -2   92.66    2.05
   8  -1  -2   90.88    1.99
  -8  -1   2   94.44    2.09
   8  -1  -2   92.64    2.05
  -8  -1   2   92.62    1.98
  -8  -1   2   94.13    2.04
   8  -1  -2   91.73    2.08
   8  -1  -2   88.42    2.04
  -8  -1   2   90.14    1.98
  -8  -1   2   91.72    2.00
  -8   1   1   31.30    0.77
  -8   1   1   32.58    0.80
   8   1  -1   32.31    0.83
  -8   1   1   31.45    0.84
  -8   1   1   31.33    0.82
   8   1  -1   32.84    0.76
  -8   1   1   32.39    0.82
  -8  -1   1   32.05    0.76
   8  -1  -1   31.16    0.81
  -8  -1   1   31.53    0.73
   8  -1  -1   32.61    0.85
   8  -1  -1   31.73    0.75
  -8  -1   1   31.99    0.82
   8  -1  -1   33.32    0.84
  -8  -1   1   32.47    0.84
  -8  -1   1   33.79    0.78
  -8   1   0    3.56    0.19
  -8   1   0    3.38    0.19
   8   1   0    3.78    0.17
  -8   1   0    3.38    0.19
   8   1   0    3.34    0.21
   8  -1   0    3.27    0.21
  -8  -1   0    2.85    0.12
  -8  -1   0    3.63    0.22
  -8  -1   0    3.39    0.13
  -8  -1   0    3.35    0.20
   8  -1   0    3.38    0.15
  -8  -1   0    3.38    0.17
  -8  -1   0    3.61    0.15
   8  -1   0    3.39    0.22
   8  -1   0    3.51    0.20
   8   1   1    0.06    0.06
  -8   1  -1    0.02    0.07
   8   1   1    0.03    0.08
  -8   1  -1    0.00    0.06
  -8   1  -1    0.04    0.07
  -8   1  -1   -0.01    0.06
   8  -1   1    0.01    0.05
  -8  -1  -1    0.03    0.08
   8  -1   1   -0.05    0.07
   8  -1   1    0.14    0.07
  -8  -1  -1    0.20    0.07
   8  -1   1    0.04    0.05
   8  -1   1    0.05    0.08
  -8  -1  -1    0.00    0.05
  -8  -1  -1    0.13    0.05
   8   1   2   15.78    0.47
  -8   1  -2   16.37    0.51
   8   1   2   16.35    0.52
  -8   1  -2   16.11    0.51
  -8   1  -2   15.63    0.48
  -8   1  -2   15.74    0.52
   8  -1   2   15.84    0.41
  -8  -1  -2   16.32    0.45
   8  -1   2   15.61    0.50
  -8  -1  -2   16.11    0.52
   8  -1   2   15.44    0.52
  -8  -1  -2   16.25    0.47
  -8  -1  -2   15.93    0.50
   8  -1   2   15.61    0.40
   8  -1   2   16.06    0.49
  -8   1  -3   19.46    0.62
   8   1   3   20.98    0.63
  -8   1  -3   19.72    0.62
  -8   1  -3   19.92    0.63
   8   1   3   19.88    0.49
  -8   1  -3   19.92    0.58
   8   1   3   21.43    0.59
  -8  -1  -3   20.79    0.64
  -8  -1  -3   20.11    0.48
   8  -1   3   19.90    0.51
   8  -1   3   21.07    0.60
   8  -1   3   20.10    0.50
  -8  -1  -3   20.04    0.57
   8  -1   3   19.21    0.62
  -8  -1  -3   20.04    0.61
   8  -1   3   19.95    0.62
   8   1   4    5.17    0.21
   8   1   4    5.77    0.29
   8   1   4    4.89    0.26
  -8   1  -4    5.06    0.30
  -8   1  -4    4.68    0.26
  -8   1  -4    5.32    0.31
  -8  -1  -4    5.68    0.31
  -8  -1  -4    5.19    0.21
   8  -1   4    5.38    0.22
   8  -1   4    5.17    0.31
   8  -1   4    5.24    0.30
  -8  -1  -4    5.47    0.30
  -8  -1  -4    5.62    0.27
  -8   1  -5    1.69    0.22
  -8   1  -5    1.55    0.22
   8   1   5    1.38    0.19
   8   1   5    1.54    0.20
  -8   1  -5    1.99    0.25
   8   1   5    2.06    0.18
   8  -1   5    2.04    0.26
   8  -1   5    1.64    0.24
  -8  -1  -5    1.78    0.24
  -8  -1  -5    1.63    0.21
  -8  -1  -5    1.71    0.16
   8  -1   5    1.39    0.16
  -8  -1  -5    2.00    0.24
  -8  -1  -5    2.04    0.25
  -8   1  -6    0.88    0.18
  -8   1  -6    1.01    0.17
   8   1   6    1.16    0.20
   8   1   6    1.46    0.20
  -8   1  -6    1.23    0.19
  -8   1  -6    0.73    0.15
  -8   1  -6    0.99    0.20
   8  -1   6    0.99    0.22
  -8  -1  -6    1.21    0.20
   8  -1   6    1.16    0.15
  -8  -1  -6    0.71    0.19
  -8  -1  -6    0.95    0.20
  -8  -1  -6    1.03    0.19
  -8  -1  -6    0.87    0.14
   8  -1   6    1.33    0.19
   8   1   7    2.66    0.33
   8   1   7    3.79    0.40
  -8   1  -7    3.21    0.36
  -8   1  -7    3.25    0.37
  -8   1  -7    3.41    0.30
  -8   1  -7    3.79    0.33
  -8   1  -7    3.26    0.32
   8   1   7    3.43    0.29
   8  -1   7    3.14    0.27
  -8  -1  -7    3.79    0.35
  -8  -1  -7    3.63    0.40
   8  -1   7    3.13    0.36
  -8  -1  -7    3.76    0.31
   8  -1   7    3.65    0.35
  -8  -1  -7    3.60    0.37
  -8  -1  -7    3.46    0.28
   8   1   8    3.99    0.40
  -8   1  -8    4.71    0.42
   8   1   8    4.65    0.36
  -8   1  -8    4.74    0.46
  -8   1  -8    4.24    0.36
  -8   1  -8    4.43    0.46
  -8   1  -8    4.30    0.37
   8  -1   8    4.38    0.35
  -8  -1  -8    3.95    0.38
  -8  -1  -8    4.14    0.36
   8  -1   8    4.64    0.48
  -8  -1  -8    4.85    0.44
  -8  -1  -8    4.92    0.50
  -8  -1  -8    4.81    0.44
  -8   1  -9   -0.01    0.24
  -8   1  -9   -0.05    0.22
   8   1   9    0.38    0.24
  -8   1  -9    0.09    0.26
  -8   1  -9    0.09    0.21
  -8   1  -9   -0.08    0.28
  -8  -1  -9    0.41    0.27
  -8  -1  -9    0.07    0.26
  -8  -1  -9    0.38    0.26
   8  -1   9    0.11    0.20
  -8  -1  -9   -0.18    0.24
  -8   1 -10    0.75    0.41
   8   1  10    0.91    0.30
  -8   1 -10    0.79    0.31
  -8   1 -10    0.68    0.38
  -8  -1 -10    0.65    0.36
  -8  -1 -10    1.14    0.40
   8  -1  10    0.78    0.28
   8   2 -12   10.54    0.76
  -8   2  12   10.65    0.75
   8   2 -12    9.70    0.68
   8  -2 -12   10.92    0.77
  -8  -2  12   11.21    0.68
   8  -2 -12   11.09    0.73
   8  -2 -12   10.97    0.77
  -8   2  11    0.46    0.38
   8   2 -11    1.10    0.24
   8   2 -11    1.45    0.31
   8   2 -11    1.03    0.32
  -8   2  11    1.13    0.33
   8  -2 -11    1.24    0.31
  -8  -2  11    1.71    0.32
   8  -2 -11    1.47    0.28
  -8  -2  11    1.08    0.29
   8  -2 -11    1.87    0.37
  -8   2  10    8.38    0.60
   8   2 -10    7.75    0.50
   8   2 -10    8.74    0.56
  -8   2  10    8.65    0.57
   8   2 -10    8.94    0.43
  -8   2  10    8.82    0.58
   8  -2 -10    9.35    0.54
   8  -2 -10    8.48    0.55
  -8  -2  10    9.59    0.48
  -8  -2  10    9.99    0.56
  -8   2   9    8.97    0.55
   8   2  -9    9.94    0.59
   8   2  -9   11.01    0.51
  -8   2   9   10.71    0.58
   8   2  -9   10.94    0.43
   8   2  -9   10.22    0.56
  -8   2   9   11.00    0.52
   8  -2  -9   11.90    0.51
  -8  -2   9   11.10    0.47
   8  -2  -9   11.85    0.56
  -8  -2   9   10.54    0.53
  -8  -2   9   11.56    0.55
   8   2  -8    0.89    0.16
  -8   2   8    1.04    0.22
   8   2  -8    0.43    0.20
  -8   2   8    1.00    0.21
  -8   2   8    0.79    0.18
   8   2  -8    1.17    0.22
  -8   2   8    0.87    0.23
   8   2  -8    0.99    0.17
  -8  -2   8    0.99    0.18
  -8  -2   8    0.90    0.21
  -8  -2   8    1.13    0.19
   8  -2  -8    1.06    0.24
   8  -2  -8    1.02    0.21
   8  -2  -8    1.10    0.20
  -8  -2   8    0.73    0.22
   8  -2  -8    1.22    0.20
  -8   2   7    0.06    0.14
  -8   2   7   -0.24    0.13
   8   2  -7    0.12    0.11
  -8   2   7    0.17    0.13
   8   2  -7    0.15    0.14
   8   2  -7    0.33    0.17
  -8   2   7    0.24    0.16
   8   2  -7   -0.02    0.10
  -8   2   7    0.18    0.14
   8  -2  -7    0.04    0.13
  -8  -2   7   -0.12    0.11
  -8  -2   7    0.12    0.15
   8  -2  -7    0.05    0.12
   8  -2  -7    0.14    0.13
  -8  -2   7    0.03    0.12
  -8  -2   7    0.18    0.14
   8  -2  -7    0.10    0.14
  -8   2   6    0.09    0.14
   8   2  -6    0.37    0.10
  -8   2   6    0.37    0.13
  -8   2   6    0.25    0.12
  -8   2   6    0.24    0.13
  -8   2   6    0.23    0.14
   8   2  -6    0.36    0.14
   8   2  -6    0.31    0.14
   8   2  -6    0.29    0.12
  -8  -2   6    0.07    0.12
   8  -2  -6    0.48    0.13
  -8  -2   6    0.31    0.09
  -8  -2   6    0.48    0.13
   8  -2  -6    0.38    0.12
   8  -2  -6    0.32    0.13
   8  -2  -6    0.38    0.14
  -8  -2   6    0.12    0.14
  -8   2   5   11.11    0.39
   8   2  -5   11.34    0.40
  -8   2   5   11.76    0.46
  -8   2   5   10.74    0.47
  -8   2   5   11.97    0.48
  -8   2   5   11.31    0.46
   8   2  -5   12.22    0.39
   8   2  -5   11.69    0.45
   8   2  -5   11.87    0.48
   8  -2  -5   11.58    0.45
   8  -2  -5   12.17    0.46
   8  -2  -5   11.67    0.38
   8  -2  -5   12.03    0.45
  -8  -2   5   11.75    0.40
  -8  -2   5   12.08    0.46
  -8  -2   5   11.15    0.37
  -8  -2   5   12.20    0.48
   8   2  -4    2.91    0.24
  -8   2   4    2.91    0.23
  -8   2   4    3.21    0.25
  -8   2   4    2.89    0.19
  -8   2   4    2.83    0.24
   8   2  -4    3.04    0.23
  -8   2   4    3.11    0.24
   8   2  -4    3.13    0.17
   8   2  -4    2.90    0.21
  -8  -2   4    3.02    0.16
  -8  -2   4    2.99    0.22
   8  -2  -4    2.83    0.22
  -8  -2   4    3.26    0.23
   8  -2  -4    2.95    0.23
  -8  -2   4    2.78    0.21
   8  -2  -4    3.29    0.24
  -8   2   3    8.29    0.36
  -8   2   3    8.26    0.28
  -8   2   3    7.80    0.37
   8   2  -3    8.72    0.26
   8   2  -3    8.51    0.33
  -8   2   3    7.97    0.35
  -8   2   3    7.70    0.28
  -8   2   3    7.97    0.36
  -8  -2   3    7.72    0.35
   8  -2  -3    8.23    0.33
   8  -2  -3    8.31    0.35
  -8  -2   3    8.24    0.32
  -8  -2   3    7.98    0.32
  -8  -2   3    8.47    0.26
  -8  -2   3    8.30    0.27
   8  -2  -3    8.46    0.35
   8   2  -2   12.01    0.42
  -8   2   2   11.99    0.43
  -8   2   2   12.08    0.46
  -8   2   2   11.70    0.36
   8   2  -2   12.26    0.32
  -8   2   2   11.74    0.36
  -8   2   2   11.57    0.43
  -8   2   2   12.23    0.43
  -8  -2   2   12.43    0.32
  -8  -2   2   12.00    0.33
  -8  -2   2   12.13    0.39
   8  -2  -2   11.47    0.45
   8  -2  -2   12.10    0.42
   8  -2  -2   12.38    0.44
   8  -2  -2   11.63    0.40
  -8  -2   2   12.39    0.41
  -8  -2   2   11.70    0.44
  -8   2   1   38.39    1.01
  -8   2   1   38.73    0.97
  -8   2   1   38.60    0.96
   8   2  -1   38.73    0.98
  -8   2   1   38.87    0.91
  -8   2   1   37.06    0.98
  -8  -2   1   37.68    0.94
   8  -2  -1   37.94    1.01
  -8  -2   1   37.27    0.91
   8  -2  -1   37.89    0.99
  -8  -2   1   38.48    0.84
   8  -2  -1   37.73    0.94
  -8  -2   1   39.06    0.85
  -8  -2   1   37.69    1.00
   8  -2  -1   38.82    0.96
  -8   2   0    0.86    0.11
  -8   2   0    1.03    0.15
  -8   2   0    0.90    0.16
  -8   2   0    0.63    0.12
   8  -2   0    1.03    0.14
  -8  -2   0    1.06    0.15
   8  -2   0    0.88    0.14
  -8  -2   0    0.79    0.07
  -8  -2   0    1.04    0.15
   8  -2   0    0.65    0.11
   8  -2   0    0.51    0.12
  -8  -2   0    0.77    0.11
  -8  -2   0    0.85    0.12
  -8  -2   0    0.95    0.12
  -8   2  -1   14.34    0.46
   8   2   1   14.58    0.38
  -8   2  -1   14.83    0.46
  -8   2  -1   14.34    0.51
  -8  -2  -1   14.41    0.41
   8  -2   1   14.31    0.45
   8  -2   1   13.69    0.44
   8  -2   1   13.82    0.43
  -8  -2  -1   14.58    0.48
   8  -2   1   14.65    0.45
  -8  -2  -1   15.26    0.51
   8  -2   1   14.45    0.52
  -8  -2  -1   14.63    0.43
  -8  -2  -1   14.23    0.38
  -8  -2  -1   14.59    0.37
  -8   2  -2    1.17    0.17
  -8   2  -2    1.04    0.15
  -8   2  -2    1.04    0.17
   8   2   2    0.86    0.11
  -8   2  -2    0.62    0.12
   8  -2   2    0.85    0.13
   8  -2   2    1.00    0.18
  -8  -2  -2    1.13    0.14
  -8  -2  -2    0.88    0.10
   8  -2   2    0.93    0.12
   8  -2   2    0.95    0.14
  -8  -2  -2    0.90    0.15
  -8  -2  -2    0.93    0.11
  -8  -2  -2    1.02    0.14
   8  -2   2    0.91    0.13
  -8   2  -3   28.40    0.81
   8   2   3   28.94    0.73
   8   2   3   28.29    0.73
  -8   2  -3   28.94    0.84
  -8   2  -3   28.22    0.74
  -8   2  -3   26.52    0.82
   8  -2   3   28.63    0.85
  -8  -2  -3   27.87    0.71
   8  -2   3   28.42    0.74
  -8  -2  -3   29.74    0.84
   8  -2   3   28.11    0.79
  -8  -2  -3   28.19    0.72
  -8  -2  -3   28.73    0.82
   8  -2   3   29.16    0.76
   8  -2   3   27.86    0.76
  -8   2  -4   75.62    1.82
   8   2   4   74.42    1.69
   8   2   4   72.15    1.78
  -8   2  -4   77.27    1.81
  -8   2  -4   73.45    1.79
  -8   2  -4   73.26    1.68
   8   2   4   71.96    1.69
  -8  -2  -4   71.95    1.65
  -8  -2  -4   75.39    1.82
   8  -2   4   74.54    1.82
  -8  -2  -4   72.31    1.79
   8  -2   4   74.46    1.71
  -8  -2  -4   73.46    1.81
  -8  -2  -4   75.76    1.69
   8  -2   4   74.15    1.70
   8  -2   4   75.03    1.69
   8  -2   4   73.57    1.77
   8   2   5   37.66    1.07
   8   2   5   39.20    1.00
  -8   2  -5   38.21    1.09
  -8   2  -5   38.65    0.96
  -8   2  -5   36.94    1.07
   8   2   5   37.46    0.97
  -8   2  -5   37.89    1.09
  -8  -2  -5   39.50    0.99
   8  -2   5   37.20    1.06
  -8  -2  -5   38.41    1.09
  -8  -2  -5   38.52    0.95
   8  -2   5   38.63    0.98
   8  -2   5   38.64    1.11
  -8  -2  -5   36.42    1.06
   8   2   6    7.48    0.46
   8   2   6    7.96    0.39
  -8   2  -6    7.91    0.48
   8   2   6    8.20    0.38
  -8   2  -6    7.51    0.35
  -8   2  -6    8.44    0.48
  -8  -2  -6    8.01    0.45
   8  -2   6    8.07    0.48
  -8  -2  -6    8.47    0.40
  -8  -2  -6    7.52    0.46
   8  -2   6    7.87    0.38
  -8  -2  -6    7.65    0.35
  -8  -2  -6    7.63    0.44
   8  -2   6    7.77    0.47
  -8   2  -7   25.89    0.91
   8   2   7   23.54    0.87
   8   2   7   24.81    0.80
   8   2   7   24.17    0.77
  -8   2  -7   25.01    0.72
  -8   2  -7   25.95    0.90
  -8   2  -7   24.72    0.74
   8  -2   7   25.49    0.88
  -8  -2  -7   25.41    0.80
  -8  -2  -7   25.56    0.89
   8  -2   7   24.55    0.76
   8  -2   7   24.35    0.91
  -8  -2  -7   24.60    0.74
  -8  -2  -7   24.81    0.88
  -8   2  -8   10.46    0.50
   8   2   8   11.76    0.56
  -8   2  -8   10.31    0.64
  -8   2  -8   12.91    0.70
  -8   2  -8   10.89    0.49
   8   2   8   10.55    0.54
   8  -2   8   10.72    0.51
  -8  -2  -8   11.18    0.52
  -8  -2  -8   11.89    0.64
   8  -2   8   11.23    0.69
  -8  -2  -8   10.98    0.55
  -8  -2  -8   10.91    0.65
  -8   2  -9    0.76    0.28
   8   2   9    0.67    0.28
  -8   2  -9    0.76    0.35
  -8   2  -9    1.32    0.41
  -8  -2  -9    1.37    0.37
  -8  -2  -9    1.17    0.33
   8  -2   9    0.94    0.27
  -8  -2  -9    1.49    0.37
   8   2  10    1.95    0.42
  -8   2 -10    2.67    0.52
  -8   2 -10    2.41    0.51
   8  -2  10    1.43    0.35
  -8  -2 -10    2.28    0.47
  -8  -2 -10    1.85    0.45
  -8   3  11    0.24    0.31
   8   3 -11    0.36    0.30
   8   3 -11    0.27    0.33
  -8  -3  11    0.15    0.31
   8  -3 -11    0.60    0.35
   8  -3 -11    0.25    0.28
  -8   3  10    0.52    0.28
   8   3 -10   -0.48    0.24
   8   3 -10    0.07    0.29
  -8   3  10   -0.11    0.19
   8   3 -10   -0.06    0.20
   8  -3 -10   -0.12    0.28
   8  -3 -10   -0.22    0.23
   8  -3 -10   -0.11    0.27
  -8  -3  10   -0.07    0.25
  -8   3   9    3.68    0.43
  -8   3   9    3.41    0.41
   8   3  -9    3.66    0.35
   8   3  -9    3.78    0.28
  -8   3   9    4.76    0.46
  -8   3   9    4.70    0.48
   8   3  -9    4.28    0.46
  -8  -3   9    4.06    0.34
   8  -3  -9    3.58    0.36
   8  -3  -9    3.14    0.45
  -8  -3   9    3.91    0.47
   8  -3  -9    4.01    0.49
  -8   3   8    1.84    0.31
  -8   3   8    1.51    0.30
  -8   3   8    1.46    0.21
   8   3  -8    1.74    0.24
   8   3  -8    1.70    0.22
  -8   3   8    1.44    0.29
   8   3  -8    1.63    0.28
  -8  -3   8    1.82    0.28
  -8  -3   8    1.81    0.26
   8  -3  -8    1.41    0.20
   8  -3  -8    1.60    0.27
   8  -3  -8    1.62    0.27
   8   3  -7   10.17    0.53
   8   3  -7    9.57    0.37
  -8   3   7   10.15    0.52
  -8   3   7    9.60    0.38
   8   3  -7    9.71    0.39
   8   3  -7    9.64    0.53
  -8   3   7   10.35    0.55
  -8   3   7    9.07    0.52
  -8   3   7    9.97    0.52
  -8  -3   7   10.32    0.52
  -8  -3   7    9.60    0.38
  -8  -3   7    8.24    0.52
   8  -3  -7   10.38    0.50
   8  -3  -7    9.65    0.37
  -8  -3   7   10.29    0.39
   8  -3  -7    9.58    0.50
   8  -3  -7   10.24    0.50
   8   3  -6   12.69    0.56
   8   3  -6   11.70    0.42
  -8   3   6   12.14    0.58
  -8   3   6   12.45    0.55
   8   3  -6   12.24    0.41
   8   3  -6   11.61    0.54
  -8   3   6   11.56    0.38
  -8   3   6   12.52    0.55
  -8   3   6   12.61    0.54
   8  -3  -6   11.97    0.53
   8  -3  -6   12.16    0.52
  -8  -3   6   12.29    0.41
  -8  -3   6   12.48    0.42
  -8  -3   6   11.96    0.52
  -8  -3   6   11.74    0.56
   8  -3  -6   11.13    0.52
   8   3  -5   11.11    0.40
   8   3  -5   10.75    0.35
  -8   3   5   10.19    0.49
  -8   3   5   10.32    0.48
  -8   3   5   10.66    0.49
   8   3  -5   10.98    0.49
  -8   3   5   10.97    0.52
   8  -3  -5   10.71    0.47
  -8  -3   5   11.02    0.40
  -8  -3   5   10.44    0.51
   8  -3  -5   10.97    0.48
  -8  -3   5   11.22    0.35
   8  -3  -5   10.08    0.47
  -8  -3   5   11.03    0.47
   8   3  -4    9.72    0.45
   8   3  -4    9.89    0.30
  -8   3   4   10.14    0.48
  -8   3   4    9.45    0.45
  -8   3   4    9.67    0.46
  -8   3   4   10.65    0.46
  -8  -3   4    9.81    0.30
   8  -3  -4    9.52    0.43
  -8  -3   4   10.29    0.43
   8  -3  -4    9.10    0.43
  -8  -3   4    9.17    0.46
  -8  -3   4    9.63    0.37
   8  -3  -4   10.14    0.45
  -8   3   3   61.83    1.53
  -8   3   3   63.21    1.56
  -8   3   3   61.61    1.57
  -8   3   3   60.99    1.56
   8  -3  -3   63.70    1.54
  -8  -3   3   63.40    1.58
   8  -3  -3   63.55    1.53
   8  -3  -3   61.38    1.54
  -8  -3   3   63.51    1.52
  -8   3   2    3.32    0.27
  -8   3   2    3.72    0.30
  -8   3   2    3.47    0.29
  -8   3   2    3.43    0.27
  -8  -3   2    3.81    0.28
   8  -3  -2    3.93    0.29
  -8  -3   2    3.95    0.27
   8  -3  -2    3.64    0.27
   8  -3  -2    3.35    0.28
  -8  -3   2    3.66    0.25
   8  -3  -2    3.64    0.29
  -8  -3   2    3.17    0.24
  -8   3   1   16.65    0.56
  -8   3   1   17.34    0.60
  -8   3   1   17.01    0.44
  -8   3   1   17.23    0.58
  -8   3   1   15.95    0.56
  -8  -3   1   16.93    0.59
   8  -3  -1   16.11    0.59
   8  -3  -1   16.96    0.54
   8  -3  -1   16.34    0.58
  -8  -3   1   17.06    0.55
   8  -3  -1   16.91    0.58
  -8  -3   1   15.89    0.55
  -8  -3   1   16.94    0.54
  -8   3   0    5.16    0.32
  -8   3   0    5.24    0.24
  -8   3   0    5.41    0.33
  -8   3   0    4.67    0.29
   8  -3   0    4.72    0.31
  -8  -3   0    5.24    0.30
  -8  -3   0    5.73    0.31
  -8  -3   0    4.97    0.30
   8  -3   0    5.42    0.28
   8  -3   0    5.32    0.34
  -8  -3   0    5.06    0.28
  -8  -3   0    5.03    0.30
  -8   3  -1    1.71    0.23
  -8   3  -1    1.67    0.19
  -8   3  -1    1.98    0.22
  -8   3  -1    1.73    0.25
  -8  -3  -1    1.67    0.20
   8  -3   1    1.74    0.19
  -8  -3  -1    1.50    0.21
  -8  -3  -1    2.12    0.24
   8  -3   1    1.90    0.26
  -8  -3  -1    1.69    0.22
   8  -3   1    1.74    0.17
   8  -3   1    1.59    0.23
  -8   3  -2   40.85    1.12
  -8   3  -2   39.54    1.10
  -8   3  -2   41.11    1.04
  -8   3  -2   40.90    1.01
   8  -3   2   39.19    1.01
   8  -3   2   40.76    1.08
   8  -3   2   40.22    1.00
  -8  -3  -2   40.86    1.09
  -8  -3  -2   40.73    1.12
   8  -3   2   41.68    1.05
  -8  -3  -2   39.91    1.04
  -8  -3  -2   39.32    1.09
   8  -3   2   40.17    1.13
  -8   3  -3    2.58    0.23
  -8   3  -3    2.30    0.29
  -8   3  -3    2.20    0.25
  -8   3  -3    1.97    0.27
  -8  -3  -3    2.34    0.27
   8  -3   3    2.36    0.22
  -8  -3  -3    2.43    0.16
  -8  -3  -3    2.15    0.15
  -8  -3  -3    2.56    0.26
   8  -3   3    2.38    0.30
   8  -3   3    2.80    0.27
  -8  -3  -3    2.93    0.29
   8  -3   3    2.44    0.27
   8  -3   3    2.33    0.26
  -8  -3  -3    2.67    0.25
   8   3   4   31.38    0.78
  -8   3  -4   29.90    0.80
  -8   3  -4   31.04    0.92
  -8   3  -4   31.53    0.96
   8   3   4   29.71    0.87
  -8   3  -4   30.81    0.95
   8  -3   4   30.39    0.91
  -8  -3  -4   31.41    0.94
   8  -3   4   30.22    0.87
  -8  -3  -4   31.04    0.93
  -8  -3  -4   32.20    0.78
   8  -3   4   31.33    0.80
  -8  -3  -4   31.10    0.97
   8  -3   4   32.02    0.90
   8  -3   4   30.79    0.97
  -8  -3  -4   30.89    0.85
   8   3   5    4.64    0.34
  -8   3  -5    4.99    0.42
  -8   3  -5    5.16    0.39
  -8   3  -5    4.26    0.39
   8   3   5    5.24    0.28
  -8   3  -5    4.80    0.28
   8  -3   5    4.58    0.40
  -8  -3  -5    4.57    0.29
   8  -3   5    4.94    0.35
  -8  -3  -5    4.04    0.32
  -8  -3  -5    5.28    0.42
   8  -3   5    5.30    0.43
  -8  -3  -5    5.28    0.38
   8  -3   5    5.29    0.39
  -8  -3  -5    4.47    0.36
   8   3   6    0.80    0.18
  -8   3  -6    0.30    0.25
  -8   3  -6    0.66    0.24
   8   3   6    0.63    0.20
  -8   3  -6    0.75    0.17
  -8   3  -6    0.59    0.22
   8   3   6    0.95    0.27
  -8   3  -6    0.55    0.15
   8  -3   6    0.68    0.22
  -8  -3  -6    0.60    0.19
  -8  -3  -6    0.74    0.18
   8  -3   6    0.82    0.28
   8  -3   6    0.88    0.28
  -8  -3  -6    0.95    0.20
  -8  -3  -6    0.69    0.23
  -8   3  -7    0.76    0.30
  -8   3  -7    0.55    0.26
  -8   3  -7    0.90    0.17
   8   3   7    0.74    0.21
  -8   3  -7    0.77    0.20
  -8   3  -7    0.98    0.30
   8   3   7    0.36    0.21
  -8  -3  -7    0.72    0.24
  -8  -3  -7    1.07    0.25
   8  -3   7    0.64    0.24
  -8  -3  -7    0.79    0.23
  -8  -3  -7    0.48    0.25
   8  -3   7    0.61    0.37
  -8   3  -8   16.45    0.83
  -8   3  -8   17.87    0.85
   8   3   8   17.42    0.73
  -8  -3  -8   15.29    0.68
  -8  -3  -8   16.56    0.79
  -8  -3  -8   16.09    0.83
   8  -3   8   15.86    0.72
   8  -3   8   13.71    0.85
  -8   3  -9    8.56    0.78
   8   3   9    7.77    0.63
  -8   3  -9    7.21    0.76
  -8  -3  -9    7.62    0.73
  -8  -3  -9    5.47    0.74
   8  -3   9    6.66    0.61
  -8   4  10    1.80    0.35
  -8   4  10    2.68    0.51
   8   4 -10    2.04    0.29
   8   4 -10    1.98    0.48
  -8  -4  10    1.74    0.45
   8  -4 -10    1.71    0.40
   8   4  -9    0.96    0.37
  -8   4   9    1.65    0.40
  -8   4   9    1.65    0.31
   8   4  -9    2.05    0.25
  -8  -4   9    2.81    0.43
   8  -4  -9    2.17    0.38
   8   4  -8    1.39    0.33
  -8   4   8    1.73    0.30
   8   4  -8    1.92    0.23
  -8   4   8    2.18    0.40
   8  -4  -8    1.07    0.29
  -8  -4   8    1.81    0.33
   8  -4  -8    1.16    0.31
   8   4  -7    1.47    0.32
   8   4  -7    1.14    0.17
  -8   4   7    1.17    0.29
  -8   4   7    1.72    0.33
  -8   4   7    1.48    0.30
  -8  -4   7    1.03    0.28
   8  -4  -7    1.44    0.33
   8  -4  -7    1.49    0.31
  -8  -4   7    1.33    0.18
   8   4  -6    1.82    0.21
  -8   4   6    2.01    0.33
  -8   4   6    1.46    0.24
  -8   4   6    1.96    0.33
   8   4  -6    2.37    0.33
   8  -4  -6    1.53    0.27
  -8  -4   6    1.88    0.29
  -8  -4   6    1.92    0.26
   8  -4  -6    2.70    0.38
   8   4  -5    1.33    0.24
  -8   4   5    1.36    0.24
  -8   4   5    1.24    0.25
  -8   4   5    1.10    0.27
  -8   4   5    1.12    0.28
   8  -4  -5    1.38    0.26
  -8  -4   5    0.73    0.24
  -8  -4   5    1.46    0.20
  -8  -4   5    1.12    0.23
  -8  -4   5    1.07    0.13
   8  -4  -5    0.82    0.22
   8  -4  -5    1.19    0.27
  -8   4   4    6.59    0.44
  -8   4   4    7.22    0.49
  -8   4   4    7.14    0.49
  -8   4   4    7.01    0.45
   8  -4  -4    7.82    0.46
  -8  -4   4    6.51    0.35
   8  -4  -4    7.28    0.44
  -8  -4   4    7.05    0.45
   8  -4  -4    7.15    0.49
  -8  -4   4    6.97    0.49
  -8   4   3    6.40    0.41
  -8   4   3    6.13    0.44
  -8   4   3    6.31    0.41
  -8   4   3    6.64    0.47
  -8  -4   3    6.28    0.40
   8  -4  -3    6.83    0.41
  -8  -4   3    6.08    0.44
  -8  -4   3    6.93    0.36
  -8  -4   3    6.28    0.46
   8  -4  -3    6.87    0.46
   8  -4  -3    6.24    0.41
  -8   4   2    0.64    0.20
  -8   4   2    0.71    0.21
  -8   4   2    0.91    0.21
  -8   4   2    0.79    0.20
  -8  -4   2    1.04    0.21
   8  -4  -2    0.88    0.20
  -8  -4   2    0.72    0.18
   8  -4  -2    0.52    0.18
   8  -4  -2    1.05    0.25
  -8  -4   2    0.86    0.24
  -8  -4   2    0.76    0.17
  -8  -4   2    0.91    0.22
  -8   4   1    2.09    0.28
  -8   4   1    1.73    0.24
  -8   4   1    1.88    0.27
  -8  -4   1    2.33    0.30
  -8  -4   1    1.95    0.27
  -8  -4   1    2.02    0.30
   8  -4  -1    1.62    0.24
  -8  -4   1    1.87    0.28
  -8  -4   1    1.62    0.23
  -8  -4   1    1.88    0.27
   8  -4  -1    1.68    0.25
   8  -4  -1    1.98    0.27
   8  -4  -1    1.63    0.21
  -8   4   0    2.10    0.30
  -8   4   0    2.67    0.35
  -8   4   0    2.35    0.31
  -8  -4   0    2.00    0.30
   8  -4   0    2.41    0.31
  -8  -4   0    2.16    0.28
   8  -4   0    2.48    0.31
  -8  -4   0    2.82    0.30
  -8  -4   0    2.24    0.32
   8  -4   0    1.81    0.25
  -8  -4   0    2.47    0.29
  -8  -4   0    2.34    0.28
  -8   4  -1    8.52    0.33
  -8   4  -1    8.75    0.47
  -8   4  -1    8.23    0.46
  -8   4  -1    7.56    0.39
  -8  -4  -1    8.16    0.43
  -8  -4  -1    7.53    0.45
  -8  -4  -1    8.17    0.44
  -8  -4  -1    7.08    0.45
  -8  -4  -1    8.56    0.46
   8  -4   1    7.69    0.36
   8  -4   1    7.83    0.31
   8  -4   1    7.75    0.47
   8  -4   1    8.57    0.48
  -8   4  -2    0.67    0.19
  -8   4  -2    0.77    0.21
  -8   4  -2    0.84    0.23
  -8   4  -2    0.99    0.18
   8  -4   2    0.84    0.20
  -8  -4  -2    0.52    0.21
  -8  -4  -2    1.23    0.24
   8  -4   2    1.05    0.16
  -8  -4  -2    1.13    0.22
   8  -4   2    1.16    0.24
   8  -4   2    1.02    0.17
  -8  -4  -2    1.01    0.22
   8  -4   2    1.07    0.24
  -8  -4  -2    0.83    0.17
  -8   4  -3    0.98    0.25
  -8   4  -3    1.20    0.21
  -8   4  -3    1.19    0.27
  -8   4  -3    1.01    0.18
   8  -4   3    1.30    0.24
   8  -4   3    1.02    0.25
   8  -4   3    1.35    0.16
  -8  -4  -3    1.17    0.24
   8  -4   3    1.41    0.28
   8  -4   3    1.20    0.21
  -8  -4  -3    1.40    0.27
  -8  -4  -3    1.09    0.26
  -8  -4  -3    1.47    0.26
  -8   4  -4   28.21    0.88
  -8   4  -4   27.47    0.94
  -8   4  -4   27.91    0.94
  -8   4  -4   26.75    0.73
  -8  -4  -4   28.98    0.97
   8  -4   4   27.22    0.72
   8  -4   4   25.80    0.95
   8  -4   4   28.39    0.90
  -8  -4  -4   28.45    0.90
  -8  -4  -4   27.51    0.89
   8  -4   4   28.06    0.85
   8  -4   4   26.59    0.94
  -8   4  -5    2.82    0.40
  -8   4  -5    2.94    0.35
  -8   4  -5    2.44    0.24
  -8   4  -5    2.20    0.35
  -8  -4  -5    2.77    0.32
  -8  -4  -5    2.45    0.37
  -8  -4  -5    2.88    0.37
   8  -4   5    3.07    0.40
   8  -4   5    2.60    0.34
   8  -4   5    2.22    0.32
   8  -4   5    3.29    0.41
  -8   4  -6    3.43    0.52
  -8   4  -6    4.16    0.50
   8   4   6    3.74    0.30
   8   4   6    3.32    0.47
   8  -4   6    3.32    0.43
   8  -4   6    3.92    0.45
   8  -4   6    4.48    0.48
  -8  -4  -6    3.49    0.48
  -8  -4  -6    4.39    0.46
  -8  -4  -6    3.39    0.35
  -8  -4  -6    4.19    0.51
  -8   4  -7    1.23    0.40
  -8   4  -7    1.46    0.35
   8   4   7    1.56    0.36
   8   4   7    1.88    0.26
  -8  -4  -7    0.91    0.35
   8  -4   7    2.41    0.38
  -8  -4  -7    1.63    0.38
  -8  -4  -7    1.74    0.37
  -8   4  -8    0.25    0.45
   8   4   8    0.84    0.39
   8  -4   8    0.43    0.38
  -8  -4  -8    1.26    0.42
  -8   5   8    1.45    0.45
  -8   5   8    1.45    0.44
   8   5  -8    1.16    0.24
   8   5  -8    1.31    0.44
   8  -5  -8    1.50    0.40
  -8  -5   8    2.02    0.44
   8   5  -7    5.51    0.33
  -8   5   7    6.85    0.75
   8   5  -7    6.06    0.65
  -8   5   7    5.71    0.58
   8  -5  -7    6.32    0.64
  -8  -5   7    5.12    0.60
  -8   5   6    2.54    0.36
  -8   5   6    2.59    0.40
  -8  -5   6    3.66    0.35
  -8  -5   6    2.73    0.40
   8  -5  -6    2.72    0.38
  -8   5   5   11.73    0.62
  -8   5   5   12.27    0.74
  -8  -5   5   11.02    0.67
  -8  -5   5   11.09    0.48
  -8  -5   5   11.43    0.47
   8  -5  -5   10.89    0.65
   8  -5  -5   11.26    0.65
  -8   5   4   -0.12    0.22
  -8   5   4    0.03    0.25
  -8   5   4   -0.21    0.41
  -8  -5   4    0.10    0.17
   8  -5  -4    0.30    0.27
  -8  -5   4    0.06    0.21
   8  -5  -4    0.00    0.25
  -8  -5   4    0.08    0.25
  -8  -5   4   -0.27    0.31
  -8   5   3    0.52    0.22
  -8   5   3    0.74    0.27
  -8   5   3    0.68    0.27
  -8   5   3    1.12    0.38
  -8  -5   3    0.87    0.24
   8  -5  -3    0.73    0.25
  -8  -5   3    0.31    0.24
  -8  -5   3    0.35    0.29
   8  -5  -3    0.49    0.27
  -8  -5   3    0.37    0.19
  -8   5   2    0.11    0.25
  -8   5   2    0.65    0.34
  -8   5   2    0.18    0.19
  -8  -5   2    0.09    0.21
  -8  -5   2   -0.30    0.19
  -8  -5   2    0.17    0.23
   8  -5  -2   -0.10    0.21
   8  -5  -2    0.04    0.25
  -8  -5   2   -0.06    0.20
  -8  -5   2    0.09    0.35
  -8  -5   2   -0.56    0.26
  -8   5   1    0.24    0.30
  -8   5   1   -0.07    0.24
  -8   5   1    0.09    0.22
  -8  -5   1    0.05    0.19
  -8  -5   1   -0.15    0.24
  -8  -5   1    0.04    0.22
  -8  -5   1   -0.17    0.20
  -8  -5   1    0.33    0.28
  -8  -5   1    0.66    0.25
   8  -5  -1   -0.08    0.19
  -8   5   0   10.11    0.60
  -8   5   0   10.42    0.60
  -8   5   0   10.14    0.54
  -8  -5   0   10.77    0.59
  -8  -5   0    9.91    0.52
  -8  -5   0   10.60    0.55
  -8  -5   0    9.87    0.58
  -8  -5   0   10.41    0.57
   8  -5   0    9.58    0.49
  -8  -5   0    9.38    0.62
  -8   5  -1    9.47    0.56
  -8   5  -1    9.22    0.61
  -8   5  -1    9.17    0.53
  -8  -5  -1    7.35    0.48
   8  -5   1    8.50    0.43
  -8  -5  -1    9.16    0.56
  -8  -5  -1    9.08    0.57
   8  -5   1    9.34    0.56
  -8  -5  -1    8.38    0.61
  -8  -5  -1    9.62    0.53
  -8  -5  -1    8.15    0.59
  -8   5  -2    1.61    0.31
  -8   5  -2    2.08    0.29
   8  -5   2    1.18    0.19
   8  -5   2    1.63    0.22
  -8  -5  -2    1.51    0.34
  -8  -5  -2    1.28    0.27
  -8  -5  -2    1.69    0.33
   8  -5   2    1.57    0.33
  -8  -5  -2    1.56    0.38
  -8   5  -3    1.36    0.27
  -8   5  -3    1.37    0.28
  -8  -5  -3    1.66    0.37
   8  -5   3    1.38    0.19
   8  -5   3    1.58    0.25
  -8  -5  -3    1.53    0.31
   8  -5   3    1.72    0.33
  -8  -5  -3    1.15    0.26
  -8  -5  -3    1.04    0.32
  -8   5  -4    6.06    0.52
  -8   5  -4    5.00    0.53
  -8  -5  -4    5.45    0.65
  -8  -5  -4    6.16    0.62
   8  -5   4    5.84    0.57
  -8  -5  -4    5.44    0.50
  -8   5  -5    3.84    0.56
  -8   5  -5    4.94    0.65
  -8  -5  -5    5.58    0.74
  -8  -5  -5    4.45    0.55
   8  -5   5    5.47    0.66
  -8   6   4    0.20    0.35
   8  -6  -4   -0.06    0.36
  -8  -6   4    0.33    0.39
  -8   6   3    4.48    0.57
  -8  -6   3    5.49    0.56
  -8  -6   3    3.74    0.49
  -8  -6   3    3.49    0.44
   8  -6  -3    4.92    0.63
  -8   6   2    4.55    0.57
  -8  -6   2    4.97    0.60
   8  -6  -2    5.26    0.61
  -8  -6   2    5.44    0.58
  -8  -6   2    6.46    0.65
  -8   6   1    0.69    0.27
  -8  -6   1    0.98    0.37
   8  -6  -1    0.78    0.32
  -8  -6   1    1.29    0.35
  -8  -6   1    0.31    0.34
  -8   6   0   -0.06    0.33
  -8  -6   0    0.16    0.33
   8  -6   0   -0.04    0.28
  -8  -6   0   -0.59    0.32
   8  -6   0   -0.62    0.34
  -8  -6   0   -0.72    0.32
  -8   6  -1    2.32    0.37
  -8  -6  -1    3.04    0.47
   8  -6   1    2.82    0.45
  -8  -6  -1    1.80    0.47
  -8  -6  -1    2.08    0.40
  -8   6  -2    0.14    0.36
  -8  -6  -2    0.34    0.35
  -8  -6  -2   -0.08    0.37
  -8  -6  -2    0.08    0.31
   8  -6   2    0.26    0.37
   9   0 -12   33.12    1.21
   9   0 -12   34.20    1.11
  -9   0  12   34.52    1.19
  -9   0  11   -0.12    0.21
  -9   0  11    0.41    0.28
   9   0 -11   -0.14    0.25
   9   0 -11    0.19    0.27
  -9   0  11    0.05    0.30
   9   0 -11   -0.02    0.23
   9   0 -10   11.42    0.59
  -9   0  10   13.05    0.61
  -9   0  10   12.96    0.65
  -9   0  10   11.60    0.70
   9   0 -10   13.03    0.63
   9   0 -10   13.94    0.59
  -9   0  10   13.87    0.67
   9   0  -9    0.00    0.19
  -9   0   9    0.00    0.14
   9   0  -9    0.00    0.15
   9   0  -9    0.15    0.20
  -9   0   9    0.15    0.20
   9   0  -9    0.01    0.16
  -9   0   9   -0.06    0.19
  -9   0   9   -0.29    0.19
   9   0  -8    0.06    0.15
  -9   0   8   -0.07    0.17
  -9   0   8    0.09    0.13
   9   0  -8    0.05    0.14
  -9   0   8    0.00    0.16
   9   0  -8    0.18    0.13
  -9   0   8    0.11    0.13
   9   0  -8   -0.26    0.14
   9   0  -7   -0.18    0.12
  -9   0   7   -0.03    0.13
  -9   0   7    0.03    0.11
   9   0  -7   -0.07    0.12
  -9   0   7   -0.01    0.12
   9   0  -7   -0.06    0.12
  -9   0   7   -0.03    0.13
   9   0  -7   -0.08    0.11
   9   0  -6   33.75    0.91
  -9   0   6   34.10    0.93
  -9   0   6   34.40    0.92
   9   0  -6   34.02    0.91
  -9   0   6   33.85    0.92
   9   0  -6   33.31    0.91
   9   0  -6   34.12    0.95
  -9   0   6   34.25    0.96
  -9   0   5    0.08    0.08
  -9   0   5   -0.09    0.08
   9   0  -5   -0.05    0.09
  -9   0   5    0.03    0.09
   9   0  -5   -0.01    0.08
  -9   0   5   -0.16    0.08
   9   0  -5   -0.02    0.08
   9   0  -5   -0.01    0.08
  -9   0   5    0.03    0.10
   9   0  -4   50.58    1.23
   9   0  -4   51.16    1.20
   9   0  -4   51.93    1.25
   9   0  -4   51.01    1.22
  -9   0   4   50.63    1.24
  -9   0   4   50.60    1.20
  -9   0   4   50.79    1.24
  -9   0   3    0.05    0.07
   9   0  -3   -0.05    0.06
  -9   0   3   -0.04    0.06
   9   0  -3   -0.06    0.06
  -9   0   3   -0.03    0.05
  -9   0   3   -0.02    0.07
   9   0  -3    0.01    0.08
  -9   0   3    0.10    0.08
  -9   0   2   66.85    1.48
  -9   0   2   68.83    1.57
  -9   0   2   68.03    1.59
   9   0  -2   66.26    1.47
  -9   0   2   68.84    1.55
   9   0  -2   68.30    1.57
   9   0  -2   68.24    1.55
   9   0  -1   -0.02    0.04
   9   0  -1    0.06    0.07
   9   0  -1   -0.05    0.07
  -9   0   1    0.13    0.06
  -9   0   1    0.07    0.08
  -9   0   1   -0.08    0.06
  -9   0   1   -0.02    0.04
  -9   0   1   -0.07    0.06
  -9   0   0    7.44    0.30
   9   0   0    7.19    0.31
  -9   0   0    7.39    0.31
  -9   0   0    7.45    0.28
  -9   0   0    7.02    0.29
   9   0   1   -0.08    0.07
  -9   0  -1    0.04    0.06
  -9   0  -1    0.17    0.07
  -9   0  -1    0.06    0.05
  -9   0  -1   -0.09    0.07
  -9   0  -2   53.76    1.28
  -9   0  -2   54.64    1.33
   9   0   2   53.40    1.30
  -9   0  -2   53.67    1.29
   9   0   2   53.18    1.31
  -9   0  -2   52.61    1.29
   9   0   2   53.71    1.31
  -9   0  -3    0.05    0.09
   9   0   3    0.02    0.09
  -9   0  -3    0.07    0.09
  -9   0  -3    0.12    0.11
   9   0   3   -0.17    0.07
  -9   0  -3    0.08    0.10
   9   0   4   33.07    0.94
  -9   0  -4   34.16    0.92
  -9   0  -4   34.22    0.93
  -9   0  -4   33.69    0.97
   9   0   4   33.87    0.94
  -9   0  -5    0.11    0.11
   9   0   5    0.16    0.12
   9   0   5   -0.14    0.13
  -9   0  -5   -0.01    0.14
   9   0   5   -0.10    0.08
  -9   0  -5    0.03    0.08
  -9   0  -5   -0.02    0.12
   9   0   6    1.53    0.23
  -9   0  -6    1.61    0.26
  -9   0  -6    1.50    0.22
  -9   0  -6    2.31    0.28
  -9   0  -6    1.75    0.19
   9   0   6    1.53    0.20
   9   0   6    1.58    0.23
  -9   0  -6    1.69    0.23
   9   0   7    0.19    0.17
  -9   0  -7    0.02    0.18
  -9   0  -7    0.09    0.16
  -9   0  -7   -0.09    0.14
  -9   0  -7    0.01    0.17
   9   0   7   -0.16    0.14
  -9   0  -7    0.61    0.21
  -9   0  -8    1.09    0.27
  -9   0  -8    0.63    0.22
  -9   0  -8    0.53    0.24
  -9   0  -8    0.64    0.24
   9   0   8    0.60    0.22
  -9   0  -8    0.21    0.20
   9   0   8    0.34    0.24
  -9   0  -9   -0.18    0.26
   9   0   9   -0.14    0.21
  -9   0  -9    0.06    0.26
  -9   0  -9    0.58    0.30
  -9   0  -9   -0.09    0.23
   9   0  10    2.67    0.44
  -9   0 -10    2.35    0.45
  -9   0 -10    2.71    0.43
   9   1 -12    0.32    0.32
   9   1 -12    0.34    0.28
  -9   1  12    0.56    0.31
   9   1 -12   -0.20    0.27
   9  -1 -12    0.15    0.30
  -9  -1  12    0.07    0.44
  -9  -1  12    0.83    0.34
   9  -1 -12    0.26    0.35
   9  -1 -12    1.13    0.35
   9   1 -11   24.86    0.91
   9   1 -11   24.65    0.97
   9   1 -11   24.18    0.82
  -9   1  11   24.17    0.98
  -9   1  11   26.14    0.98
  -9  -1  11   25.03    0.91
   9  -1 -11   25.01    0.93
  -9  -1  11   25.27    0.92
   9  -1 -11   24.83    0.94
   9  -1 -11   24.93    0.92
  -9   1  10    3.65    0.49
   9   1 -10    4.57    0.46
   9   1 -10    4.24    0.38
  -9   1  10    4.86    0.51
  -9   1  10    4.89    0.44
   9   1 -10    4.88    0.41
  -9  -1  10    3.52    0.47
   9  -1 -10    3.97    0.44
   9  -1 -10    4.84    0.44
   9  -1 -10    4.53    0.45
  -9  -1  10    4.95    0.49
  -9  -1  10    3.86    0.39
   9   1  -9    2.12    0.30
  -9   1   9    1.38    0.25
  -9   1   9    3.09    0.42
   9   1  -9    2.04    0.30
   9   1  -9    2.05    0.29
  -9   1   9    2.24    0.29
   9   1  -9    2.27    0.32
  -9   1   9    2.21    0.30
   9  -1  -9    1.85    0.28
   9  -1  -9    1.94    0.27
   9  -1  -9    1.49    0.26
  -9  -1   9    1.87    0.25
  -9  -1   9    2.32    0.31
  -9  -1   9    2.00    0.27
   9  -1  -9    2.38    0.34
  -9  -1   9    1.62    0.28
  -9   1   8    8.59    0.47
  -9   1   8    8.99    0.45
  -9   1   8    8.93    0.47
   9   1  -8    8.49    0.40
   9   1  -8    9.06    0.46
  -9   1   8    9.49    0.47
   9   1  -8    8.51    0.41
   9   1  -8    9.26    0.48
   9  -1  -8    8.85    0.47
  -9  -1   8    8.66    0.44
   9  -1  -8    8.91    0.44
  -9  -1   8    8.43    0.47
  -9  -1   8    8.89    0.44
  -9  -1   8    8.58    0.43
   9  -1  -8    9.35    0.46
   9  -1  -8    8.83    0.44
   9   1  -7   19.32    0.68
   9   1  -7   19.27    0.61
   9   1  -7   18.08    0.63
   9   1  -7   18.67    0.59
  -9   1   7   19.00    0.64
  -9   1   7   19.32    0.67
  -9   1   7   18.97    0.65
  -9   1   7   18.27    0.66
   9  -1  -7   18.41    0.64
  -9  -1   7   19.23    0.64
  -9  -1   7   18.12    0.61
   9  -1  -7   18.57    0.64
   9  -1  -7   18.67    0.65
   9  -1  -7   18.56    0.63
  -9  -1   7   18.69    0.61
  -9  -1   7   18.53    0.68
   9   1  -6    9.92    0.42
  -9   1   6    9.16    0.43
   9   1  -6   10.00    0.39
  -9   1   6    9.94    0.43
  -9   1   6   10.38    0.43
  -9   1   6    9.80    0.43
   9   1  -6   10.54    0.45
  -9   1   6    9.47    0.41
   9   1  -6    9.70    0.39
   9  -1  -6    9.99    0.43
   9  -1  -6    9.50    0.40
  -9  -1   6    9.95    0.44
   9  -1  -6   10.13    0.42
   9  -1  -6    9.84    0.41
  -9  -1   6   10.17    0.40
  -9  -1   6   10.08    0.39
  -9  -1   6   10.02    0.41
  -9   1   5    0.56    0.15
   9   1  -5    0.51    0.11
  -9   1   5    0.46    0.12
  -9   1   5    0.55    0.14
  -9   1   5    0.64    0.14
  -9   1   5    0.95    0.16
   9   1  -5    0.35    0.11
   9   1  -5    0.54    0.13
   9   1  -5    0.54    0.11
  -9  -1   5    0.63    0.12
   9  -1  -5    0.59    0.13
   9  -1  -5    0.56    0.14
  -9  -1   5    0.44    0.13
   9  -1  -5    0.56    0.12
   9  -1  -5    0.73    0.13
  -9  -1   5    0.58    0.10
  -9  -1   5    0.72    0.13
   9   1  -4   12.43    0.42
  -9   1   4   13.31    0.44
   9   1  -4   12.53    0.46
   9   1  -4   13.21    0.41
   9   1  -4   13.62    0.44
  -9   1   4   12.95    0.46
  -9   1   4   12.67    0.47
  -9   1   4   12.60    0.45
  -9   1   4   12.49    0.44
   9  -1  -4   12.96    0.42
   9  -1  -4   12.85    0.45
  -9  -1   4   13.18    0.41
   9  -1  -4   12.96    0.45
  -9  -1   4   12.92    0.48
  -9  -1   4   13.01    0.43
  -9  -1   4   13.54    0.45
  -9  -1   4   13.13    0.42
  -9   1   3    0.07    0.08
  -9   1   3    0.08    0.09
   9   1  -3    0.23    0.08
  -9   1   3    0.23    0.08
  -9   1   3    0.16    0.10
   9   1  -3    0.21    0.09
   9   1  -3    0.26    0.07
  -9   1   3    0.15    0.08
  -9  -1   3    0.17    0.07
   9  -1  -3    0.27    0.10
  -9  -1   3    0.32    0.09
   9  -1  -3    0.16    0.09
  -9  -1   3    0.19    0.08
  -9  -1   3    0.13    0.08
   9  -1  -3    0.18    0.07
  -9  -1   3    0.24    0.09
   9   1  -2   20.64    0.60
   9   1  -2   20.11    0.52
  -9   1   2   19.79    0.59
  -9   1   2   20.74    0.60
  -9   1   2   20.53    0.58
  -9   1   2   20.54    0.57
  -9   1   2   20.97    0.56
  -9   1   2   19.71    0.61
   9   1  -2   20.62    0.54
  -9  -1   2   20.47    0.59
   9  -1  -2   20.81    0.62
   9  -1  -2   19.97    0.59
  -9  -1   2   20.94    0.54
   9  -1  -2   20.14    0.60
  -9  -1   2   20.15    0.52
  -9  -1   2   19.95    0.55
   9  -1  -2   20.03    0.53
   9   1  -1   20.05    0.52
  -9   1   1   20.50    0.58
  -9   1   1   18.77    0.50
  -9   1   1   18.87    0.55
   9   1  -1   19.40    0.58
  -9   1   1   19.42    0.57
  -9   1   1   19.32    0.59
   9  -1  -1   19.04    0.57
  -9  -1   1   19.23    0.56
  -9  -1   1   19.55    0.59
  -9  -1   1   19.50    0.60
   9  -1  -1   19.15    0.60
   9  -1  -1   19.78    0.58
  -9  -1   1   18.80    0.47
  -9  -1   1   19.23    0.51
  -9  -1   1   20.05    0.53
   9  -1  -1   19.51    0.49
   9   1   0    5.81    0.24
  -9   1   0    6.13    0.28
  -9   1   0    5.87    0.28
   9   1   0    6.40    0.30
  -9   1   0    5.45    0.28
  -9  -1   0    6.23    0.23
   9  -1   0    6.19    0.28
   9  -1   0    6.37    0.30
   9  -1   0    5.44    0.28
  -9  -1   0    6.18    0.24
  -9  -1   0    6.34    0.28
  -9  -1   0    5.94    0.29
   9  -1   0    6.04    0.19
   9   1   1    0.23    0.10
   9   1   1    0.16    0.07
  -9   1  -1    0.20    0.09
  -9   1  -1    0.23    0.10
  -9   1  -1    0.06    0.08
  -9   1  -1    0.23    0.10
   9  -1   1    0.25    0.05
   9  -1   1    0.14    0.09
   9  -1   1    0.22    0.09
   9  -1   1    0.10    0.09
  -9  -1  -1    0.14    0.08
  -9  -1  -1    0.14    0.10
   9  -1   1    0.33    0.06
  -9  -1  -1    0.29    0.07
  -9  -1  -1    0.21    0.08
  -9   1  -2   21.77    0.65
   9   1   2   20.88    0.60
  -9   1  -2   21.12    0.61
  -9   1  -2   20.96    0.65
  -9   1  -2   21.30    0.65
   9  -1   2   21.58    0.50
  -9  -1  -2   21.14    0.58
  -9  -1  -2   21.53    0.64
   9  -1   2   21.30    0.67
   9  -1   2   21.54    0.51
   9  -1   2   21.40    0.64
  -9  -1  -2   21.67    0.60
  -9  -1  -2   21.82    0.67
   9  -1   2   21.19    0.62
  -9   1  -3    0.89    0.15
  -9   1  -3    0.79    0.16
  -9   1  -3    1.04    0.15
  -9   1  -3    0.79    0.14
   9   1   3    1.04    0.15
  -9  -1  -3    0.83    0.15
  -9  -1  -3    1.03    0.14
   9  -1   3    1.03    0.15
   9  -1   3    0.91    0.10
   9  -1   3    0.82    0.11
  -9  -1  -3    0.74    0.13
  -9  -1  -3    1.15    0.16
   9  -1   3    0.78    0.15
   9  -1   3    0.89    0.14
   9   1   4   48.96    1.29
  -9   1  -4   51.57    1.32
   9   1   4   49.67    1.24
  -9   1  -4   49.15    1.28
  -9   1  -4   51.46    1.30
   9   1   4   49.22    1.11
  -9   1  -4   49.72    1.23
  -9  -1  -4   49.21    1.23
  -9  -1  -4   48.91    1.10
   9  -1   4   51.55    1.30
   9  -1   4   50.09    1.12
  -9  -1  -4   50.38    1.28
   9  -1   4   49.47    1.31
  -9   1  -5    0.81    0.16
   9   1   5    0.48    0.13
   9   1   5    0.74    0.17
  -9   1  -5    0.71    0.19
   9   1   5    0.68    0.12
  -9   1  -5    0.69    0.18
  -9  -1  -5    0.48    0.14
   9  -1   5    0.73    0.18
  -9  -1  -5    0.82    0.11
   9  -1   5    0.88    0.20
  -9  -1  -5    1.02    0.21
  -9  -1  -5    0.50    0.15
  -9  -1  -5    0.51    0.13
   9  -1   5    0.81    0.11
   9   1   6   47.63    1.15
  -9   1  -6   49.10    1.36
   9   1   6   45.89    1.30
  -9   1  -6   48.85    1.32
  -9   1  -6   46.39    1.21
   9  -1   6   48.01    1.32
   9  -1   6   47.68    1.14
  -9  -1  -6   47.97    1.13
  -9  -1  -6   48.78    1.32
  -9  -1  -6   47.58    1.29
   9  -1   6   47.38    1.33
  -9  -1  -6   48.64    1.35
  -9  -1  -6   48.78    1.26
  -9   1  -7    1.09    0.20
   9   1   7    1.26    0.19
  -9   1  -7    1.23    0.22
  -9   1  -7    0.63    0.22
  -9   1  -7    1.03    0.24
  -9   1  -7    1.04    0.24
  -9  -1  -7    0.99    0.25
  -9  -1  -7    1.04    0.23
   9  -1   7    1.00    0.18
  -9  -1  -7    1.02    0.18
   9  -1   7    1.13    0.28
  -9  -1  -7    1.55    0.31
  -9  -1  -7    0.93    0.22
  -9   1  -8   -0.12    0.22
  -9   1  -8    0.12    0.24
  -9   1  -8    0.43    0.23
  -9   1  -8    0.28    0.22
   9   1   8    0.43    0.25
  -9   1  -8    0.20    0.22
   9   1   8    0.34    0.19
   9  -1   8    0.36    0.18
  -9  -1  -8    0.33    0.19
   9  -1   8    0.63    0.30
  -9  -1  -8    0.43    0.24
  -9  -1  -8    0.14    0.21
  -9  -1  -8    0.41    0.24
   9   1   9    0.26    0.25
  -9   1  -9    0.27    0.32
  -9   1  -9    0.15    0.31
  -9   1  -9    0.22    0.27
  -9   1  -9    0.01    0.26
  -9   1  -9   -0.35    0.27
  -9  -1  -9    0.26    0.31
  -9  -1  -9    0.07    0.29
   9  -1   9   -0.25    0.22
  -9   1 -10    1.55    0.37
  -9   1 -10    2.84    0.45
  -9  -1 -10    2.63    0.45
   9  -1  10    3.88    0.55
  -9  -1 -10    2.76    0.52
  -9   2  12    0.92    0.36
   9   2 -12    1.35    0.38
   9   2 -12    0.76    0.42
   9  -2 -12    0.99    0.39
   9  -2 -12    1.23    0.40
   9  -2 -12    1.29    0.45
  -9  -2  12    0.82    0.35
   9   2 -11    0.97    0.31
  -9   2  11    1.11    0.39
  -9   2  11    0.54    0.31
   9   2 -11    0.68    0.24
   9   2 -11    0.60    0.33
  -9  -2  11    0.29    0.44
   9  -2 -11    1.03    0.33
  -9  -2  11    0.36    0.25
   9  -2 -11    0.42    0.31
   9  -2 -11    0.71    0.34
  -9   2  10   -0.40    0.30
  -9   2  10    0.02    0.25
   9   2 -10    0.16    0.18
   9   2 -10   -0.27    0.26
   9   2 -10   -0.02    0.23
  -9   2  10   -0.05    0.28
  -9  -2  10    0.22    0.23
   9  -2 -10    0.07    0.24
   9  -2 -10    0.15    0.22
  -9  -2  10    0.20    0.26
   9  -2 -10   -0.06    0.22
   9   2  -9    0.07    0.17
  -9   2   9    0.00    0.21
   9   2  -9    0.33    0.15
  -9   2   9    0.22    0.21
  -9   2   9    0.14    0.22
   9   2  -9    0.37    0.22
   9  -2  -9    0.43    0.19
   9  -2  -9    0.14    0.22
  -9  -2   9    0.17    0.20
   9  -2  -9    0.29    0.20
  -9  -2   9    0.12    0.19
  -9   2   8    5.01    0.41
   9   2  -8    5.38    0.33
   9   2  -8    5.29    0.32
  -9   2   8    4.86    0.42
  -9   2   8    4.48    0.38
   9   2  -8    5.31    0.39
  -9   2   8    4.01    0.40
  -9   2   8    5.20    0.38
   9   2  -8    4.27    0.42
  -9  -2   8    5.53    0.35
  -9  -2   8    4.89    0.40
  -9  -2   8    5.34    0.38
   9  -2  -8    5.01    0.39
   9  -2  -8    4.77    0.40
   9  -2  -8    5.39    0.35
   9  -2  -8    5.07    0.40
  -9  -2   8    5.39    0.35
  -9   2   7    7.27    0.43
  -9   2   7    7.03    0.41
  -9   2   7    7.89    0.40
   9   2  -7    6.95    0.34
   9   2  -7    7.27    0.34
   9   2  -7    7.31    0.42
   9   2  -7    6.61    0.41
  -9   2   7    7.00    0.43
  -9   2   7    7.43    0.43
  -9  -2   7    7.30    0.34
   9  -2  -7    7.82    0.41
  -9  -2   7    7.29    0.36
   9  -2  -7    7.60    0.41
   9  -2  -7    7.58    0.36
  -9  -2   7    6.96    0.43
  -9  -2   7    7.57    0.41
   9  -2  -7    7.44    0.42
   9   2  -6    5.05    0.28
   9   2  -6    5.51    0.27
  -9   2   6    4.25    0.33
  -9   2   6    4.97    0.35
  -9   2   6    5.67    0.36
  -9   2   6    4.57    0.29
   9   2  -6    4.40    0.33
  -9   2   6    5.15    0.36
   9   2  -6    5.06    0.33
   9  -2  -6    4.80    0.32
  -9  -2   6    4.92    0.24
   9  -2  -6    4.75    0.32
  -9  -2   6    5.05    0.34
  -9  -2   6    4.94    0.32
  -9  -2   6    5.13    0.30
   9  -2  -6    4.78    0.32
   9  -2  -6    4.90    0.27
  -9   2   5   37.96    1.06
  -9   2   5   39.00    1.08
  -9   2   5   39.11    1.05
   9   2  -5   37.69    1.02
   9   2  -5   39.40    0.98
   9   2  -5   38.41    0.94
  -9   2   5   37.80    1.06
  -9   2   5   36.88    0.96
   9   2  -5   39.44    1.08
  -9  -2   5   39.24    1.02
  -9  -2   5   39.09    0.98
  -9  -2   5   39.23    0.95
   9  -2  -5   37.50    1.03
  -9  -2   5   39.23    1.09
   9  -2  -5   39.48    1.05
   9  -2  -5   38.87    1.03
   9   2  -4    0.65    0.15
   9   2  -4    0.54    0.09
   9   2  -4    0.27    0.11
   9   2  -4    0.43    0.13
  -9   2   4    0.45    0.11
  -9   2   4    0.32    0.12
  -9   2   4    0.34    0.13
  -9   2   4    0.24    0.12
  -9   2   4    0.41    0.12
  -9  -2   4    0.34    0.10
  -9  -2   4    0.45    0.08
  -9  -2   4    0.39    0.11
  -9  -2   4    0.50    0.13
   9  -2  -4    0.49    0.15
   9  -2  -4    0.23    0.12
  -9  -2   4    0.38    0.11
   9  -2  -4    0.31    0.11
  -9   2   3    0.93    0.12
   9   2  -3    0.92    0.11
  -9   2   3    0.96    0.16
  -9   2   3    0.89    0.16
  -9   2   3    0.93    0.12
  -9   2   3    0.81    0.14
  -9   2   3    0.91    0.15
   9   2  -3    0.68    0.13
  -9  -2   3    0.82    0.10
  -9  -2   3    0.62    0.12
   9  -2  -3    0.73    0.14
   9  -2  -3    0.83    0.14
   9  -2  -3    0.71    0.13
  -9  -2   3    0.90    0.14
  -9  -2   3    0.69    0.14
  -9  -2   3    0.94    0.11
  -9   2   2    1.01    0.14
   9   2  -2    1.52    0.18
   9   2  -2    1.22    0.11
  -9   2   2    1.06    0.16
  -9   2   2    1.30    0.17
  -9   2   2    1.07    0.16
  -9   2   2    1.44    0.20
  -9   2   2    1.23    0.14
   9  -2  -2    1.29    0.15
  -9  -2   2    1.08    0.16
  -9  -2   2    1.03    0.10
   9  -2  -2    1.05    0.15
  -9  -2   2    1.16    0.12
  -9  -2   2    0.99    0.14
   9  -2  -2    1.04    0.17
   9  -2  -2    1.39    0.17
  -9  -2   2    1.32    0.18
  -9   2   1    0.19    0.10
  -9   2   1    0.28    0.11
  -9   2   1    0.15    0.08
   9   2  -1    0.07    0.09
  -9   2   1    0.19    0.09
  -9   2   1    0.19    0.11
  -9  -2   1    0.20    0.05
   9  -2  -1    0.17    0.11
  -9  -2   1    0.02    0.08
  -9  -2   1    0.22    0.06
  -9  -2   1    0.26    0.10
   9  -2  -1    0.18    0.10
   9  -2  -1    0.05    0.11
   9  -2  -1    0.24    0.09
  -9  -2   1    0.35    0.09
  -9  -2   1    0.14    0.09
  -9  -2   1    0.09    0.08
  -9   2   0    8.19    0.32
  -9   2   0    7.48    0.36
  -9   2   0    7.97    0.34
   9  -2   0    8.24    0.39
   9  -2   0    8.09    0.38
  -9  -2   0    8.15    0.36
  -9  -2   0    8.25    0.37
  -9  -2   0    8.26    0.25
  -9  -2   0    7.86    0.30
   9  -2   0    7.93    0.33
  -9  -2   0    8.09    0.24
   9  -2   0    7.49    0.31
  -9  -2   0    7.86    0.27
  -9  -2   0    8.05    0.34
  -9   2  -1    8.31    0.35
  -9   2  -1    8.43    0.39
  -9   2  -1    7.77    0.37
  -9   2  -1    8.57    0.35
   9   2   1    8.71    0.28
  -9  -2  -1    9.15    0.37
  -9  -2  -1    7.98    0.29
   9  -2   1    8.34    0.32
   9  -2   1    8.88    0.34
  -9  -2  -1    8.81    0.28
   9  -2   1    8.60    0.31
   9  -2   1    8.31    0.38
   9  -2   1    8.75    0.34
  -9  -2  -1    8.71    0.26
  -9  -2  -1    8.45    0.29
  -9  -2  -1    8.82    0.38
   9   2   2    0.00    0.07
  -9   2  -2   -0.04    0.10
  -9   2  -2   -0.08    0.09
  -9   2  -2   -0.05    0.12
  -9   2  -2    0.04    0.10
   9  -2   2    0.09    0.08
   9  -2   2    0.03    0.08
  -9  -2  -2    0.06    0.10
  -9  -2  -2    0.02    0.09
   9  -2   2   -0.04    0.10
   9  -2   2   -0.11    0.11
  -9  -2  -2   -0.02    0.06
  -9  -2  -2    0.11    0.08
  -9  -2  -2    0.07    0.08
   9  -2   2    0.00    0.09
  -9   2  -3   51.58    1.29
  -9   2  -3   50.16    1.31
   9   2   3   49.69    1.17
  -9   2  -3   50.49    1.29
  -9   2  -3   50.54    1.21
   9  -2   3   49.02    1.31
  -9  -2  -3   46.87    1.15
  -9  -2  -3   48.62    1.28
  -9  -2  -3   49.82    1.17
   9  -2   3   49.74    1.26
   9  -2   3   50.74    1.22
   9  -2   3   49.11    1.17
  -9  -2  -3   50.84    1.31
   9  -2   3   48.44    1.19
  -9  -2  -3   48.66    1.13
   9   2   4    0.81    0.17
  -9   2  -4    0.48    0.19
   9   2   4    0.81    0.14
  -9   2  -4    0.32    0.16
  -9   2  -4    0.79    0.20
  -9   2  -4    0.53    0.15
   9   2   4    0.65    0.13
   9  -2   4    0.75    0.18
  -9  -2  -4    0.76    0.16
  -9  -2  -4    0.76    0.16
  -9  -2  -4    0.78    0.12
   9  -2   4    0.51    0.15
  -9  -2  -4    0.64    0.17
   9  -2   4    0.57    0.15
   9  -2   4    0.39    0.12
   9  -2   4    0.65    0.13
  -9  -2  -4    0.42    0.11
   9   2   5   -0.14    0.16
   9   2   5    0.00    0.11
   9   2   5    0.09    0.12
  -9   2  -5    0.09    0.16
  -9   2  -5   -0.24    0.17
  -9   2  -5   -0.05    0.15
  -9   2  -5    0.20    0.16
   9  -2   5    0.06    0.18
  -9  -2  -5    0.08    0.10
  -9  -2  -5   -0.08    0.13
  -9  -2  -5   -0.02    0.13
  -9  -2  -5    0.13    0.15
   9  -2   5   -0.16    0.12
  -9  -2  -5    0.01    0.15
   9  -2   5    0.03    0.12
   9   2   6   41.28    1.09
  -9   2  -6   39.60    1.19
  -9   2  -6   39.70    1.19
  -9   2  -6   39.23    1.17
   9   2   6   37.82    1.15
  -9   2  -6   38.59    1.03
   9   2   6   39.56    1.03
  -9  -2  -6   39.52    1.19
  -9  -2  -6   40.55    1.20
  -9  -2  -6   40.18    1.00
  -9  -2  -6   39.29    1.06
   9  -2   6   41.03    1.21
   9  -2   6   38.28    1.15
  -9  -2  -6   40.51    1.20
   9  -2   6   40.19    1.03
  -9   2  -7    0.43    0.30
  -9   2  -7    0.61    0.29
  -9   2  -7    0.82    0.20
   9   2   7    0.49    0.18
  -9   2  -7    0.55    0.21
   9   2   7    0.63    0.23
  -9   2  -7    0.69    0.22
   9  -2   7    0.79    0.26
   9  -2   7    0.76    0.18
  -9  -2  -7    0.93    0.25
  -9  -2  -7    0.44    0.24
  -9  -2  -7    0.81    0.20
  -9  -2  -7    0.39    0.26
  -9   2  -8   -0.08    0.24
   9   2   8    0.47    0.22
  -9   2  -8    0.41    0.29
  -9   2  -8    0.47    0.22
  -9   2  -8    0.34    0.30
   9  -2   8    0.32    0.30
  -9  -2  -8    0.38    0.30
  -9  -2  -8    0.41    0.24
   9  -2   8    0.33    0.22
  -9  -2  -8    0.40    0.25
   9   2   9    1.70    0.32
  -9   2  -9    1.66    0.33
  -9   2  -9    1.71    0.38
  -9   2  -9    1.36    0.43
  -9  -2  -9    2.24    0.45
  -9  -2  -9    2.06    0.43
   9  -2   9    2.08    0.33
   9   3 -11    1.27    0.42
  -9   3  11    0.63    0.41
   9   3 -11    0.54    0.28
  -9   3  11    0.87    0.37
  -9  -3  11    0.77    0.36
   9  -3 -11    0.61    0.36
   9  -3 -11    0.52    0.32
  -9   3  10    0.56    0.29
   9   3 -10    1.22    0.32
   9   3 -10    0.26    0.29
  -9   3  10    0.94    0.33
   9   3 -10    0.30    0.21
   9  -3 -10   -0.02    0.30
   9  -3 -10    0.21    0.28
  -9  -3  10    0.25    0.30
   9  -3 -10    0.14    0.25
  -9   3   9    0.93    0.29
   9   3  -9    1.49    0.32
  -9   3   9    1.00    0.25
   9   3  -9    1.62    0.24
   9   3  -9    1.07    0.19
  -9   3   9    1.21    0.32
  -9   3   9    1.12    0.26
   9  -3  -9    1.34    0.22
   9  -3  -9    1.28    0.31
  -9  -3   9    1.05    0.26
   9  -3  -9    0.88    0.27
  -9  -3   9    1.30    0.22
   9   3  -8    6.74    0.35
  -9   3   8    7.04    0.52
  -9   3   8    6.41    0.39
  -9   3   8    6.75    0.58
   9   3  -8    6.63    0.52
   9   3  -8    7.88    0.38
   9  -3  -8    6.60    0.47
   9  -3  -8    6.39    0.36
  -9  -3   8    6.79    0.49
  -9  -3   8    7.25    0.39
   9  -3  -8    7.75    0.50
   9   3  -7    0.24    0.12
   9   3  -7   -0.07    0.14
  -9   3   7   -0.10    0.14
  -9   3   7   -0.01    0.19
  -9   3   7    0.01    0.21
  -9   3   7   -0.15    0.19
   9   3  -7    0.12    0.17
   9   3  -7   -0.12    0.21
  -9   3   7    0.16    0.19
  -9  -3   7    0.11    0.13
   9  -3  -7    0.54    0.22
   9  -3  -7   -0.22    0.18
   9  -3  -7   -0.06    0.15
  -9  -3   7    0.33    0.19
  -9  -3   7    0.02    0.15
   9   3  -6    0.45    0.14
   9   3  -6    0.66    0.22
  -9   3   6    0.32    0.18
   9   3  -6    0.36    0.17
  -9   3   6    0.57    0.16
  -9   3   6    0.57    0.14
  -9   3   6    0.78    0.23
  -9   3   6    0.47    0.20
   9   3  -6    0.87    0.13
   9  -3  -6    0.69    0.18
  -9  -3   6    0.39    0.16
  -9  -3   6    0.22    0.18
  -9  -3   6    0.47    0.11
   9  -3  -6    0.66    0.19
  -9  -3   6    0.38    0.15
   9  -3  -6    0.66    0.21
  -9   3   5    5.28    0.39
  -9   3   5    5.04    0.38
   9   3  -5    5.22    0.24
  -9   3   5    4.94    0.38
  -9   3   5    5.63    0.38
   9   3  -5    5.53    0.30
   9   3  -5    5.19    0.37
  -9  -3   5    5.90    0.35
  -9  -3   5    5.16    0.31
   9  -3  -5    5.50    0.38
   9  -3  -5    5.43    0.37
  -9  -3   5    5.27    0.23
  -9  -3   5    5.40    0.40
   9  -3  -5    4.21    0.34
  -9   3   4   14.58    0.59
   9   3  -4   15.24    0.40
  -9   3   4   15.44    0.58
   9   3  -4   14.51    0.52
  -9   3   4   14.92    0.59
  -9   3   4   15.33    0.60
  -9  -3   4   16.07    0.51
  -9  -3   4   15.29    0.55
   9  -3  -4   15.19    0.57
  -9  -3   4   15.09    0.43
  -9  -3   4   14.45    0.59
   9  -3  -4   14.76    0.56
  -9  -3   4   15.05    0.41
   9  -3  -4   15.03    0.57
  -9   3   3   36.36    1.02
  -9   3   3   35.52    1.04
  -9   3   3   37.54    1.04
  -9   3   3   37.12    1.05
   9  -3  -3   36.93    1.02
   9  -3  -3   37.02    1.01
  -9  -3   3   36.58    0.95
  -9  -3   3   35.92    1.05
   9  -3  -3   37.99    1.04
  -9  -3   3   36.61    0.98
  -9   3   2    1.99    0.24
  -9   3   2    1.46    0.19
  -9   3   2    1.73    0.22
  -9   3   2    2.05    0.25
  -9  -3   2    1.89    0.22
  -9  -3   2    1.97    0.24
   9  -3  -2    1.94    0.25
   9  -3  -2    1.93    0.28
  -9  -3   2    1.74    0.23
  -9  -3   2    2.33    0.27
   9  -3  -2    2.00    0.25
   9  -3  -2    1.39    0.22
  -9   3   1   43.13    1.01
  -9   3   1   42.57    1.01
  -9   3   1   42.66    1.13
  -9   3   1   44.64    1.19
  -9   3   1   43.34    1.15
  -9   3   1   42.95    1.15
  -9  -3   1   43.06    1.09
   9  -3  -1   43.20    1.11
  -9  -3   1   44.13    1.13
  -9  -3   1   45.34    1.16
   9  -3  -1   44.19    1.19
   9  -3  -1   42.39    1.13
  -9  -3   1   42.92    1.17
  -9  -3   1   43.25    1.12
   9  -3  -1   43.06    1.16
  -9   3   0    3.92    0.23
  -9   3   0    4.06    0.32
  -9   3   0    4.14    0.32
  -9   3   0    3.58    0.29
  -9  -3   0    4.38    0.31
  -9  -3   0    3.55    0.29
  -9  -3   0    4.20    0.27
  -9  -3   0    3.80    0.30
   9  -3   0    3.82    0.33
   9  -3   0    3.90    0.27
   9  -3   0    3.98    0.28
  -9  -3   0    4.19    0.25
  -9   3  -1    0.97    0.21
  -9   3  -1    0.73    0.17
  -9   3  -1    0.83    0.15
  -9   3  -1    0.69    0.17
  -9  -3  -1    0.69    0.14
   9  -3   1    0.61    0.18
   9  -3   1    0.93    0.18
  -9  -3  -1    0.67    0.15
   9  -3   1    0.64    0.16
  -9  -3  -1    0.73    0.17
   9  -3   1    0.65    0.14
  -9  -3  -1    0.94    0.16
  -9  -3  -1    1.03    0.18
   9  -3   1    0.61    0.14
  -9   3  -2  111.53    2.61
  -9   3  -2  117.43    2.65
  -9   3  -2  113.87    2.54
  -9   3  -2  113.72    2.51
   9  -3   2  111.92    2.52
  -9  -3  -2  114.34    2.63
  -9  -3  -2  113.25    2.61
  -9  -3  -2  111.23    2.60
   9  -3   2  113.93    2.50
   9  -3   2  113.73    2.65
  -9  -3  -2  112.44    2.51
   9  -3   2  110.40    2.55
   9  -3   2  108.82    2.50
  -9   3  -3    0.97    0.18
  -9   3  -3    1.00    0.18
  -9   3  -3    1.37    0.21
  -9   3  -3    1.30    0.19
   9  -3   3    1.51    0.22
   9  -3   3    1.64    0.23
   9  -3   3    1.53    0.19
  -9  -3  -3    1.82    0.22
  -9  -3  -3    1.27    0.16
  -9  -3  -3    1.62    0.15
  -9  -3  -3    2.04    0.27
  -9  -3  -3    1.93    0.27
   9  -3   3    0.91    0.23
   9  -3   3    1.51    0.22
  -9  -3  -3    2.03    0.30
  -9   3  -4    4.19    0.40
  -9   3  -4    4.29    0.38
   9   3   4    4.53    0.24
  -9   3  -4    4.00    0.29
  -9   3  -4    4.35    0.36
   9  -3   4    3.78    0.31
  -9  -3  -4    3.97    0.30
  -9  -3  -4    4.11    0.35
   9  -3   4    3.91    0.39
   9  -3   4    4.21    0.36
   9  -3   4    4.07    0.34
  -9  -3  -4    4.20    0.38
   9  -3   4    4.41    0.28
  -9  -3  -4    4.05    0.25
  -9  -3  -4    4.13    0.36
  -9   3  -5    5.17    0.44
  -9   3  -5    5.40    0.34
   9   3   5    5.75    0.36
   9   3   5    6.22    0.31
  -9   3  -5    4.47    0.44
  -9   3  -5    6.35    0.47
  -9  -3  -5    5.91    0.41
  -9  -3  -5    5.90    0.33
   9  -3   5    5.59    0.45
   9  -3   5    6.08    0.42
   9  -3   5    5.96    0.47
  -9  -3  -5    5.84    0.44
   9  -3   5    5.79    0.38
  -9  -3  -5    5.45    0.35
   9   3   6    0.31    0.21
  -9   3  -6    0.41    0.28
  -9   3  -6   -0.02    0.25
  -9   3  -6    0.27    0.18
   9   3   6    0.08    0.15
  -9   3  -6    0.25    0.27
  -9  -3  -6    0.07    0.23
   9  -3   6   -0.18    0.25
  -9  -3  -6    0.00    0.21
  -9  -3  -6    0.01    0.18
  -9  -3  -6    0.00    0.17
   9  -3   6    0.31    0.27
   9  -3   6    0.33    0.29
   9  -3   6    0.18    0.20
   9   3   7    0.15    0.20
  -9   3  -7    0.12    0.19
  -9   3  -7    0.07    0.28
  -9   3  -7   -0.35    0.29
  -9   3  -7   -0.15    0.46
   9   3   7    0.16    0.23
   9  -3   7    0.58    0.36
   9  -3   7    0.05    0.24
   9  -3   7   -0.09    0.29
  -9  -3  -7   -0.26    0.26
  -9  -3  -7    0.03    0.23
  -9  -3  -7   -0.12    0.25
  -9   3  -8    6.09    0.70
   9   3   8    3.89    0.44
  -9   3  -8    5.00    0.62
  -9  -3  -8    6.34    0.61
   9  -3   8    4.54    0.53
  -9  -3  -8    4.93    0.61
  -9   4  10    0.78    0.60
  -9   4  10    0.37    0.41
   9   4 -10   -0.18    0.40
  -9  -4  10    0.10    0.42
   9   4  -9    1.20    0.23
   9   4  -9    0.55    0.37
  -9   4   9    0.25    0.34
  -9   4   9    1.65    0.40
   9  -4  -9    0.50    0.32
  -9  -4   9    0.89    0.39
  -9   4   8    2.25    0.38
  -9   4   8    1.43    0.37
   9   4  -8    2.48    0.29
   9   4  -8    2.01    0.39
  -9  -4   8    1.76    0.37
   9  -4  -8    1.42    0.35
   9  -4  -8    1.58    0.32
   9   4  -7    1.11    0.30
  -9   4   7    0.94    0.26
  -9   4   7    1.25    0.34
   9   4  -7    1.23    0.17
  -9   4   7    1.19    0.36
   9  -4  -7    0.90    0.26
   9  -4  -7    0.97    0.29
  -9  -4   7    1.97    0.32
  -9  -4   7    1.14    0.20
   9   4  -6    0.26    0.12
  -9   4   6    0.11    0.23
   9   4  -6    0.09    0.22
  -9   4   6    0.15    0.25
  -9   4   6   -0.08    0.24
  -9  -4   6    0.06    0.22
   9  -4  -6    0.10    0.22
   9  -4  -6    0.02    0.22
  -9  -4   6    0.24    0.17
  -9   4   5    1.53    0.28
  -9   4   5    1.76    0.31
  -9   4   5    1.11    0.28
  -9   4   5    1.44    0.26
  -9  -4   5    1.71    0.22
   9  -4  -5    1.25    0.26
  -9  -4   5    1.63    0.27
   9  -4  -5    1.73    0.29
  -9  -4   5    1.30    0.29
   9  -4  -5    1.41    0.30
  -9   4   4   11.85    0.58
  -9   4   4   11.44    0.59
  -9   4   4   11.88    0.64
  -9   4   4   11.07    0.57
   9  -4  -4   12.20    0.56
  -9  -4   4   11.10    0.48
  -9  -4   4   12.17    0.55
   9  -4  -4   11.75    0.57
  -9  -4   4   12.48    0.61
   9  -4  -4   10.12    0.58
  -9   4   3    9.74    0.54
  -9   4   3    9.68    0.51
  -9   4   3    8.87    0.53
  -9   4   3    9.33    0.51
   9  -4  -3    9.24    0.49
  -9  -4   3    9.25    0.47
  -9  -4   3    9.67    0.53
  -9  -4   3    9.59    0.55
   9  -4  -3    8.85    0.51
  -9  -4   3   10.25    0.45
   9  -4  -3    9.31    0.54
  -9   4   2    3.69    0.37
  -9   4   2    2.84    0.32
  -9   4   2    2.86    0.34
  -9   4   2    3.72    0.36
  -9  -4   2    3.32    0.38
   9  -4  -2    2.50    0.35
  -9  -4   2    3.14    0.34
   9  -4  -2    3.40    0.33
  -9  -4   2    3.14    0.32
  -9  -4   2    3.01    0.36
   9  -4  -2    3.17    0.40
  -9   4   1    7.99    0.46
  -9   4   1    8.10    0.47
  -9   4   1    7.81    0.45
   9  -4  -1    7.57    0.48
  -9  -4   1    8.48    0.43
  -9  -4   1    8.77    0.43
   9  -4  -1    8.27    0.42
  -9  -4   1    8.46    0.45
  -9  -4   1    7.65    0.46
  -9  -4   1    8.56    0.49
   9  -4  -1    8.46    0.48
  -9  -4   1    8.43    0.45
   9  -4  -1    7.95    0.47
  -9   4   0   21.71    0.79
  -9   4   0   22.04    0.73
  -9   4   0   22.55    0.79
   9  -4   0   22.97    0.70
  -9  -4   0   21.47    0.72
  -9  -4   0   23.01    0.79
   9  -4   0   22.85    0.81
  -9  -4   0   23.43    0.76
  -9  -4   0   22.23    0.75
   9  -4   0   22.38    0.79
  -9  -4   0   22.92    0.77
  -9  -4   0   23.00    0.76
  -9   4  -1    3.12    0.35
  -9   4  -1    2.64    0.35
  -9   4  -1    2.86    0.25
  -9   4  -1    3.01    0.35
  -9  -4  -1    3.25    0.35
  -9  -4  -1    3.08    0.40
   9  -4   1    2.61    0.38
  -9  -4  -1    2.50    0.30
  -9  -4  -1    1.86    0.26
  -9  -4  -1    2.43    0.33
   9  -4   1    2.30    0.28
  -9  -4  -1    2.94    0.33
   9  -4   1    2.36    0.32
   9  -4   1    3.29    0.33
  -9   4  -2    0.10    0.20
  -9   4  -2    0.13    0.18
  -9   4  -2    0.04    0.18
  -9   4  -2    0.30    0.22
  -9  -4  -2   -0.15    0.20
  -9  -4  -2   -0.04    0.15
   9  -4   2   -0.09    0.19
  -9  -4  -2    0.02    0.19
   9  -4   2    0.07    0.15
   9  -4   2    0.16    0.16
   9  -4   2    0.10    0.21
   9  -4   2    0.12    0.24
  -9  -4  -2   -0.02    0.21
  -9  -4  -2    0.40    0.21
  -9   4  -3    8.56    0.46
  -9   4  -3    9.00    0.54
  -9   4  -3    8.72    0.44
  -9   4  -3    9.88    0.59
   9  -4   3    8.67    0.57
  -9  -4  -3    7.76    0.51
   9  -4   3    8.95    0.39
   9  -4   3    8.83    0.52
  -9  -4  -3    9.06    0.51
  -9  -4  -3    8.93    0.55
  -9  -4  -3    8.88    0.49
   9  -4   3    8.74    0.43
   9  -4   3    9.37    0.50
  -9   4  -4    5.28    0.37
  -9   4  -4    5.38    0.52
  -9   4  -4    6.04    0.49
  -9   4  -4    6.57    0.47
   9  -4   4    6.23    0.57
  -9  -4  -4    6.51    0.46
   9  -4   4    5.56    0.50
   9  -4   4    5.99    0.45
   9  -4   4    6.38    0.47
  -9  -4  -4    5.96    0.49
  -9  -4  -4    5.16    0.44
   9  -4   4    5.63    0.32
  -9   4  -5    6.65    0.53
  -9   4  -5    7.85    0.58
   9  -4   5    6.58    0.59
  -9  -4  -5    7.37    0.51
   9  -4   5    6.43    0.63
   9  -4   5    6.97    0.52
   9  -4   5    6.68    0.57
  -9  -4  -5    6.47    0.57
  -9  -4  -5    6.82    0.51
  -9   4  -6    1.19    0.36
  -9   4  -6    0.44    0.28
   9   4   6    1.19    0.19
  -9  -4  -6    0.81    0.32
  -9  -4  -6    1.20    0.32
   9  -4   6    0.98    0.30
  -9  -4  -6    0.72    0.23
  -9  -4  -6    0.98    0.32
   9  -4   6    0.85    0.38
  -9   4  -7    0.83    0.42
  -9   4  -7    0.30    0.35
   9   4   7    1.00    0.35
   9   4   7    1.21    0.26
  -9  -4  -7    0.37    0.39
   9  -4   7    1.48    0.38
  -9  -4  -7    1.35    0.38
   9   5  -7    2.32    0.45
  -9   5   7    2.75    0.44
  -9   5   7    2.37    0.49
  -9  -5   7    2.40    0.42
   9  -5  -7    1.84    0.40
  -9   5   6    3.77    0.50
  -9   5   6    3.64    0.47
  -9  -5   6    4.13    0.53
   9  -5  -6    3.22    0.42
  -9  -5   6    3.05    0.44
  -9   5   5    5.41    0.56
  -9   5   5    5.85    0.63
   9  -5  -5    3.89    0.53
  -9  -5   5    5.50    0.43
  -9  -5   5    5.70    0.57
  -9   5   4    1.11    0.29
  -9   5   4    1.28    0.34
  -9  -5   4    1.70    0.33
  -9  -5   4    1.50    0.26
   9  -5  -4    1.06    0.34
  -9  -5   4    1.20    0.28
   9  -5  -4    1.56    0.33
  -9   5   3   -0.07    0.21
  -9   5   3   -0.87    0.37
  -9  -5   3    0.73    0.26
   9  -5  -3    0.08    0.28
  -9  -5   3   -0.07    0.35
  -9  -5   3    0.03    0.22
  -9  -5   3    0.58    0.27
   9  -5  -3    0.10    0.24
  -9   5   2    4.66    0.59
  -9   5   2    5.44    0.47
  -9   5   2    4.97    0.58
   9  -5  -2    5.55    0.48
  -9  -5   2    5.88    0.49
   9  -5  -2    5.98    0.55
  -9  -5   2    4.16    0.55
  -9  -5   2    5.28    0.45
  -9  -5   2    6.48    0.49
  -9  -5   2    5.43    0.50
  -9   5   1    4.03    0.54
  -9   5   1    3.00    0.42
  -9   5   1    3.38    0.43
  -9  -5   1    4.63    0.55
  -9  -5   1    3.31    0.46
  -9  -5   1    3.35    0.42
  -9  -5   1    3.88    0.44
  -9  -5   1    3.49    0.50
  -9  -5   1    3.06    0.40
   9  -5  -1    3.30    0.42
  -9   5   0    1.27    0.31
  -9   5   0    1.11    0.25
  -9  -5   0    1.07    0.31
   9  -5   0    0.94    0.24
  -9  -5   0    1.11    0.26
  -9  -5   0    0.99    0.27
  -9  -5   0    0.78    0.24
  -9  -5   0    0.64    0.33
  -9  -5   0    0.72    0.35
  -9   5  -1   -0.05    0.23
  -9   5  -1    0.54    0.28
  -9  -5  -1    0.13    0.23
  -9  -5  -1    0.44    0.25
  -9  -5  -1    0.18    0.23
  -9  -5  -1   -0.22    0.31
   9  -5   1    0.07    0.20
  -9  -5  -1    0.34    0.30
   9  -5   1    0.53    0.27
  -9   5  -2    3.58    0.49
   9  -5   2    3.09    0.37
  -9  -5  -2    3.90    0.46
  -9  -5  -2    3.42    0.41
   9  -5   2    3.43    0.35
  -9  -5  -2    3.30    0.44
  -9  -5  -2    3.33    0.38
  -9  -5  -2    3.01    0.41
  -9   5  -3    0.01    0.22
  -9   5  -3   -0.25    0.25
  -9  -5  -3   -0.08    0.30
   9  -5   3   -0.35    0.18
  -9  -5  -3   -0.32    0.25
   9  -5   3    0.10    0.29
  -9  -5  -3    0.14    0.35
  -9  -5  -3    0.74    0.42
  -9   5  -4    1.65    0.36
  -9   5  -4    1.00    0.35
  -9  -5  -4    1.00    0.33
   9  -5   4    0.24    0.34
  -9  -5  -4    0.40    0.32
  -9   5  -5    1.44    0.47
  -9   5  -5    1.62    0.38
  -9  -5  -5    1.96    0.40
   9  -5   5    1.55    0.42
  -9  -5  -5    2.01    0.49
  -9   6   3   11.50    0.75
  -9  -6   3   11.77    0.92
   9  -6  -3   11.06    0.78
  -9  -6   3   11.21    0.80
  -9  -6   3   11.73    0.73
  -9   6   2    0.46    0.37
  -9  -6   2    0.09    0.35
  -9  -6   2    0.05    0.36
   9  -6  -2   -0.15    0.33
  -9  -6   2   -0.17    0.34
  -9   6   1    0.38    0.34
   9  -6  -1   -0.05    0.36
  -9  -6   1    0.22    0.37
  -9  -6   1    0.76    0.39
  -9  -6   1    0.81    0.34
  -9   6   0    0.44    0.36
  -9  -6   0    0.04    0.34
   9  -6   0    0.59    0.33
  -9  -6   0    0.96    0.39
  -9  -6   0    0.39    0.35
   9  -6   0    0.83    0.41
  10   0 -12   41.24    1.30
  10   0 -12   36.76    1.32
  10   0 -12   40.40    1.24
 -10   0  12   40.21    1.33
 -10   0  11    0.11    0.25
 -10   0  11   -0.54    0.29
  10   0 -11    0.39    0.23
  10   0 -11   -0.16    0.26
  10   0 -11    0.08    0.30
 -10   0  10    7.23    0.56
  10   0 -10    8.67    0.51
 -10   0  10    7.84    0.51
  10   0 -10    8.49    0.55
 -10   0  10    8.35    0.59
  10   0 -10    8.71    0.51
  10   0  -9    0.39    0.23
 -10   0   9    0.07    0.20
  10   0  -9   -0.10    0.16
 -10   0   9   -0.16    0.20
  10   0  -9   -0.19    0.19
 -10   0   9    0.05    0.24
 -10   0   9   -0.12    0.16
  10   0  -9   -0.25    0.17
  10   0  -8   17.67    0.66
 -10   0   8   17.79    0.70
  10   0  -8   18.22    0.64
 -10   0   8   17.79    0.67
  10   0  -8   18.99    0.70
  10   0  -8   19.22    0.66
 -10   0   8   18.70    0.66
 -10   0   8   18.02    0.67
  10   0  -7   -0.10    0.14
  10   0  -7   -0.10    0.12
 -10   0   7   -0.05    0.13
 -10   0   7   -0.10    0.16
  10   0  -7    0.12    0.14
 -10   0   7    0.04    0.10
  10   0  -7   -0.06    0.13
 -10   0   7    0.03    0.17
  10   0  -6    0.39    0.13
  10   0  -6    0.47    0.15
  10   0  -6    0.61    0.14
 -10   0   6    0.59    0.12
 -10   0   6    0.73    0.19
 -10   0   6    0.68    0.15
  10   0  -6    0.46    0.12
 -10   0   6    0.77    0.16
 -10   0   6    0.73    0.18
 -10   0   5   -0.17    0.10
  10   0  -5   -0.04    0.09
  10   0  -5    0.03    0.08
 -10   0   5    0.15    0.11
 -10   0   5    0.04    0.10
  10   0  -5    0.02    0.09
 -10   0   5   -0.02    0.10
  10   0  -5   -0.17    0.08
 -10   0   5   -0.01    0.08
 -10   0   4   28.14    0.82
 -10   0   4   29.17    0.75
  10   0  -4   29.23    0.79
  10   0  -4   28.86    0.78
  10   0  -4   28.04    0.74
 -10   0   4   29.21    0.80
 -10   0   4   28.86    0.78
 -10   0   3   -0.06    0.07
  10   0  -3   -0.09    0.07
 -10   0   3   -0.01    0.07
 -10   0   3    0.01    0.07
  10   0  -3   -0.01    0.06
 -10   0   3   -0.01    0.08
  10   0  -3   -0.12    0.06
 -10   0   3    0.19    0.10
 -10   0   2    0.50    0.09
  10   0  -2    0.68    0.09
 -10   0   2    0.60    0.11
  10   0  -2    0.72    0.12
 -10   0   2    0.79    0.12
 -10   0   2    0.65    0.09
 -10   0   2    0.74    0.12
  10   0  -2    0.67    0.12
 -10   0   2    0.62    0.11
  10   0  -1    0.03    0.07
 -10   0   1    0.01    0.07
 -10   0   1    0.00    0.07
  10   0  -1   -0.11    0.06
 -10   0   1    0.03    0.07
 -10   0   1    0.04    0.08
 -10   0   0   44.83    1.13
  10   0   0   46.57    1.16
 -10   0   0   45.91    1.16
 -10   0   0   47.12    1.12
 -10   0   0   45.67    1.14
 -10   0  -1   -0.02    0.08
 -10   0  -1   -0.10    0.08
 -10   0  -1    0.02    0.07
 -10   0  -1    0.03    0.08
  10   0   1    0.05    0.09
 -10   0  -2   79.81    1.82
  10   0   2   81.68    1.87
  10   0   2   77.99    1.85
 -10   0  -2   79.98    1.83
  10   0   2   78.06    1.84
 -10   0  -2   78.71    1.87
 -10   0  -2   76.10    1.83
  10   0   3    0.01    0.10
 -10   0  -3   -0.07    0.12
 -10   0  -3   -0.04    0.10
 -10   0  -3   -0.05    0.10
 -10   0  -3    0.06    0.09
  10   0   3    0.08    0.10
  10   0   4   93.13    2.23
 -10   0  -4   95.09    2.19
 -10   0  -4   95.39    2.26
  10   0   4   94.08    2.21
 -10   0  -4   94.64    2.19
 -10   0  -4   95.77    2.21
  10   0   5   -0.15    0.13
 -10   0  -5    0.09    0.12
 -10   0  -5    0.13    0.16
  10   0   5    0.09    0.12
 -10   0  -5   -0.02    0.14
  10   0   6    1.68    0.20
  10   0   6    1.43    0.22
 -10   0  -6    2.00    0.20
  10   0   6    2.15    0.28
 -10   0  -6    2.17    0.26
 -10   0  -6    2.43    0.31
 -10   0  -6    2.07    0.30
 -10   0  -6    2.35    0.28
 -10   0  -7    0.11    0.18
  10   0   7   -0.03    0.14
 -10   0  -7    0.20    0.19
  10   0   7    0.24    0.20
 -10   0  -7   -0.06    0.14
 -10   0  -7   -0.04    0.21
 -10   0  -7   -0.05    0.23
 -10   0  -8    1.09    0.33
 -10   0  -8    0.69    0.20
 -10   0  -8    0.71    0.26
 -10   0  -8    1.02    0.29
  10   0   8    0.63    0.20
 -10   0  -9    0.27    0.33
 -10   0  -9   -0.29    0.30
  10   0   9   -0.22    0.28
  10   1 -12    0.35    0.32
 -10   1  12   -0.28    0.33
  10   1 -12   -0.02    0.29
  10   1 -12   -0.68    0.35
  10  -1 -12    0.41    0.33
  10  -1 -12    0.19    0.35
 -10  -1  12   -0.16    0.31
  10  -1 -12    0.12    0.36
 -10   1  11    1.17    0.32
  10   1 -11    1.33    0.29
 -10   1  11    0.81    0.35
  10   1 -11    1.02    0.32
  10   1 -11    0.61    0.28
  10  -1 -11    0.79    0.32
  10  -1 -11    1.27    0.33
  10  -1 -11    0.97    0.27
 -10  -1  11    1.03    0.34
 -10  -1  11    1.01    0.28
  10   1 -10    0.58    0.20
 -10   1  10    1.09    0.31
  10   1 -10    0.93    0.27
 -10   1  10    0.91    0.27
 -10   1  10    0.89    0.35
  10   1 -10    0.84    0.24
  10  -1 -10    0.92    0.28
  10  -1 -10    0.90    0.23
  10  -1 -10    0.59    0.25
 -10  -1  10    0.78    0.29
 -10  -1  10    0.73    0.26
  10   1  -9    4.86    0.38
 -10   1   9    5.13    0.43
  10   1  -9    5.26    0.46
 -10   1   9    5.34    0.51
 -10   1   9    4.75    0.49
  10   1  -9    5.36    0.38
 -10   1   9    4.83    0.49
  10   1  -9    5.42    0.44
  10  -1  -9    5.38    0.43
 -10  -1   9    5.17    0.40
 -10  -1   9    5.45    0.43
  10  -1  -9    5.37    0.44
  10  -1  -9    4.92    0.43
  10  -1  -9    5.03    0.40
 -10  -1   9    5.00    0.48
 -10  -1   9    5.86    0.41
  10   1  -8    0.00    0.18
 -10   1   8    0.12    0.16
  10   1  -8    0.23    0.14
  10   1  -8    0.08    0.13
 -10   1   8   -0.13    0.17
 -10   1   8   -0.16    0.18
 -10   1   8   -0.02    0.20
  10   1  -8    0.08    0.18
  10  -1  -8    0.04    0.17
 -10  -1   8   -0.10    0.16
 -10  -1   8    0.20    0.14
 -10  -1   8   -0.35    0.18
  10  -1  -8   -0.04    0.14
 -10  -1   8    0.14    0.17
  10  -1  -8   -0.05    0.16
 -10   1   7    2.56    0.31
  10   1  -7    2.21    0.29
 -10   1   7    2.45    0.28
  10   1  -7    2.59    0.26
  10   1  -7    2.56    0.24
 -10   1   7    2.63    0.31
 -10   1   7    2.95    0.33
 -10   1   7    2.97    0.30
  10   1  -7    2.37    0.30
 -10  -1   7    2.76    0.28
  10  -1  -7    2.60    0.29
 -10  -1   7    2.42    0.25
  10  -1  -7    2.44    0.27
 -10  -1   7    2.54    0.31
 -10  -1   7    2.54    0.25
  10  -1  -7    2.65    0.31
  10  -1  -7    2.53    0.29
  10   1  -6   14.01    0.54
 -10   1   6   12.68    0.51
  10   1  -6   13.08    0.47
 -10   1   6   13.93    0.55
 -10   1   6   13.06    0.52
 -10   1   6   12.86    0.52
  10   1  -6   13.63    0.49
 -10   1   6   13.00    0.51
  10   1  -6   13.51    0.50
  10  -1  -6   13.19    0.49
  10  -1  -6   13.46    0.49
  10  -1  -6   13.41    0.51
 -10  -1   6   12.62    0.54
  10  -1  -6   13.33    0.51
 -10  -1   6   13.18    0.47
 -10  -1   6   13.11    0.49
 -10  -1   6   13.43    0.49
 -10   1   5    6.88    0.33
  10   1  -5    6.47    0.32
 -10   1   5    6.78    0.33
  10   1  -5    7.08    0.30
 -10   1   5    7.19    0.37
 -10   1   5    6.64    0.33
 -10   1   5    6.99    0.35
  10   1  -5    6.56    0.32
  10   1  -5    6.43    0.35
  10  -1  -5    6.74    0.34
 -10  -1   5    6.45    0.31
  10  -1  -5    6.53    0.34
  10  -1  -5    6.28    0.31
 -10  -1   5    6.56    0.33
 -10  -1   5    6.39    0.35
 -10  -1   5    6.43    0.30
 -10  -1   5    6.54    0.32
 -10   1   4    4.39    0.26
 -10   1   4    4.10    0.26
  10   1  -4    4.34    0.26
  10   1  -4    4.09    0.23
 -10   1   4    4.20    0.28
 -10   1   4    4.23    0.26
 -10   1   4    4.46    0.28
  10   1  -4    4.08    0.22
  10  -1  -4    4.00    0.26
 -10  -1   4    4.52    0.28
 -10  -1   4    4.23    0.26
  10  -1  -4    4.18    0.24
  10  -1  -4    3.90    0.26
 -10  -1   4    4.18    0.22
 -10  -1   4    3.85    0.24
 -10  -1   4    4.22    0.23
 -10   1   3    4.74    0.26
  10   1  -3    4.99    0.22
  10   1  -3    5.23    0.28
 -10   1   3    4.66    0.24
 -10   1   3    4.72    0.28
 -10   1   3    4.55    0.26
 -10   1   3    4.82    0.29
  10   1  -3    4.99    0.23
 -10  -1   3    5.07    0.25
  10  -1  -3    4.95    0.27
 -10  -1   3    5.20    0.22
 -10  -1   3    5.02    0.28
 -10  -1   3    4.74    0.26
 -10  -1   3    5.15    0.22
  10  -1  -3    5.34    0.27
  10  -1  -3    5.02    0.23
 -10   1   2    7.73    0.32
 -10   1   2    7.40    0.33
  10   1  -2    8.24    0.29
 -10   1   2    8.05    0.33
  10   1  -2    7.82    0.34
 -10   1   2    7.51    0.33
 -10   1   2    7.69    0.29
  10   1  -2    7.38    0.26
 -10   1   2    7.75    0.36
 -10  -1   2    7.91    0.26
  10  -1  -2    7.32    0.26
  10  -1  -2    7.83    0.33
 -10  -1   2    7.96    0.31
  10  -1  -2    7.55    0.34
 -10  -1   2    7.46    0.27
 -10  -1   2    7.79    0.33
 -10  -1   2    8.12    0.35
  10  -1  -2    7.42    0.36
 -10   1   1    2.94    0.21
  10   1  -1    3.08    0.22
  10   1  -1    3.28    0.18
 -10   1   1    2.98    0.22
 -10   1   1    2.78    0.22
 -10   1   1    3.04    0.17
 -10   1   1    2.83    0.22
  10  -1  -1    3.24    0.23
 -10  -1   1    3.01    0.13
  10  -1  -1    3.35    0.15
 -10  -1   1    3.31    0.23
  10  -1  -1    2.80    0.23
 -10  -1   1    2.97    0.18
 -10  -1   1    3.17    0.17
 -10  -1   1    3.31    0.23
 -10  -1   1    3.21    0.21
  10  -1  -1    3.02    0.24
 -10   1   0   17.00    0.54
 -10   1   0   17.07    0.57
  10   1   0   16.84    0.50
 -10   1   0   16.81    0.54
 -10   1   0   16.71    0.54
  10   1   0   16.73    0.56
  10  -1   0   17.11    0.41
  10  -1   0   16.63    0.57
 -10  -1   0   17.58    0.50
 -10  -1   0   17.13    0.48
 -10  -1   0   17.24    0.54
  10  -1   0   16.72    0.54
 -10  -1   0   17.47    0.56
  10   1   1   -0.05    0.07
 -10   1  -1    0.06    0.09
 -10   1  -1   -0.10    0.08
 -10   1  -1   -0.03    0.09
  10   1   1    0.16    0.09
 -10   1  -1   -0.02    0.10
 -10  -1  -1    0.02    0.07
  10  -1   1    0.19    0.10
  10  -1   1    0.16    0.10
 -10  -1  -1   -0.06    0.08
  10  -1   1    0.03    0.10
 -10  -1  -1    0.01    0.07
 -10  -1  -1    0.02    0.06
 -10   1  -2    3.35    0.26
 -10   1  -2    3.65    0.27
 -10   1  -2    3.59    0.25
 -10   1  -2    3.73    0.26
  10   1   2    3.61    0.24
 -10  -1  -2    4.04    0.26
  10  -1   2    3.32    0.25
 -10  -1  -2    3.60    0.22
  10  -1   2    3.70    0.25
 -10  -1  -2    3.91    0.26
 -10  -1  -2    3.81    0.20
  10  -1   2    3.68    0.28
 -10   1  -3   18.13    0.58
 -10   1  -3   17.42    0.62
  10   1   3   17.60    0.61
  10   1   3   17.76    0.56
 -10   1  -3   18.37    0.62
 -10   1  -3   17.56    0.60
 -10  -1  -3   18.76    0.57
 -10  -1  -3   18.35    0.63
 -10  -1  -3   17.93    0.60
  10  -1   3   18.56    0.63
  10  -1   3   18.32    0.59
 -10  -1  -3   17.50    0.54
  10  -1   3   17.68    0.60
  10   1   4   22.75    0.73
 -10   1  -4   22.85    0.69
 -10   1  -4   23.37    0.75
 -10   1  -4   22.70    0.74
  10   1   4   22.08    0.69
 -10   1  -4   22.81    0.76
  10  -1   4   22.36    0.55
  10  -1   4   22.64    0.57
  10  -1   4   22.67    0.75
 -10  -1  -4   22.60    0.76
 -10  -1  -4   23.30    0.73
 -10  -1  -4   22.72    0.68
 -10  -1  -4   22.50    0.67
  10  -1   4   21.84    0.73
  10   1   5   14.95    0.41
  10   1   5   13.05    0.56
 -10   1  -5   14.93    0.55
 -10   1  -5   14.15    0.59
  10   1   5   14.64    0.54
 -10   1  -5   14.49    0.60
 -10   1  -5   16.08    0.63
  10  -1   5   15.17    0.62
 -10  -1  -5   14.49    0.60
 -10  -1  -5   14.31    0.58
  10  -1   5   14.40    0.42
 -10  -1  -5   13.86    0.53
 -10  -1  -5   14.41    0.40
  10  -1   5   14.40    0.60
 -10   1  -6   -0.08    0.16
 -10   1  -6   -0.03    0.20
  10   1   6    0.10    0.11
  10   1   6    0.29    0.15
 -10   1  -6    0.20    0.20
 -10   1  -6    0.07    0.20
  10   1   6   -0.08    0.15
 -10  -1  -6    0.23    0.18
 -10  -1  -6    0.13    0.11
 -10  -1  -6   -0.13    0.14
 -10  -1  -6    0.02    0.21
  10  -1   6    0.22    0.12
  10  -1   6    0.04    0.15
  10  -1   6    0.14    0.22
 -10  -1  -6    0.24    0.16
 -10   1  -7    0.21    0.20
 -10   1  -7    0.09    0.25
  10   1   7   -0.15    0.14
 -10   1  -7    0.11    0.23
  10   1   7    0.11    0.32
 -10   1  -7   -0.28    0.23
 -10  -1  -7    0.04    0.15
 -10  -1  -7   -0.24    0.21
  10  -1   7    0.09    0.14
  10  -1   7    0.00    0.24
 -10  -1  -7   -0.11    0.17
 -10  -1  -7   -0.20    0.20
  10   1   8    1.82    0.27
 -10   1  -8    0.92    0.28
 -10   1  -8    1.59    0.33
 -10   1  -8    1.37    0.32
 -10   1  -8    1.40    0.37
 -10  -1  -8    1.22    0.32
 -10  -1  -8    1.76    0.36
 -10  -1  -8    1.57    0.34
 -10  -1  -8    1.37    0.24
  10  -1   8    1.55    0.23
 -10   1  -9    0.56    0.36
 -10   1  -9   -0.25    0.29
 -10  -1  -9    0.43    0.32
 -10  -1  -9   -0.72    0.30
  10  -1   9    0.08    0.29
  10   2 -12    1.44    0.36
 -10   2  12    0.80    0.38
 -10  -2  12    0.75    0.39
  10  -2 -12    0.59    0.38
  10  -2 -12    0.71    0.35
  10  -2 -12    1.34    0.43
  10   2 -11    7.68    0.66
  10   2 -11    8.26    0.55
 -10   2  11    5.54    0.69
 -10   2  11    7.56    0.63
  10   2 -11    7.33    0.50
  10  -2 -11    7.13    0.58
  10  -2 -11    6.74    0.61
  10  -2 -11    6.94    0.66
 -10  -2  11    7.63    0.58
  10   2 -10   14.89    0.73
 -10   2  10   14.38    0.71
 -10   2  10   13.89    0.75
  10   2 -10   14.89    0.57
  10   2 -10   15.16    0.63
 -10   2  10   16.10    0.74
  10  -2 -10   13.66    0.69
 -10  -2  10   14.53    0.65
 -10  -2  10   14.49    0.69
  10  -2 -10   12.79    0.65
  10  -2 -10   14.19    0.71
 -10   2   9    2.41    0.31
  10   2  -9    1.89    0.32
 -10   2   9    1.98    0.31
 -10   2   9    1.88    0.31
 -10   2   9    1.69    0.29
  10   2  -9    2.34    0.31
  10   2  -9    2.08    0.28
  10  -2  -9    2.20    0.34
 -10  -2   9    2.30    0.28
  10  -2  -9    1.97    0.28
  10  -2  -9    2.36    0.31
 -10  -2   9    2.01    0.31
 -10   2   8   12.40    0.61
  10   2  -8   12.78    0.61
 -10   2   8   12.10    0.60
 -10   2   8   12.06    0.55
  10   2  -8   13.20    0.50
  10   2  -8   12.48    0.50
 -10   2   8   12.45    0.64
  10   2  -8   12.78    0.62
  10  -2  -8   12.26    0.58
 -10  -2   8   12.51    0.51
  10  -2  -8   12.62    0.57
 -10  -2   8   11.98    0.63
  10  -2  -8   11.82    0.50
 -10  -2   8   13.09    0.56
  10  -2  -8   12.59    0.59
 -10  -2   8   11.49    0.50
  10   2  -7    4.90    0.29
  10   2  -7    4.45    0.31
 -10   2   7    5.01    0.40
 -10   2   7    4.48    0.38
 -10   2   7    5.16    0.36
  10   2  -7    5.06    0.37
 -10   2   7    4.20    0.36
 -10   2   7    4.63    0.39
  10   2  -7    4.72    0.38
  10  -2  -7    4.64    0.35
  10  -2  -7    4.61    0.36
 -10  -2   7    5.19    0.29
  10  -2  -7    5.01    0.36
  10  -2  -7    4.59    0.30
 -10  -2   7    5.10    0.34
 -10  -2   7    3.84    0.37
 -10  -2   7    4.72    0.35
  10   2  -6   36.98    0.95
 -10   2   6   37.72    1.08
  10   2  -6   37.66    1.03
  10   2  -6   34.64    1.06
  10   2  -6   37.06    0.98
 -10   2   6   37.15    1.06
 -10   2   6   36.56    1.07
 -10   2   6   38.98    1.11
 -10   2   6   37.54    0.98
  10  -2  -6   34.20    1.03
 -10  -2   6   37.44    1.03
 -10  -2   6   38.87    0.96
 -10  -2   6   37.42    1.10
  10  -2  -6   36.40    1.03
  10  -2  -6   37.61    1.06
 -10  -2   6   38.52    0.99
 -10   2   5   -0.09    0.11
  10   2  -5   -0.04    0.11
 -10   2   5    0.21    0.13
 -10   2   5    0.17    0.13
 -10   2   5    0.03    0.14
  10   2  -5    0.02    0.08
  10   2  -5    0.10    0.13
  10   2  -5    0.10    0.12
 -10   2   5    0.04    0.12
 -10  -2   5    0.12    0.08
 -10  -2   5   -0.06    0.10
 -10  -2   5    0.16    0.12
 -10  -2   5   -0.02    0.12
  10  -2  -5   -0.08    0.13
  10  -2  -5   -0.05    0.11
 -10  -2   5    0.11    0.13
  10  -2  -5    0.23    0.13
 -10   2   4   61.77    1.43
 -10   2   4   61.60    1.54
  10   2  -4   61.58    1.49
 -10   2   4   62.00    1.53
 -10   2   4   62.06    1.57
 -10   2   4   61.74    1.54
  10   2  -4   62.05    1.48
 -10   2   4   59.42    1.44
  10   2  -4   63.44    1.41
 -10  -2   4   63.17    1.48
  10  -2  -4   61.58    1.53
 -10  -2   4   61.33    1.41
 -10  -2   4   63.36    1.49
  10  -2  -4   61.33    1.49
 -10  -2   4   62.46    1.58
 -10  -2   4   64.65    1.44
  10  -2  -4   61.58    1.52
 -10   2   3   31.24    0.89
 -10   2   3   30.75    0.81
 -10   2   3   31.22    0.79
 -10   2   3   29.93    0.86
 -10   2   3   31.51    0.92
  10   2  -3   31.66    0.86
  10   2  -3   31.67    0.76
 -10   2   3   31.66    0.89
 -10  -2   3   31.76    0.78
 -10  -2   3   31.08    0.76
  10  -2  -3   31.03    0.89
  10  -2  -3   32.39    0.88
 -10  -2   3   31.73    0.82
 -10  -2   3   30.30    0.91
 -10  -2   3   31.86    0.86
  10  -2  -3   32.58    0.84
  10   2  -2    0.33    0.11
  10   2  -2    0.32    0.08
 -10   2   2    0.35    0.15
 -10   2   2    0.36    0.14
 -10   2   2    0.49    0.12
 -10   2   2    0.28    0.10
 -10   2   2    0.24    0.12
 -10   2   2    0.41    0.11
 -10  -2   2    0.32    0.12
 -10  -2   2    0.52    0.08
  10  -2  -2    0.28    0.10
 -10  -2   2    0.35    0.08
  10  -2  -2    0.27    0.12
 -10  -2   2    0.35    0.09
 -10  -2   2    0.33    0.11
  10  -2  -2    0.37    0.13
  10  -2  -2    0.38    0.14
 -10   2   1    0.96    0.14
 -10   2   1    0.82    0.17
 -10   2   1    0.80    0.13
 -10   2   1    0.68    0.14
  10   2  -1    0.90    0.16
 -10   2   1    0.71    0.14
 -10  -2   1    0.55    0.11
 -10  -2   1    0.93    0.15
 -10  -2   1    1.08    0.14
  10  -2  -1    0.98    0.14
 -10  -2   1    0.73    0.11
  10  -2  -1    0.56    0.15
  10  -2  -1    0.72    0.14
  10  -2  -1    0.81    0.16
 -10  -2   1    0.88    0.11
 -10  -2   1    0.69    0.09
 -10  -2   1    1.19    0.16
 -10   2   0   37.02    0.99
 -10   2   0   38.42    1.02
 -10   2   0   37.39    0.97
 -10   2   0   36.95    1.05
 -10  -2   0   38.52    1.04
 -10  -2   0   38.30    0.88
  10  -2   0   38.40    0.99
 -10  -2   0   37.38    1.01
 -10  -2   0   39.43    0.89
 -10  -2   0   38.11    1.04
 -10  -2   0   38.28    0.89
  10  -2   0   37.82    0.93
 -10  -2   0   38.80    0.92
  10  -2   0   38.89    1.06
 -10   2  -1   57.86    1.43
 -10   2  -1   57.75    1.45
  10   2   1   58.21    1.29
 -10   2  -1   57.65    1.38
 -10   2  -1   56.36    1.37
 -10  -2  -1   55.63    1.26
 -10  -2  -1   55.68    1.26
 -10  -2  -1   57.28    1.41
 -10  -2  -1   55.31    1.27
  10  -2   1   55.10    1.31
  10  -2   1   56.79    1.45
 -10  -2  -1   57.00    1.28
 -10  -2  -1   58.01    1.44
  10  -2   1   56.29    1.36
  10  -2   1   55.67    1.30
  10  -2   1   57.38    1.38
 -10   2  -2    0.21    0.11
 -10   2  -2   -0.05    0.12
 -10   2  -2    0.15    0.13
  10   2   2    0.09    0.09
 -10   2  -2   -0.05    0.10
 -10  -2  -2    0.17    0.08
  10  -2   2    0.03    0.12
 -10  -2  -2    0.19    0.09
  10  -2   2    0.08    0.09
 -10  -2  -2    0.23    0.12
  10  -2   2    0.22    0.11
  10  -2   2    0.26    0.15
 -10  -2  -2    0.19    0.13
  10  -2   2    0.01    0.10
 -10  -2  -2    0.18    0.07
 -10  -2  -2    0.08    0.07
 -10   2  -3    9.00    0.45
 -10   2  -3    8.93    0.45
 -10   2  -3    9.67    0.44
  10   2   3    9.10    0.35
 -10   2  -3    9.48    0.41
  10  -2   3    9.37    0.35
  10  -2   3    9.38    0.48
 -10  -2  -3    9.38    0.33
 -10  -2  -3    9.35    0.35
 -10  -2  -3    9.42    0.43
 -10  -2  -3    9.43    0.44
 -10  -2  -3    9.41    0.30
  10  -2   3    9.22    0.40
  10  -2   3    8.90    0.42
  10  -2   3    9.47    0.33
  10   2   4    9.28    0.38
 -10   2  -4    9.23    0.42
 -10   2  -4    9.20    0.47
 -10   2  -4    9.68    0.48
 -10   2  -4   10.23    0.50
  10  -2   4    9.36    0.46
 -10  -2  -4    9.75    0.38
  10  -2   4    9.67    0.50
 -10  -2  -4    9.85    0.46
  10  -2   4    8.86    0.37
  10  -2   4    9.46    0.41
 -10  -2  -4    8.94    0.31
 -10  -2  -4    8.87    0.35
 -10  -2  -4    8.97    0.47
  10  -2   4    9.05    0.35
 -10  -2  -4    9.10    0.46
  10   2   5    5.14    0.28
 -10   2  -5    5.70    0.44
 -10   2  -5    5.55    0.37
  10   2   5    4.68    0.41
 -10   2  -5    6.20    0.43
 -10   2  -5    4.90    0.44
  10   2   5    4.71    0.32
  10  -2   5    4.58    0.41
  10  -2   5    5.28    0.30
  10  -2   5    5.48    0.43
 -10  -2  -5    5.36    0.40
  10  -2   5    5.16    0.33
 -10  -2  -5    5.25    0.39
 -10  -2  -5    5.11    0.26
 -10  -2  -5    6.03    0.40
 -10  -2  -5    5.05    0.32
 -10   2  -6    2.99    0.39
  10   2   6    2.98    0.31
  10   2   6    2.93    0.27
 -10   2  -6    3.59    0.36
 -10   2  -6    2.68    0.33
 -10   2  -6    2.71    0.35
  10  -2   6    2.86    0.31
 -10  -2  -6    2.95    0.27
  10  -2   6    2.44    0.33
 -10  -2  -6    2.02    0.29
 -10  -2  -6    2.30    0.31
  10  -2   6    3.56    0.42
 -10  -2  -6    2.89    0.40
  10  -2   6    2.51    0.28
 -10   2  -7    0.35    0.24
 -10   2  -7    0.11    0.20
 -10   2  -7   -0.18    0.33
  10   2   7    0.19    0.18
  10   2   7    0.03    0.21
 -10   2  -7    0.09    0.29
 -10   2  -7    0.04    0.25
  10  -2   7   -0.12    0.18
  10  -2   7   -0.30    0.30
 -10  -2  -7   -0.16    0.23
 -10  -2  -7    0.09    0.26
 -10  -2  -7    0.03    0.19
 -10  -2  -7    0.06    0.23
 -10   2  -8    0.75    0.35
 -10   2  -8    0.85    0.28
 -10   2  -8    0.75    0.35
 -10   2  -8    0.45    0.42
  10   2   8    1.02    0.27
  10  -2   8    0.70    0.23
 -10  -2  -8    0.41    0.30
 -10  -2  -8    0.99    0.30
 -10   2  -9    2.57    0.54
 -10   2  -9    1.38    0.42
 -10  -2  -9    2.64    0.45
 -10  -2  -9    1.80    0.40
  10   3 -11    0.68    0.29
 -10   3  11    1.42    0.42
 -10   3  11    0.24    0.45
  10   3 -11   -0.19    0.43
  10  -3 -11   -0.05    0.31
 -10  -3  11    0.07    0.38
  10  -3 -11    0.92    0.40
 -10   3  10    3.51    0.47
  10   3 -10    3.69    0.39
 -10   3  10    3.61    0.51
  10   3 -10    2.26    0.38
  10  -3 -10    2.82    0.42
  10  -3 -10    3.56    0.45
  10  -3 -10    2.68    0.40
 -10  -3  10    3.27    0.42
 -10   3   9    0.16    0.32
  10   3  -9    0.21    0.27
 -10   3   9    0.65    0.30
  10   3  -9   -0.05    0.19
  10   3  -9    0.13    0.18
 -10   3   9   -0.42    0.31
  10  -3  -9    0.06    0.20
  10  -3  -9    0.31    0.28
 -10  -3   9   -0.05    0.24
  10  -3  -9   -0.12    0.23
 -10  -3   9    0.58    0.29
  10   3  -8    0.14    0.14
 -10   3   8    0.23    0.27
  10   3  -8    0.44    0.24
  10   3  -8    0.04    0.17
 -10   3   8   -0.21    0.19
 -10   3   8    0.13    0.25
 -10   3   8    0.38    0.28
 -10  -3   8    0.06    0.22
  10  -3  -8    0.05    0.19
  10  -3  -8   -0.38    0.22
 -10  -3   8    0.06    0.20
  10   3  -7    0.16    0.19
 -10   3   7   -0.04    0.21
 -10   3   7    0.04    0.22
  10   3  -7    0.40    0.16
 -10   3   7   -0.07    0.15
 -10   3   7   -0.07    0.17
  10   3  -7   -0.59    0.26
  10   3  -7   -0.08    0.13
 -10  -3   7    0.04    0.18
  10  -3  -7   -0.30    0.20
 -10  -3   7    0.21    0.18
  10  -3  -7    0.49    0.24
  10  -3  -7    0.01    0.17
 -10   3   6   12.64    0.58
 -10   3   6   12.39    0.60
  10   3  -6   11.90    0.55
 -10   3   6   10.73    0.56
  10   3  -6   11.37    0.40
  10   3  -6   11.99    0.46
  10   3  -6   12.08    0.58
 -10   3   6   11.48    0.57
 -10   3   6   11.73    0.41
 -10  -3   6    9.14    0.52
  10  -3  -6   11.57    0.55
 -10  -3   6   11.62    0.47
 -10  -3   6   11.26    0.39
  10  -3  -6   11.81    0.55
  10  -3  -6   11.56    0.56
 -10  -3   6   11.13    0.57
 -10   3   5    2.00    0.27
 -10   3   5    1.69    0.25
  10   3  -5    2.19    0.17
 -10   3   5    2.56    0.34
 -10   3   5    2.22    0.32
 -10   3   5    2.19    0.21
  10   3  -5    2.15    0.26
  10  -3  -5    2.33    0.33
 -10  -3   5    1.91    0.28
 -10  -3   5    2.11    0.31
 -10  -3   5    1.97    0.17
  10  -3  -5    2.06    0.26
 -10  -3   5    1.99    0.21
 -10  -3   5    2.92    0.31
  10  -3  -5    2.36    0.30
 -10   3   4    0.50    0.20
  10   3  -4    0.55    0.09
 -10   3   4    0.29    0.18
 -10   3   4    0.30    0.21
 -10   3   4    0.42    0.18
  10   3  -4    0.41    0.15
 -10  -3   4    0.39    0.09
  10  -3  -4    0.27    0.17
 -10  -3   4    0.75    0.21
  10  -3  -4    0.56    0.18
  10  -3  -4    0.49    0.17
 -10  -3   4    0.57    0.16
 -10  -3   4    0.42    0.11
 -10  -3   4    0.63    0.16
 -10   3   3   -0.02    0.13
 -10   3   3   -0.09    0.18
 -10   3   3   -0.06    0.14
 -10   3   3    0.02    0.14
 -10   3   3   -0.17    0.08
 -10   3   3    0.04    0.08
  10  -3  -3    0.07    0.14
 -10  -3   3   -0.03    0.11
 -10  -3   3    0.17    0.15
  10  -3  -3    0.18    0.15
  10  -3  -3   -0.07    0.13
 -10  -3   3   -0.07    0.14
 -10   3   2   13.34    0.55
 -10   3   2   13.26    0.41
 -10   3   2   13.64    0.56
 -10   3   2   13.24    0.55
 -10   3   2   13.27    0.40
 -10   3   2   13.63    0.54
  10  -3  -2   14.38    0.57
  10  -3  -2   13.52    0.57
 -10  -3   2   13.39    0.55
  10  -3  -2   13.71    0.52
 -10  -3   2   14.10    0.51
 -10  -3   2   13.33    0.48
  10  -3  -2   13.40    0.52
 -10  -3   2   14.53    0.53
 -10   3   1    2.18    0.30
 -10   3   1    2.50    0.20
 -10   3   1    2.43    0.20
 -10   3   1    2.08    0.29
 -10   3   1    2.88    0.29
  10  -3  -1    2.85    0.26
  10  -3  -1    2.63    0.28
 -10  -3   1    2.22    0.22
 -10  -3   1    2.74    0.29
  10  -3  -1    2.63    0.32
 -10  -3   1    2.37    0.25
 -10  -3   1    2.60    0.25
 -10  -3   1    2.43    0.27
  10  -3  -1    2.37    0.31
 -10   3   0   12.46    0.50
 -10   3   0   12.53    0.55
 -10   3   0   12.45    0.52
 -10   3   0   12.46    0.43
 -10  -3   0   12.18    0.45
 -10  -3   0   12.11    0.52
  10  -3   0   12.08    0.54
 -10  -3   0   12.32    0.51
 -10  -3   0   12.44    0.44
 -10  -3   0   12.81    0.52
  10  -3   0   12.89    0.48
  10  -3   0   12.31    0.49
 -10   3  -1    3.15    0.27
 -10   3  -1    2.77    0.29
 -10   3  -1    2.99    0.33
 -10   3  -1    2.71    0.32
  10  -3   1    3.54    0.26
 -10  -3  -1    3.13    0.25
 -10  -3  -1    3.02    0.29
  10  -3   1    3.20    0.28
 -10  -3  -1    2.68    0.25
  10  -3   1    3.51    0.28
  10  -3   1    3.30    0.31
  10  -3   1    3.51    0.35
 -10  -3  -1    2.98    0.31
 -10  -3  -1    3.32    0.31
 -10   3  -2   77.24    1.93
 -10   3  -2   76.99    1.80
 -10   3  -2   75.89    1.89
 -10   3  -2   77.77    1.82
 -10  -3  -2   77.78    1.90
  10  -3   2   76.27    1.79
 -10  -3  -2   77.81    1.77
 -10  -3  -2   76.53    1.90
 -10  -3  -2   78.92    1.89
  10  -3   2   75.11    1.82
 -10  -3  -2   74.46    1.74
  10  -3   2   76.94    1.79
  10  -3   2   77.45    1.80
  10   3   3    0.11    0.08
 -10   3  -3   -0.22    0.16
 -10   3  -3   -0.12    0.17
 -10   3  -3   -0.17    0.15
 -10   3  -3    0.06    0.16
 -10  -3  -3    0.12    0.16
 -10  -3  -3    0.04    0.13
  10  -3   3   -0.03    0.15
  10  -3   3   -0.11    0.20
 -10  -3  -3    0.06    0.15
 -10  -3  -3    0.21    0.17
  10  -3   3   -0.13    0.15
 -10  -3  -3    0.22    0.09
  10  -3   3   -0.02    0.13
 -10  -3  -3   -0.11    0.10
  10  -3   3   -0.20    0.15
 -10   3  -4    0.02    0.17
 -10   3  -4    0.12    0.16
  10   3   4    0.02    0.10
 -10   3  -4    0.15    0.21
 -10   3  -4    0.10    0.23
 -10  -3  -4    0.37    0.18
  10  -3   4    0.07    0.14
  10  -3   4    0.17    0.21
 -10  -3  -4   -0.06    0.16
  10  -3   4   -0.09    0.17
  10  -3   4    0.19    0.17
 -10  -3  -4   -0.09    0.13
  10  -3   4    0.22    0.21
 -10  -3  -4    0.09    0.16
 -10   3  -5    0.30    0.28
  10   3   5    0.09    0.14
 -10   3  -5    0.20    0.25
 -10   3  -5    0.20    0.19
 -10   3  -5    0.01    0.24
 -10  -3  -5    0.23    0.21
 -10  -3  -5    0.32    0.20
 -10  -3  -5    0.52    0.16
  10  -3   5    0.13    0.24
 -10  -3  -5    0.19    0.16
  10  -3   5    0.15    0.18
  10  -3   5    0.01    0.20
  10  -3   5   -0.06    0.27
 -10   3  -6    0.01    0.27
 -10   3  -6   -0.25    0.25
  10   3   6    0.07    0.19
  10   3   6   -0.06    0.16
 -10   3  -6   -0.03    0.31
 -10   3  -6    0.16    0.23
  10  -3   6    0.06    0.25
 -10  -3  -6    0.10    0.23
  10  -3   6   -0.16    0.20
 -10  -3  -6   -0.19    0.20
 -10  -3  -6    0.08    0.20
 -10  -3  -6   -0.22    0.26
  10  -3   6    0.65    0.35
 -10   3  -7    1.53    0.40
  10   3   7    1.47    0.29
 -10   3  -7    1.53    0.30
 -10  -3  -7    1.39    0.34
  10  -3   7    1.35    0.31
 -10  -3  -7    1.39    0.35
 -10   3  -8    3.55    0.52
 -10   3  -8    4.60    0.55
  10  -3   8    4.40    0.53
 -10  -3  -8    5.37    0.64
 -10  -3  -8    5.30    0.69
  10   4  -9    2.94    0.36
  10   4  -9    2.51    0.43
 -10   4   9    2.78    0.47
 -10   4   9    2.80    0.41
 -10  -4   9    2.30    0.42
  10  -4  -9    2.08    0.38
  10   4  -8    7.18    0.64
 -10   4   8    7.18    0.66
 -10   4   8    6.69    0.57
  10   4  -8    6.45    0.37
  10  -4  -8    6.22    0.59
 -10  -4   8    7.16    0.60
  10  -4  -8    5.64    0.63
 -10   4   7    8.40    0.65
  10   4  -7    8.53    0.36
 -10   4   7    7.89    0.56
  10   4  -7    6.59    0.58
  10  -4  -7    7.92    0.57
 -10  -4   7    8.47    0.46
  10  -4  -7    7.42    0.60
 -10  -4   7    8.38    0.58
  10   4  -6    0.25    0.11
 -10   4   6    0.62    0.28
 -10   4   6   -0.17    0.23
 -10   4   6    0.12    0.26
  10  -4  -6    0.09    0.24
  10  -4  -6    0.10    0.25
 -10  -4   6    0.03    0.19
 -10  -4   6    0.34    0.24
 -10   4   5    0.30    0.24
 -10   4   5    0.46    0.28
 -10   4   5    0.32    0.27
 -10  -4   5    0.56    0.21
  10  -4  -5    0.27    0.21
  10  -4  -5   -0.39    0.24
  10  -4  -5    0.27    0.25
 -10  -4   5    0.39    0.20
 -10   4   4    1.51    0.31
 -10   4   4    1.35    0.28
 -10   4   4    1.33    0.26
 -10   4   4    1.33    0.28
  10  -4  -4    0.94    0.24
 -10  -4   4    0.95    0.24
 -10  -4   4    1.41    0.27
 -10  -4   4    0.50    0.27
  10  -4  -4    1.04    0.28
  10  -4  -4    1.33    0.30
 -10   4   3   -0.17    0.20
 -10   4   3    0.04    0.20
 -10   4   3    0.33    0.19
 -10   4   3    0.18    0.26
 -10  -4   3    0.10    0.17
 -10  -4   3   -0.11    0.22
  10  -4  -3    0.26    0.23
 -10  -4   3    0.08    0.23
  10  -4  -3   -0.04    0.20
  10  -4  -3    0.06    0.18
 -10  -4   3    0.13    0.18
 -10   4   2   10.21    0.56
 -10   4   2   11.54    0.55
 -10   4   2   10.89    0.56
 -10  -4   2   10.99    0.53
 -10  -4   2   10.00    0.56
  10  -4  -2   11.11    0.51
 -10  -4   2   11.03    0.56
 -10  -4   2   10.46    0.50
  10  -4  -2   10.96    0.56
 -10  -4   2   10.38    0.51
  10  -4  -2   11.51    0.58
 -10   4   1    1.39    0.29
 -10   4   1    0.98    0.27
 -10   4   1    1.19    0.27
 -10  -4   1    0.90    0.22
  10  -4  -1    1.09    0.22
  10  -4  -1    1.17    0.24
 -10  -4   1    1.40    0.25
  10  -4  -1    1.06    0.27
 -10  -4   1    1.02    0.20
  10  -4  -1    1.20    0.27
 -10  -4   1    1.15    0.22
 -10  -4   1    1.24    0.24
 -10  -4   1    0.87    0.24
 -10   4   0   22.27    0.79
 -10   4   0   24.26    0.84
 -10   4   0   22.57    0.83
 -10  -4   0   24.99    0.81
  10  -4   0   23.59    0.73
 -10  -4   0   21.86    0.84
  10  -4   0   22.83    0.81
 -10  -4   0   23.06    0.74
 -10  -4   0   23.19    0.77
 -10  -4   0   24.08    0.82
  10  -4   0   22.11    0.85
 -10  -4   0   23.05    0.80
 -10   4  -1    6.75    0.51
 -10   4  -1    5.67    0.35
 -10   4  -1    5.99    0.47
 -10   4  -1    6.35    0.45
 -10  -4  -1    6.28    0.39
 -10  -4  -1    5.42    0.42
 -10  -4  -1    5.18    0.46
 -10  -4  -1    6.31    0.45
  10  -4   1    5.36    0.47
  10  -4   1    6.84    0.44
  10  -4   1    5.32    0.48
  10  -4   1    6.15    0.38
 -10  -4  -1    5.48    0.45
 -10  -4  -1    6.31    0.45
 -10   4  -2    0.29    0.19
 -10   4  -2    0.73    0.29
 -10   4  -2    0.49    0.24
 -10   4  -2    0.28    0.26
 -10  -4  -2    0.38    0.18
  10  -4   2    0.12    0.17
  10  -4   2    0.61    0.23
 -10  -4  -2    0.27    0.22
  10  -4   2    0.78    0.21
 -10  -4  -2    0.41    0.19
 -10  -4  -2    0.55    0.26
  10  -4   2    0.63    0.27
  10  -4   2    1.28    0.32
 -10  -4  -2    0.24    0.22
 -10   4  -3    3.21    0.43
 -10   4  -3    2.77    0.36
 -10   4  -3    3.22    0.38
 -10   4  -3    2.63    0.38
 -10  -4  -3    3.75    0.49
 -10  -4  -3    3.00    0.37
 -10  -4  -3    2.76    0.36
  10  -4   3    3.35    0.39
 -10  -4  -3    3.40    0.40
  10  -4   3    3.30    0.39
  10  -4   3    2.63    0.31
  10  -4   3    2.91    0.36
  10  -4   3    3.62    0.48
 -10   4  -4    1.71    0.31
 -10   4  -4    1.79    0.34
 -10   4  -4    1.78    0.29
  10  -4   4    2.29    0.33
  10  -4   4    2.33    0.30
  10  -4   4    2.06    0.34
 -10  -4  -4    1.91    0.34
  10  -4   4    2.48    0.33
 -10  -4  -4    2.05    0.30
  10  -4   4    2.06    0.31
 -10  -4  -4    1.43    0.30
 -10   4  -5    0.23    0.30
 -10   4  -5    0.24    0.26
 -10  -4  -5    0.13    0.27
 -10  -4  -5   -0.01    0.27
 -10  -4  -5    0.31    0.28
  10  -4   5    0.58    0.35
  10  -4   5   -0.06    0.31
  10  -4   5   -0.39    0.24
 -10   4  -6    7.28    0.65
  10  -4   6    6.85    0.58
 -10  -4  -6    5.54    0.64
 -10  -4  -6    6.43    0.65
 -10   5   7    5.89    0.67
 -10   5   7    5.84    0.80
 -10  -5   7    6.07    0.70
  10  -5  -7    4.83    0.69
 -10   5   6    5.19    0.67
 -10   5   6    4.52    0.61
 -10  -5   6    4.53    0.58
  10  -5  -6    4.64    0.60
 -10  -5   6    3.90    0.56
 -10   5   5    8.02    0.63
 -10   5   5    8.46    0.71
 -10  -5   5    8.89    0.53
  10  -5  -5    9.09    0.65
 -10  -5   5    8.04    0.61
 -10   5   4    2.78    0.38
 -10   5   4    2.22    0.41
 -10  -5   4    2.28    0.35
  10  -5  -4    1.78    0.34
 -10  -5   4    2.24    0.36
 -10  -5   4    2.06    0.31
 -10   5   3    0.16    0.25
  10  -5  -3    0.21    0.27
  10  -5  -3    0.36    0.32
 -10  -5   3    0.21    0.29
 -10  -5   3   -0.02    0.26
 -10  -5   3   -0.31    0.24
 -10   5   2    1.38    0.34
 -10   5   2    1.16    0.41
 -10  -5   2    1.05    0.28
  10  -5  -2    1.50    0.30
 -10  -5   2    1.52    0.28
  10  -5  -2    1.36    0.33
 -10  -5   2    1.05    0.31
 -10  -5   2    1.37    0.29
 -10   5   1    0.64    0.34
 -10   5   1   -0.13    0.25
 -10  -5   1    0.28    0.30
 -10  -5   1    0.18    0.22
  10  -5  -1   -0.02    0.23
 -10  -5   1   -0.01    0.26
 -10  -5   1   -0.15    0.31
 -10  -5   1   -0.20    0.23
 -10   5   0    0.52    0.35
 -10   5   0    0.37    0.26
 -10  -5   0   -0.31    0.25
 -10  -5   0   -0.06    0.23
 -10  -5   0    0.23    0.27
 -10  -5   0    0.09    0.36
  10  -5   0    0.09    0.23
 -10   5  -1   -0.37    0.27
 -10  -5  -1   -0.05    0.35
  10  -5   1   -0.35    0.21
  10  -5   1    0.06    0.26
 -10  -5  -1    0.14    0.29
 -10  -5  -1   -0.05    0.24
 -10  -5  -1   -0.45    0.23
 -10   5  -2   -0.13    0.29
  10  -5   2   -0.44    0.26
  10  -5   2    0.08    0.22
 -10  -5  -2    0.27    0.31
 -10  -5  -2   -0.25    0.34
 -10  -5  -2    0.01    0.26
 -10  -5  -2   -0.08    0.25
 -10   5  -3    4.02    0.53
  10  -5   3    4.59    0.58
 -10  -5  -3    4.66    0.58
  10  -5   3    3.89    0.47
 -10  -5  -3    4.40    0.64
 -10  -5  -3    4.34    0.51
 -10  -5  -3    3.60    0.51
 -10   5  -4    1.05    0.28
 -10  -5  -4    1.91    0.44
  10  -5   4    2.00    0.42
 -10  -5  -4    1.88    0.38
  11   0 -12    0.51    0.33
  11   0 -12    0.31    0.35
 -11   0  12    0.36    0.32
  11   0 -12    0.48    0.43
  11   0 -11    0.28    0.26
  11   0 -11   -0.17    0.28
  11   0 -11   -0.12    0.25
 -11   0  11    0.17    0.25
  11   0 -10    5.30    0.52
 -11   0  10    5.50    0.56
 -11   0  10    5.86    0.48
  11   0 -10    6.03    0.48
  11   0 -10    5.98    0.47
 -11   0  10    5.50    0.56
  11   0  -9   -0.18    0.20
 -11   0   9   -0.28    0.19
 -11   0   9   -0.12    0.17
  11   0  -9    0.21    0.20
 -11   0   9   -0.32    0.24
 -11   0   9    0.06    0.23
  11   0  -9   -0.10    0.21
  11   0  -9   -0.01    0.16
 -11   0   8   20.76    0.74
  11   0  -8   17.57    0.67
  11   0  -8   21.14    0.73
 -11   0   8   20.06    0.76
 -11   0   8   19.90    0.70
  11   0  -8   22.04    0.72
  11   0  -8   17.69    0.71
 -11   0   8   21.64    0.74
 -11   0   7   -0.07    0.18
  11   0  -7   -0.06    0.13
 -11   0   7   -0.01    0.16
 -11   0   7   -0.11    0.13
  11   0  -7   -0.11    0.15
  11   0  -7   -0.10    0.14
 -11   0   7   -0.01    0.11
  11   0  -7   -0.01    0.14
 -11   0   7    0.04    0.12
 -11   0   6    0.52    0.17
  11   0  -6    0.35    0.13
  11   0  -6    0.19    0.15
 -11   0   6    0.26    0.13
 -11   0   6    0.38    0.13
 -11   0   6    0.13    0.12
  11   0  -6    0.41    0.14
  11   0  -6    0.58    0.16
 -11   0   6    0.38    0.16
  11   0  -5   -0.11    0.11
  11   0  -5    0.11    0.11
 -11   0   5    0.19    0.14
 -11   0   5    0.01    0.11
  11   0  -5   -0.03    0.11
 -11   0   5    0.15    0.13
 -11   0   5   -0.09    0.09
 -11   0   5   -0.11    0.10
 -11   0   4   21.61    0.61
 -11   0   4   21.35    0.65
  11   0  -4   22.14    0.61
  11   0  -4   21.91    0.67
 -11   0   4   22.40    0.70
 -11   0   4   21.83    0.67
  11   0  -4   22.37    0.65
 -11   0   4   22.54    0.68
 -11   0   3    0.05    0.07
  11   0  -3   -0.10    0.06
  11   0  -3   -0.11    0.09
 -11   0   3    0.03    0.08
  11   0  -3    0.12    0.09
 -11   0   3   -0.12    0.09
 -11   0   3    0.03    0.08
  11   0  -2   -0.03    0.07
 -11   0   2    0.37    0.10
  11   0  -2    0.11    0.06
 -11   0   2    0.07    0.09
 -11   0   2    0.05    0.08
 -11   0   2    0.00    0.09
  11   0  -2    0.05    0.08
 -11   0   2    0.05    0.08
 -11   0   2    0.10    0.06
  11   0  -1    0.03    0.08
 -11   0   1    0.04    0.09
 -11   0   1    0.11    0.09
 -11   0   1   -0.09    0.06
 -11   0   1   -0.01    0.08
  11   0  -1    0.11    0.09
 -11   0   0   28.12    0.77
 -11   0   0   28.65    0.80
 -11   0   0   29.51    0.80
 -11   0   0   28.99    0.83
  11   0   0   28.93    0.82
 -11   0  -1    0.05    0.10
  11   0   1   -0.13    0.09
 -11   0  -1   -0.10    0.09
 -11   0  -1   -0.01    0.09
 -11   0  -1   -0.04    0.08
 -11   0  -2    6.21    0.32
 -11   0  -2    5.82    0.31
  11   0   2    6.27    0.36
  11   0   2    6.69    0.34
 -11   0  -2    6.36    0.34
 -11   0  -2    5.87    0.30
  11   0   2    6.51    0.35
  11   0   3   -0.08    0.11
 -11   0  -3    0.00    0.11
 -11   0  -3    0.06    0.14
 -11   0  -3   -0.03    0.11
  11   0   3   -0.02    0.12
 -11   0  -3   -0.17    0.11
 -11   0  -4   15.10    0.58
 -11   0  -4   16.23    0.58
 -11   0  -4   15.99    0.61
  11   0   4   15.36    0.58
  11   0   4   15.50    0.59
 -11   0  -4   16.14    0.58
  11   0   5   -0.02    0.15
 -11   0  -5    0.22    0.18
 -11   0  -5    0.16    0.15
 -11   0  -5   -0.13    0.18
 -11   0  -5   -0.05    0.13
  11   0   5   -0.16    0.13
 -11   0  -6    0.52    0.19
 -11   0  -6    0.50    0.24
 -11   0  -6    0.36    0.19
 -11   0  -6    0.43    0.20
 -11   0  -6    0.30    0.18
  11   0   6    0.36    0.20
 -11   0  -7    0.23    0.20
 -11   0  -7    0.18    0.20
  11   0   7    0.00    0.27
 -11   0  -7    0.32    0.24
 -11   0  -7   -0.30    0.27
  11   0   7    0.01    0.14
 -11   0  -8   23.29    0.95
 -11   0  -8   23.34    0.92
 -11   0  -9   -0.07    0.32
 -11   0  -9    0.41    0.33
  11   1 -12    2.63    0.49
 -11   1  12    2.29    0.44
  11   1 -12    2.01    0.38
  11   1 -12    2.23    0.39
  11  -1 -12    1.79    0.44
  11  -1 -12    1.69    0.42
  11  -1 -12    1.46    0.43
 -11  -1  12    1.64    0.41
 -11   1  11    2.67    0.42
  11   1 -11    2.28    0.40
  11   1 -11    2.72    0.35
  11   1 -11    2.76    0.35
 -11   1  11    1.99    0.43
 -11  -1  11    3.25    0.47
 -11  -1  11    2.21    0.36
  11  -1 -11    2.38    0.39
  11  -1 -11    2.37    0.39
  11  -1 -11    2.16    0.37
  11   1 -10   -0.03    0.21
 -11   1  10    0.10    0.35
  11   1 -10    0.12    0.22
  11   1 -10    0.00    0.26
 -11   1  10   -0.08    0.21
 -11   1  10   -0.23    0.32
  11  -1 -10    0.22    0.21
 -11  -1  10    0.32    0.26
 -11  -1  10    0.50    0.24
  11  -1 -10   -0.13    0.24
  11  -1 -10   -0.04    0.23
  11   1  -9   13.65    0.57
 -11   1   9   14.24    0.65
 -11   1   9   13.55    0.66
  11   1  -9   14.58    0.60
  11   1  -9   13.24    0.66
  11   1  -9   13.29    0.66
 -11   1   9   13.34    0.67
  11  -1  -9   14.35    0.66
 -11  -1   9   14.01    0.62
  11  -1  -9   14.66    0.62
  11  -1  -9   14.14    0.65
 -11  -1   9   12.63    0.62
  11  -1  -9   14.82    0.64
 -11  -1   9   13.78    0.60
  11   1  -8   21.37    0.69
  11   1  -8   21.49    0.70
  11   1  -8   20.23    0.75
 -11   1   8   21.10    0.78
  11   1  -8   21.06    0.78
 -11   1   8   20.95    0.76
 -11   1   8   20.52    0.77
 -11   1   8   21.24    0.76
 -11   1   8   19.95    0.76
  11  -1  -8   21.50    0.74
  11  -1  -8   21.10    0.72
 -11  -1   8   20.75    0.71
  11  -1  -8   20.56    0.74
 -11  -1   8   21.00    0.73
 -11  -1   8   19.17    0.78
 -11  -1   8   20.81    0.73
  11  -1  -8   20.79    0.75
  11   1  -7   20.02    0.71
 -11   1   7   18.58    0.68
 -11   1   7   18.99    0.70
  11   1  -7   18.56    0.63
  11   1  -7   18.11    0.62
 -11   1   7   18.52    0.68
 -11   1   7   17.80    0.66
  11   1  -7   18.51    0.66
 -11   1   7   19.88    0.71
  11  -1  -7   18.85    0.67
  11  -1  -7   18.71    0.67
  11  -1  -7   19.08    0.67
 -11  -1   7   19.78    0.68
 -11  -1   7   18.90    0.72
  11  -1  -7   19.47    0.65
 -11  -1   7   18.55    0.63
 -11  -1   7   19.70    0.65
  11   1  -6   49.70    1.27
 -11   1   6   50.69    1.31
 -11   1   6   50.58    1.34
 -11   1   6   47.62    1.30
 -11   1   6   49.61    1.30
 -11   1   6   50.48    1.31
  11   1  -6   50.79    1.27
  11   1  -6   50.28    1.25
  11   1  -6   49.61    1.34
  11  -1  -6   49.14    1.29
 -11  -1   6   50.15    1.28
 -11  -1   6   51.63    1.26
 -11  -1   6   48.57    1.35
  11  -1  -6   48.38    1.29
 -11  -1   6   50.86    1.27
 -11  -1   6   50.67    1.29
  11  -1  -6   49.97    1.27
  11   1  -5    0.83    0.16
 -11   1   5    0.88    0.17
 -11   1   5    0.54    0.13
 -11   1   5    0.77    0.16
 -11   1   5    0.75    0.16
  11   1  -5    0.95    0.16
  11   1  -5    0.90    0.14
 -11   1   5    0.64    0.16
  11  -1  -5    0.85    0.15
 -11  -1   5    1.00    0.18
 -11  -1   5    0.63    0.14
  11  -1  -5    0.45    0.13
 -11  -1   5    0.71    0.13
 -11  -1   5    0.84    0.13
 -11  -1   5    0.77    0.16
  11  -1  -5    0.83    0.15
 -11   1   4   19.10    0.62
  11   1  -4   18.84    0.61
 -11   1   4   18.67    0.58
  11   1  -4   18.95    0.56
 -11   1   4   19.83    0.63
 -11   1   4   18.33    0.60
 -11   1   4   17.25    0.63
  11   1  -4   19.29    0.56
 -11  -1   4   18.91    0.56
  11  -1  -4   18.82    0.56
 -11  -1   4   19.09    0.58
 -11  -1   4   18.91    0.55
  11  -1  -4   18.88    0.61
 -11  -1   4   19.12    0.64
  11  -1  -4   18.33    0.61
 -11  -1   4   19.39    0.61
 -11   1   3    0.48    0.14
 -11   1   3    0.31    0.13
 -11   1   3    0.44    0.12
  11   1  -3    0.45    0.10
  11   1  -3    0.37    0.09
 -11   1   3    0.14    0.11
 -11   1   3    0.42    0.11
  11   1  -3    0.16    0.11
 -11   1   3    0.48    0.11
  11  -1  -3    0.33    0.10
 -11  -1   3    0.49    0.13
 -11  -1   3    0.27    0.08
 -11  -1   3    0.21    0.10
 -11  -1   3    0.36    0.10
 -11  -1   3    0.28    0.11
  11  -1  -3    0.43    0.12
  11  -1  -3    0.44    0.13
  11   1  -2   25.14    0.73
 -11   1   2   22.94    0.71
 -11   1   2   25.55    0.71
 -11   1   2   24.61    0.72
 -11   1   2   24.74    0.75
 -11   1   2   25.29    0.73
 -11   1   2   24.66    0.65
  11   1  -2   25.26    0.66
 -11  -1   2   24.85    0.75
 -11  -1   2   24.43    0.68
  11  -1  -2   24.52    0.73
 -11  -1   2   23.92    0.61
  11  -1  -2   25.32    0.73
 -11  -1   2   24.80    0.65
 -11  -1   2   25.44    0.76
  11  -1  -2   24.88    0.76
  11  -1  -2   24.40    0.62
 -11  -1   2   25.38    0.72
 -11   1   1    0.96    0.12
  11   1  -1    1.25    0.18
 -11   1   1    0.69    0.12
 -11   1   1    0.88    0.15
 -11   1   1    1.02    0.16
 -11   1   1    0.98    0.15
  11  -1  -1    1.03    0.17
 -11  -1   1    1.18    0.16
 -11  -1   1    1.30    0.18
  11  -1  -1    1.08    0.11
 -11  -1   1    1.08    0.17
 -11  -1   1    1.01    0.13
  11  -1  -1    1.35    0.19
 -11  -1   1    1.14    0.17
 -11  -1   1    1.25    0.09
  11  -1  -1    0.94    0.16
 -11   1   0    8.23    0.36
 -11   1   0    7.95    0.38
  11   1   0    8.19    0.38
 -11   1   0    8.59    0.37
  11   1   0    8.19    0.33
 -11   1   0    7.90    0.36
 -11  -1   0    8.19    0.32
  11  -1   0    7.32    0.36
 -11  -1   0    8.04    0.29
 -11  -1   0    8.91    0.37
  11  -1   0    7.83    0.38
 -11  -1   0    7.63    0.36
 -11   1  -1   50.59    1.31
 -11   1  -1   52.02    1.29
 -11   1  -1   50.19    1.27
  11   1   1   50.08    1.23
  11   1   1   51.35    1.32
 -11   1  -1   51.92    1.29
 -11  -1  -1   50.72    1.20
  11  -1   1   50.50    1.28
 -11  -1  -1   50.02    1.28
 -11  -1  -1   51.20    1.32
  11  -1   1   49.56    1.31
 -11  -1  -1   52.42    1.23
 -11   1  -2   24.37    0.75
  11   1   2   23.85    0.69
 -11   1  -2   23.28    0.72
 -11   1  -2   22.97    0.73
 -11   1  -2   23.53    0.71
 -11  -1  -2   22.50    0.71
 -11  -1  -2   23.37    0.68
  11  -1   2   22.54    0.74
 -11  -1  -2   22.61    0.64
 -11  -1  -2   23.07    0.75
  11  -1   2   22.13    0.71
  11  -1   2   24.14    0.72
 -11   1  -3   27.48    0.85
 -11   1  -3   27.15    0.83
 -11   1  -3   28.01    0.86
  11   1   3   27.41    0.79
  11   1   3   27.14    0.84
 -11   1  -3   26.87    0.80
  11  -1   3   28.32    0.82
 -11  -1  -3   25.86    0.75
 -11  -1  -3   27.73    0.83
 -11  -1  -3   27.48    0.86
 -11  -1  -3   27.86    0.79
  11  -1   3   28.76    0.87
  11  -1   3   27.59    0.84
  11   1   4   23.81    0.78
  11   1   4   26.96    0.77
 -11   1  -4   25.05    0.76
 -11   1  -4   20.25    0.77
 -11   1  -4   24.12    0.79
 -11   1  -4   26.69    0.82
 -11  -1  -4   23.80    0.78
  11  -1   4   24.24    0.81
 -11  -1  -4   24.62    0.73
  11  -1   4   24.34    0.79
 -11  -1  -4   24.91    0.75
 -11   1  -5    0.52    0.23
  11   1   5    0.77    0.18
 -11   1  -5    0.81    0.21
 -11   1  -5    0.72    0.18
 -11   1  -5    0.91    0.26
  11   1   5    0.83    0.19
  11  -1   5    0.95    0.13
  11  -1   5    0.66    0.20
  11  -1   5    0.87    0.20
 -11  -1  -5    0.89    0.19
 -11  -1  -5    0.88    0.21
 -11  -1  -5    1.34    0.21
 -11  -1  -5    0.62    0.17
 -11   1  -6    3.46    0.41
 -11   1  -6    3.52    0.39
  11   1   6    3.53    0.35
 -11   1  -6    3.12    0.44
 -11   1  -6    4.44    0.43
 -11  -1  -6    2.75    0.38
 -11  -1  -6    2.42    0.34
  11  -1   6    3.49    0.23
  11  -1   6    3.14    0.40
 -11  -1  -6    3.12    0.36
 -11   1  -7    0.55    0.23
  11   1   7    0.22    0.31
 -11   1  -7    0.23    0.26
 -11   1  -7    0.85    0.29
  11   1   7    0.75    0.17
 -11   1  -7    0.51    0.28
 -11   1  -7    0.99    0.29
 -11  -1  -7    0.55    0.24
  11  -1   7    0.96    0.18
 -11  -1  -7    0.95    0.27
 -11  -1  -7    0.55    0.26
 -11  -1  -7    0.88    0.17
  11  -1   7    0.59    0.29
 -11   1  -8   -0.03    0.28
 -11   1  -8   -0.09    0.36
 -11   1  -8    0.23    0.35
 -11   1  -8    0.09    0.31
 -11  -1  -8    0.19    0.30
 -11  -1  -8    0.44    0.27
 -11   1  -9    5.26    0.72
 -11   1  -9    5.17    0.58
 -11  -1  -9    5.00    0.66
 -11  -1  -9    4.99    0.68
  11   2 -11    0.62    0.27
 -11   2  11    0.67    0.34
  11   2 -11    0.59    0.36
  11   2 -11    0.80    0.28
 -11   2  11    0.86    0.32
 -11  -2  11    0.90    0.31
  11  -2 -11    0.65    0.40
  11  -2 -11    0.45    0.34
  11   2 -10    5.00    0.57
  11   2 -10    6.52    0.46
 -11   2  10    6.98    0.61
 -11   2  10    5.76    0.57
 -11   2  10    6.18    0.60
  11   2 -10    7.11    0.47
 -11   2  10    4.99    0.67
 -11  -2  10    5.70    0.54
  11  -2 -10    6.67    0.57
 -11  -2  10    6.46    0.51
  11  -2 -10    6.25    0.60
  11  -2 -10    5.23    0.49
  11   2  -9    3.25    0.37
 -11   2   9    2.16    0.34
 -11   2   9    3.84    0.49
 -11   2   9    3.99    0.46
  11   2  -9    3.71    0.35
  11   2  -9    2.96    0.38
 -11   2   9    3.14    0.43
  11  -2  -9    3.07    0.37
  11  -2  -9    2.99    0.36
 -11  -2   9    3.25    0.43
  11  -2  -9    3.82    0.45
 -11  -2   9    3.37    0.40
  11   2  -8    0.78    0.17
 -11   2   8    0.83    0.25
  11   2  -8    1.11    0.20
 -11   2   8    0.53    0.25
 -11   2   8    1.11    0.28
  11   2  -8    0.71    0.22
 -11   2   8    0.69    0.25
  11   2  -8    0.99    0.28
 -11  -2   8    0.73    0.22
  11  -2  -8    0.48    0.21
  11  -2  -8    0.83    0.21
  11  -2  -8    0.92    0.24
  11  -2  -8    0.55    0.19
 -11  -2   8    0.60    0.21
  11   2  -7    8.21    0.47
 -11   2   7    7.48    0.47
  11   2  -7    7.99    0.37
 -11   2   7    7.51    0.46
  11   2  -7    8.32    0.41
 -11   2   7    8.13    0.44
 -11   2   7    8.32    0.49
 -11   2   7    8.12    0.50
  11   2  -7    8.41    0.47
  11  -2  -7    8.08    0.48
 -11  -2   7    7.92    0.37
  11  -2  -7    7.82    0.45
 -11  -2   7    8.48    0.44
 -11  -2   7    6.78    0.47
  11  -2  -7    8.09    0.47
 -11  -2   7    7.76    0.42
 -11   2   6   -0.16    0.15
 -11   2   6   -0.04    0.14
  11   2  -6    0.05    0.11
 -11   2   6    0.00    0.17
  11   2  -6    0.00    0.12
 -11   2   6    0.03    0.15
  11   2  -6    0.08    0.15
 -11   2   6    0.00    0.17
  11   2  -6   -0.20    0.14
 -11  -2   6    0.17    0.16
 -11  -2   6   -0.05    0.11
 -11  -2   6   -0.02    0.14
  11  -2  -6    0.05    0.14
  11  -2  -6   -0.02    0.14
  11  -2  -6    0.32    0.16
 -11  -2   6   -0.08    0.16
 -11   2   5    0.42    0.14
 -11   2   5    0.04    0.17
 -11   2   5    0.56    0.16
 -11   2   5    0.13    0.18
 -11   2   5    0.20    0.15
  11   2  -5    0.38    0.14
  11   2  -5    0.53    0.15
  11   2  -5    0.32    0.10
  11  -2  -5    0.36    0.15
 -11  -2   5    0.31    0.16
 -11  -2   5    0.27    0.16
 -11  -2   5    0.17    0.12
  11  -2  -5    0.33    0.15
  11  -2  -5    0.50    0.15
 -11  -2   5    0.21    0.10
 -11  -2   5    0.39    0.16
 -11   2   4   10.52    0.47
  11   2  -4   10.48    0.42
 -11   2   4   10.48    0.46
 -11   2   4   10.29    0.47
 -11   2   4   10.61    0.39
  11   2  -4   10.75    0.35
 -11   2   4   10.07    0.48
  11   2  -4   10.44    0.44
 -11   2   4    9.90    0.40
 -11  -2   4   10.81    0.35
  11  -2  -4   10.87    0.47
 -11  -2   4   10.00    0.47
  11  -2  -4   10.69    0.42
 -11  -2   4   11.08    0.45
 -11  -2   4   10.97    0.42
  11  -2  -4   10.53    0.45
 -11  -2   4   10.65    0.39
  11   2  -3   10.94    0.34
  11   2  -3   10.21    0.44
 -11   2   3   11.05    0.39
 -11   2   3   11.08    0.48
 -11   2   3   10.74    0.43
 -11   2   3   10.71    0.47
 -11   2   3   10.71    0.49
 -11   2   3   10.94    0.41
  11  -2  -3   11.22    0.47
 -11  -2   3   10.99    0.44
 -11  -2   3   10.74    0.37
 -11  -2   3   10.60    0.39
 -11  -2   3   10.24    0.46
  11  -2  -3   10.74    0.45
 -11  -2   3   10.84    0.34
 -11   2   2    4.68    0.32
 -11   2   2    5.53    0.28
 -11   2   2    4.73    0.27
 -11   2   2    5.50    0.30
 -11   2   2    5.22    0.33
  11   2  -2    5.15    0.31
 -11   2   2    5.20    0.34
  11   2  -2    4.99    0.22
  11  -2  -2    5.74    0.28
  11  -2  -2    5.16    0.33
  11  -2  -2    5.32    0.36
 -11  -2   2    5.51    0.25
  11  -2  -2    5.04    0.31
 -11  -2   2    5.25    0.21
 -11  -2   2    5.40    0.32
 -11  -2   2    5.33    0.23
 -11  -2   2    5.33    0.31
 -11   2   1   16.41    0.53
 -11   2   1   16.39    0.52
 -11   2   1   16.56    0.58
 -11   2   1   16.95    0.61
 -11   2   1   16.79    0.59
  11   2  -1   17.77    0.60
 -11  -2   1   16.47    0.45
 -11  -2   1   16.32    0.59
 -11  -2   1   17.07    0.50
  11  -2  -1   16.73    0.50
 -11  -2   1   16.56    0.47
  11  -2  -1   16.36    0.62
  11  -2  -1   16.56    0.57
 -11  -2   1   17.31    0.47
 -11  -2   1   17.40    0.60
 -11  -2   1   16.28    0.57
  11  -2  -1   18.22    0.61
 -11   2   0   53.88    1.31
 -11   2   0   54.93    1.34
 -11   2   0   54.22    1.40
 -11   2   0   44.75    1.32
 -11  -2   0   51.61    1.33
  11  -2   0   53.94    1.40
 -11  -2   0   54.41    1.20
 -11  -2   0   54.62    1.38
 -11  -2   0   53.55    1.21
  11  -2   0   54.48    1.33
 -11  -2   0   53.85    1.19
 -11  -2   0   54.39    1.22
  11  -2   0   53.27    1.24
 -11  -2   0   53.33    1.38
 -11   2  -1   10.99    0.48
 -11   2  -1   10.48    0.45
  11   2   1   11.57    0.37
 -11   2  -1   10.95    0.44
 -11  -2  -1   11.26    0.49
 -11  -2  -1   10.66    0.44
  11  -2   1   10.69    0.37
  11  -2   1   10.80    0.35
  11  -2   1   11.07    0.45
  11  -2   1    9.97    0.48
 -11  -2  -1   10.51    0.31
 -11  -2  -1   11.09    0.33
 -11  -2  -1   10.91    0.35
 -11  -2  -1   10.68    0.33
 -11   2  -2    2.06    0.25
  11   2   2    1.78    0.18
 -11   2  -2    1.87    0.24
 -11   2  -2    2.04    0.29
 -11   2  -2    2.22    0.27
 -11  -2  -2    2.11    0.15
  11  -2   2    1.75    0.19
 -11  -2  -2    1.89    0.14
  11  -2   2    2.25    0.19
  11  -2   2    1.86    0.23
  11  -2   2    2.03    0.27
 -11  -2  -2    1.96    0.14
 -11  -2  -2    1.91    0.26
 -11  -2  -2    1.99    0.26
 -11  -2  -2    2.22    0.19
  11  -2   2    1.41    0.22
 -11   2  -3    2.18    0.29
  11   2   3    1.59    0.22
 -11   2  -3    1.54    0.21
 -11   2  -3    1.62    0.23
 -11   2  -3    1.25    0.17
  11  -2   3    1.72    0.22
 -11  -2  -3    1.96    0.15
 -11  -2  -3    1.77    0.18
 -11  -2  -3    1.68    0.14
  11  -2   3    1.97    0.28
  11  -2   3    1.70    0.21
 -11  -2  -3    1.79    0.25
 -11  -2  -3    1.52    0.21
  11  -2   3    1.71    0.24
 -11  -2  -3    2.06    0.27
  11  -2   3    1.85    0.18
 -11   2  -4    0.21    0.20
  11   2   4    0.26    0.14
 -11   2  -4    0.48    0.18
 -11   2  -4    0.45    0.18
 -11   2  -4    0.23    0.18
 -11  -2  -4    0.37    0.20
  11  -2   4   -0.04    0.19
 -11  -2  -4    0.32    0.10
  11  -2   4    0.24    0.21
  11  -2   4    0.40    0.12
 -11  -2  -4    0.26    0.12
  11  -2   4    0.06    0.15
 -11  -2  -4    0.13    0.13
  11  -2   4    0.10    0.14
 -11  -2  -4    0.14    0.17
  11   2   5    0.48    0.15
 -11   2  -5    0.27    0.21
 -11   2  -5    0.86    0.26
 -11   2  -5    0.32    0.23
 -11   2  -5    0.34    0.20
 -11  -2  -5    0.47    0.13
 -11  -2  -5    0.40    0.17
 -11  -2  -5    0.67    0.22
  11  -2   5    0.62    0.24
  11  -2   5    0.63    0.17
  11  -2   5    0.55    0.22
  11  -2   5    0.55    0.16
 -11  -2  -5    0.31    0.20
 -11   2  -6    1.00    0.28
 -11   2  -6    1.30    0.29
 -11   2  -6    0.77    0.32
 -11   2  -6    1.38    0.28
  11   2   6    0.71    0.19
  11   2   6    1.19    0.19
 -11  -2  -6    1.15    0.25
 -11  -2  -6    1.14    0.25
  11  -2   6    1.03    0.18
 -11  -2  -6    0.85    0.26
  11  -2   6    1.22    0.22
 -11  -2  -6    1.21    0.18
  11  -2   6    1.13    0.28
 -11   2  -7    0.15    0.29
 -11   2  -7    0.73    0.23
  11   2   7    0.86    0.21
 -11   2  -7    1.47    0.36
 -11   2  -7    1.38    0.43
 -11   2  -7    1.21    0.29
 -11  -2  -7    0.63    0.31
 -11  -2  -7    0.76    0.29
  11  -2   7    1.14    0.22
 -11   2  -8    8.82    0.59
 -11   2  -8    8.29    0.73
 -11   2  -8    9.45    0.78
 -11  -2  -8    8.60    0.68
 -11  -2  -8    9.57    0.71
  11   3 -10    3.03    0.39
  11   3 -10    2.59    0.43
 -11   3  10    2.86    0.49
 -11   3  10    2.84    0.45
  11  -3 -10    2.16    0.37
  11  -3 -10    2.15    0.32
 -11  -3  10    2.43    0.38
  11  -3 -10    2.37    0.42
 -11   3   9    1.12    0.29
  11   3  -9    0.88    0.30
 -11   3   9    1.42    0.37
  11   3  -9    0.96    0.24
  11   3  -9    1.24    0.23
  11  -3  -9    1.05    0.30
 -11  -3   9    0.64    0.30
  11  -3  -9    1.21    0.35
 -11  -3   9    0.91    0.28
 -11   3   8    1.95    0.34
  11   3  -8    1.97    0.23
 -11   3   8    1.66    0.26
 -11   3   8    1.90    0.34
  11   3  -8    1.54    0.29
 -11   3   8    1.07    0.26
  11   3  -8    1.63    0.24
 -11  -3   8    2.35    0.29
  11  -3  -8    2.39    0.34
 -11  -3   8    2.15    0.34
  11  -3  -8    1.90    0.33
  11   3  -7    0.50    0.23
 -11   3   7    0.41    0.18
  11   3  -7    0.29    0.25
 -11   3   7    0.08    0.27
  11   3  -7    0.62    0.18
 -11   3   7    0.45    0.25
 -11   3   7    0.54    0.27
  11   3  -7    0.40    0.14
  11  -3  -7    0.12    0.26
 -11  -3   7    0.15    0.21
 -11  -3   7    0.34    0.22
  11  -3  -7    0.09    0.21
  11  -3  -7    0.45    0.24
 -11   3   6   16.02    0.49
  11   3  -6   16.01    0.67
 -11   3   6   16.01    0.71
  11   3  -6   16.09    0.50
 -11   3   6   17.26    0.72
  11   3  -6   15.44    0.58
 -11   3   6   16.60    0.53
 -11  -3   6   17.05    0.60
 -11  -3   6   17.21    0.65
  11  -3  -6   16.30    0.66
  11  -3  -6   15.60    0.65
 -11  -3   6   15.66    0.54
  11  -3  -6   16.61    0.67
 -11   3   5   13.52    0.62
 -11   3   5   12.41    0.62
 -11   3   5   13.24    0.44
  11   3  -5   12.85    0.52
  11   3  -5   13.11    0.40
 -11   3   5   13.55    0.59
 -11   3   5   13.11    0.42
 -11   3   5   12.57    0.58
 -11  -3   5   13.10    0.41
 -11  -3   5   13.54    0.55
 -11  -3   5   12.07    0.43
 -11  -3   5   13.56    0.53
  11  -3  -5   13.09    0.59
 -11  -3   5   11.61    0.60
  11  -3  -5   12.32    0.56
  11  -3  -5   12.80    0.56
 -11   3   4    7.14    0.44
  11   3  -4    6.00    0.37
 -11   3   4    6.39    0.46
 -11   3   4    6.60    0.44
 -11   3   4    5.76    0.29
 -11   3   4    6.83    0.48
  11   3  -4    6.85    0.24
  11  -3  -4    6.83    0.43
  11  -3  -4    7.19    0.41
 -11  -3   4    6.75    0.37
  11  -3  -4    6.83    0.40
 -11  -3   4    6.67    0.26
 -11  -3   4    5.49    0.41
 -11  -3   4    6.76    0.28
 -11  -3   4    7.14    0.41
 -11   3   3    8.86    0.45
 -11   3   3    9.02    0.52
 -11   3   3    8.81    0.34
 -11   3   3    8.63    0.48
 -11   3   3    8.94    0.32
 -11   3   3    8.87    0.49
  11  -3  -3    8.71    0.44
 -11  -3   3    9.50    0.40
  11  -3  -3    9.05    0.49
  11  -3  -3    8.69    0.43
 -11  -3   3    8.88    0.48
 -11  -3   3    9.44    0.44
 -11   3   2    4.58    0.26
 -11   3   2    5.32    0.35
 -11   3   2    5.04    0.39
 -11   3   2    4.65    0.36
 -11   3   2    4.36    0.38
 -11   3   2    4.83    0.25
 -11  -3   2    4.65    0.29
  11  -3  -2    5.10    0.35
 -11  -3   2    4.83    0.37
  11  -3  -2    4.97    0.35
  11  -3  -2    4.87    0.39
 -11  -3   2    5.29    0.34
  11  -3  -2    4.36    0.38
 -11  -3   2    5.77    0.36
 -11   3   1    2.68    0.23
 -11   3   1    1.93    0.24
 -11   3   1    2.32    0.23
 -11   3   1    2.62    0.32
 -11   3   1    2.61    0.33
 -11  -3   1    2.62    0.23
 -11  -3   1    1.92    0.27
 -11  -3   1    1.99    0.23
  11  -3  -1    2.39    0.32
 -11  -3   1    3.00    0.32
  11  -3  -1    2.14    0.27
  11  -3  -1    3.05    0.28
  11  -3  -1    2.10    0.28
 -11  -3   1    2.18    0.30
 -11   3   0   40.88    1.16
 -11   3   0   39.45    1.01
 -11   3   0   39.64    1.13
 -11   3   0   40.30    1.09
 -11  -3   0   35.24    1.09
 -11  -3   0   38.54    1.13
  11  -3   0   39.71    1.06
  11  -3   0   39.64    1.05
 -11  -3   0   40.03    1.00
 -11  -3   0   39.74    1.02
 -11  -3   0   39.75    1.10
  11  -3   0   41.12    1.17
 -11   3  -1    2.18    0.26
 -11   3  -1    1.73    0.24
 -11   3  -1    2.30    0.33
 -11   3  -1    2.31    0.27
 -11  -3  -1    2.02    0.24
 -11  -3  -1    1.68    0.21
  11  -3   1    2.95    0.39
 -11  -3  -1    1.97    0.27
  11  -3   1    2.25    0.27
 -11  -3  -1    2.37    0.31
  11  -3   1    1.94    0.27
  11  -3   1    2.00    0.26
 -11  -3  -1    1.85    0.26
 -11   3  -2    7.51    0.47
 -11   3  -2    8.02    0.43
 -11   3  -2    6.54    0.47
 -11   3  -2    7.42    0.42
 -11  -3  -2    7.96    0.35
  11  -3   2    6.93    0.40
  11  -3   2    8.18    0.50
  11  -3   2    7.31    0.38
 -11  -3  -2    7.87    0.45
  11  -3   2    7.43    0.41
 -11  -3  -2    7.53    0.34
 -11  -3  -2    7.49    0.44
  11  -3   2    8.14    0.38
 -11   3  -3    0.11    0.22
 -11   3  -3    0.05    0.19
 -11   3  -3   -0.15    0.18
 -11   3  -3    0.03    0.17
  11  -3   3    0.03    0.18
  11  -3   3    0.23    0.18
 -11  -3  -3    0.02    0.09
  11  -3   3   -0.10    0.13
 -11  -3  -3    0.02    0.13
  11  -3   3    0.22    0.16
 -11  -3  -3    0.11    0.17
 -11  -3  -3    0.00    0.11
  11  -3   3    0.37    0.22
 -11  -3  -3   -0.04    0.16
 -11   3  -4    7.55    0.56
 -11   3  -4    7.62    0.45
 -11   3  -4    8.80    0.52
  11   3   4    8.36    0.35
 -11   3  -4    8.51    0.54
 -11  -3  -4    8.34    0.51
  11  -3   4    8.58    0.46
  11  -3   4    8.10    0.57
  11  -3   4    8.24    0.41
 -11  -3  -4    9.60    0.53
  11  -3   4    7.16    0.49
  11  -3   4    8.72    0.43
 -11  -3  -4    8.36    0.38
 -11  -3  -4    8.41    0.36
 -11   3  -5    0.17    0.23
 -11   3  -5    0.12    0.23
  11   3   5   -0.09    0.14
 -11   3  -5    0.11    0.29
 -11   3  -5    0.28    0.25
  11  -3   5    0.00    0.23
  11  -3   5    0.19    0.27
 -11  -3  -5   -0.08    0.17
  11  -3   5    0.41    0.21
 -11  -3  -5    0.27    0.22
 -11  -3  -5    0.20    0.24
  11  -3   5   -0.04    0.30
  11   3   6    0.60    0.18
 -11   3  -6    0.26    0.30
 -11   3  -6    0.77    0.33
 -11  -3  -6    0.26    0.30
 -11  -3  -6    0.70    0.28
  11  -3   6    0.57    0.26
  11  -3   6    0.56    0.35
 -11   3  -7    1.41    0.46
 -11   3  -7    1.42    0.35
 -11  -3  -7    1.21    0.35
  11  -3   7    1.49    0.32
 -11  -3  -7    1.37    0.37
  11   4  -9    3.03    0.48
 -11   4   9    3.81    0.56
 -11   4   9    3.53    0.54
  11  -4  -9    3.37    0.42
 -11  -4   9    4.01    0.52
 -11   4   8    0.94    0.37
 -11   4   8    0.24    0.36
  11   4  -8    0.38    0.33
  11   4  -8    0.43    0.19
  11  -4  -8    0.72    0.34
 -11  -4   8    0.77    0.34
  11   4  -7    2.10    0.36
 -11   4   7    2.41    0.38
 -11   4   7    2.19    0.41
  11   4  -7    2.05    0.26
  11  -4  -7    1.65    0.33
  11  -4  -7    2.07    0.38
 -11  -4   7    2.23    0.39
 -11  -4   7    1.65    0.30
 -11   4   6    4.22    0.51
 -11   4   6    5.50    0.54
 -11  -4   6    3.33    0.43
  11  -4  -6    3.41    0.50
 -11  -4   6    5.07    0.50
  11  -4  -6    3.85    0.52
 -11   4   5   11.92    0.67
 -11   4   5   12.49    0.68
 -11   4   5   13.16    0.69
  11  -4  -5   13.02    0.64
 -11  -4   5   12.05    0.59
  11  -4  -5   12.01    0.65
 -11  -4   5   12.86    0.57
 -11   4   4    0.47    0.23
 -11   4   4   -0.06    0.21
 -11   4   4    0.36    0.28
 -11  -4   4    0.35    0.20
  11  -4  -4    0.60    0.26
  11  -4  -4    0.31    0.22
  11  -4  -4    0.48    0.26
 -11  -4   4    0.14    0.24
 -11  -4   4    0.45    0.23
 -11   4   3    4.77    0.52
 -11   4   3    5.59    0.46
 -11   4   3    5.44    0.49
 -11   4   3    5.89    0.48
  11  -4  -3    5.91    0.44
  11  -4  -3    5.73    0.49
 -11  -4   3    5.86    0.51
  11  -4  -3    5.15    0.49
 -11  -4   3    5.37    0.44
 -11  -4   3    5.87    0.53
 -11  -4   3    6.02    0.42
 -11   4   2    2.71    0.36
 -11   4   2    3.53    0.45
 -11   4   2    2.54    0.37
 -11  -4   2    3.19    0.40
  11  -4  -2    3.48    0.42
 -11  -4   2    2.82    0.34
  11  -4  -2    2.61    0.30
 -11  -4   2    2.87    0.40
 -11  -4   2    3.24    0.46
  11  -4  -2    3.33    0.44
 -11  -4   2    2.33    0.36
 -11   4   1    7.70    0.56
 -11   4   1    8.24    0.53
 -11   4   1    7.30    0.51
 -11  -4   1    8.57    0.57
  11  -4  -1    7.90    0.53
  11  -4  -1    7.44    0.45
 -11  -4   1    7.54    0.48
  11  -4  -1    7.69    0.55
 -11  -4   1    7.89    0.49
 -11  -4   1    8.14    0.52
 -11  -4   1    7.87    0.43
 -11   4   0   25.09    0.70
 -11   4   0   23.81    0.89
 -11   4   0   23.39    0.88
 -11   4   0   26.73    0.88
 -11  -4   0   25.69    0.89
 -11  -4   0   24.50    0.92
 -11  -4   0   27.15    0.88
 -11  -4   0   25.72    0.79
 -11  -4   0   26.41    0.88
  11  -4   0   26.29    0.81
  11  -4   0   25.21    0.87
  11  -4   0   24.43    0.92
 -11  -4   0   25.66    0.84
 -11   4  -1    6.25    0.39
 -11   4  -1    7.97    0.54
 -11   4  -1    6.60    0.54
 -11   4  -1    6.55    0.51
  11  -4   1    5.87    0.50
 -11  -4  -1    6.67    0.39
  11  -4   1    6.31    0.53
 -11  -4  -1    6.22    0.43
  11  -4   1    7.41    0.46
 -11  -4  -1    6.60    0.49
 -11  -4  -1    7.30    0.47
  11  -4   1    7.12    0.42
 -11  -4  -1    6.27    0.50
 -11   4  -2   -0.01    0.22
 -11   4  -2    0.44    0.28
 -11   4  -2    0.00    0.23
 -11  -4  -2    0.04    0.22
  11  -4   2    0.01    0.24
 -11  -4  -2   -0.10    0.22
 -11  -4  -2    0.57    0.23
 -11  -4  -2    0.27    0.21
  11  -4   2    0.12    0.29
  11  -4   2    0.06    0.19
  11  -4   2    0.23    0.23
  11  -4   2    0.07    0.19
 -11   4  -3    1.78    0.27
 -11   4  -3    2.15    0.68
 -11   4  -3    1.52    0.33
 -11   4  -3    1.94    0.30
 -11  -4  -3    2.22    0.32
  11  -4   3    1.86    0.38
  11  -4   3    1.86    0.35
  11  -4   3    2.17    0.30
 -11  -4  -3    1.81    0.30
 -11  -4  -3    1.95    0.30
  11  -4   3    1.81    0.25
  11  -4   3    1.53    0.28
 -11  -4  -3    1.97    0.26
 -11   4  -4    0.27    0.21
 -11   4  -4    0.48    0.30
 -11  -4  -4   -0.12    0.27
  11  -4   4    0.39    0.20
  11  -4   4    0.31    0.31
  11  -4   4    0.18    0.26
  11  -4   4   -0.24    0.28
 -11  -4  -4   -0.13    0.27
 -11  -4  -4   -0.20    0.25
  11  -4   4   -0.54    0.36
 -11   4  -5    4.93    0.60
 -11   4  -5    5.59    0.65
 -11  -4  -5    4.81    0.57
  11  -4   5    5.14    0.50
 -11  -4  -5    5.95    0.54
 -11   4  -6    0.78    0.44
 -11   4  -6    0.56    0.40
 -11  -4  -6    0.88    0.48
  11  -4   6    1.72    0.39
 -11  -4  -6    0.00    0.41
 -11   5   6    1.90    0.44
 -11   5   6    1.24    0.38
  11  -5  -6    0.77    0.39
 -11  -5   6    1.19    0.36
 -11   5   5    0.15    0.37
 -11   5   5    0.56    0.32
 -11  -5   5    0.71    0.26
 -11  -5   5    0.61    0.30
  11  -5  -5    1.00    0.36
 -11   5   4    0.34    0.34
 -11   5   4   -0.19    0.32
  11  -5  -4    0.32    0.31
 -11  -5   4    0.25    0.30
 -11  -5   4    0.60    0.27
 -11  -5   4   -0.12    0.34
 -11   5   3    0.25    0.29
 -11  -5   3   -0.15    0.27
 -11  -5   3   -0.37    0.27
  11  -5  -3   -0.37    0.26
 -11  -5   3   -0.25    0.31
 -11  -5   3    0.28    0.25
 -11   5   2   12.41    0.71
 -11  -5   2   13.48    0.69
 -11  -5   2   12.70    0.65
  11  -5  -2   11.46    0.63
 -11  -5   2   12.55    0.69
 -11  -5   2   11.88    0.70
 -11   5   1    4.96    0.56
 -11   5   1    5.98    0.72
 -11  -5   1    4.57    0.71
 -11  -5   1    4.90    0.49
  11  -5  -1    5.12    0.50
 -11  -5   1    5.16    0.50
 -11  -5   1    4.75    0.54
 -11   5   0    0.92    0.43
 -11   5   0   -0.25    0.28
 -11  -5   0    0.05    0.27
  11  -5   0    0.15    0.26
  11  -5   0    0.36    0.31
 -11  -5   0   -0.29    0.37
 -11  -5   0    0.11    0.25
 -11  -5   0    0.66    0.31
 -11   5  -1    4.20    0.56
  11  -5   1    5.79    0.60
 -11  -5  -1    3.99    0.48
  11  -5   1    5.06    0.48
 -11  -5  -1    4.18    0.54
 -11  -5  -1    4.55    0.50
 -11  -5  -1    3.62    0.46
 -11   5  -2    1.28    0.41
  11  -5   2    0.64    0.33
 -11  -5  -2    1.28    0.49
 -11  -5  -2    0.70    0.33
 -11  -5  -2    0.72    0.30
  11  -5   2    0.45    0.25
 -11  -5  -2    0.66    0.31
 -11   5  -3   -0.02    0.34
 -11  -5  -3    0.74    0.33
  11  -5   3    0.74    0.35
 -11  -5  -3   -0.05    0.32
 -11  -5  -3    0.30    0.35
  12   0 -12    4.19    0.48
  12   0 -12    4.63    0.55
  12   0 -12    3.30    0.47
 -12   0  12    4.51    0.54
  12   0 -11   -0.26    0.27
  12   0 -11   -0.42    0.32
  12   0 -11   -0.35    0.24
 -12   0  11    0.33    0.28
  12   0 -10   -0.08    0.23
  12   0 -10    0.10    0.24
 -12   0  10    0.40    0.23
  12   0 -10   -0.31    0.26
 -12   0   9   -0.01    0.19
 -12   0   9    0.40    0.27
 -12   0   9    0.13    0.31
  12   0  -9   -0.01    0.25
  12   0  -9    0.08    0.21
 -12   0   9   -0.14    0.25
  12   0  -9   -0.08    0.20
  12   0  -9   -0.04    0.18
  12   0  -8    0.33    0.18
  12   0  -8    0.37    0.19
 -12   0   8    0.05    0.19
  12   0  -8    0.21    0.16
 -12   0   8    0.39    0.16
 -12   0   8    0.36    0.22
 -12   0   8    0.06    0.23
 -12   0   8    0.17    0.18
  12   0  -8    0.21    0.19
 -12   0   7   -0.02    0.15
 -12   0   7   -0.05    0.18
  12   0  -7    0.06    0.14
 -12   0   7    0.00    0.18
 -12   0   7    0.22    0.15
 -12   0   7    0.20    0.18
  12   0  -7    0.08    0.18
  12   0  -7   -0.13    0.15
  12   0  -7    0.07    0.15
 -12   0   6   10.41    0.44
  12   0  -6   10.27    0.44
 -12   0   6   10.23    0.48
  12   0  -6   10.76    0.45
 -12   0   6   10.45    0.50
 -12   0   6    9.60    0.47
 -12   0   6   10.77    0.47
  12   0  -6   10.56    0.46
 -12   0   5    0.09    0.11
 -12   0   5    0.00    0.10
 -12   0   5    0.13    0.12
 -12   0   5    0.07    0.13
  12   0  -5    0.12    0.11
  12   0  -5   -0.09    0.11
 -12   0   5   -0.02    0.13
  12   0  -5    0.05    0.13
 -12   0   4   18.13    0.58
  12   0  -4   17.70    0.52
  12   0  -4   17.71    0.57
 -12   0   4   17.14    0.53
  12   0  -4   18.38    0.60
 -12   0   4   18.15    0.61
 -12   0   4   17.22    0.62
 -12   0   4   16.95    0.59
 -12   0   3    0.22    0.12
  12   0  -3    0.01    0.08
 -12   0   3   -0.07    0.10
  12   0  -3    0.06    0.10
 -12   0   3   -0.06    0.09
 -12   0   3   -0.03    0.10
 -12   0   3    0.08    0.07
 -12   0   3   -0.02    0.11
  12   0  -3    0.06    0.10
 -12   0   2   19.85    0.60
 -12   0   2   19.57    0.62
  12   0  -2   19.39    0.49
 -12   0   2   19.78    0.63
  12   0  -2   19.06    0.60
 -12   0   2   19.61    0.65
 -12   0   2   19.88    0.63
  12   0  -2   19.61    0.64
 -12   0   2   19.12    0.50
  12   0  -1   -0.11    0.08
 -12   0   1    0.17    0.10
 -12   0   1   -0.04    0.08
 -12   0   1   -0.04    0.11
 -12   0   1   -0.02    0.09
 -12   0   1   -0.18    0.10
  12   0  -1   -0.10    0.09
  12   0   0   74.39    1.80
 -12   0   0   75.46    1.80
 -12   0   0   75.05    1.75
 -12   0   0   74.73    1.77
 -12   0   0   74.02    1.78
  12   0   1    0.14    0.11
 -12   0  -1    0.12    0.12
 -12   0  -1    0.03    0.12
 -12   0  -1   -0.03    0.09
 -12   0  -1   -0.02    0.11
  12   0   2  186.94    4.10
 -12   0  -2  185.88    4.11
 -12   0  -2  184.30    4.04
 -12   0  -2  186.73    4.06
 -12   0  -2  184.60    4.06
 -12   0  -3    0.02    0.14
 -12   0  -3   -0.14    0.14
  12   0   3    0.15    0.15
  12   0   3    0.06    0.12
 -12   0  -3    0.13    0.14
 -12   0  -3    0.17    0.14
 -12   0  -4    0.37    0.18
 -12   0  -4    0.24    0.14
  12   0   4    0.42    0.18
 -12   0  -4    0.17    0.18
 -12   0  -4    0.29    0.16
 -12   0  -5   -0.05    0.20
  12   0   5    0.03    0.16
 -12   0  -5    0.16    0.16
 -12   0  -5    0.03    0.15
 -12   0  -5    0.20    0.23
  12   0   6    0.89    0.25
 -12   0  -6    0.30    0.21
 -12   0  -6    1.33    0.30
 -12   0  -6    0.33    0.29
 -12   0  -7   -0.03    0.29
 -12   0  -7   -0.04    0.24
 -12   0  -7   -0.03    0.22
 -12   0  -8    6.21    0.63
 -12   0  -8    7.43    0.63
 -12   1  11    7.35    0.68
  12   1 -11    8.24    0.71
  12   1 -11    8.71    0.59
  12   1 -11    8.57    0.60
  12  -1 -11    7.90    0.66
  12  -1 -11    7.21    0.64
 -12  -1  11    8.28    0.61
  12  -1 -11    7.88    0.63
  12   1 -10    0.50    0.26
  12   1 -10    0.79    0.25
 -12   1  10    0.52    0.35
 -12   1  10    0.86    0.32
  12   1 -10   -0.19    0.29
 -12   1  10   -0.45    0.59
 -12   1  10    0.56    0.27
 -12  -1  10    0.76    0.37
  12  -1 -10    0.79    0.32
 -12  -1  10    0.41    0.26
  12  -1 -10    0.54    0.27
  12  -1 -10    0.42    0.25
 -12   1   9   18.21    0.75
 -12   1   9   16.10    0.77
 -12   1   9   16.80    0.76
 -12   1   9   19.11    0.79
  12   1  -9   17.21    0.67
  12   1  -9   17.39    0.75
  12   1  -9   17.96    0.68
  12  -1  -9   15.05    0.71
 -12  -1   9   16.85    0.69
  12  -1  -9   17.33    0.71
 -12  -1   9   16.77    0.72
  12  -1  -9   18.04    0.71
 -12   1   8    5.74    0.46
  12   1  -8    4.74    0.39
 -12   1   8    5.37    0.47
 -12   1   8    6.51    0.45
 -12   1   8    6.60    0.49
  12   1  -8    6.10    0.40
  12   1  -8    5.62    0.44
 -12   1   8    5.86    0.51
  12   1  -8    5.87    0.46
 -12  -1   8    5.54    0.41
  12  -1  -8    5.75    0.46
 -12  -1   8    5.76    0.39
  12  -1  -8    6.24    0.43
 -12  -1   8    5.70    0.52
  12  -1  -8    5.97    0.41
 -12  -1   8    5.95    0.47
  12  -1  -8    6.27    0.43
 -12   1   7    1.27    0.25
 -12   1   7    1.40    0.23
 -12   1   7    1.52    0.23
  12   1  -7    1.23    0.22
  12   1  -7    1.53    0.22
 -12   1   7    1.56    0.25
  12   1  -7    1.81    0.24
  12   1  -7    1.77    0.27
 -12   1   7    1.28    0.24
  12  -1  -7    1.47    0.24
 -12  -1   7    1.48    0.24
  12  -1  -7    1.63    0.24
 -12  -1   7    1.88    0.29
 -12  -1   7    1.35    0.21
 -12  -1   7    1.26    0.23
 -12  -1   7    1.31    0.22
  12  -1  -7    2.06    0.29
 -12   1   6    2.43    0.31
  12   1  -6    3.64    0.29
  12   1  -6    3.84    0.32
 -12   1   6    3.74    0.33
 -12   1   6    3.82    0.33
  12   1  -6    2.76    0.24
 -12   1   6    3.16    0.32
 -12   1   6    3.70    0.31
 -12  -1   6    3.95    0.31
 -12  -1   6    3.47    0.34
 -12  -1   6    3.62    0.27
 -12  -1   6    3.59    0.28
 -12  -1   6    2.96    0.33
  12  -1  -6    3.63    0.31
  12  -1  -6    3.45    0.30
  12  -1  -6    3.51    0.32
 -12   1   5    3.40    0.32
  12   1  -5    3.33    0.28
 -12   1   5    2.97    0.29
 -12   1   5    3.74    0.31
  12   1  -5    2.82    0.23
 -12   1   5    3.75    0.32
 -12   1   5    2.95    0.26
  12   1  -5    3.67    0.28
 -12  -1   5    3.60    0.25
  12  -1  -5    3.27    0.28
  12  -1  -5    2.84    0.29
  12  -1  -5    3.61    0.27
 -12  -1   5    2.77    0.30
 -12  -1   5    3.25    0.24
 -12  -1   5    3.10    0.30
 -12  -1   5    3.64    0.27
 -12   1   4    3.21    0.29
 -12   1   4    3.63    0.26
  12   1  -4    3.67    0.29
 -12   1   4    3.88    0.31
  12   1  -4    3.70    0.23
 -12   1   4    4.39    0.29
 -12   1   4    3.74    0.29
  12   1  -4    3.78    0.25
  12  -1  -4    3.85    0.25
  12  -1  -4    3.13    0.28
 -12  -1   4    3.84    0.27
 -12  -1   4    3.45    0.29
  12  -1  -4    3.53    0.28
 -12  -1   4    3.47    0.29
 -12  -1   4    3.74    0.23
 -12  -1   4    3.73    0.22
 -12   1   3    5.27    0.33
  12   1  -3    5.27    0.26
 -12   1   3    5.19    0.34
 -12   1   3    5.38    0.31
 -12   1   3    5.10    0.26
  12   1  -3    5.43    0.25
 -12   1   3    5.25    0.31
  12   1  -3    5.59    0.32
 -12  -1   3    5.84    0.31
 -12  -1   3    5.13    0.25
 -12  -1   3    4.73    0.32
  12  -1  -3    5.66    0.26
 -12  -1   3    5.31    0.31
 -12  -1   3    5.10    0.24
  12  -1  -3    5.22    0.31
  12  -1  -3    5.25    0.32
 -12   1   2  112.77    2.53
 -12   1   2  113.47    2.42
  12   1  -2  110.30    2.54
  12   1  -2  110.50    2.45
 -12   1   2  110.68    2.54
 -12   1   2  110.03    2.56
 -12   1   2  112.01    2.53
 -12   1   2  110.04    2.50
 -12  -1   2  114.95    2.48
 -12  -1   2  110.03    2.37
 -12  -1   2  108.38    2.57
 -12  -1   2  109.75    2.55
  12  -1  -2  108.58    2.38
 -12  -1   2  107.96    2.44
  12  -1  -2  110.11    2.53
  12  -1  -2  116.42    2.58
  12  -1  -2  114.32    2.54
 -12  -1   2  113.22    2.53
 -12   1   1   33.36    0.96
 -12   1   1   33.68    0.93
 -12   1   1   34.31    0.94
  12   1  -1   33.64    0.96
 -12   1   1   33.63    0.93
 -12  -1   1   35.02    0.89
 -12  -1   1   33.94    0.86
 -12  -1   1   33.98    0.93
  12  -1  -1   33.41    0.94
 -12  -1   1   33.53    0.96
  12  -1  -1   34.37    0.95
  12  -1  -1   35.53    0.98
 -12  -1   1   32.30    0.96
  12  -1  -1   33.20    0.77
 -12   1   0    7.81    0.39
  12   1   0    7.74    0.39
 -12   1   0    7.90    0.40
 -12   1   0    8.12    0.38
  12   1   0    8.24    0.35
 -12   1   0    8.25    0.38
  12  -1   0    7.48    0.40
 -12  -1   0    7.87    0.36
 -12  -1   0    8.14    0.31
 -12  -1   0    8.34    0.35
 -12  -1   0    8.12    0.39
  12  -1   0    7.88    0.38
  12   1   1    2.79    0.23
 -12   1  -1    2.40    0.24
  12   1   1    2.45    0.27
 -12   1  -1    2.77    0.28
 -12   1  -1    2.94    0.27
 -12   1  -1    2.63    0.28
 -12  -1  -1    2.65    0.24
  12  -1   1    2.90    0.27
 -12  -1  -1    3.33    0.28
 -12  -1  -1    2.78    0.23
 -12  -1  -1    2.88    0.18
  12  -1   1    2.81    0.28
 -12   1  -2    6.47    0.38
  12   1   2    7.30    0.34
 -12   1  -2    7.40    0.39
 -12   1  -2    6.41    0.39
 -12   1  -2    6.93    0.38
  12  -1   2    7.06    0.38
  12  -1   2    6.71    0.38
 -12  -1  -2    5.85    0.37
  12  -1   2    7.19    0.39
 -12  -1  -2    6.48    0.35
 -12  -1  -2    7.14    0.34
 -12  -1  -2    6.17    0.29
  12   1   3    0.43    0.14
 -12   1  -3    0.44    0.18
 -12   1  -3    0.52    0.18
 -12   1  -3    0.52    0.18
 -12   1  -3    0.47    0.17
  12  -1   3    0.62    0.16
 -12  -1  -3    0.47    0.16
 -12  -1  -3    0.48    0.12
 -12  -1  -3    0.54    0.17
  12  -1   3    0.47    0.18
  12  -1   3    0.47    0.18
 -12  -1  -3    0.52    0.15
  12   1   4    0.00    0.14
  12   1   4    0.27    0.16
 -12   1  -4    0.07    0.18
 -12   1  -4    0.17    0.15
 -12   1  -4    0.09    0.18
 -12   1  -4   -0.04    0.14
  12  -1   4   -0.19    0.18
 -12  -1  -4   -0.19    0.13
 -12  -1  -4    0.10    0.15
 -12  -1  -4   -0.12    0.19
 -12  -1  -4    0.02    0.13
  12  -1   4   -0.16    0.18
 -12   1  -5    0.35    0.19
 -12   1  -5    0.41    0.25
  12   1   5    0.51    0.18
 -12   1  -5    0.32    0.22
 -12   1  -5    0.01    0.22
 -12  -1  -5    0.33    0.19
  12  -1   5    0.64    0.20
 -12  -1  -5    0.37    0.20
 -12   1  -6    2.86    0.43
 -12   1  -6    3.10    0.39
 -12   1  -6    2.91    0.34
 -12   1  -6    2.10    0.34
 -12  -1  -6    2.86    0.37
 -12  -1  -6    2.90    0.42
  12  -1   6    2.18    0.28
 -12  -1  -6    2.78    0.33
 -12   1  -7    4.02    0.52
 -12   1  -7    2.38    0.33
 -12   1  -7    1.87    0.37
 -12   1  -7    2.11    0.37
 -12  -1  -7    2.61    0.39
 -12  -1  -7    2.59    0.37
 -12   1  -8    0.64    0.36
 -12   1  -8    0.15    0.32
 -12  -1  -8   -0.19    0.33
 -12  -1  -8    0.24    0.28
 -12   2  11    4.45    0.65
  12   2 -11    3.06    0.48
  12   2 -11    4.23    0.54
  12   2 -11    4.20    0.53
 -12   2  11    4.23    0.58
  12  -2 -11    5.24    0.66
  12  -2 -11    4.68    0.57
  12  -2 -11    3.64    0.46
 -12  -2  11    4.27    0.51
  12   2 -10    1.13    0.33
  12   2 -10    0.96    0.25
  12   2 -10    1.18    0.29
 -12   2  10    1.74    0.42
 -12   2  10    0.97    0.39
 -12   2  10    1.11    0.31
 -12  -2  10    1.55    0.33
  12  -2 -10    0.85    0.31
 -12  -2  10    1.03    0.33
  12  -2 -10    1.37    0.34
  12  -2 -10    0.52    0.29
  12   2  -9    2.79    0.40
  12   2  -9    3.53    0.45
 -12   2   9    4.12    0.52
 -12   2   9    4.75    0.56
  12   2  -9    3.97    0.37
 -12   2   9    3.60    0.43
 -12   2   9    3.92    0.46
 -12  -2   9    3.45    0.37
  12  -2  -9    3.76    0.46
 -12  -2   9    3.20    0.42
  12  -2  -9    3.69    0.38
  12  -2  -9    3.54    0.47
  12   2  -8   30.76    1.04
  12   2  -8   30.91    0.89
 -12   2   8   31.57    1.04
  12   2  -8   30.32    0.91
 -12   2   8   30.50    0.97
 -12   2   8   30.07    1.03
  12   2  -8   28.52    1.00
  12  -2  -8   28.66    0.98
 -12  -2   8   31.09    0.97
  12  -2  -8   30.30    0.99
  12  -2  -8   31.94    1.01
 -12  -2   8   30.80    0.95
 -12   2   7    2.11    0.28
 -12   2   7    1.78    0.33
  12   2  -7    1.90    0.27
 -12   2   7    1.68    0.29
 -12   2   7    1.87    0.28
  12   2  -7    1.86    0.22
  12   2  -7    1.93    0.28
  12   2  -7    1.67    0.23
 -12  -2   7    1.76    0.24
 -12  -2   7    1.88    0.26
  12  -2  -7    1.57    0.24
 -12  -2   7    1.68    0.22
  12  -2  -7    2.08    0.28
  12  -2  -7    1.88    0.28
  12   2  -6    9.70    0.48
 -12   2   6    9.16    0.45
  12   2  -6    9.41    0.37
 -12   2   6    9.41    0.50
 -12   2   6    9.62    0.53
  12   2  -6    9.47    0.44
 -12   2   6    9.93    0.54
 -12   2   6    9.90    0.49
 -12  -2   6    8.49    0.49
  12  -2  -6    9.64    0.47
  12  -2  -6    9.36    0.47
  12  -2  -6    9.30    0.50
 -12  -2   6    9.95    0.48
 -12  -2   6    9.32    0.39
 -12  -2   6   10.22    0.45
 -12  -2   6    9.73    0.43
  12   2  -5   20.58    0.58
 -12   2   5   19.73    0.69
  12   2  -5   19.52    0.66
 -12   2   5   18.93    0.70
 -12   2   5   20.17    0.74
 -12   2   5   19.11    0.60
 -12   2   5   19.21    0.70
 -12   2   5   20.01    0.64
  12   2  -5   18.87    0.65
 -12  -2   5   19.04    0.58
 -12  -2   5   19.58    0.67
  12  -2  -5   19.84    0.69
  12  -2  -5   19.72    0.69
 -12  -2   5   20.46    0.62
 -12  -2   5   19.85    0.73
  12  -2  -5   19.63    0.64
 -12  -2   5   19.90    0.64
 -12   2   4    7.22    0.38
  12   2  -4    9.11    0.32
  12   2  -4    8.83    0.41
 -12   2   4    8.37    0.45
 -12   2   4    8.15    0.37
 -12   2   4    8.76    0.44
 -12   2   4    9.35    0.49
 -12   2   4    8.60    0.42
 -12  -2   4    8.57    0.32
  12  -2  -4    8.35    0.38
 -12  -2   4    8.28    0.43
  12  -2  -4    8.53    0.43
 -12  -2   4    8.58    0.36
 -12  -2   4    8.88    0.45
 -12  -2   4    8.82    0.37
  12   2  -3    1.84    0.17
 -12   2   3    1.84    0.25
 -12   2   3    2.19    0.29
  12   2  -3    2.06    0.26
 -12   2   3    1.78    0.22
 -12   2   3    2.08    0.25
 -12   2   3    2.65    0.32
 -12  -2   3    1.83    0.20
 -12  -2   3    2.31    0.26
  12  -2  -3    2.12    0.28
  12  -2  -3    2.15    0.26
 -12  -2   3    2.20    0.21
 -12  -2   3    2.24    0.16
  12  -2  -3    2.47    0.23
 -12  -2   3    2.18    0.26
 -12   2   2    0.13    0.12
  12   2  -2    0.07    0.12
 -12   2   2    0.09    0.15
 -12   2   2    0.11    0.12
 -12   2   2    0.15    0.16
 -12   2   2    0.18    0.13
 -12   2   2    0.46    0.19
 -12  -2   2    0.25    0.09
 -12  -2   2    0.28    0.08
  12  -2  -2    0.10    0.11
  12  -2  -2    0.03    0.12
 -12  -2   2    0.04    0.13
 -12  -2   2    0.25    0.12
 -12  -2   2    0.38    0.14
  12  -2  -2    0.16    0.15
  12  -2  -2    0.31    0.14
 -12  -2   2    0.19    0.10
 -12   2   1    2.11    0.28
  12   2  -1    1.98    0.24
 -12   2   1    1.88    0.22
 -12   2   1    1.59    0.21
 -12   2   1    1.79    0.24
 -12   2   1    1.70    0.24
 -12  -2   1    1.59    0.14
  12  -2  -1    1.76    0.25
 -12  -2   1    2.08    0.22
 -12  -2   1    1.80    0.18
  12  -2  -1    2.12    0.20
  12  -2  -1    1.95    0.26
 -12  -2   1    1.87    0.17
 -12  -2   1    2.08    0.25
 -12  -2   1    1.62    0.18
  12  -2  -1    2.32    0.30
 -12  -2   1    1.59    0.24
 -12   2   0    4.01    0.33
 -12   2   0    4.28    0.35
 -12   2   0    4.00    0.28
 -12   2   0    3.90    0.33
 -12  -2   0    4.44    0.31
 -12  -2   0    4.20    0.18
 -12  -2   0    3.77    0.20
 -12  -2   0    3.91    0.19
 -12  -2   0    3.88    0.28
  12  -2   0    4.04    0.22
  12  -2   0    3.80    0.34
  12  -2   0    3.88    0.31
 -12  -2   0    4.03    0.23
 -12  -2   0    4.33    0.31
 -12   2  -1    0.22    0.14
 -12   2  -1   -0.30    0.15
 -12   2  -1   -0.06    0.17
  12   2   1    0.11    0.09
 -12   2  -1   -0.09    0.13
  12  -2   1    0.11    0.11
 -12  -2  -1    0.08    0.10
 -12  -2  -1    0.02    0.07
  12  -2   1   -0.10    0.13
 -12  -2  -1    0.10    0.12
  12  -2   1    0.07    0.10
 -12  -2  -1   -0.19    0.12
  12  -2   1    0.43    0.18
 -12   2  -2    8.61    0.47
 -12   2  -2    8.21    0.47
 -12   2  -2    8.47    0.44
 -12   2  -2    7.89    0.43
  12   2   2    8.54    0.36
 -12  -2  -2    8.08    0.44
  12  -2   2    8.32    0.43
 -12  -2  -2    8.10    0.44
  12  -2   2    8.84    0.32
 -12  -2  -2    9.13    0.35
 -12  -2  -2    8.32    0.31
  12  -2   2    8.43    0.30
  12  -2   2    8.72    0.43
 -12   2  -3   -0.18    0.17
  12   2   3    0.17    0.13
 -12   2  -3    0.17    0.18
 -12   2  -3    0.26    0.21
 -12   2  -3    0.17    0.18
 -12  -2  -3    0.28    0.17
 -12  -2  -3    0.01    0.12
  12  -2   3    0.26    0.18
 -12  -2  -3    0.48    0.17
  12  -2   3    0.09    0.10
  12  -2   3   -0.03    0.12
  12  -2   3    0.04    0.16
  12  -2   3    0.06    0.18
 -12  -2  -3    0.08    0.11
 -12   2  -4    0.54    0.20
 -12   2  -4    0.39    0.25
 -12   2  -4    0.00    0.23
 -12   2  -4    0.12    0.21
  12   2   4    0.04    0.15
 -12  -2  -4    0.19    0.14
 -12  -2  -4    0.26    0.17
  12  -2   4    0.18    0.17
  12  -2   4    0.32    0.14
  12  -2   4    0.17    0.12
  12  -2   4    0.41    0.24
  12  -2   4    0.55    0.22
 -12   2  -5    0.34    0.25
 -12   2  -5    0.37    0.23
  12   2   5    0.25    0.18
 -12   2  -5    0.64    0.27
 -12   2  -5    0.21    0.25
  12  -2   5   -0.05    0.27
  12  -2   5    0.26    0.14
  12  -2   5    0.51    0.16
 -12  -2  -5    0.13    0.17
 -12  -2  -5   -0.01    0.21
 -12  -2  -5    0.56    0.23
 -12   2  -6    0.82    0.34
 -12   2  -6    0.70    0.30
 -12   2  -6    0.62    0.30
 -12   2  -6    1.08    0.32
  12   2   6    0.70    0.22
 -12  -2  -6    0.55    0.29
 -12  -2  -6    0.66    0.26
  12  -2   6    0.87    0.17
 -12   2  -7   -0.57    0.32
 -12   2  -7    0.19    0.34
 -12   2  -7   -0.07    0.26
 -12  -2  -7    0.08    0.30
 -12  -2  -7    0.56    0.32
 -12   2  -8    3.23    0.54
 -12   2  -8    4.87    0.71
 -12  -2  -8    4.89    0.67
 -12  -2  -8    3.34    0.46
  12   3 -10   15.58    0.67
  12   3 -10   15.34    0.84
 -12   3  10   17.97    0.95
 -12  -3  10   15.23    0.85
  12  -3 -10   15.63    0.86
  12  -3 -10   15.01    0.89
  12   3  -9   -0.03    0.25
 -12   3   9    0.20    0.34
  12   3  -9    0.16    0.31
 -12   3   9   -0.16    0.32
  12   3  -9   -0.43    0.18
 -12  -3   9    0.17    0.29
  12  -3  -9   -0.25    0.27
  12  -3  -9   -0.28    0.30
 -12   3   8    3.27    0.43
  12   3  -8    2.69    0.37
  12   3  -8    2.82    0.39
 -12   3   8    3.05    0.44
 -12   3   8    3.45    0.50
  12   3  -8    3.09    0.31
 -12  -3   8    2.89    0.35
 -12  -3   8    3.33    0.47
  12  -3  -8    2.76    0.40
  12  -3  -8    2.20    0.32
 -12   3   7    0.61    0.30
 -12   3   7    0.22    0.26
  12   3  -7    0.57    0.25
  12   3  -7    0.40    0.14
  12   3  -7    0.50    0.29
 -12   3   7    0.78    0.22
 -12   3   7   -0.03    0.23
  12   3  -7    0.45    0.21
 -12   3   7    0.48    0.18
  12  -3  -7    0.47    0.26
  12  -3  -7    0.29    0.22
 -12  -3   7    0.23    0.20
 -12  -3   7    0.47    0.25
 -12  -3   7    0.46    0.24
 -12   3   6    7.21    0.53
 -12   3   6    7.07    0.34
  12   3  -6    6.62    0.31
 -12   3   6    6.09    0.49
 -12   3   6    7.96    0.53
 -12   3   6    6.85    0.39
  12   3  -6    7.15    0.43
 -12  -3   6    6.25    0.36
  12  -3  -6    6.51    0.48
  12  -3  -6    7.51    0.48
 -12  -3   6    6.28    0.45
 -12  -3   6    6.97    0.45
  12  -3  -6    6.46    0.47
 -12   3   5    0.10    0.20
  12   3  -5    0.19    0.17
 -12   3   5    0.07    0.14
 -12   3   5    0.30    0.31
 -12   3   5    0.32    0.21
 -12   3   5   -0.01    0.16
  12   3  -5    0.27    0.10
 -12   3   5    0.05    0.22
  12  -3  -5    0.07    0.17
  12  -3  -5   -0.05    0.21
 -12  -3   5    0.25    0.18
  12  -3  -5    0.01    0.18
 -12  -3   5    0.07    0.20
 -12  -3   5    0.35    0.14
 -12   3   4    3.42    0.28
 -12   3   4    4.15    0.41
  12   3  -4    3.91    0.20
  12   3  -4    3.59    0.34
 -12   3   4    4.12    0.38
 -12   3   4    2.66    0.38
 -12   3   4    3.32    0.44
 -12   3   4    3.99    0.25
  12  -3  -4    4.00    0.41
 -12  -3   4    4.36    0.33
 -12  -3   4    3.82    0.39
  12  -3  -4    3.56    0.36
 -12  -3   4    3.47    0.38
  12  -3  -4    3.92    0.37
 -12  -3   4    3.86    0.24
 -12  -3   4    3.74    0.21
 -12   3   3   -0.02    0.13
 -12   3   3    0.12    0.17
 -12   3   3   -0.24    0.21
 -12   3   3   -0.07    0.10
 -12   3   3    0.03    0.18
  12   3  -3   -0.12    0.14
 -12   3   3    0.01    0.20
  12  -3  -3   -0.05    0.15
 -12  -3   3    0.07    0.20
 -12  -3   3   -0.10    0.17
  12  -3  -3    0.02    0.17
 -12  -3   3   -0.14    0.13
  12  -3  -3   -0.08    0.16
 -12   3   2    2.26    0.30
 -12   3   2    2.44    0.30
 -12   3   2    2.55    0.25
 -12   3   2    2.45    0.35
 -12   3   2    2.22    0.32
 -12   3   2    2.49    0.23
 -12  -3   2    1.99    0.28
  12  -3  -2    2.12    0.28
 -12  -3   2    2.16    0.30
 -12  -3   2    2.19    0.30
  12  -3  -2    2.51    0.31
  12  -3  -2    2.32    0.28
 -12  -3   2    2.89    0.34
 -12  -3   2    2.47    0.24
  12  -3  -2    2.15    0.29
 -12   3   1    0.41    0.22
 -12   3   1    0.37    0.15
 -12   3   1    0.07    0.17
 -12   3   1    0.06    0.13
 -12   3   1    0.05    0.18
 -12  -3   1    0.44    0.20
  12  -3  -1    0.24    0.17
  12  -3  -1    0.47    0.19
 -12  -3   1    0.23    0.16
 -12  -3   1    0.04    0.15
  12  -3  -1    0.31    0.18
 -12  -3   1    0.19    0.13
 -12  -3   1    0.51    0.19
  12  -3  -1    0.10    0.16
 -12   3   0    2.38    0.30
 -12   3   0    2.55    0.30
 -12   3   0    2.11    0.28
 -12   3   0    2.54    0.36
 -12  -3   0    2.56    0.24
 -12  -3   0    2.45    0.33
  12  -3   0    2.57    0.29
  12  -3   0    2.79    0.34
 -12  -3   0    2.14    0.26
  12  -3   0    2.61    0.31
 -12  -3   0    2.56    0.31
 -12  -3   0    1.61    0.24
 -12   3  -1   -0.09    0.20
 -12   3  -1    0.49    0.21
 -12   3  -1    0.48    0.22
 -12   3  -1    0.59    0.19
 -12  -3  -1    0.22    0.19
  12  -3   1   -0.06    0.15
  12  -3   1    0.15    0.16
 -12  -3  -1    0.35    0.13
  12  -3   1    0.35    0.24
 -12  -3  -1    0.78    0.23
 -12  -3  -1    0.39    0.19
 -12  -3  -1    0.31    0.15
  12  -3   1    0.56    0.18
 -12   3  -2    3.93    0.41
 -12   3  -2    4.01    0.44
 -12   3  -2    4.30    0.37
 -12   3  -2    3.88    0.42
  12  -3   2    3.41    0.33
  12  -3   2    3.50    0.34
  12  -3   2    4.50    0.37
  12  -3   2    3.79    0.31
 -12  -3  -2    3.64    0.25
 -12  -3  -2    3.28    0.38
  12  -3   2    3.59    0.45
 -12  -3  -2    3.86    0.27
  12   3   3    0.96    0.14
 -12   3  -3    1.16    0.32
 -12   3  -3    0.81    0.24
 -12   3  -3    0.36    0.24
 -12   3  -3    0.36    0.20
 -12  -3  -3    1.07    0.24
  12  -3   3    0.73    0.21
 -12  -3  -3    0.81    0.16
  12  -3   3    0.83    0.21
  12  -3   3    0.85    0.19
 -12  -3  -3    0.85    0.17
 -12  -3  -3    0.69    0.21
 -12  -3  -3    0.84    0.15
  12  -3   3    0.96    0.24
  12  -3   3    0.65    0.29
 -12   3  -4    0.01    0.25
 -12   3  -4   -0.16    0.24
 -12   3  -4   -0.37    0.32
 -12   3  -4    0.16    0.26
  12   3   4    0.28    0.15
 -12  -3  -4    0.05    0.16
 -12  -3  -4    0.18    0.24
  12  -3   4   -0.13    0.31
  12  -3   4    0.40    0.19
 -12  -3  -4    0.23    0.21
  12  -3   4    0.24    0.23
 -12  -3  -4    0.32    0.15
  12  -3   4    0.05    0.17
  12  -3   4    0.18    0.26
  12   3   5    0.54    0.21
 -12   3  -5    0.85    0.32
 -12   3  -5    0.53    0.33
 -12   3  -5    0.57    0.36
 -12   3  -5    0.94    0.31
 -12  -3  -5    0.93    0.28
  12  -3   5    0.48    0.22
 -12  -3  -5    0.44    0.23
  12  -3   5    0.63    0.34
 -12  -3  -5    0.33    0.24
  12   3   6    0.72    0.25
 -12   3  -6    0.66    0.38
 -12   3  -6    0.26    0.34
 -12  -3  -6    0.41    0.31
  12  -3   6    0.98    0.31
 -12  -3  -6    0.19    0.31
 -12   3  -7    1.35    0.51
 -12  -3  -7    2.16    0.51
 -12   4   8    9.22    0.80
  12   4  -8    7.94    0.41
 -12   4   8    9.64    0.80
 -12  -4   8    8.45    0.69
  12  -4  -8    7.96    0.71
  12   4  -7    1.16    0.16
 -12   4   7    0.79    0.32
 -12   4   7    1.50    0.43
  12  -4  -7    1.07    0.32
  12  -4  -7    1.54    0.36
 -12  -4   7    1.44    0.34
 -12   4   6   -0.32    0.30
 -12   4   6    0.25    0.32
 -12  -4   6    0.12    0.25
  12  -4  -6    0.05    0.27
  12  -4  -6    0.21    0.25
 -12   4   5    0.46    0.29
 -12   4   5    0.61    0.30
  12  -4  -5    0.10    0.25
 -12  -4   5    0.51    0.24
  12  -4  -5    0.39    0.31
 -12  -4   5    0.37    0.27
 -12   4   4    3.38    0.45
 -12   4   4    3.15    0.43
 -12   4   4    3.31    0.47
 -12  -4   4    3.40    0.40
  12  -4  -4    3.27    0.42
  12  -4  -4    3.05    0.38
 -12  -4   4    3.19    0.44
  12  -4  -4    3.04    0.39
 -12  -4   4    3.46    0.44
 -12   4   3    0.80    0.23
 -12   4   3    0.72    0.32
 -12   4   3    1.25    0.30
 -12  -4   3    0.93    0.24
  12  -4  -3    1.11    0.30
  12  -4  -3    0.81    0.28
  12  -4  -3    0.89    0.25
 -12  -4   3    1.31    0.28
 -12  -4   3    1.45    0.31
 -12   4   2   17.69    0.78
 -12   4   2   16.24    0.78
 -12   4   2   17.54    0.76
  12  -4  -2   18.61    0.70
 -12  -4   2   18.65    0.74
 -12  -4   2   18.26    0.72
  12  -4  -2   17.22    0.74
  12  -4  -2   18.43    0.80
 -12  -4   2   17.43    0.71
 -12  -4   2   18.68    0.67
 -12   4   1   28.64    0.98
 -12   4   1   30.66    1.02
 -12   4   1   28.14    0.99
  12  -4  -1   28.37    0.90
  12  -4  -1   28.27    0.93
 -12  -4   1   28.68    0.87
 -12  -4   1   30.40    0.98
  12  -4  -1   26.91    1.01
 -12  -4   1   27.56    0.94
 -12  -4   1   27.93    0.92
 -12   4   0   -0.09    0.19
 -12   4   0   -0.18    0.30
 -12   4   0    0.16    0.17
 -12   4   0   -0.23    0.29
 -12   4   0   -0.10    0.18
  12  -4   0   -0.16    0.18
 -12  -4   0   -0.04    0.23
 -12  -4   0   -0.10    0.20
 -12  -4   0   -0.11    0.17
  12  -4   0    0.10    0.27
  12  -4   0   -0.04    0.26
 -12   4  -1    1.74    0.35
 -12   4  -1    1.72    0.34
 -12   4  -1    1.81    0.26
 -12   4  -1    1.29    0.27
  12  -4   1    1.38    0.25
 -12  -4  -1    1.26    0.27
  12  -4   1    1.51    0.28
 -12  -4  -1    1.54    0.31
  12  -4   1    1.10    0.31
  12  -4   1    2.01    0.40
 -12  -4  -1    1.39    0.23
 -12  -4  -1    1.33    0.28
 -12   4  -2    2.78    0.38
 -12   4  -2    1.59    0.30
 -12   4  -2    2.13    0.30
  12  -4   2    2.21    0.28
 -12  -4  -2    2.42    0.33
 -12  -4  -2    2.42    0.34
  12  -4   2    2.18    0.34
 -12  -4  -2    2.18    0.33
  12  -4   2    2.23    0.39
  12  -4   2    2.46    0.31
 -12  -4  -2    3.09    0.42
 -12   4  -3   -0.41    0.27
 -12   4  -3   -0.37    0.25
  12  -4   3    0.11    0.26
 -12  -4  -3    0.18    0.27
  12  -4   3   -0.18    0.33
 -12  -4  -3   -0.08    0.27
  12  -4   3    0.13    0.40
  12  -4   3   -0.10    0.21
 -12  -4  -3    0.11    0.22
 -12  -4  -3    0.25    0.33
 -12   4  -4    0.41    0.33
 -12   4  -4   -0.18    0.29
 -12  -4  -4    0.06    0.22
  12  -4   4    0.34    0.28
 -12  -4  -4   -0.02    0.31
  12  -4   4    0.08    0.34
  12  -4   4    0.55    0.23
 -12  -4  -4    0.03    0.32
 -12   4  -5    1.19    0.42
 -12   4  -5    1.56    0.47
 -12  -4  -5    1.48    0.37
 -12  -4  -5    0.94    0.36
  12  -4   5    1.09    0.33
 -12   5   5    4.67    0.55
 -12   5   5    4.41    0.64
 -12  -5   5    4.52    0.61
  12  -5  -5    3.76    0.47
 -12  -5   5    4.28    0.55
 -12   5   4    2.23    0.41
 -12   5   4    1.36    0.42
 -12  -5   4    1.68    0.35
 -12  -5   4    1.52    0.36
  12  -5  -4    1.99    0.37
 -12   5   3    9.30    0.71
 -12  -5   3   11.01    0.67
  12  -5  -3    9.34    0.68
 -12  -5   3    9.94    0.64
 -12  -5   3   10.34    0.67
 -12   5   2    4.11    0.52
 -12  -5   2    4.42    0.53
 -12  -5   2    3.80    0.44
 -12  -5   2    3.59    0.52
  12  -5  -2    3.92    0.53
 -12   5   1    3.19    0.43
 -12  -5   1    3.22    0.37
  12  -5  -1    3.21    0.39
 -12  -5   1    3.14    0.43
 -12  -5   1    4.60    0.54
 -12   5   0    0.83    0.35
 -12  -5   0    0.95    0.29
 -12  -5   0    0.67    0.35
  12  -5   0    1.11    0.34
 -12  -5   0    0.41    0.41
 -12  -5   0    0.54    0.35
  12  -5   0    0.10    0.28
 -12   5  -1    0.56    0.33
  12  -5   1    0.07    0.27
  12  -5   1    0.11    0.35
 -12  -5  -1    0.53    0.33
 -12  -5  -1    0.86    0.37
 -12  -5  -1    0.83    0.32
 -12   5  -2    1.16    0.40
 -12  -5  -2    1.61    0.35
 -12  -5  -2    1.60    0.45
 -12  -5  -2    1.44    0.42
  12  -5   2    1.64    0.38
  12  -5   2    0.71    0.27
  13   0 -11   -0.26    0.30
 -13   0  11   -0.41    0.29
  13   0 -11    0.25    0.32
  13   0 -11   -0.11    0.34
  13   0 -10   71.17    1.91
 -13   0  10   70.23    1.89
  13   0 -10   70.83    1.84
 -13   0  10   69.77    1.93
  13   0 -10   72.84    1.88
 -13   0   9   -0.08    0.21
  13   0  -9   -0.19    0.24
 -13   0   9   -0.48    0.37
  13   0  -9   -0.08    0.21
  13   0  -9   -0.13    0.23
 -13   0   9    0.18    0.24
 -13   0   8   14.27    0.66
  13   0  -8   14.82    0.59
  13   0  -8   13.05    0.61
  13   0  -8   13.72    0.60
 -13   0   8   14.44    0.65
 -13   0   8   14.18    0.60
 -13   0   8   12.69    0.67
  13   0  -8   14.60    0.63
 -13   0   8   12.85    0.69
  13   0  -7    0.06    0.14
 -13   0   7    0.16    0.22
 -13   0   7    0.26    0.20
  13   0  -7    0.14    0.17
 -13   0   7    0.05    0.18
  13   0  -7   -0.33    0.18
 -13   0   7   -0.15    0.19
 -13   0   7   -0.03    0.14
 -13   0   6    0.09    0.18
 -13   0   6   -0.15    0.17
 -13   0   6   -0.16    0.14
 -13   0   6    0.08    0.12
 -13   0   6    0.13    0.15
  13   0  -6   -0.17    0.12
  13   0  -6    0.22    0.16
 -13   0   5    0.07    0.15
  13   0  -5    0.08    0.13
 -13   0   5    0.01    0.15
 -13   0   5   -0.33    0.14
 -13   0   5    0.12    0.11
 -13   0   5    0.03    0.16
  13   0  -5    0.04    0.12
  13   0  -5    0.03    0.12
 -13   0   4   83.38    1.96
 -13   0   4   82.39    1.89
  13   0  -4   85.18    1.97
 -13   0   4   85.84    2.01
  13   0  -4   82.69    1.88
 -13   0   4   83.19    1.99
  13   0  -4   82.59    1.99
 -13   0   4   84.52    2.03
 -13   0   3   -0.01    0.12
  13   0  -3    0.10    0.12
  13   0  -3    0.05    0.10
 -13   0   3   -0.10    0.09
 -13   0   3    0.16    0.11
 -13   0   3    0.00    0.12
  13   0  -3    0.10    0.10
 -13   0   3    0.09    0.12
 -13   0   3   -0.11    0.13
 -13   0   2   18.67    0.64
 -13   0   2   20.07    0.68
  13   0  -2   19.32    0.66
 -13   0   2   19.60    0.62
 -13   0   2   20.40    0.65
 -13   0   2   19.73    0.50
 -13   0   2   19.87    0.67
  13   0  -2   20.27    0.63
  13   0  -1    0.14    0.09
  13   0  -1    0.04    0.10
 -13   0   1   -0.18    0.09
 -13   0   1   -0.05    0.11
 -13   0   1   -0.23    0.11
 -13   0   1    0.10    0.13
 -13   0   1   -0.10    0.11
 -13   0   0    0.76    0.17
 -13   0   0    0.39    0.12
  13   0   0    0.71    0.15
 -13   0   0    0.71    0.16
 -13   0   0    0.83    0.16
 -13   0  -1    0.00    0.12
 -13   0  -1    0.02    0.12
 -13   0  -1   -0.11    0.14
  13   0   1    0.04    0.14
 -13   0  -1   -0.03    0.14
 -13   0  -2   -0.08    0.16
  13   0   2    0.09    0.14
 -13   0  -2    0.18    0.12
 -13   0  -2    0.13    0.12
 -13   0  -2   -0.14    0.12
 -13   0  -3   -0.15    0.16
 -13   0  -3   -0.21    0.14
  13   0   3    0.06    0.16
 -13   0  -3    0.06    0.14
 -13   0  -3    0.19    0.14
 -13   0  -4    2.55    0.30
 -13   0  -4    3.06    0.33
 -13   0  -4    3.00    0.40
  13   0   4    3.02    0.35
 -13   0  -4    3.16    0.34
 -13   0  -5    0.05    0.20
 -13   0  -5   -0.19    0.20
  13   0   5   -0.11    0.16
 -13   0  -6   13.13    0.68
 -13   0  -6   11.83    0.64
 -13   0  -7   -0.02    0.27
 -13   0  -7    0.65    0.28
 -13   0  -8    7.57    0.70
 -13   1  11    2.82    0.47
  13   1 -11    2.51    0.39
  13   1 -11    2.46    0.42
  13   1 -11    2.38    0.46
  13  -1 -11    2.98    0.44
  13  -1 -11    2.68    0.42
 -13  -1  11    3.00    0.42
  13  -1 -11    1.74    0.37
 -13   1  10    2.19    0.40
  13   1 -10    2.22    0.32
  13   1 -10    2.37    0.36
 -13   1  10    1.86    0.37
 -13   1  10    2.23    0.53
  13   1 -10    2.12    0.35
 -13  -1  10    2.08    0.32
  13  -1 -10    2.24    0.36
  13  -1 -10    2.50    0.36
  13  -1 -10    2.34    0.35
 -13   1   9    1.22    0.29
  13   1  -9    1.31    0.33
  13   1  -9    1.48    0.25
 -13   1   9    0.63    0.35
 -13   1   9    0.58    0.35
  13   1  -9    0.81    0.25
 -13   1   9    1.06    0.33
  13  -1  -9    0.63    0.27
 -13  -1   9    0.99    0.33
  13  -1  -9    1.01    0.27
 -13  -1   9    0.97    0.28
  13  -1  -9    1.17    0.31
 -13   1   8   10.95    0.62
 -13   1   8   12.00    0.59
  13   1  -8   12.36    0.62
  13   1  -8   12.18    0.60
  13   1  -8   12.77    0.54
 -13   1   8   12.26    0.62
 -13   1   8   11.99    0.66
  13   1  -8   12.44    0.55
  13  -1  -8   11.23    0.59
 -13  -1   8   12.05    0.55
 -13  -1   8   11.08    0.56
  13  -1  -8   12.48    0.59
  13  -1  -8   10.85    0.56
 -13  -1   8   12.36    0.63
  13   1  -7    2.85    0.32
 -13   1   7    3.23    0.40
 -13   1   7    3.24    0.37
 -13   1   7    2.54    0.32
 -13   1   7    3.18    0.40
  13   1  -7    2.50    0.37
  13   1  -7    3.22    0.29
 -13   1   7    2.72    0.35
 -13  -1   7    2.96    0.33
 -13  -1   7    3.11    0.40
  13  -1  -7    2.49    0.33
  13  -1  -7    3.16    0.36
  13  -1  -7    2.89    0.31
 -13  -1   7    2.44    0.33
 -13  -1   7    2.60    0.29
 -13  -1   7    2.47    0.36
 -13   1   6   33.70    1.04
 -13   1   6   34.61    1.00
  13   1  -6   36.36    0.99
 -13   1   6   35.42    1.04
  13   1  -6   34.65    0.96
 -13   1   6   36.60    1.08
 -13   1   6   34.58    1.03
  13  -1  -6   36.60    1.04
  13  -1  -6   35.03    1.03
 -13  -1   6   34.63    1.03
 -13  -1   6   36.90    1.02
 -13  -1   6   36.19    0.97
 -13  -1   6   34.33    0.97
 -13  -1   6   34.84    1.10
  13  -1  -6   35.84    0.99
 -13   1   5    0.54    0.18
 -13   1   5    0.64    0.19
  13   1  -5    0.48    0.13
  13   1  -5    0.45    0.16
 -13   1   5    0.61    0.16
  13   1  -5    0.61    0.16
 -13   1   5    0.46    0.17
 -13   1   5    0.20    0.16
 -13  -1   5    0.12    0.16
 -13  -1   5    0.36    0.14
 -13  -1   5    0.89    0.19
  13  -1  -5    0.30    0.15
 -13  -1   5    0.45    0.14
  13  -1  -5    0.49    0.16
 -13  -1   5    0.42    0.16
  13  -1  -5    0.46    0.14
 -13   1   4    1.50    0.20
 -13   1   4    1.34    0.22
 -13   1   4    1.77    0.23
 -13   1   4    1.57    0.22
  13   1  -4    1.58    0.21
 -13   1   4    1.29    0.19
  13   1  -4    1.36    0.17
  13   1  -4    1.46    0.18
 -13   1   4    1.36    0.22
  13  -1  -4    1.19    0.19
 -13  -1   4    1.61    0.22
  13  -1  -4    1.62    0.22
 -13  -1   4    1.58    0.18
 -13  -1   4    1.14    0.19
 -13  -1   4    1.65    0.19
 -13  -1   4    1.56    0.22
  13  -1  -4    1.20    0.18
 -13   1   3   13.03    0.51
 -13   1   3   12.83    0.52
  13   1  -3   13.37    0.52
 -13   1   3   12.76    0.50
 -13   1   3   12.76    0.51
  13   1  -3   13.12    0.45
 -13   1   3   13.60    0.54
 -13   1   3   12.62    0.44
  13   1  -3   12.43    0.40
  13  -1  -3   12.33    0.50
 -13  -1   3   12.92    0.53
 -13  -1   3   12.33    0.39
 -13  -1   3   12.92    0.48
 -13  -1   3   12.38    0.51
 -13  -1   3   12.75    0.44
 -13  -1   3   12.93    0.54
  13  -1  -3   12.36    0.41
  13  -1  -3   12.66    0.51
 -13   1   2    4.07    0.31
  13   1  -2    3.88    0.31
 -13   1   2    3.31    0.29
  13   1  -2    4.14    0.24
 -13   1   2    4.18    0.31
 -13   1   2    4.25    0.30
 -13   1   2    4.28    0.23
 -13   1   2    4.11    0.31
 -13  -1   2    4.05    0.30
  13  -1  -2    4.20    0.21
  13  -1  -2    4.25    0.30
 -13  -1   2    4.21    0.32
  13  -1  -2    4.05    0.31
  13  -1  -2    4.03    0.33
 -13  -1   2    4.50    0.31
 -13  -1   2    4.21    0.24
 -13  -1   2    4.28    0.18
 -13  -1   2    4.51    0.27
  13   1  -1   18.10    0.64
 -13   1   1   18.30    0.62
 -13   1   1   18.34    0.62
 -13   1   1   18.04    0.62
 -13   1   1   18.57    0.66
 -13   1   1   17.01    0.63
 -13  -1   1   18.56    0.58
 -13  -1   1   18.05    0.61
 -13  -1   1   17.69    0.64
  13  -1  -1   18.08    0.63
 -13  -1   1   17.91    0.64
  13  -1  -1   18.80    0.64
 -13  -1   1   18.41    0.54
  13  -1  -1   17.34    0.65
 -13   1   0   44.70    1.18
  13   1   0   37.10    1.17
 -13   1   0   44.89    1.19
 -13   1   0   45.72    1.20
 -13   1   0   46.34    1.22
  13   1   0   44.38    1.14
 -13  -1   0   44.26    1.22
  13  -1   0   44.61    1.19
 -13  -1   0   45.47    1.19
 -13  -1   0   46.41    1.15
 -13  -1   0   45.15    1.10
  13  -1   0   45.32    1.22
 -13   1  -1   15.43    0.59
  13   1   1   16.83    0.63
  13   1   1   16.83    0.56
 -13   1  -1   16.33    0.60
 -13   1  -1   16.42    0.60
 -13  -1  -1   16.19    0.51
 -13  -1  -1   15.58    0.57
  13  -1   1   16.25    0.63
 -13  -1  -1   15.42    0.60
 -13  -1  -1   17.12    0.56
  13  -1   1   15.77    0.60
 -13   1  -2   -0.17    0.16
 -13   1  -2    0.02    0.19
  13   1   2    0.05    0.11
 -13   1  -2    0.04    0.13
 -13   1  -2    0.17    0.16
 -13  -1  -2    0.18    0.14
 -13  -1  -2    0.26    0.14
  13  -1   2    0.09    0.16
  13  -1   2    0.00    0.15
 -13  -1  -2   -0.04    0.10
 -13  -1  -2    0.21    0.14
 -13   1  -3    0.03    0.16
 -13   1  -3    0.46    0.21
 -13   1  -3    0.18    0.18
 -13   1  -3    0.07    0.14
  13   1   3   -0.11    0.15
 -13  -1  -3    0.27    0.17
 -13  -1  -3   -0.09    0.16
 -13  -1  -3    0.05    0.13
 -13  -1  -3    0.26    0.14
  13  -1   3    0.13    0.16
  13  -1   3   -0.18    0.18
  13  -1   3    0.26    0.20
 -13   1  -4    5.10    0.42
 -13   1  -4    4.53    0.44
 -13   1  -4    4.74    0.41
 -13   1  -4    4.65    0.45
  13   1   4    5.03    0.39
 -13  -1  -4    5.06    0.40
  13  -1   4    4.69    0.49
  13  -1   4    4.72    0.44
 -13  -1  -4    4.58    0.36
  13   1   5    0.81    0.21
 -13   1  -5    1.00    0.31
 -13   1  -5    1.11    0.26
 -13   1  -5    0.80    0.24
 -13   1  -5    0.85    0.31
  13  -1   5    0.80    0.27
 -13  -1  -5    0.92    0.23
 -13  -1  -5    0.86    0.23
 -13   1  -6    9.69    0.63
 -13   1  -6    8.79    0.61
 -13  -1  -6    9.60    0.62
 -13  -1  -6    9.36    0.58
 -13   1  -7    1.06    0.35
 -13   1  -7    0.91    0.32
 -13  -1  -7    0.82    0.28
 -13  -1  -7    0.96    0.33
  13   2 -11    2.26    0.40
  13   2 -11    2.92    0.42
 -13   2  11    2.38    0.44
 -13   2  11    2.15    0.50
  13  -2 -11    2.77    0.44
  13  -2 -11    1.68    0.43
 -13  -2  11    1.91    0.40
  13  -2 -11    2.10    0.45
  13   2 -10    0.05    0.24
  13   2 -10    0.05    0.28
  13   2 -10   -0.13    0.30
 -13   2  10   -0.02    0.31
 -13   2  10   -0.22    0.38
  13  -2 -10    0.49    0.28
  13  -2 -10    0.19    0.28
 -13  -2  10    1.04    0.38
 -13  -2  10    0.22    0.27
  13   2  -9    0.75    0.21
 -13   2   9    0.81    0.38
  13   2  -9    0.73    0.30
 -13   2   9    0.93    0.31
 -13   2   9   -0.08    0.35
  13   2  -9    0.68    0.25
 -13   2   9    1.00    0.32
 -13  -2   9    0.43    0.23
  13  -2  -9    0.48    0.30
  13  -2  -9    0.41    0.25
 -13  -2   9    0.61    0.33
  13   2  -8    1.84    0.26
 -13   2   8    1.58    0.31
 -13   2   8    1.50    0.29
 -13   2   8    1.35    0.32
 -13   2   8    1.25    0.32
  13   2  -8    2.08    0.35
  13   2  -8    1.95    0.27
  13   2  -8    1.73    0.30
  13  -2  -8    2.05    0.31
 -13  -2   8    1.88    0.34
 -13  -2   8    1.99    0.30
  13  -2  -8    1.51    0.30
 -13  -2   8    1.31    0.28
 -13   2   7    3.42    0.36
 -13   2   7    4.36    0.44
 -13   2   7    4.06    0.43
  13   2  -7    4.76    0.44
 -13   2   7    5.16    0.52
  13   2  -7    3.52    0.37
  13   2  -7    4.68    0.29
 -13  -2   7    4.46    0.37
  13  -2  -7    3.78    0.42
 -13  -2   7    4.19    0.46
 -13  -2   7    4.08    0.38
  13  -2  -7    4.14    0.39
  13  -2  -7    3.76    0.42
 -13   2   6    9.10    0.49
  13   2  -6    8.37    0.44
 -13   2   6    7.76    0.52
 -13   2   6    8.33    0.51
  13   2  -6    8.10    0.36
 -13   2   6    7.18    0.46
  13   2  -6    8.06    0.45
  13  -2  -6    7.84    0.49
 -13  -2   6    8.46    0.42
  13  -2  -6    8.72    0.47
 -13  -2   6    7.82    0.48
 -13  -2   6    8.24    0.42
  13  -2  -6    7.47    0.46
 -13   2   5    0.42    0.19
 -13   2   5    0.10    0.17
 -13   2   5    0.13    0.19
  13   2  -5    0.36    0.11
  13   2  -5    0.26    0.19
  13   2  -5    0.38    0.18
 -13   2   5    0.16    0.18
 -13   2   5    0.61    0.17
 -13   2   5   -0.11    0.17
  13  -2  -5    0.29    0.16
 -13  -2   5    0.55    0.17
  13  -2  -5    0.57    0.17
  13  -2  -5    0.41    0.17
 -13  -2   5    0.51    0.16
 -13  -2   5    0.20    0.13
 -13  -2   5    0.20    0.20
 -13  -2   5   -0.09    0.16
 -13   2   4   14.79    0.53
 -13   2   4   15.04    0.65
 -13   2   4   15.28    0.56
  13   2  -4   14.76    0.47
  13   2  -4   15.28    0.58
 -13   2   4   14.05    0.59
 -13   2   4   14.77    0.61
 -13   2   4   15.63    0.56
 -13  -2   4   15.02    0.60
 -13  -2   4   14.49    0.50
  13  -2  -4   15.18    0.59
 -13  -2   4   14.51    0.47
  13  -2  -4   15.94    0.61
  13  -2  -4   14.54    0.53
 -13  -2   4   14.28    0.61
 -13  -2   4   14.88    0.51
 -13   2   3    7.06    0.36
  13   2  -3    6.71    0.29
 -13   2   3    6.81    0.43
 -13   2   3    6.78    0.38
  13   2  -3    7.48    0.41
 -13   2   3    6.45    0.36
 -13   2   3    7.00    0.45
 -13   2   3    6.55    0.44
 -13  -2   3    6.59    0.31
  13  -2  -3    6.84    0.33
 -13  -2   3    7.23    0.32
  13  -2  -3    6.55    0.43
  13  -2  -3    6.94    0.40
 -13  -2   3    6.60    0.28
 -13  -2   3    6.80    0.42
 -13  -2   3    6.92    0.41
 -13   2   2   36.80    0.96
 -13   2   2   36.99    1.09
 -13   2   2   35.52    0.99
 -13   2   2   36.71    1.06
 -13   2   2   37.62    1.07
 -13   2   2   36.16    0.98
  13  -2  -2   39.21    1.08
 -13  -2   2   36.47    0.89
 -13  -2   2   36.48    1.08
 -13  -2   2   37.59    1.04
 -13  -2   2   37.13    0.89
  13  -2  -2   30.29    0.99
  13  -2  -2   37.21    1.10
 -13  -2   2   37.52    0.93
  13  -2  -2   37.41    0.92
 -13  -2   2   36.43    0.92
 -13   2   1    4.13    0.35
 -13   2   1    3.58    0.36
 -13   2   1    2.92    0.35
 -13   2   1    3.87    0.29
  13   2  -1    3.70    0.33
 -13   2   1    4.24    0.31
 -13  -2   1    3.71    0.23
 -13  -2   1    3.83    0.33
  13  -2  -1    4.26    0.35
  13  -2  -1    4.34    0.33
 -13  -2   1    3.45    0.29
 -13  -2   1    4.00    0.23
 -13  -2   1    3.71    0.32
  13  -2  -1    4.27    0.38
 -13  -2   1    3.82    0.20
 -13  -2   1    3.62    0.21
  13  -2  -1    3.69    0.24
 -13   2   0   31.55    0.92
 -13   2   0   32.23    0.96
 -13   2   0   32.32    0.97
 -13   2   0   32.90    1.00
  13  -2   0   32.29    0.79
 -13  -2   0   32.38    0.94
 -13  -2   0   30.70    0.97
 -13  -2   0   33.14    0.83
  13  -2   0   31.33    0.78
  13  -2   0   31.66    0.94
 -13  -2   0   32.57    0.99
  13  -2   0   33.96    1.02
 -13  -2   0   30.95    0.80
 -13   2  -1    0.19    0.15
 -13   2  -1    0.20    0.15
 -13   2  -1    0.07    0.19
 -13   2  -1    0.35    0.20
  13   2   1    0.24    0.12
 -13  -2  -1    0.31    0.09
  13  -2   1    0.31    0.15
  13  -2   1    0.33    0.10
  13  -2   1    0.58    0.22
 -13  -2  -1    0.44    0.13
  13  -2   1    0.36    0.11
 -13  -2  -1    0.61    0.17
 -13  -2  -1    0.43    0.14
 -13   2  -2    1.00    0.21
 -13   2  -2    0.87    0.23
  13   2   2    1.09    0.17
 -13   2  -2    1.31    0.29
 -13   2  -2    0.70    0.21
 -13  -2  -2    0.60    0.20
 -13  -2  -2    0.80    0.13
 -13  -2  -2    1.14    0.17
  13  -2   2    1.11    0.15
  13  -2   2    1.02    0.21
  13  -2   2    0.91    0.13
  13  -2   2    1.23    0.24
 -13   2  -3    1.46    0.26
 -13   2  -3    1.78    0.29
  13   2   3    1.97    0.26
 -13   2  -3    2.17    0.31
 -13   2  -3    2.00    0.33
 -13  -2  -3    1.57    0.24
  13  -2   3    2.00    0.26
  13  -2   3    1.49    0.26
  13  -2   3    1.50    0.26
 -13  -2  -3    1.85    0.22
 -13   2  -4    0.24    0.25
 -13   2  -4    0.35    0.23
  13   2   4    0.27    0.18
 -13   2  -4    0.44    0.25
 -13   2  -4    0.61    0.24
  13  -2   4   -0.11    0.19
 -13  -2  -4    0.11    0.18
  13  -2   4    0.18    0.23
 -13  -2  -4    0.20    0.21
  13  -2   4    0.49    0.28
 -13   2  -5    5.79    0.55
 -13   2  -5    5.09    0.54
 -13   2  -5    5.19    0.54
  13   2   5    4.78    0.41
 -13   2  -5    5.15    0.61
 -13  -2  -5    4.83    0.50
 -13  -2  -5    4.28    0.40
 -13  -2  -5    5.51    0.47
 -13   2  -6    0.08    0.31
 -13   2  -6    0.08    0.30
 -13   2  -6    0.10    0.35
 -13  -2  -6   -0.31    0.30
 -13  -2  -6    0.56    0.28
 -13   2  -7    7.45    0.76
 -13   2  -7    6.33    0.58
 -13  -2  -7    6.14    0.67
 -13  -2  -7    7.03    0.72
  13   3  -9   -0.02    0.21
 -13   3   9   -0.21    0.38
  13   3  -9   -0.03    0.25
  13   3  -9    0.26    0.32
 -13   3   9    0.10    0.34
  13  -3  -9   -0.45    0.25
  13  -3  -9   -0.16    0.36
 -13  -3   9   -0.50    0.28
 -13   3   8    4.54    0.57
  13   3  -8    5.76    0.47
  13   3  -8    6.59    0.54
 -13   3   8    5.74    0.60
  13   3  -8    5.51    0.36
 -13  -3   8    5.41    0.51
  13  -3  -8    5.08    0.62
 -13  -3   8    4.71    0.56
  13  -3  -8    5.32    0.52
  13   3  -7    0.69    0.26
 -13   3   7    0.85    0.33
 -13   3   7    0.67    0.29
 -13   3   7    1.09    0.37
 -13   3   7    0.72    0.20
 -13   3   7    0.93    0.32
  13   3  -7    0.47    0.14
  13  -3  -7    0.85    0.26
  13  -3  -7    0.32    0.23
 -13  -3   7    0.61    0.29
 -13  -3   7    0.82    0.27
 -13  -3   7    0.99    0.24
  13   3  -6    1.33    0.25
 -13   3   6    1.90    0.31
  13   3  -6    1.62    0.22
 -13   3   6    2.45    0.29
 -13   3   6    1.54    0.26
 -13   3   6    1.62    0.37
 -13   3   6    1.76    0.34
 -13  -3   6    1.43    0.23
  13  -3  -6    1.46    0.27
  13  -3  -6    1.08    0.31
 -13  -3   6    1.46    0.31
  13  -3  -6    1.98    0.34
 -13  -3   6    1.59    0.27
  13   3  -5    1.81    0.26
 -13   3   5    1.67    0.30
 -13   3   5    1.58    0.31
 -13   3   5    1.63    0.24
 -13   3   5    1.46    0.32
 -13   3   5    1.71    0.21
  13   3  -5    2.21    0.20
  13  -3  -5    2.16    0.28
 -13  -3   5    2.24    0.31
 -13  -3   5    1.66    0.20
  13  -3  -5    1.66    0.24
 -13  -3   5    1.86    0.27
  13  -3  -5    1.92    0.30
 -13   3   4    0.21    0.16
 -13   3   4    0.03    0.21
 -13   3   4    0.06    0.23
 -13   3   4    0.04    0.15
 -13   3   4    0.05    0.19
 -13  -3   4   -0.09    0.15
 -13  -3   4   -0.02    0.12
  13  -3  -4    0.25    0.22
  13  -3  -4   -0.13    0.19
  13  -3  -4   -0.01    0.18
 -13  -3   4    0.07    0.22
 -13   3   3   -0.02    0.16
 -13   3   3   -0.30    0.26
 -13   3   3    0.08    0.23
  13   3  -3    0.00    0.17
 -13   3   3   -0.11    0.13
 -13   3   3    0.04    0.19
 -13   3   3    0.12    0.18
 -13  -3   3   -0.09    0.19
 -13  -3   3    0.15    0.15
  13  -3  -3    0.00    0.18
  13  -3  -3    0.03    0.18
  13  -3  -3   -0.16    0.18
 -13  -3   3   -0.12    0.21
 -13   3   2    0.12    0.22
 -13   3   2   -0.03    0.15
 -13   3   2   -0.28    0.23
 -13   3   2    0.18    0.16
 -13   3   2    0.07    0.22
 -13  -3   2    0.04    0.17
  13  -3  -2   -0.09    0.18
 -13  -3   2   -0.06    0.13
 -13  -3   2    0.09    0.22
 -13  -3   2    0.04    0.21
 -13  -3   2    0.11    0.15
  13  -3  -2    0.07    0.23
  13  -3  -2    0.09    0.17
  13  -3  -2    0.29    0.18
 -13   3   1    0.09    0.18
 -13   3   1   -0.07    0.23
 -13   3   1    0.14    0.17
 -13   3   1    0.22    0.22
 -13   3   1    0.10    0.15
  13  -3  -1   -0.18    0.24
 -13  -3   1    0.17    0.17
 -13  -3   1    0.22    0.13
 -13  -3   1    0.14    0.22
 -13  -3   1    0.18    0.24
  13  -3  -1    0.05    0.16
  13  -3  -1    0.06    0.17
 -13  -3   1    0.31    0.19
 -13   3   0   11.64    0.62
 -13   3   0   12.36    0.51
 -13   3   0   13.20    0.64
 -13   3   0   11.22    0.59
 -13  -3   0   12.73    0.58
  13  -3   0   11.82    0.47
 -13  -3   0   12.04    0.42
  13  -3   0   12.37    0.62
  13  -3   0   12.72    0.56
 -13  -3   0   11.81    0.45
  13  -3   0   12.20    0.51
 -13  -3   0   13.24    0.74
 -13   3  -1    0.02    0.25
 -13   3  -1    0.17    0.24
 -13   3  -1    0.14    0.18
 -13   3  -1    0.17    0.22
 -13  -3  -1    0.03    0.13
 -13  -3  -1    0.33    0.15
  13  -3   1    0.27    0.18
  13  -3   1    0.45    0.29
  13  -3   1   -0.17    0.18
  13  -3   1    0.15    0.15
 -13  -3  -1   -0.08    0.17
 -13   3  -2    0.12    0.23
 -13   3  -2    0.33    0.27
 -13   3  -2    0.07    0.23
 -13   3  -2    0.29    0.22
 -13  -3  -2   -0.03    0.11
  13  -3   2   -0.09    0.17
 -13  -3  -2   -0.01    0.13
  13  -3   2    0.72    0.27
  13  -3   2   -0.29    0.18
  13  -3   2    0.15    0.19
 -13  -3  -2    0.01    0.21
 -13   3  -3    0.85    0.26
 -13   3  -3    0.43    0.28
 -13   3  -3    1.64    0.29
 -13   3  -3    1.01    0.34
  13  -3   3    1.02    0.23
  13  -3   3    0.52    0.28
  13  -3   3    1.30    0.37
 -13  -3  -3    0.56    0.23
 -13  -3  -3    1.08    0.28
 -13  -3  -3    1.03    0.18
 -13  -3  -3    1.02    0.15
  13  -3   3    0.63    0.24
 -13  -3  -3    0.80    0.14
  13  -3   3    0.70    0.19
 -13   3  -4    0.91    0.31
 -13   3  -4    1.08    0.28
  13   3   4    1.07    0.18
 -13   3  -4    1.15    0.29
 -13   3  -4    1.02    0.35
 -13  -3  -4    1.50    0.23
  13  -3   4    1.13    0.34
  13  -3   4    0.74    0.25
  13  -3   4    1.04    0.38
  13  -3   4    1.51    0.23
 -13  -3  -4    1.37    0.30
 -13  -3  -4    1.02    0.27
  13   3   5    8.68    0.47
 -13   3  -5   10.58    0.72
 -13   3  -5   11.59    0.77
 -13  -3  -5    9.42    0.66
 -13  -3  -5   11.23    0.68
 -13   3  -6   -0.58    0.39
 -13   3  -6    0.07    0.42
 -13  -3  -6    0.22    0.36
 -13  -3  -6   -0.14    0.34
 -13   4   8    7.20    0.78
  13   4  -8    8.60    0.41
 -13   4   8    7.69    0.82
 -13  -4   8    8.01    0.72
  13  -4  -8    8.00    0.73
 -13   4   7    6.61    0.72
 -13   4   7    7.32    0.70
  13  -4  -7    6.71    0.93
 -13  -4   7    6.23    0.63
  13  -4  -7    6.11    0.63
 -13   4   6    0.63    0.36
 -13   4   6    0.66    0.36
 -13  -4   6    0.24    0.28
  13  -4  -6   -0.05    0.32
 -13  -4   6    0.20    0.33
  13  -4  -6   -0.11    0.28
 -13   4   5    0.64    0.32
 -13   4   5    0.51    0.31
 -13  -4   5    0.32    0.30
 -13  -4   5    0.13    0.25
  13  -4  -5   -0.12    0.31
  13  -4  -5   -0.03    0.27
 -13   4   4   -0.05    0.27
 -13   4   4    0.09    0.29
  13  -4  -4   -0.31    0.27
 -13  -4   4    0.08    0.29
  13  -4  -4   -0.11    0.28
 -13  -4   4    0.07    0.33
 -13  -4   4    0.54    0.25
  13  -4  -4    0.28    0.34
 -13   4   3    1.28    0.34
 -13   4   3    1.99    0.32
 -13   4   3    0.84    0.44
  13  -4  -3    1.54    0.32
  13  -4  -3    0.81    0.30
 -13  -4   3    1.60    0.34
 -13  -4   3    1.25    0.33
  13  -4  -3    0.88    0.33
 -13  -4   3    1.94    0.28
 -13  -4   3    1.32    0.28
 -13   4   2    2.86    0.42
 -13   4   2    2.12    0.37
  13  -4  -2    2.37    0.39
  13  -4  -2    2.53    0.34
  13  -4  -2    2.22    0.34
 -13  -4   2    2.07    0.27
 -13  -4   2    2.50    0.35
 -13  -4   2    1.96    0.33
 -13   4   1    1.15    0.38
 -13   4   1    0.61    0.31
 -13   4   1    1.10    0.36
  13  -4  -1    0.79    0.26
 -13  -4   1    0.72    0.28
  13  -4  -1   -0.14    0.31
  13  -4  -1    1.13    0.31
 -13  -4   1    0.78    0.23
 -13  -4   1    1.36    0.29
 -13   4   0    3.96    0.48
 -13   4   0    3.86    0.38
 -13   4   0    4.01    0.53
 -13  -4   0    3.29    0.45
 -13  -4   0    3.70    0.44
  13  -4   0    3.76    0.44
  13  -4   0    3.34    0.49
 -13  -4   0    3.85    0.36
  13  -4   0    3.51    0.44
  13  -4   0    3.61    0.52
 -13   4  -1    6.08    0.56
 -13   4  -1    5.23    0.62
 -13   4  -1    5.68    0.46
 -13  -4  -1    4.94    0.38
  13  -4   1    5.36    0.46
 -13  -4  -1    5.66    0.46
 -13  -4  -1    6.80    0.56
  13  -4   1    5.64    0.66
  13  -4   1    4.86    0.46
  13  -4   1    5.56    0.55
 -13  -4  -1    5.47    0.52
 -13   4  -2    0.40    0.28
 -13   4  -2    0.11    0.41
 -13   4  -2    0.61    0.34
  13  -4   2    0.36    0.26
  13  -4   2   -0.21    0.42
 -13  -4  -2    0.28    0.21
 -13  -4  -2    0.52    0.28
  13  -4   2    0.23    0.24
 -13  -4  -2    0.07    0.29
 -13   4  -3   -0.61    0.29
 -13   4  -3   -0.16    0.32
 -13  -4  -3    0.09    0.27
  13  -4   3    0.47    0.26
 -13  -4  -3    0.27    0.31
  13  -4   3    0.31    0.28
 -13  -4  -3    0.01    0.22
 -13   4  -4    1.70    0.42
 -13   4  -4    2.27    0.38
  13  -4   4    2.21    0.34
 -13  -4  -4    2.39    0.43
 -13  -4  -4    2.19    0.45
 -13   5   4    0.00    0.41
 -13  -5   4   -0.01    0.34
 -13  -5   4   -0.35    0.31
  13  -5  -4   -0.44    0.38
 -13  -5   4    1.01    0.35
 -13   5   3   39.16    1.35
 -13  -5   3   38.16    1.27
  13  -5  -3   37.71    1.24
 -13  -5   3   36.80    1.20
 -13  -5   3   38.65    1.24
 -13   5   2    4.42    0.49
 -13  -5   2    5.72    0.65
 -13  -5   2    4.65    0.63
  13  -5  -2    3.87    0.58
 -13  -5   2    4.56    0.57
 -13   5   1    0.31    0.32
 -13  -5   1    0.67    0.36
  13  -5  -1   -0.06    0.32
 -13  -5   1    0.50    0.33
 -13  -5   1    0.18    0.29
 -13   5   0    1.11    0.45
  13  -5   0    1.58    0.40
 -13  -5   0    0.97    0.39
 -13  -5   0    1.13    0.39
  13  -5   0    1.04    0.35
 -13  -5   0    1.14    0.34
  14   0 -11    0.33    0.36
 -14   0  11    0.66    0.33
  14   0 -11   -0.28    0.38
  14   0 -11   -0.09    0.33
  14   0 -10    6.49    0.56
 -14   0  10    6.29    0.57
  14   0 -10    6.05    0.59
  14   0 -10    6.98    0.55
  14   0  -9   -0.19    0.19
  14   0  -9   -0.16    0.24
 -14   0   9   -0.20    0.26
 -14   0   9   -0.23    0.22
  14   0  -9    0.10    0.24
 -14   0   8   55.29    1.51
  14   0  -8   54.19    1.45
  14   0  -8   50.79    1.43
  14   0  -8   53.04    1.44
 -14   0   8   54.94    1.46
  14   0  -7   -0.05    0.18
 -14   0   7   -0.06    0.23
  14   0  -7   -0.19    0.16
 -14   0   7    0.05    0.22
  14   0  -7   -0.05    0.16
 -14   0   7    0.01    0.26
 -14   0   7   -0.10    0.22
 -14   0   7    0.00    0.15
 -14   0   6   13.86    0.59
  14   0  -6   13.24    0.55
 -14   0   6   13.87    0.53
 -14   0   6   13.17    0.59
  14   0  -6   13.54    0.57
 -14   0   6   13.86    0.62
  14   0  -6   14.30    0.52
 -14   0   6   13.31    0.64
  14   0  -5    0.05    0.14
 -14   0   5   -0.20    0.16
  14   0  -5    0.19    0.14
 -14   0   5    0.06    0.14
  14   0  -5    0.05    0.13
 -14   0   5    0.04    0.17
 -14   0   5   -0.18    0.12
 -14   0   5    0.22    0.19
 -14   0   4  121.18    2.82
  14   0  -4  122.69    2.68
 -14   0   4  123.00    2.70
 -14   0   4  123.08    2.87
 -14   0   4  125.40    2.79
  14   0  -4  125.74    2.84
 -14   0   4  124.51    2.84
  14   0  -4  115.94    2.77
 -14   0   4  126.06    2.84
  14   0  -3   -0.09    0.12
 -14   0   3    0.02    0.09
 -14   0   3   -0.03    0.12
 -14   0   3   -0.18    0.17
 -14   0   3    0.11    0.14
 -14   0   3   -0.11    0.14
  14   0  -3   -0.03    0.11
  14   0  -3    0.09    0.10
 -14   0   2   12.19    0.51
 -14   0   2   12.21    0.52
 -14   0   2   12.71    0.49
 -14   0   2   12.44    0.50
 -14   0   2   11.95    0.53
  14   0  -2   12.26    0.51
  14   0  -2   11.59    0.47
 -14   0   1   -0.13    0.13
  14   0  -1    0.01    0.12
 -14   0   1    0.14    0.14
 -14   0   1    0.15    0.15
 -14   0   1   -0.12    0.13
 -14   0   1    0.02    0.15
 -14   0   0    7.50    0.42
  14   0   0    7.50    0.41
 -14   0   0    7.98    0.42
 -14   0   0    6.89    0.36
 -14   0   0    6.91    0.40
 -14   0  -1    0.17    0.17
 -14   0  -1   -0.21    0.12
 -14   0  -1    0.06    0.16
  14   0   1   -0.02    0.14
 -14   0  -1    0.23    0.13
 -14   0  -2    3.85    0.33
  14   0   2    4.27    0.37
 -14   0  -2    4.45    0.41
 -14   0  -2    4.34    0.35
 -14   0  -2    4.12    0.35
 -14   0  -3   -0.16    0.14
 -14   0  -3    0.17    0.17
 -14   0  -3   -0.03    0.21
 -14   0  -3   -0.10    0.16
 -14   0  -4    4.24    0.40
  14   0   4    4.65    0.44
 -14   0  -4    5.10    0.43
 -14   0  -5   -0.23    0.20
 -14   0  -5   -0.14    0.22
 -14   0  -6    1.28    0.32
 -14   0  -7    0.32    0.31
 -14   0  -7   -0.02    0.30
  14   1 -11    8.98    0.68
  14   1 -11    8.45    0.75
  14   1 -11    9.68    0.69
 -14   1  11    7.35    0.71
  14  -1 -11    7.72    0.73
  14  -1 -11    9.42    0.73
 -14  -1  11    9.80    0.69
  14  -1 -11    9.20    0.73
  14   1 -10    9.94    0.69
  14   1 -10   10.52    0.63
 -14   1  10    9.16    0.65
 -14   1  10    9.42    0.73
  14   1 -10   10.31    0.62
  14  -1 -10    9.36    0.64
  14  -1 -10   10.51    0.62
 -14  -1  10   10.64    0.63
  14  -1 -10   10.79    0.65
 -14   1   9   -0.16    0.29
 -14   1   9   -0.40    0.32
  14   1  -9    0.17    0.25
  14   1  -9    0.39    0.24
  14   1  -9   -0.07    0.25
 -14  -1   9   -0.26    0.22
  14  -1  -9    0.14    0.25
  14  -1  -9   -0.02    0.23
 -14   1   8    3.42    0.41
 -14   1   8    3.34    0.42
 -14   1   8    3.16    0.41
  14   1  -8    4.03    0.35
  14   1  -8    3.68    0.49
 -14   1   8    4.92    0.57
  14   1  -8    3.52    0.39
 -14  -1   8    2.07    0.40
  14  -1  -8    3.57    0.43
 -14  -1   8    3.16    0.43
  14  -1  -8    3.44    0.40
  14  -1  -8    2.76    0.37
 -14  -1   8    3.60    0.38
  14   1  -7    2.54    0.31
 -14   1   7    2.04    0.27
  14   1  -7    2.25    0.29
 -14   1   7    1.77    0.26
 -14   1   7    2.11    0.32
  14   1  -7    2.13    0.25
 -14   1   7    1.62    0.31
  14  -1  -7    1.77    0.27
 -14  -1   7    2.28    0.29
  14  -1  -7    1.63    0.25
  14  -1  -7    1.93    0.27
 -14  -1   7    1.87    0.28
 -14  -1   7    1.52    0.30
  14   1  -6   10.00    0.48
 -14   1   6    9.33    0.53
 -14   1   6    9.44    0.54
  14   1  -6    9.25    0.43
 -14   1   6    9.33    0.47
  14   1  -6    9.50    0.46
 -14   1   6    9.15    0.51
 -14  -1   6    9.16    0.43
 -14  -1   6    8.92    0.47
 -14  -1   6    9.86    0.46
 -14  -1   6    9.08    0.52
 -14  -1   6    8.32    0.55
  14  -1  -6    9.08    0.48
  14  -1  -6    9.30    0.49
  14  -1  -6    9.53    0.47
  14   1  -5   13.03    0.57
 -14   1   5   13.66    0.60
  14   1  -5   13.41    0.50
  14   1  -5   13.20    0.50
 -14   1   5   12.54    0.57
 -14   1   5   13.84    0.52
 -14   1   5   13.69    0.60
 -14   1   5   12.70    0.58
 -14  -1   5   13.78    0.59
 -14  -1   5   12.88    0.49
  14  -1  -5   14.03    0.56
 -14  -1   5   13.79    0.49
  14  -1  -5   13.41    0.51
 -14  -1   5   13.77    0.55
 -14  -1   5   13.12    0.63
  14  -1  -5   14.06    0.57
  14   1  -4    2.43    0.23
 -14   1   4    2.39    0.32
 -14   1   4    2.17    0.32
 -14   1   4    2.51    0.33
 -14   1   4    2.79    0.25
  14   1  -4    2.50    0.24
 -14   1   4    2.37    0.34
  14   1  -4    2.15    0.30
 -14   1   4    2.62    0.29
 -14  -1   4    2.46    0.30
  14  -1  -4    2.60    0.29
 -14  -1   4    2.80    0.32
 -14  -1   4    2.32    0.23
  14  -1  -4    2.23    0.28
 -14  -1   4    2.62    0.21
 -14  -1   4    2.26    0.34
  14  -1  -4    2.64    0.25
 -14   1   3   18.32    0.54
  14   1  -3   17.49    0.64
  14   1  -3   18.22    0.57
 -14   1   3   17.12    0.66
 -14   1   3   17.72    0.62
 -14   1   3   18.24    0.65
 -14   1   3   16.59    0.63
 -14   1   3   16.71    0.65
 -14  -1   3   17.69    0.60
 -14  -1   3   17.67    0.50
  14  -1  -3   17.62    0.64
 -14  -1   3   17.12    0.55
 -14  -1   3   18.15    0.65
  14  -1  -3   17.51    0.51
 -14  -1   3   18.17    0.66
  14  -1  -3   18.20    0.64
 -14  -1   3   17.33    0.67
 -14   1   2   16.24    0.62
  14   1  -2   17.81    0.55
 -14   1   2   17.43    0.64
 -14   1   2   16.75    0.61
 -14   1   2   16.70    0.48
 -14   1   2   16.92    0.65
  14   1  -2   17.62    0.63
 -14  -1   2   17.04    0.62
 -14  -1   2   16.92    0.64
  14  -1  -2   17.14    0.63
  14  -1  -2   16.56    0.45
 -14  -1   2   16.60    0.54
 -14  -1   2   17.13    0.65
 -14  -1   2   16.47    0.58
  14  -1  -2   16.45    0.62
 -14   1   1   23.30    0.75
 -14   1   1   23.15    0.75
 -14   1   1   22.71    0.77
 -14   1   1   22.61    0.74
 -14   1   1   23.10    0.78
  14   1  -1   22.42    0.76
  14  -1  -1   22.63    0.75
 -14  -1   1   22.19    0.73
 -14  -1   1   22.68    0.77
  14  -1  -1   22.44    0.78
 -14  -1   1   23.35    0.70
 -14  -1   1   22.54    0.78
 -14  -1   1   23.00    0.67
  14   1   0   21.06    0.73
 -14   1   0   20.50    0.71
  14   1   0   20.42    0.65
 -14   1   0   20.49    0.73
 -14   1   0   21.30    0.74
 -14   1   0   20.07    0.70
 -14  -1   0   20.05    0.66
  14  -1   0   20.39    0.71
 -14  -1   0   20.72    0.70
 -14  -1   0   19.34    0.60
 -14  -1   0   21.36    0.74
  14  -1   0   20.60    0.74
  14   1   1    0.36    0.16
  14   1   1    0.41    0.16
 -14   1  -1    0.93    0.23
 -14   1  -1    0.41    0.17
 -14   1  -1    0.32    0.16
 -14   1  -1    0.76    0.21
 -14  -1  -1    0.55    0.12
 -14  -1  -1    0.31    0.15
  14  -1   1    0.43    0.19
 -14  -1  -1    0.79    0.18
 -14  -1  -1    0.48    0.16
  14  -1   1    0.79    0.20
  14   1   2    0.07    0.14
 -14   1  -2    0.28    0.14
 -14   1  -2    0.14    0.18
 -14   1  -2   -0.32    0.20
 -14   1  -2    0.13    0.18
 -14  -1  -2    0.10    0.12
  14  -1   2    0.18    0.20
 -14  -1  -2    0.05    0.14
 -14  -1  -2    0.35    0.22
  14  -1   2    0.09    0.18
 -14  -1  -2    0.06    0.16
 -14   1  -3    0.26    0.22
 -14   1  -3   -0.25    0.22
 -14   1  -3    0.03    0.21
  14   1   3   -0.03    0.14
 -14   1  -3    0.06    0.17
  14  -1   3    0.03    0.18
 -14  -1  -3    0.00    0.19
 -14  -1  -3    0.29    0.19
  14  -1   3   -0.25    0.19
  14  -1   3    0.04    0.24
 -14   1  -4    4.62    0.43
 -14   1  -4    4.09    0.43
 -14   1  -4    3.83    0.48
 -14   1  -4    4.60    0.52
  14   1   4    3.62    0.41
  14  -1   4    3.96    0.48
 -14  -1  -4    3.85    0.40
 -14  -1  -4    3.90    0.38
 -14   1  -5    2.49    0.38
 -14   1  -5    3.48    0.46
 -14  -1  -5    3.33    0.42
 -14   1  -6    0.65    0.30
 -14  -1  -6    0.26    0.27
 -14  -1  -6    0.18    0.30
 -14   1  -7    0.17    0.34
 -14   1  -7    0.64    0.43
 -14  -1  -7    1.00    0.36
 -14  -1  -7   -0.06    0.35
  14   2 -10    1.02    0.34
 -14   2  10    1.90    0.40
  14   2 -10    0.40    0.25
 -14   2  10    1.05    0.43
  14   2 -10    1.22    0.39
  14  -2 -10    1.04    0.34
 -14  -2  10    1.02    0.34
  14  -2 -10    1.45    0.39
 -14   2   9    0.72    0.46
  14   2  -9    0.12    0.20
 -14   2   9    0.26    0.32
 -14   2   9    0.67    0.44
  14   2  -9    0.01    0.28
 -14   2   9   -0.04    0.29
  14   2  -9    0.35    0.27
 -14  -2   9    0.10    0.25
  14  -2  -9   -0.17    0.26
  14  -2  -9    0.03    0.30
  14   2  -8    3.13    0.43
 -14   2   8    2.91    0.42
  14   2  -8    4.41    0.34
 -14   2   8    3.57    0.44
 -14   2   8    3.57    0.43
 -14   2   8    3.33    0.47
 -14  -2   8    3.45    0.40
  14  -2  -8    3.47    0.44
  14  -2  -8    3.42    0.47
 -14  -2   8    4.15    0.56
 -14  -2   8    3.30    0.41
  14   2  -7   -0.02    0.25
 -14   2   7    0.13    0.23
 -14   2   7    0.19    0.22
  14   2  -7   -0.02    0.18
  14   2  -7   -0.16    0.14
 -14   2   7   -0.15    0.30
 -14   2   7   -0.43    0.25
 -14  -2   7   -0.19    0.26
  14  -2  -7    0.20    0.22
  14  -2  -7    0.46    0.25
  14  -2  -7   -0.13    0.19
 -14  -2   7    0.34    0.21
 -14  -2   7   -0.20    0.17
 -14   2   6    0.22    0.18
 -14   2   6    0.30    0.22
  14   2  -6    0.27    0.19
  14   2  -6    0.46    0.15
 -14   2   6    0.54    0.20
 -14   2   6    0.42    0.25
 -14   2   6    0.41    0.24
  14   2  -6    0.24    0.22
 -14  -2   6    0.61    0.25
  14  -2  -6    0.10    0.21
 -14  -2   6    0.40    0.19
  14  -2  -6    0.08    0.18
 -14  -2   6    0.27    0.18
  14  -2  -6    0.20    0.20
  14   2  -5    0.44    0.13
  14   2  -5    0.55    0.21
 -14   2   5    0.56    0.22
 -14   2   5    0.60    0.21
 -14   2   5    0.35    0.22
 -14   2   5    0.26    0.18
  14   2  -5    0.48    0.19
 -14   2   5    0.50    0.26
  14  -2  -5    0.53    0.20
  14  -2  -5    0.76    0.20
 -14  -2   5    0.59    0.17
 -14  -2   5    0.48    0.17
  14  -2  -5    0.22    0.14
 -14  -2   5    0.52    0.24
  14   2  -4    1.91    0.21
 -14   2   4    1.86    0.30
 -14   2   4    1.78    0.28
  14   2  -4    1.63    0.25
 -14   2   4    1.61    0.23
 -14   2   4    1.59    0.27
 -14   2   4    1.82    0.26
 -14   2   4    2.06    0.29
  14  -2  -4    2.13    0.28
  14  -2  -4    1.90    0.23
 -14  -2   4    1.65    0.25
 -14  -2   4    1.73    0.24
 -14  -2   4    1.80    0.22
 -14  -2   4    1.16    0.19
  14  -2  -4    2.16    0.28
 -14   2   3    9.14    0.52
 -14   2   3    9.77    0.47
  14   2  -3    9.23    0.50
  14   2  -3    9.60    0.36
 -14   2   3    9.79    0.44
 -14   2   3    9.78    0.54
 -14   2   3    9.80    0.44
 -14   2   3    9.45    0.52
 -14  -2   3   10.08    0.40
 -14  -2   3    9.63    0.51
 -14  -2   3    9.19    0.48
  14  -2  -3    9.00    0.48
 -14  -2   3    9.09    0.35
  14  -2  -3    9.77    0.40
 -14  -2   3   10.16    0.52
 -14  -2   3    9.92    0.37
  14  -2  -3    9.56    0.52
 -14   2   2    8.18    0.42
 -14   2   2    7.46    0.48
  14   2  -2    8.05    0.45
 -14   2   2    7.68    0.36
 -14   2   2    8.25    0.43
 -14   2   2    7.72    0.50
 -14  -2   2    8.04    0.45
 -14  -2   2    7.48    0.43
  14  -2  -2    7.78    0.46
  14  -2  -2    7.63    0.45
 -14  -2   2    7.95    0.35
 -14  -2   2    7.47    0.31
 -14  -2   2    7.68    0.30
  14  -2  -2    7.14    0.48
  14  -2  -2    7.39    0.33
 -14  -2   2    7.36    0.46
 -14  -2   2    7.65    0.33
 -14   2   1   11.56    0.52
 -14   2   1   11.69    0.49
 -14   2   1   11.28    0.56
  14   2  -1   10.94    0.54
 -14   2   1   11.91    0.55
 -14   2   1   10.75    0.55
 -14  -2   1   11.68    0.53
  14  -2  -1   11.44    0.38
 -14  -2   1   10.88    0.41
 -14  -2   1   11.35    0.54
  14  -2  -1   11.84    0.58
 -14  -2   1   10.40    0.38
  14  -2  -1   11.47    0.53
 -14   2   0    0.75    0.25
 -14   2   0    0.96    0.25
 -14   2   0    0.89    0.26
 -14   2   0    0.82    0.19
 -14  -2   0    0.65    0.21
 -14  -2   0    0.90    0.14
 -14  -2   0    0.51    0.18
 -14  -2   0    0.68    0.20
  14  -2   0    0.85    0.13
 -14  -2   0    1.05    0.17
  14  -2   0    0.63    0.20
  14  -2   0    1.01    0.13
  14  -2   0    0.97    0.25
 -14   2  -1    1.04    0.22
 -14   2  -1    1.68    0.31
 -14   2  -1    0.65    0.21
 -14   2  -1    1.02    0.26
  14   2   1    1.04    0.18
  14  -2   1    1.45    0.31
 -14  -2  -1    1.01    0.23
 -14  -2  -1    1.13    0.18
  14  -2   1    1.02    0.20
 -14   2  -2   -0.09    0.24
 -14   2  -2   -0.09    0.20
 -14   2  -2    0.31    0.24
 -14   2  -2   -0.01    0.18
  14   2   2   -0.11    0.13
  14  -2   2   -0.18    0.24
  14  -2   2   -0.02    0.18
 -14  -2  -2    0.11    0.15
 -14  -2  -2    0.02    0.16
 -14   2  -3    1.04    0.28
  14   2   3    1.29    0.21
 -14   2  -3    1.57    0.30
 -14   2  -3    1.11    0.30
 -14   2  -3    1.41    0.33
  14  -2   3    1.44    0.30
 -14  -2  -3    1.44    0.22
  14  -2   3    1.64    0.27
 -14  -2  -3    1.77    0.32
  14  -2   3    1.13    0.31
 -14   2  -4    0.50    0.25
 -14   2  -4    1.56    0.32
  14   2   4    1.48    0.23
 -14   2  -4    1.10    0.30
 -14   2  -4    1.92    0.35
  14  -2   4    1.49    0.29
 -14  -2  -4    1.19    0.24
 -14  -2  -4    1.18    0.28
 -14   2  -5    0.99    0.34
 -14   2  -5    0.62    0.31
 -14   2  -5    1.54    0.63
 -14  -2  -5    0.71    0.29
 -14  -2  -5    1.30    0.33
 -14   2  -6    3.34    0.53
 -14  -2  -6    2.16    0.41
 -14  -2  -6    4.11    0.58
  14   3  -9    0.18    0.18
 -14   3   9    0.16    0.40
  14   3  -9    0.39    0.30
 -14   3   9   -0.72    0.36
  14  -3  -9   -0.43    0.31
 -14  -3   9   -0.41    0.31
  14  -3  -9   -0.14    0.40
 -14   3   8    2.23    0.40
  14   3  -8    1.86    0.23
  14   3  -8    2.20    0.34
 -14   3   8    1.73    0.40
 -14   3   8    2.75    0.44
  14  -3  -8    2.15    0.37
  14  -3  -8    2.26    0.39
 -14  -3   8    1.64    0.34
 -14  -3   8    1.95    0.41
  14   3  -7    1.10    0.29
 -14   3   7    0.35    0.34
 -14   3   7    0.77    0.23
 -14   3   7    1.07    0.32
  14   3  -7    1.00    0.18
  14  -3  -7    0.96    0.35
  14  -3  -7    1.03    0.26
 -14  -3   7    0.96    0.35
 -14  -3   7    1.26    0.29
  14   3  -6    4.30    0.43
 -14   3   6    3.89    0.49
 -14   3   6    4.91    0.61
 -14   3   6    3.44    0.34
  14   3  -6    3.91    0.28
 -14   3   6    4.21    0.47
 -14  -3   6    3.29    0.40
 -14  -3   6    4.25    0.39
  14  -3  -6    4.14    0.46
 -14  -3   6    3.99    0.42
  14  -3  -6    3.67    0.49
  14  -3  -6    3.51    0.49
 -14   3   5    8.08    0.41
 -14   3   5    7.79    0.46
 -14   3   5    8.46    0.60
  14   3  -5    9.34    0.52
  14   3  -5    8.33    0.34
 -14   3   5    9.36    0.56
 -14   3   5    8.16    0.64
  14  -3  -5    9.40    0.61
  14  -3  -5    8.26    0.52
 -14  -3   5    8.51    0.40
 -14  -3   5    8.38    0.57
  14  -3  -5    7.85    0.52
 -14  -3   5    8.43    0.50
 -14   3   4    0.68    0.19
  14   3  -4    0.38    0.22
 -14   3   4    0.39    0.25
 -14   3   4    1.21    0.26
 -14   3   4    0.87    0.27
 -14   3   4    0.42    0.20
 -14  -3   4    0.72    0.21
  14  -3  -4    0.68    0.23
  14  -3  -4    0.98    0.24
 -14  -3   4    0.59    0.28
  14  -3  -4    0.62    0.30
 -14   3   3   16.85    0.74
 -14   3   3   16.11    0.56
 -14   3   3   17.48    0.75
 -14   3   3   16.00    0.58
 -14   3   3   16.38    0.66
 -14  -3   3   15.94    0.71
  14  -3  -3   16.32    0.68
  14  -3  -3   16.70    0.74
  14  -3  -3   15.93    0.62
 -14  -3   3   16.63    0.70
 -14  -3   3   17.18    0.58
 -14  -3   3   17.21    0.65
 -14   3   2    1.60    0.37
 -14   3   2    3.08    0.35
 -14   3   2    2.65    0.31
 -14   3   2    3.72    0.45
 -14   3   2    3.05    0.43
 -14  -3   2    3.11    0.29
 -14  -3   2    2.23    0.33
  14  -3  -2    3.09    0.34
  14  -3  -2    2.31    0.34
  14  -3  -2    3.23    0.37
 -14  -3   2    2.43    0.35
  14  -3  -2    2.71    0.32
 -14   3   1   -0.16    0.16
 -14   3   1    0.24    0.23
 -14   3   1   -0.16    0.28
 -14   3   1   -0.19    0.29
 -14   3   1   -0.09    0.20
  14  -3  -1    0.10    0.19
 -14  -3   1    0.32    0.15
 -14  -3   1    0.17    0.17
  14  -3  -1    0.27    0.27
 -14  -3   1   -0.12    0.19
  14  -3  -1   -0.08    0.18
 -14   3   0    0.57    0.32
 -14   3   0    0.61    0.26
 -14   3   0    0.45    0.28
 -14   3   0    0.84    0.23
  14  -3   0    0.52    0.19
 -14  -3   0    0.75    0.15
  14  -3   0    0.49    0.22
  14  -3   0    0.07    0.29
 -14  -3   0    0.77    0.18
 -14  -3   0    0.74    0.22
  14  -3   0    0.63    0.17
 -14   3  -1   -0.32    0.30
 -14   3  -1    0.61    0.31
 -14   3  -1    0.35    0.22
 -14   3  -1    0.12    0.30
 -14  -3  -1    0.36    0.13
  14  -3   1    0.31    0.33
  14  -3   1    0.23    0.19
 -14  -3  -1    0.23    0.14
  14  -3   1    0.09    0.16
 -14  -3  -1   -0.03    0.20
  14  -3   1   -0.13    0.20
 -14   3  -2    0.54    0.32
 -14   3  -2    0.72    0.28
 -14   3  -2    0.36    0.31
 -14   3  -2    0.68    0.38
  14  -3   2    0.33    0.19
  14  -3   2    0.76    0.35
 -14  -3  -2    0.45    0.23
  14  -3   2    0.09    0.22
 -14   3  -3   -0.50    0.33
 -14   3  -3    0.46    0.28
  14   3   3    0.10    0.15
 -14   3  -3   -0.18    0.35
 -14   3  -3    0.08    0.33
 -14  -3  -3   -0.08    0.18
 -14  -3  -3   -0.10    0.23
  14  -3   3    0.08    0.17
 -14  -3  -3    0.24    0.23
  14  -3   3    0.42    0.32
  14  -3   3   -0.43    0.22
 -14   3  -4    2.22    0.35
  14   3   4    2.92    0.33
 -14   3  -4    2.80    0.42
  14  -3   4    2.70    0.35
 -14  -3  -4    2.58    0.38
 -14   3  -5    0.21    0.38
 -14   3  -5    0.74    0.41
 -14  -3  -5    0.56    0.33
 -14  -3  -5    0.37    0.32
 -14   4   7    2.56    0.50
 -14   4   7    2.81    0.51
 -14  -4   7    2.10    0.39
  14  -4  -7    1.69    0.38
 -14   4   6    0.71    0.43
 -14   4   6    0.88    0.43
  14  -4  -6    0.66    0.33
 -14  -4   6    0.45    0.33
  14  -4  -6    0.46    0.38
 -14   4   5    5.35    0.58
 -14   4   5    5.92    0.64
  14  -4  -5    4.47    0.47
  14  -4  -5    3.21    0.46
 -14  -4   5    4.60    0.53
 -14   4   4    0.66    0.31
 -14   4   4    0.51    0.32
 -14  -4   4    0.65    0.40
  14  -4  -4    0.58    0.34
  14  -4  -4    0.60    0.28
 -14  -4   4    0.95    0.26
 -14   4   3    4.38    0.53
  14  -4  -3    3.67    0.43
 -14  -4   3    4.45    0.46
 -14  -4   3    3.10    0.43
  14  -4  -3    3.54    0.49
  14  -4  -3    4.43    0.61
 -14  -4   3    4.03    0.53
 -14   4   2    1.08    0.37
  14  -4  -2    1.20    0.33
 -14  -4   2    0.55    0.31
 -14  -4   2    1.12    0.25
  14  -4  -2    1.03    0.28
 -14  -4   2    1.12    0.35
 -14   4   1    1.31    0.25
 -14   4   1    1.44    0.38
 -14  -4   1    1.61    0.34
  14  -4  -1    1.19    0.33
 -14  -4   1    1.11    0.25
  14  -4  -1    0.88    0.39
 -14  -4   1    1.75    0.33
  14  -4  -1    1.54    0.31
 -14   4   0    3.45    0.43
 -14   4   0    4.31    0.57
  14  -4   0    3.37    0.55
  14  -4   0    2.90    0.37
 -14  -4   0    2.76    0.38
  14  -4   0    2.89    0.35
 -14  -4   0    3.25    0.42
 -14   4  -1    1.68    0.33
 -14   4  -1    2.29    0.47
 -14   4  -1    1.07    0.51
  14  -4   1    1.78    0.32
  14  -4   1    1.55    0.65
 -14  -4  -1    2.02    0.38
 -14  -4  -1    1.71    0.34
 -14  -4  -1    2.08    0.26
  14  -4   1    1.78    0.31
 -14   4  -2    0.41    0.34
 -14   4  -2    0.37    0.36
 -14  -4  -2    0.11    0.30
 -14  -4  -2    0.13    0.31
  14  -4   2    0.06    0.27
  14  -4   2    0.03    0.29
 -14   4  -3    0.95    0.37
 -14   4  -3    0.62    0.37
 -14  -4  -3    0.59    0.35
 -14  -4  -3    0.04    0.34
  14  -4   3    0.81    0.33
 -15   0  10    0.22    0.32
  15   0 -10    0.22    0.24
  15   0 -10    0.36    0.30
  15   0 -10    0.31    0.31
  15   0  -9   -0.06    0.25
  15   0  -9   -0.12    0.25
 -15   0   9    0.26    0.27
  15   0  -8    7.47    0.53
 -15   0   8    7.33    0.56
  15   0  -8    8.31    0.52
  15   0  -8    7.90    0.54
 -15   0   8    7.86    0.49
  15   0  -7    0.01    0.19
  15   0  -7   -0.32    0.19
 -15   0   7    0.18    0.24
 -15   0   7    0.03    0.17
  15   0  -7   -0.18    0.20
  15   0  -6   32.61    0.92
 -15   0   6   31.99    0.92
 -15   0   6   31.49    0.99
 -15   0   6   28.35    1.03
  15   0  -6   32.12    0.99
  15   0  -6   32.64    0.96
 -15   0   6   31.02    0.99
 -15   0   5   -0.25    0.14
 -15   0   5   -0.06    0.15
 -15   0   5    0.46    0.18
 -15   0   5   -0.30    0.20
  15   0  -5    0.22    0.18
 -15   0   5    0.13    0.21
  15   0  -5   -0.01    0.15
  15   0  -5   -0.17    0.15
 -15   0   4    0.73    0.14
 -15   0   4    0.70    0.18
  15   0  -4    0.55    0.18
  15   0  -4    1.00    0.20
 -15   0   4    0.92    0.20
  15   0  -4    0.64    0.15
 -15   0   4    0.70    0.22
 -15   0   4    0.93    0.21
 -15   0   3    0.00    0.18
 -15   0   3   -0.22    0.15
  15   0  -3    0.10    0.14
 -15   0   3    0.17    0.20
 -15   0   3    0.11    0.10
 -15   0   3    0.35    0.16
  15   0  -3    0.04    0.15
 -15   0   3   -0.15    0.15
  15   0  -3    0.01    0.10
 -15   0   2    6.10    0.42
 -15   0   2    6.57    0.39
 -15   0   2    5.32    0.39
  15   0  -2    6.61    0.37
 -15   0   2    5.82    0.38
 -15   0   2    5.83    0.38
  15   0  -2    5.63    0.37
  15   0  -1   -0.20    0.19
 -15   0   1    0.16    0.18
  15   0  -1   -0.09    0.14
 -15   0   1    0.08    0.17
 -15   0   1    0.09    0.15
 -15   0   1    0.10    0.14
 -15   0   1    0.02    0.17
 -15   0   0    0.26    0.18
 -15   0   0    0.64    0.18
  15   0   0    0.62    0.18
  15   0   0    0.58    0.21
 -15   0   0    0.38    0.18
 -15   0   0    0.61    0.18
 -15   0  -1    0.07    0.20
 -15   0  -1    0.88    0.32
  15   0   1   -0.05    0.16
 -15   0  -1   -0.12    0.15
 -15   0  -1    0.14    0.15
  15   0   2   -0.08    0.18
 -15   0  -2   -0.11    0.17
 -15   0  -2    0.56    0.23
 -15   0  -3   -0.11    0.19
 -15   0  -3   -0.25    0.19
 -15   0  -4    0.59    0.27
 -15   0  -4    0.41    0.26
 -15   0  -5    0.20    0.28
 -15   0  -6    1.84    0.35
  15   1 -10    1.48    0.29
  15   1 -10    2.82    0.45
  15   1 -10    2.30    0.36
 -15   1  10    2.45    0.46
 -15  -1  10    1.79    0.36
  15  -1 -10    2.59    0.42
  15  -1 -10    2.26    0.44
  15   1  -9    7.19    0.58
  15   1  -9    7.41    0.49
 -15   1   9    5.72    0.61
 -15   1   9    6.60    0.53
 -15  -1   9    6.48    0.50
  15  -1  -9    7.12    0.57
  15  -1  -9    6.30    0.57
 -15   1   8    8.29    0.55
 -15   1   8    6.72    0.65
  15   1  -8    8.33    0.59
 -15   1   8    8.27    0.59
  15   1  -8    7.81    0.47
  15   1  -8    7.28    0.52
 -15  -1   8    8.05    0.58
  15  -1  -8    8.23    0.56
 -15  -1   8    7.61    0.48
  15  -1  -8    6.44    0.55
  15  -1  -8    7.41    0.54
 -15   1   7    3.96    0.51
  15   1  -7    3.89    0.42
 -15   1   7    3.81    0.53
  15   1  -7    3.38    0.34
 -15   1   7    3.47    0.39
  15   1  -7    3.83    0.46
 -15   1   7    3.48    0.41
  15  -1  -7    2.96    0.41
  15  -1  -7    3.84    0.41
 -15  -1   7    3.94    0.41
  15  -1  -7    4.51    0.43
 -15  -1   7    3.58    0.35
  15   1  -6   31.79    0.93
 -15   1   6   32.26    1.04
  15   1  -6   33.07    1.01
  15   1  -6   31.79    0.94
 -15   1   6   30.69    1.03
 -15   1   6   34.28    0.98
 -15   1   6   31.20    1.03
  15  -1  -6   31.10    0.93
 -15  -1   6   33.37    0.99
 -15  -1   6   31.48    0.91
  15  -1  -6   32.25    1.00
  15  -1  -6   31.94    1.01
  15   1  -5   20.56    0.73
  15   1  -5   19.95    0.66
 -15   1   5   19.71    0.71
 -15   1   5   20.39    0.68
  15   1  -5   19.83    0.64
 -15   1   5   20.08    0.78
 -15   1   5   19.16    0.76
 -15   1   5   20.50    0.77
  15  -1  -5   20.14    0.73
  15  -1  -5   19.86    0.73
  15  -1  -5   19.37    0.64
 -15  -1   5   20.47    0.72
 -15  -1   5   19.84    0.63
 -15  -1   5   21.10    0.77
  15   1  -4    5.65    0.39
 -15   1   4    5.56    0.34
 -15   1   4    5.76    0.40
 -15   1   4    5.34    0.43
  15   1  -4    5.00    0.30
 -15   1   4    4.55    0.43
  15   1  -4    6.03    0.33
 -15   1   4    6.00    0.43
 -15  -1   4    4.35    0.44
  15  -1  -4    6.23    0.40
  15  -1  -4    5.69    0.40
  15  -1  -4    5.00    0.31
 -15  -1   4    5.29    0.35
 -15  -1   4    5.32    0.28
 -15  -1   4    4.62    0.44
 -15  -1   4    5.74    0.39
 -15  -1   4    5.35    0.39
 -15   1   3    1.63    0.19
  15   1  -3    1.28    0.21
 -15   1   3    0.95    0.21
 -15   1   3    1.36    0.24
 -15   1   3    0.82    0.22
 -15   1   3    1.01    0.21
 -15   1   3    1.40    0.22
  15   1  -3    1.78    0.22
 -15  -1   3    1.58    0.22
  15  -1  -3    1.56    0.24
  15  -1  -3    1.47    0.23
  15  -1  -3    1.39    0.16
 -15  -1   3    1.36    0.22
 -15  -1   3    1.15    0.24
 -15  -1   3    1.64    0.23
 -15  -1   3    1.06    0.16
 -15  -1   3    1.60    0.17
 -15   1   2    4.78    0.39
 -15   1   2    5.37    0.41
 -15   1   2    4.66    0.36
 -15   1   2    4.04    0.35
  15   1  -2    4.60    0.36
 -15   1   2    4.56    0.22
 -15   1   2    4.17    0.38
 -15  -1   2    4.43    0.28
 -15  -1   2    4.24    0.36
  15  -1  -2    4.64    0.37
 -15  -1   2    4.65    0.33
 -15  -1   2    4.66    0.37
 -15  -1   2    3.67    0.35
  15  -1  -2    3.99    0.36
 -15   1   1    0.34    0.21
  15   1  -1    0.54    0.19
 -15   1   1    0.45    0.21
 -15   1   1    0.30    0.19
 -15   1   1    0.54    0.22
 -15   1   1    0.19    0.18
  15  -1  -1    0.40    0.23
 -15  -1   1    0.28    0.11
 -15  -1   1    0.40    0.19
 -15  -1   1    0.57    0.18
 -15  -1   1    0.65    0.18
 -15  -1   1    0.51    0.18
  15  -1  -1    0.26    0.18
 -15   1   0    0.76    0.25
 -15   1   0    1.55    0.29
 -15   1   0    1.64    0.29
  15   1   0    1.21    0.20
  15   1   0    1.48    0.24
 -15   1   0    1.34    0.22
 -15  -1   0    1.34    0.23
  15  -1   0    1.00    0.23
 -15  -1   0    0.98    0.19
  15  -1   0    1.11    0.24
 -15   1  -1    2.98    0.41
  15   1   1    2.88    0.38
 -15   1  -1    3.69    0.38
 -15   1  -1    2.38    0.32
  15   1   1    3.22    0.33
 -15   1  -1    3.37    0.39
 -15  -1  -1    3.27    0.33
 -15  -1  -1    2.72    0.34
  15  -1   1    2.60    0.38
  15  -1   1    2.94    0.36
 -15   1  -2    0.28    0.24
 -15   1  -2    0.10    0.16
 -15   1  -2   -0.06    0.20
  15   1   2    0.03    0.17
 -15  -1  -2   -0.07    0.17
  15  -1   2   -0.05    0.18
 -15  -1  -2   -0.25    0.15
  15  -1   2    0.00    0.20
 -15   1  -3   -0.11    0.25
  15   1   3    0.13    0.17
 -15   1  -3   -0.23    0.19
  15  -1   3   -0.27    0.19
  15  -1   3    0.06    0.18
 -15  -1  -3   -0.14    0.17
 -15  -1  -3    0.48    0.23
 -15   1  -4    0.90    0.28
 -15   1  -4    1.15    0.32
 -15  -1  -4    1.28    0.29
 -15   1  -5    4.55    0.54
 -15  -1  -5    4.37    0.48
 -15   1  -6    1.80    0.36
 -15  -1  -6    1.13    0.31
 -15  -1  -6    1.73    0.38
 -15   2   9    0.25    0.37
  15   2  -9    0.29    0.30
  15   2  -9    0.18    0.20
 -15   2   9    0.92    0.35
 -15  -2   9   -0.12    0.27
  15  -2  -9   -0.18    0.29
  15  -2  -9    0.07    0.31
 -15   2   8    8.09    0.59
  15   2  -8    6.52    0.42
 -15   2   8    7.32    0.67
 -15   2   8    7.76    0.73
 -15   2   8    7.02    0.64
  15   2  -8    6.82    0.52
  15  -2  -8    6.67    0.60
  15  -2  -8    7.08    0.53
 -15  -2   8    7.25    0.52
  15   2  -7    2.03    0.35
 -15   2   7    2.52    0.41
 -15   2   7    1.59    0.29
 -15   2   7    2.81    0.38
 -15   2   7    1.58    0.36
 -15   2   7    2.56    0.40
  15   2  -7    2.39    0.32
  15   2  -7    1.72    0.24
  15  -2  -7    2.01    0.33
  15  -2  -7    2.34    0.39
  15  -2  -7    1.48    0.28
 -15  -2   7    2.61    0.36
 -15  -2   7    1.71    0.32
 -15   2   6    0.00    0.21
 -15   2   6    0.15    0.25
  15   2  -6    0.00    0.22
 -15   2   6    0.40    0.32
  15   2  -6   -0.18    0.25
 -15   2   6   -0.05    0.26
  15   2  -6    0.22    0.15
 -15   2   6   -0.08    0.26
 -15  -2   6    0.06    0.23
  15  -2  -6   -0.02    0.17
  15  -2  -6    0.01    0.20
 -15  -2   6    0.22    0.18
  15  -2  -6    0.37    0.24
 -15   2   5    0.24    0.25
 -15   2   5    0.50    0.27
 -15   2   5    0.22    0.18
 -15   2   5   -0.07    0.23
 -15   2   5    0.10    0.20
  15   2  -5    0.20    0.12
  15   2  -5    0.17    0.20
 -15  -2   5    0.32    0.20
  15  -2  -5    0.30    0.19
 -15  -2   5   -0.29    0.41
  15  -2  -5    0.16    0.19
  15  -2  -5    0.05    0.23
 -15  -2   5    0.25    0.16
 -15   2   4   20.24    0.83
 -15   2   4   21.49    0.72
  15   2  -4   20.66    0.76
  15   2  -4   20.33    0.62
 -15   2   4   20.06    0.74
 -15   2   4   20.23    0.81
 -15   2   4   20.19    0.69
  15  -2  -4   20.03    0.65
  15  -2  -4   20.57    0.78
 -15  -2   4   21.16    0.67
 -15  -2   4   21.15    0.62
 -15  -2   4   19.62    0.89
  15  -2  -4   20.77    0.76
 -15   2   3    0.94    0.19
 -15   2   3    0.61    0.21
  15   2  -3    0.97    0.24
 -15   2   3    0.87    0.25
 -15   2   3    1.04    0.23
 -15   2   3    1.41    0.29
  15  -2  -3    1.18    0.20
 -15  -2   3    0.96    0.19
 -15  -2   3    1.20    0.24
  15  -2  -3    1.05    0.22
  15  -2  -3    0.98    0.25
 -15  -2   3    0.96    0.15
 -15   2   2   46.14    1.31
 -15   2   2   45.10    1.23
  15   2  -2   44.05    1.27
 -15   2   2   43.26    1.19
 -15   2   2   43.46    1.26
  15  -2  -2   43.94    1.24
  15  -2  -2   42.68    1.31
 -15  -2   2   42.58    1.04
  15  -2  -2   42.69    1.06
 -15  -2   2   44.17    1.11
  15  -2  -2   46.61    1.29
 -15  -2   2   42.76    1.01
 -15  -2   2   43.60    1.28
 -15   2   1    0.16    0.21
  15   2  -1   -0.16    0.16
 -15   2   1   -0.15    0.23
 -15   2   1    0.16    0.25
 -15   2   1   -0.03    0.17
 -15   2   1   -0.08    0.20
  15  -2  -1    0.07    0.12
  15  -2  -1   -0.11    0.17
 -15  -2   1   -0.03    0.14
  15  -2  -1    0.08    0.25
 -15  -2   1    0.13    0.15
 -15   2   0    1.28    0.30
 -15   2   0    1.01    0.27
 -15   2   0    0.78    0.28
 -15   2   0    1.23    0.25
 -15  -2   0    1.09    0.23
  15  -2   0    0.79    0.23
 -15  -2   0    1.34    0.20
  15  -2   0    0.72    0.27
 -15   2  -1    0.12    0.23
 -15   2  -1   -0.04    0.29
  15   2   1    0.33    0.17
 -15   2  -1    0.01    0.28
 -15   2  -1    0.11    0.19
  15  -2   1    0.07    0.21
 -15  -2  -1   -0.15    0.15
 -15  -2  -1    0.33    0.16
  15  -2   1   -0.24    0.24
 -15   2  -2    3.23    0.45
 -15   2  -2    3.15    0.38
 -15   2  -2    3.46    0.41
  15   2   2    3.90    0.33
 -15  -2  -2    3.09    0.32
  15  -2   2    3.55    0.41
  15  -2   2    2.68    0.39
 -15  -2  -2    2.41    0.37
 -15   2  -3   18.45    0.82
 -15   2  -3   17.94    0.79
 -15   2  -3   16.79    0.85
  15   2   3   17.69    0.65
 -15  -2  -3   17.77    0.77
  15  -2   3   18.12    0.75
 -15  -2  -3   16.85    0.68
 -15   2  -4    2.28    0.40
 -15   2  -4    3.90    0.54
 -15  -2  -4    2.12    0.33
 -15   2  -5    1.34    0.38
 -15  -2  -5    1.95    0.38
 -15  -2  -5    1.72    0.38
 -15   3   8    0.33    0.41
  15   3  -8    0.38    0.20
 -15   3   8    0.97    0.40
  15   3  -8    0.60    0.32
 -15  -3   8    0.70    0.32
  15  -3  -8    0.36    0.30
  15  -3  -8    0.64    0.41
  15   3  -7    2.36    0.30
  15   3  -7    2.06    0.35
 -15   3   7    1.81    0.46
 -15   3   7    2.63    0.40
 -15  -3   7    2.94    0.35
  15  -3  -7    1.75    0.33
  15  -3  -7    2.77    0.43
  15   3  -6    1.77    0.26
 -15   3   6    2.69    0.61
 -15   3   6    1.65    0.27
  15   3  -6    1.99    0.33
 -15   3   6    2.51    0.45
 -15   3   6    1.31    0.36
  15  -3  -6    1.77    0.33
 -15  -3   6    1.82    0.31
  15  -3  -6    1.88    0.36
  15  -3  -6    1.86    0.36
 -15  -3   6    1.93    0.38
  15   3  -5    5.15    0.30
 -15   3   5    5.81    0.52
  15   3  -5    5.32    0.50
 -15   3   5    5.30    0.60
 -15   3   5    5.28    0.40
 -15   3   5    4.92    0.63
 -15  -3   5    4.82    0.43
  15  -3  -5    4.70    0.54
  15  -3  -5    4.45    0.48
  15  -3  -5    5.89    0.50
 -15  -3   5    6.11    0.38
  15   3  -4    0.39    0.25
 -15   3   4    0.46    0.25
 -15   3   4    1.02    0.26
 -15   3   4    0.92    0.35
 -15   3   4    1.06    0.30
 -15   3   4    0.51    0.20
 -15  -3   4    0.98    0.20
  15  -3  -4    0.77    0.28
 -15  -3   4    0.73    0.23
 -15  -3   4    0.75    0.17
  15  -3  -4    0.99    0.27
  15  -3  -4    0.74    0.25
 -15   3   3    7.96    0.49
 -15   3   3    7.31    0.42
 -15   3   3    8.72    0.65
 -15   3   3    8.29    0.48
 -15   3   3    7.57    0.57
  15  -3  -3    8.01    0.46
  15  -3  -3    7.77    0.54
 -15  -3   3    8.30    0.50
  15  -3  -3    7.48    0.61
 -15  -3   3    7.50    0.48
 -15  -3   3    7.76    0.41
 -15   3   2   11.62    0.65
 -15   3   2   11.38    0.50
 -15   3   2   10.07    0.53
 -15   3   2   10.70    0.69
 -15  -3   2   10.96    0.44
  15  -3  -2   11.02    0.52
 -15  -3   2   11.30    0.62
 -15  -3   2   10.82    0.50
  15  -3  -2   11.23    0.59
  15  -3  -2   11.56    0.66
 -15   3   1    2.95    0.38
 -15   3   1    2.96    0.42
 -15   3   1    3.24    0.42
 -15   3   1    3.03    0.41
  15  -3  -1    3.54    0.44
 -15  -3   1    3.18    0.27
 -15  -3   1    3.35    0.31
  15  -3  -1    3.68    0.45
 -15  -3   1    3.03    0.41
  15  -3  -1    2.62    0.35
 -15   3   0    0.16    0.24
 -15   3   0    0.38    0.23
 -15   3   0   -0.07    0.26
 -15   3   0   -0.09    0.31
 -15  -3   0    0.22    0.25
 -15  -3   0    0.28    0.16
  15  -3   0   -0.17    0.17
 -15  -3   0    0.09    0.13
  15  -3   0   -0.25    0.22
  15  -3   0    0.33    0.31
 -15   3  -1    2.42    0.33
 -15   3  -1    3.10    0.40
 -15   3  -1    2.65    0.44
  15  -3   1    2.43    0.32
 -15  -3  -1    2.93    0.43
  15  -3   1    2.11    0.31
  15  -3   1    4.55    0.75
 -15   3  -2    8.88    0.59
 -15   3  -2    8.18    0.69
 -15   3  -2    8.54    0.66
 -15  -3  -2    8.47    0.60
  15  -3   2    9.00    0.56
 -15   3  -3   -0.05    0.27
 -15   3  -3    0.38    0.34
  15  -3   3    0.02    0.28
 -15  -3  -3   -0.11    0.26
 -15  -3  -3   -0.38    0.27
  15   3   4    2.57    0.35
 -15   3  -4    2.50    0.44
 -15   3  -4    1.86    0.44
 -15  -3  -4    2.06    0.44
 -15  -3  -4    2.00    0.34
  15  -3   4    2.28    0.39
 -15   4   6    8.01    0.75
 -15   4   6    7.46    0.80
 -15  -4   6    6.54    0.63
  15  -4  -6    6.10    0.64
 -15   4   5    9.28    0.79
 -15   4   5   10.76    0.75
  15  -4  -5   10.13    0.84
  15  -4  -5    9.21    0.72
 -15  -4   5    9.80    0.64
 -15   4   4    0.25    0.37
 -15   4   4   -0.40    0.33
  15  -4  -4    0.39    0.32
 -15  -4   4   -0.26    0.26
  15  -4  -4    0.13    0.36
 -15  -4   4   -0.08    0.29
 -15   4   3    3.91    0.54
  15  -4  -3    3.44    0.49
 -15  -4   3    3.09    0.44
 -15  -4   3    2.39    0.39
  15  -4  -3    3.71    0.53
 -15   4   2    1.71    0.44
 -15  -4   2    2.22    0.30
 -15  -4   2    1.28    0.32
  15  -4  -2    1.68    0.33
 -15   4   1    6.73    0.71
  15  -4  -1    6.92    0.61
 -15  -4   1    6.11    0.44
 -15  -4   1    6.37    0.59
 -15   4   0    2.84    0.50
 -15  -4   0    3.07    0.44
  15  -4   0    2.19    0.38
  15  -4   0    2.47    0.37
 -15   4  -1    4.55    0.56
  15  -4   1    3.64    0.52
 -15  -4  -1    3.52    0.46
 -15  -4  -1    4.10    0.58
 -16   0  10   26.72    1.04
  16   0 -10   24.83    1.02
  16   0 -10   24.68    0.97
  16   0  -9   -0.56    0.27
  16   0  -9   -0.10    0.25
 -16   0   9   -0.49    0.29
  16   0  -8    0.77    0.27
 -16   0   8    0.96    0.30
  16   0  -8    1.13    0.32
  16   0  -8    0.87    0.28
 -16   0   7    0.14    0.23
 -16   0   7    0.02    0.21
  16   0  -7    0.08    0.25
  16   0  -7    0.07    0.23
  16   0  -7   -0.05    0.22
 -16   0   6   15.39    0.68
  16   0  -6   14.66    0.60
  16   0  -6   14.97    0.62
  16   0  -6   15.64    0.67
 -16   0   6   14.93    0.58
 -16   0   5    0.05    0.15
  16   0  -5   -0.06    0.16
 -16   0   5   -0.14    0.17
 -16   0   5   -0.25    0.20
 -16   0   5   -0.11    0.26
  16   0  -5   -0.22    0.18
  16   0  -5    0.00    0.18
 -16   0   4    6.48    0.32
  16   0  -4    6.16    0.32
 -16   0   4    6.60    0.52
  16   0  -4    6.44    0.41
 -16   0   4    6.57    0.46
  16   0  -4    5.76    0.42
 -16   0   4    6.39    0.44
 -16   0   3    0.13    0.25
  16   0  -3    0.11    0.16
  16   0  -3    0.09    0.17
 -16   0   3   -0.13    0.17
 -16   0   3    0.05    0.20
 -16   0   3   -0.02    0.20
 -16   0   2    0.11    0.17
  16   0  -2    0.09    0.15
 -16   0   2    0.32    0.16
 -16   0   2    0.28    0.20
 -16   0   2    0.30    0.21
 -16   0   1   -0.10    0.23
 -16   0   1    0.15    0.20
  16   0  -1   -0.18    0.15
  16   0  -1   -0.15    0.18
 -16   0   1    0.28    0.21
 -16   0   0    0.56    0.24
 -16   0   0    0.26    0.20
  16   0   0    0.78    0.21
  16   0   0   -0.04    0.19
  16   0   1    0.03    0.19
 -16   0  -1   -0.01    0.17
 -16   0  -1   -0.11    0.19
  16   0   1   -0.18    0.19
 -16   0  -2    1.63    0.28
  16   0   2    1.14    0.25
 -16   0  -2    1.32    0.28
  16   0   2    1.53    0.35
 -16   0  -3   -0.39    0.24
 -16   0  -4    0.89    0.30
 -16   0  -5    0.14    0.28
 -16   1   9    0.74    0.34
  16   1  -9    0.49    0.31
  16   1  -9    0.81    0.31
 -16  -1   9    0.51    0.31
  16  -1  -9    0.47    0.33
  16  -1  -9    0.24    0.28
  16   1  -8    6.85    0.48
  16   1  -8    8.13    0.56
  16   1  -8    7.01    0.63
 -16   1   8    7.33    0.67
 -16   1   8    7.95    0.57
  16  -1  -8    6.92    0.56
  16  -1  -8    7.30    0.57
 -16  -1   8    6.76    0.49
  16  -1  -8    5.88    0.60
  16   1  -7   16.39    0.72
 -16   1   7   15.72    0.84
 -16   1   7   17.64    0.82
  16   1  -7   17.54    0.65
  16   1  -7   15.35    0.71
 -16   1   7   16.29    0.69
  16  -1  -7   17.59    0.73
  16  -1  -7   14.97    0.68
  16  -1  -7   17.51    0.72
 -16  -1   7   14.40    0.62
  16   1  -6    2.58    0.32
 -16   1   6    1.93    0.37
  16   1  -6    2.17    0.29
 -16   1   6    1.92    0.28
  16   1  -6    2.92    0.39
 -16   1   6    2.56    0.30
 -16   1   6    1.70    0.51
 -16   1   6    2.85    0.35
  16  -1  -6    3.32    0.39
  16  -1  -6    2.25    0.30
 -16  -1   6    2.38    0.29
  16  -1  -6    2.32    0.32
 -16  -1   6    2.51    0.31
 -16   1   5    0.12    0.22
 -16   1   5    0.00    0.26
  16   1  -5   -0.15    0.15
  16   1  -5    0.36    0.18
 -16   1   5    0.00    0.18
 -16   1   5   -0.31    0.18
  16   1  -5   -0.10    0.18
 -16   1   5   -0.06    0.27
  16  -1  -5   -0.17    0.18
  16  -1  -5    0.08    0.17
 -16  -1   5    0.00    0.15
  16  -1  -5    0.31    0.22
 -16  -1   5    0.22    0.21
  16   1  -4   11.98    0.49
 -16   1   4   11.64    0.55
 -16   1   4   11.55    0.62
  16   1  -4   11.90    0.56
 -16   1   4   12.16    0.47
 -16   1   4   11.48    0.61
 -16   1   4   12.08    0.61
  16  -1  -4   12.23    0.57
 -16  -1   4   12.54    0.58
 -16  -1   4   11.65    0.54
  16  -1  -4   11.46    0.44
 -16  -1   4   12.38    0.43
 -16   1   3    1.61    0.28
 -16   1   3    1.29    0.22
 -16   1   3    1.26    0.28
 -16   1   3    1.29    0.18
  16   1  -3    1.21    0.20
  16   1  -3    1.27    0.25
 -16   1   3    1.31    0.28
 -16  -1   3    1.39    0.25
 -16  -1   3    1.17    0.20
  16  -1  -3    1.33    0.15
  16  -1  -3    1.18    0.20
  16  -1  -3    1.05    0.24
 -16   1   2    0.72    0.25
  16   1  -2    0.54    0.20
 -16   1   2    0.80    0.24
 -16   1   2    0.65    0.26
 -16   1   2    0.37    0.19
 -16  -1   2    0.39    0.20
  16  -1  -2    0.56    0.21
 -16  -1   2    0.43    0.18
  16  -1  -2    0.67    0.22
  16   1  -1    0.83    0.22
 -16   1   1    1.12    0.24
 -16   1   1    0.93    0.25
 -16   1   1    1.03    0.28
 -16   1   1    1.47    0.30
  16  -1  -1    1.15    0.23
  16  -1  -1    0.85    0.27
 -16  -1   1    1.06    0.23
 -16  -1   1    1.03    0.22
 -16   1   0    4.77    0.44
 -16   1   0    3.77    0.44
  16   1   0    4.29    0.38
 -16   1   0    4.71    0.40
  16   1   0    3.66    0.39
 -16  -1   0    3.82    0.40
 -16  -1   0    3.97    0.37
  16  -1   0    3.68    0.41
  16  -1   0    4.36    0.44
  16   1   1    7.89    0.47
 -16   1  -1    7.68    0.53
 -16   1  -1    7.60    0.49
  16   1   1    7.96    0.52
 -16  -1  -1    7.97    0.50
  16  -1   1    8.29    0.55
 -16  -1  -1    7.12    0.46
  16  -1   1    7.29    0.50
 -16   1  -2    0.19    0.21
  16   1   2   -0.07    0.19
 -16   1  -2   -0.10    0.27
  16  -1   2   -0.07    0.23
 -16  -1  -2    0.21    0.20
 -16  -1  -2   -0.28    0.18
 -16   1  -3    0.37    0.29
 -16   1  -3    0.36    0.24
  16  -1   3    0.02    0.26
 -16  -1  -3    0.76    0.25
 -16   1  -4    0.59    0.30
 -16  -1  -4    0.11    0.25
 -16   1  -5    0.14    0.34
 -16   2   9    1.19    0.40
  16   2  -9    0.19    0.31
  16   2  -9    0.22    0.24
  16  -2  -9    0.72    0.38
  16  -2  -9    0.71    0.38
 -16  -2   9    0.18    0.28
 -16   2   8    7.09    0.74
  16   2  -8    5.68    0.45
 -16   2   8    7.74    0.66
  16   2  -8    6.57    0.57
  16  -2  -8    6.82    0.56
  16  -2  -8    6.24    0.60
 -16  -2   8    6.50    0.52
 -16   2   7    6.61    0.64
  16   2  -7    7.60    0.58
 -16   2   7    8.64    0.66
 -16   2   7    9.06    0.63
 -16   2   7    8.15    0.85
  16   2  -7    7.87    0.43
 -16   2   7    8.21    0.51
  16   2  -7    6.72    0.61
  16  -2  -7    8.38    0.63
  16  -2  -7    8.12    0.61
  16  -2  -7    7.23    0.54
 -16  -2   7    7.55    0.49
 -16   2   6    8.84    0.52
 -16   2   6    9.96    0.72
  16   2  -6    9.61    0.60
 -16   2   6    9.11    0.56
 -16   2   6    9.27    0.65
 -16   2   6    8.91    0.62
  16   2  -6    9.90    0.44
  16  -2  -6    8.62    0.56
  16  -2  -6    9.49    0.59
 -16  -2   6    9.63    0.49
 -16   2   5    3.29    0.39
 -16   2   5    2.44    0.38
 -16   2   5    2.81    0.34
 -16   2   5    3.58    0.40
 -16   2   5    2.54    0.36
  16   2  -5    2.77    0.28
  16   2  -5    3.09    0.42
  16  -2  -5    3.48    0.46
  16  -2  -5    3.27    0.34
  16  -2  -5    3.39    0.42
 -16  -2   5    2.92    0.32
 -16  -2   5    2.57    0.30
 -16   2   4    1.56    0.27
 -16   2   4    1.52    0.27
  16   2  -4    1.67    0.23
 -16   2   4    1.83    0.31
 -16   2   4    1.22    0.33
  16   2  -4    2.11    0.31
 -16  -2   4    1.79    0.31
  16  -2  -4    1.73    0.30
  16  -2  -4    1.47    0.31
 -16  -2   4    1.59    0.21
 -16  -2   4    1.58    0.23
  16  -2  -4    1.56    0.25
 -16   2   3   21.11    0.85
  16   2  -3   23.98    0.85
 -16   2   3   22.66    0.70
 -16   2   3   21.84    0.88
 -16   2   3   22.16    0.75
 -16   2   3   21.85    0.81
  16  -2  -3   22.46    0.84
  16  -2  -3   18.47    0.64
 -16  -2   3   20.46    0.69
 -16  -2   3   22.52    0.66
 -16  -2   3   22.49    0.83
 -16  -2   3   21.55    0.60
  16  -2  -3   22.21    0.80
 -16   2   2    0.17    0.23
  16   2  -2    0.29    0.23
 -16   2   2    0.00    0.21
 -16   2   2    0.17    0.28
 -16   2   2    0.14    0.24
  16  -2  -2   -0.23    0.14
  16  -2  -2    0.08    0.20
 -16  -2   2    0.01    0.17
 -16  -2   2   -0.01    0.18
  16  -2  -2   -0.38    0.19
 -16   2   1    0.15    0.26
 -16   2   1   -0.04    0.26
  16   2  -1    0.27    0.21
 -16   2   1   -0.18    0.23
 -16   2   1    0.00    0.18
  16  -2  -1    0.14    0.22
 -16  -2   1    0.33    0.18
 -16  -2   1    0.08    0.17
  16  -2  -1    0.12    0.24
 -16   2   0    0.84    0.34
 -16   2   0    0.36    0.24
 -16   2   0    0.64    0.24
 -16  -2   0    0.41    0.23
  16  -2   0    0.64    0.23
  16  -2   0    0.57    0.31
 -16  -2   0    0.63    0.21
 -16   2  -1    3.93    0.57
 -16   2  -1    4.16    0.44
 -16   2  -1    4.72    0.53
 -16  -2  -1    2.83    0.41
  16  -2   1    3.37    0.44
 -16  -2  -1    4.26    0.36
 -16   2  -2    0.93    0.31
 -16   2  -2    1.41    0.37
  16   2   2    1.00    0.23
 -16  -2  -2    0.77    0.25
  16  -2   2    0.86    0.28
 -16   2  -3    0.66    0.36
 -16   2  -3    0.60    0.35
 -16  -2  -3    0.32    0.26
  16  -2   3    0.93    0.30
 -16   2  -4    6.73    0.69
 -16  -2  -4    6.02    0.59
 -16   3   7    9.86    0.83
 -16   3   7   10.10    0.75
  16   3  -7   10.18    0.47
  16   3  -7   10.10    0.67
  16  -3  -7    9.51    0.72
 -16  -3   7   10.57    0.64
  16  -3  -7   10.05    0.67
 -16   3   6    4.18    0.56
  16   3  -6    2.93    0.31
 -16   3   6    3.55    0.51
  16   3  -6    4.26    0.54
  16  -3  -6    3.12    0.39
  16  -3  -6    3.14    0.43
 -16  -3   6    3.05    0.37
  16   3  -5    1.91    0.36
 -16   3   5    2.51    0.42
 -16   3   5    2.46    0.31
 -16   3   5    2.15    0.39
 -16  -3   5    2.30    0.30
  16  -3  -5    2.25    0.37
  16   3  -4   14.82    0.75
 -16   3   4   15.67    0.71
 -16   3   4   15.98    0.61
 -16   3   4   14.47    0.87
 -16   3   4   16.14    0.81
  16  -3  -4   16.46    0.83
 -16  -3   4   15.95    0.73
 -16  -3   4   16.33    0.61
  16  -3  -4   15.34    0.75
 -16   3   3    0.18    0.23
 -16   3   3    0.48    0.29
 -16   3   3   -0.22    0.42
 -16  -3   3   -0.07    0.21
 -16  -3   3    0.29    0.19
  16  -3  -3    0.23    0.23
  16  -3  -3    0.15    0.29
 -16   3   2    2.82    0.39
 -16   3   2    2.82    0.42
 -16   3   2    2.58    0.42
 -16  -3   2    2.23    0.27
  16  -3  -2    3.72    0.49
 -16  -3   2    2.54    0.34
 -16   3   1    1.03    0.41
 -16   3   1    0.79    0.35
 -16   3   1    0.67    0.26
  16  -3  -1    0.80    0.29
 -16  -3   1    0.72    0.31
  16  -3  -1    1.13    0.24
 -16   3   0    0.72    0.30
 -16   3   0    0.61    0.39
 -16   3   0    1.82    0.31
  16  -3   0    0.91    0.29
 -16  -3   0    0.99    0.30
 -16   3  -1    2.44    0.35
 -16   3  -1    2.28    0.43
 -16  -3  -1    1.74    0.34
  16  -3   1    2.24    0.37
 -16   3  -2    4.47    0.58
 -16   3  -2    5.69    0.59
  16  -3   2    3.41    0.42
 -16  -3  -2    3.86    0.46
 -16   3  -3   -0.04    0.38
 -16  -3  -3   -0.15    0.33
 -16  -3  -3    0.26    0.39
  16  -3   3    0.04    0.33
 -16   4   4   14.12    0.90
 -16  -4   4   15.08    0.77
  16  -4  -4   14.85    0.81
 -16  -4   4   14.05    0.71
 -16   4   3    1.60    0.41
  16  -4  -3    1.53    0.45
 -16  -4   3    1.90    0.35
  16  -4  -3    1.00    0.38
 -16  -4   3    1.13    0.40
 -16   4   2    5.86    0.77
 -16  -4   2    7.19    0.65
  16  -4  -2    5.23    0.65
 -16   4   1    0.30    0.41
 -16  -4   1    0.39    0.34
  16  -4  -1    0.28    0.36
  17   0  -9   -0.36    0.30
 -17   0   9   -0.16    0.33
  17   0  -8    0.84    0.26
  17   0  -8    0.59    0.29
 -17   0   8    0.97    0.32
  17   0  -7    0.40    0.23
  17   0  -7   -0.27    0.29
  17   0  -7    0.08    0.27
 -17   0   6   19.28    0.67
  17   0  -6   19.01    0.73
 -17   0   6   18.16    0.76
 -17   0   6   18.18    0.79
  17   0  -6   17.11    0.66
  17   0  -6   18.43    0.77
 -17   0   5    0.17    0.17
  17   0  -5    0.04    0.20
  17   0  -5   -0.07    0.19
  17   0  -5   -0.11    0.19
 -17   0   5    0.31    0.20
 -17   0   5    0.12    0.24
  17   0  -4    0.39    0.19
  17   0  -4    0.43    0.20
  17   0  -4    0.42    0.16
 -17   0   4    0.12    0.22
 -17   0   4   -0.15    0.22
 -17   0   4    0.22    0.16
  17   0  -3    0.19    0.18
  17   0  -3   -0.09    0.17
 -17   0   3    0.21    0.21
 -17   0   3   -0.21    0.20
 -17   0   2    1.11    0.25
  17   0  -2    0.88    0.21
 -17   0   2    1.38    0.26
 -17   0   1    0.03    0.21
  17   0  -1    0.04    0.19
 -17   0   1   -0.01    0.22
 -17   0   0    4.24    0.44
 -17   0   0    3.35    0.42
  17   0   0    4.45    0.45
  17   0   1   -0.36    0.21
 -17   0  -1    0.08    0.21
 -17   0  -1    0.06    0.20
 -17   0  -2    0.44    0.29
  17   0   2    0.28    0.27
 -17   0  -3   -0.26    0.25
 -17   1   9    0.65    0.38
  17   1  -9    0.56    0.36
  17  -1  -9    0.58    0.33
  17  -1  -9    0.57    0.34
 -17  -1   9    0.21    0.32
 -17   1   8    6.64    0.57
  17   1  -8    5.75    0.49
  17   1  -8    5.44    0.62
  17  -1  -8    6.21    0.58
  17  -1  -8    5.92    0.58
 -17  -1   8    5.28    0.50
 -17   1   7    4.08    0.48
  17   1  -7    4.46    0.51
 -17   1   7    4.41    0.49
  17   1  -7    3.97    0.42
  17  -1  -7    4.83    0.50
  17  -1  -7    3.78    0.48
 -17  -1   7    5.25    0.43
 -17   1   6    1.43    0.26
 -17   1   6    0.90    0.34
  17   1  -6    1.06    0.23
 -17   1   6    1.38    0.28
  17   1  -6    1.00    0.29
  17  -1  -6    1.51    0.29
 -17  -1   6    1.19    0.23
  17  -1  -6    1.35    0.28
  17  -1  -6    1.12    0.28
 -17   1   5    0.31    0.36
  17   1  -5   -0.11    0.35
  17   1  -5   -0.23    0.20
  17   1  -5    0.17    0.20
 -17   1   5    0.05    0.30
 -17   1   5    0.12    0.24
 -17   1   5    0.27    0.21
  17  -1  -5    0.19    0.20
  17  -1  -5    0.09    0.21
 -17  -1   5    0.10    0.25
 -17  -1   5   -0.12    0.24
 -17  -1   5    0.32    0.17
  17  -1  -5    0.21    0.20
  17   1  -4    0.83    0.19
 -17   1   4    1.34    0.27
  17   1  -4    0.45    0.22
 -17   1   4    0.32    0.26
 -17   1   4    0.56    0.19
 -17   1   4    0.52    0.29
 -17  -1   4    0.90    0.28
 -17  -1   4    0.37    0.15
 -17  -1   4    0.85    0.23
  17  -1  -4    0.66    0.22
  17  -1  -4    0.86    0.23
  17  -1  -4    0.85    0.18
 -17   1   3    0.11    0.20
 -17   1   3    0.20    0.29
 -17   1   3    0.35    0.24
  17   1  -3    0.56    0.21
 -17   1   3    0.16    0.14
 -17  -1   3    0.14    0.20
  17  -1  -3    0.42    0.20
  17  -1  -3    0.30    0.22
 -17  -1   3    0.38    0.20
  17   1  -2    0.41    0.20
 -17   1   2    0.11    0.21
 -17   1   2    0.40    0.31
 -17   1   2    0.11    0.25
  17  -1  -2   -0.04    0.20
 -17  -1   2   -0.08    0.18
 -17  -1   2   -0.09    0.21
 -17   1   1    0.94    0.25
 -17   1   1    0.97    0.29
  17   1  -1    1.16    0.24
 -17  -1   1    0.68    0.25
 -17  -1   1    0.70    0.23
  17  -1  -1    0.83    0.21
  17   1   0    1.39    0.27
 -17   1   0    1.55    0.33
 -17   1   0    1.50    0.28
  17  -1   0    1.69    0.30
 -17  -1   0    1.66    0.27
 -17  -1   0    1.52    0.30
  17   1   1    0.06    0.22
 -17   1  -1   -0.31    0.31
 -17   1  -1   -0.02    0.22
 -17  -1  -1    0.12    0.25
  17  -1   1    0.24    0.26
 -17   1  -2    0.20    0.26
  17  -1   2    0.05    0.25
 -17  -1  -2   -0.11    0.22
 -17   1  -3    8.05    0.63
  17  -1   3    8.36    0.64
 -17  -1  -3    8.78    0.59
 -17   1  -4    0.73    0.36
 -17  -1  -4    0.45    0.34
 -17   2   8   10.39    0.75
  17   2  -8    9.67    0.62
 -17   2   8   10.59    0.63
  17   2  -8    8.31    0.69
  17  -2  -8    8.68    0.72
  17  -2  -8    9.12    0.70
 -17  -2   8    9.73    0.64
  17   2  -7   -0.06    0.32
  17   2  -7   -0.13    0.18
 -17   2   7   -0.27    0.27
 -17   2   7    0.16    0.31
 -17  -2   7    0.12    0.27
  17  -2  -7    0.38    0.26
  17  -2  -7    0.12    0.26
 -17   2   6    4.57    0.61
 -17   2   6    3.76    0.49
  17   2  -6    4.23    0.34
 -17   2   6    3.65    0.47
  17   2  -6    3.88    0.50
 -17  -2   6    3.82    0.40
  17  -2  -6    3.83    0.53
  17  -2  -6    3.45    0.48
  17   2  -5    2.98    0.38
 -17   2   5    2.28    0.40
 -17   2   5    2.37    0.32
 -17   2   5    2.93    0.43
 -17   2   5    2.74    0.38
  17   2  -5    2.37    0.26
  17  -2  -5    1.94    0.29
  17  -2  -5    2.70    0.40
 -17  -2   5    2.30    0.35
 -17  -2   5    2.25    0.32
  17   2  -4    0.52    0.26
 -17   2   4    0.19    0.25
 -17   2   4    0.33    0.23
 -17   2   4    0.92    0.32
 -17   2   4    0.07    0.27
  17  -2  -4    0.54    0.23
  17  -2  -4   -0.17    0.29
 -17  -2   4    0.37    0.17
 -17  -2   4    0.26    0.19
  17   2  -3    0.45    0.25
 -17   2   3   -0.72    0.39
 -17   2   3    0.27    0.22
 -17   2   3    0.17    0.31
 -17   2   3   -0.12    0.22
  17  -2  -3    0.17    0.23
 -17  -2   3   -0.06    0.22
 -17  -2   3   -0.09    0.21
  17  -2  -3    0.09    0.25
  17   2  -2    0.43    0.25
 -17   2   2   -0.17    0.25
 -17   2   2    0.74    0.34
 -17   2   2   -0.01    0.23
 -17   2   2    0.06    0.56
 -17  -2   2    0.21    0.21
 -17  -2   2   -0.16    0.19
  17  -2  -2    0.00    0.23
 -17   2   1    2.45    0.32
 -17   2   1    2.38    0.38
 -17   2   1    2.70    0.41
  17   2  -1    2.42    0.34
  17  -2  -1    2.58    0.36
 -17  -2   1    2.92    0.36
 -17  -2   1    2.68    0.41
 -17   2   0    2.44    0.43
 -17   2   0    2.58    0.35
  17  -2   0    2.37    0.34
 -17  -2   0    2.22    0.35
 -17   2  -1    4.46    0.52
 -17   2  -1    4.62    0.58
  17  -2   1    3.72    0.49
 -17  -2  -1    3.25    0.47
 -17   2  -2    0.71    0.33
  17  -2   2    1.09    0.33
 -17  -2  -2    0.36    0.28
 -17   2  -3    0.28    0.36
 -17  -2  -3   -0.10    0.33
  17  -2   3   -0.09    0.31
 -17   3   6    5.46    0.67
 -17   3   6    3.62    0.56
  17   3  -6    4.18    0.36
  17   3  -6    4.97    0.61
 -17  -3   6    4.59    0.51
  17  -3  -6    4.16    0.61
  17  -3  -6    4.59    0.55
  17   3  -5   34.89    1.19
 -17   3   5   35.70    1.16
 -17   3   5   35.89    1.30
 -17  -3   5   36.28    1.04
  17  -3  -5   36.39    1.22
  17  -3  -5   35.61    1.25
 -17  -3   5   32.31    1.17
 -17   3   4   13.42    0.83
 -17   3   4   13.08    0.61
  17   3  -4   12.31    0.74
 -17   3   4   13.10    0.68
  17  -3  -4   12.85    0.80
  17  -3  -4   12.58    0.73
 -17  -3   4   13.77    0.71
 -17  -3   4   13.62    0.56
 -17   3   3    6.00    0.50
 -17   3   3    5.24    0.63
  17  -3  -3    4.53    0.60
 -17  -3   3    4.79    0.56
  17  -3  -3    5.46    0.56
 -17   3   2    3.66    0.47
 -17   3   2    3.73    0.52
 -17  -3   2    3.60    0.49
  17  -3  -2    3.21    0.43
 -17   3   1    2.62    0.45
 -17   3   1    1.87    0.35
 -17  -3   1    2.36    0.40
  17  -3  -1    1.47    0.34
 -17   3   0    0.25    0.32
 -17   3   0   -0.03    0.33
  17  -3   0    0.04    0.28
 -17  -3   0   -0.01    0.26
 -17   3  -1    4.11    0.57
 -17  -3  -1    3.22    0.41
  17  -3   1    3.35    0.45
  18   0  -8    0.95    0.32
 -18   0   8    1.14    0.36
  18   0  -8    0.65    0.33
  18   0  -7    0.17    0.30
  18   0  -7    0.38    0.23
 -18   0   7   -0.19    0.26
  18   0  -6    2.95    0.42
 -18   0   6    3.61    0.48
  18   0  -6    3.27    0.48
 -18   0   6    2.80    0.39
 -18   0   5    0.12    0.24
  18   0  -5    0.08    0.24
  18   0  -5   -0.12    0.25
 -18   0   5    0.17    0.19
  18   0  -4    3.28    0.43
 -18   0   4    3.61    0.27
 -18   0   4    3.15    0.44
  18   0  -4    3.21    0.42
  18   0  -3   -0.09    0.20
  18   0  -3    0.35    0.20
 -18   0   3    0.13    0.26
  18   0  -2   14.40    0.68
 -18   0   2   13.39    0.67
 -18   0   1    0.11    0.24
  18   0  -1    0.11    0.20
  18   0   0    2.09    0.35
 -18   0   0    1.68    0.32
  18   0   1    0.21    0.27
  18   0   2    2.61    0.40
 -18   0  -2    2.11    0.38
 -18   0  -3    0.23    0.32
 -18   1   8    2.65    0.42
  18   1  -8    2.44    0.38
 -18   1   8    2.03    0.39
  18  -1  -8    2.45    0.42
 -18  -1   8    3.37    0.40
  18  -1  -8    3.23    0.59
 -18   1   7    3.59    0.50
  18   1  -7    1.85    0.40
 -18   1   7    2.77    0.39
  18   1  -7    2.44    0.33
 -18  -1   7    2.86    0.41
  18  -1  -7    2.54    0.37
  18  -1  -7    1.85    0.37
  18   1  -6    1.45    0.26
 -18   1   6    0.58    0.33
 -18   1   6    1.54    0.32
  18   1  -6    1.54    0.31
 -18  -1   6    0.67    0.32
 -18  -1   6    1.69    0.28
  18  -1  -6    1.15    0.31
  18  -1  -6    1.34    0.28
 -18   1   5    1.19    0.30
 -18   1   5    1.18    0.25
  18   1  -5    1.06    0.29
  18   1  -5    1.17    0.22
 -18  -1   5    1.05    0.21
 -18  -1   5    1.36    0.30
  18  -1  -5    0.83    0.28
  18  -1  -5    1.06    0.27
  18   1  -4   -0.16    0.24
  18   1  -4    0.08    0.19
 -18   1   4   -0.02    0.19
 -18   1   4   -0.10    0.25
  18  -1  -4    0.17    0.25
 -18  -1   4    0.09    0.16
  18  -1  -4   -0.16    0.22
 -18  -1   4   -0.15    0.23
 -18   1   3    0.74    0.37
  18   1  -3    0.44    0.23
 -18   1   3    0.58    0.28
  18  -1  -3    0.45    0.23
 -18  -1   3    0.47    0.25
  18  -1  -3    0.22    0.24
  18   1  -2    0.96    0.27
 -18   1   2    1.05    0.30
 -18  -1   2    1.19    0.27
  18  -1  -2    1.17    0.24
 -18   1   1    4.52    0.48
  18   1  -1    5.42    0.51
 -18  -1   1    4.69    0.49
  18  -1  -1    4.95    0.52
 -18   1   0    0.22    0.27
  18   1   0   -0.34    0.24
 -18  -1   0   -0.22    0.26
  18  -1   0    0.24    0.26
 -18   1  -1    0.77    0.28
 -18  -1  -1    0.62    0.29
  18  -1   1    0.89    0.32
 -18   1  -2   13.26    0.75
  18  -1   2   14.06    0.78
 -18  -1  -2   12.38    0.72
  18   2  -6    1.52    0.25
  18   2  -6    1.45    0.37
 -18   2   6    1.22    0.35
 -18   2   6    1.60    0.35
 -18  -2   6    1.42    0.28
 -18  -2   6    0.86    0.35
  18  -2  -6    1.46    0.42
  18  -2  -6    1.23    0.31
  18   2  -5    7.33    0.41
 -18   2   5    5.92    0.58
 -18   2   5    6.62    0.54
  18   2  -5    7.12    0.61
  18  -2  -5    6.86    0.59
  18  -2  -5    6.16    0.63
 -18  -2   5    7.15    0.52
 -18  -2   5    5.88    0.56
 -18   2   4    1.88    0.34
 -18   2   4    1.93    0.32
  18   2  -4    2.02    0.35
 -18  -2   4    1.99    0.32
  18  -2  -4    2.02    0.35
  18  -2  -4    1.79    0.41
 -18   2   3    6.06    0.54
  18   2  -3    6.18    0.58
 -18  -2   3    4.78    0.48
  18  -2  -3    4.95    0.57
  18  -2  -3    6.07    0.56
  18   2  -2   -0.10    0.29
 -18   2   2    0.39    0.27
  18  -2  -2    0.59    0.29
 -18  -2   2    0.20    0.25
 -18   2   1    1.57    0.33
  18   2  -1    2.18    0.36
 -18  -2   1    1.03    0.28
  18  -2  -1    1.66    0.33
 -18   2   0    0.34    0.29
  18  -2   0    0.04    0.32
 -18  -2   0    0.41    0.25
 -18   2  -1    0.54    0.34
 -18  -2  -1    0.38    0.29
  18  -2   1    0.96    0.34
  18  -3  -3    0.19    0.34
  18  -3  -3   -0.06    0.31
 -18   3   2    1.08    0.51
  18  -3  -2   -0.04    0.34
  19   0  -7    0.27    0.35
  19   0  -7    0.47    0.30
  19   0  -6    0.39    0.32
  19   0  -6    0.19    0.29
 -19   0   6   -0.34    0.29
  19   0  -5   -0.20    0.25
 -19   0   5    0.12    0.33
  19   0  -5    0.18    0.27
  19   0  -4    3.65    0.47
 -19   0   4    4.17    0.51
  19   0  -4    4.26    0.48
  19   0  -3   -0.07    0.26
 -19   0   3    0.19    0.30
 -19   0   2    2.29    0.37
  19   0  -2    1.65    0.31
  19   0  -1   -0.05    0.26
 -19   0   1   -0.11    0.28
 -19   0   0   14.40    0.77
  19   0   0   14.49    0.79
 -19   0  -1    0.10    0.28
  19   1  -6    2.42    0.33
 -19   1   6    3.17    0.44
  19   1  -6    2.49    0.39
 -19  -1   6    3.47    0.52
  19  -1  -6    1.92    0.34
  19  -1  -6    2.03    0.41
  19   1  -5    0.09    0.30
  19   1  -5   -0.48    0.20
 -19   1   5   -0.04    0.28
  19  -1  -5   -0.03    0.27
  19  -1  -5    0.04    0.29
 -19  -1   5   -0.22    0.27
 -19   1   4    0.57    0.35
  19   1  -4    1.06    0.32
  19  -1  -4    0.87    0.28
 -19  -1   4    0.69    0.27
  19  -1  -4    0.73    0.31
 -19   1   3    3.21    0.43
  19   1  -3    3.83    0.52
 -19  -1   3    2.93    0.38
  19  -1  -3    2.92    0.38
  19   1  -2    0.39    0.28
 -19   1   2    0.58    0.33
 -19  -1   2    0.09    0.29
  19  -1  -2    0.75    0.30
  19   1  -1    0.33    0.28
 -19   1   1   -0.42    0.27
  19  -1  -1   -0.15    0.28
 -19  -1   1   -0.06    0.30
  19   1   0    0.00    0.33
 -19   1   0   -0.07    0.29
  19  -1   0    0.63    0.32
 -19  -1   0    0.20    0.28
 -19   1  -1    2.30    0.46
 -19  -1  -1    1.71    0.41
  19  -1   1    2.01    0.40
  19   2  -4    1.20    0.36
 -19   2   4    0.32    0.36
 -19  -2   4    0.58    0.42
  19  -2  -4    0.83    0.44
  19  -2  -4    0.55    0.34
 -19   2   3    2.51    0.39
  19   2  -3    1.81    0.37
 -19  -2   3    2.27    0.40
  19  -2  -3    1.37    0.36
 -19   2   2    0.61    0.31
  19   2  -2    1.30    0.39
 -19  -2   2    1.00    0.33
  19  -2  -2    0.89    0.34
 -19   2   1    2.32    0.40
  19  -2  -1    2.04    0.40
  20   0  -4    7.37    0.58
 -20   0   4    5.42    0.61
 -20   0   3   -0.54    0.29
  20   0  -3   -0.21    0.40
 -20   0   2   -0.02    0.31
   0   0   0    0.00    0.00
;
_shelx_hkl_checksum              64061
loop_
_space_group_symop_operation_xyz
'x, y, z'
'-x, y+1/2, -z+1/2'
'-x, -y, -z'
'x, -y-1/2, z-1/2'
loop_
_atom_site_label
_atom_site_type_symbol
_atom_site_fract_x
_atom_site_fract_y
_atom_site_fract_z
_atom_site_U_iso_or_equiv
_atom_site_adp_type
_atom_site_occupancy
_atom_site_site_symmetry_order
_atom_site_calc_flag
_atom_site_refinement_flags_posn
_atom_site_refinement_flags_adp
N1 N 0.15296(6) 0.26032(18) 0.72656(9) 0.0159(2) Uani 1 1 d D .
H01 H 0.1285(10) 0.396(3) 0.7610(15) 0.027(4) Uiso 1 1 d D .
C1 C 0.24534(7) 0.1886(2) 0.76116(10) 0.0158(2) Uani 1 1 d . .
C2 C 0.31650(8) 0.2969(2) 0.86177(11) 0.0192(2) Uani 1 1 d . .
H2 H 0.3062 0.4430 0.9178 0.023 Uiso 1 1 calc R U
C3 C 0.40292(8) 0.1827(2) 0.87667(11) 0.0214(3) Uani 1 1 d . .
H3 H 0.4527 0.2518 0.9446 0.026 Uiso 1 1 calc R U
C4 C 0.41879(8) -0.0326(2) 0.79389(12) 0.0214(3) Uani 1 1 d . .
H4 H 0.4789 -0.1059 0.8066 0.026 Uiso 1 1 calc R U
C5 C 0.34790(7) -0.1396(2) 0.69383(11) 0.0188(2) Uani 1 1 d . .
H5 H 0.3589 -0.2850 0.6379 0.023 Uiso 1 1 calc R U
C6 C 0.25958(7) -0.0284(2) 0.67695(10) 0.0158(2) Uani 1 1 d . .
C7 C 0.17145(7) -0.0846(2) 0.58630(10) 0.0150(2) Uani 1 1 d . .
C8 C 0.14231(7) -0.2748(2) 0.48020(11) 0.0167(2) Uani 1 1 d . .
H8 H 0.1849 -0.3981 0.4567 0.020 Uiso 1 1 calc R U
C9 C 0.05152(7) -0.2791(2) 0.41150(10) 0.0158(2) Uani 1 1 d . .
H9 H 0.0318 -0.4051 0.3392 0.019 Uiso 1 1 calc R U
C10 C 0.01368(7) 0.09768(19) 0.55320(10) 0.0140(2) Uani 1 1 d . .
C11 C 0.10826(7) 0.0975(2) 0.62037(10) 0.0145(2) Uani 1 1 d . .
loop_
_atom_site_aniso_label
_atom_site_aniso_U_11
_atom_site_aniso_U_22
_atom_site_aniso_U_33
_atom_site_aniso_U_23
_atom_site_aniso_U_13
_atom_site_aniso_U_12
N1 0.0169(4) 0.0156(4) 0.0155(4) -0.0017(3) 0.0040(3) 0.0001(3)
C1 0.0172(5) 0.0170(5) 0.0139(5) 0.0029(4) 0.0050(4) -0.0009(4)
C2 0.0208(5) 0.0214(5) 0.0157(5) -0.0003(4) 0.0046(4) -0.0024(4)
C3 0.0194(5) 0.0266(6) 0.0173(5) 0.0021(4) 0.0020(4) -0.0021(4)
C4 0.0178(5) 0.0257(6) 0.0204(5) 0.0041(4) 0.0037(4) 0.0021(4)
C5 0.0200(5) 0.0196(5) 0.0175(5) 0.0024(4) 0.0053(4) 0.0023(4)
C6 0.0171(5) 0.0168(5) 0.0139(5) 0.0031(4) 0.0046(4) -0.0008(4)
C7 0.0168(5) 0.0151(5) 0.0140(5) 0.0022(4) 0.0051(4) 0.0003(4)
C8 0.0193(5) 0.0153(5) 0.0168(5) -0.0006(4) 0.0068(4) 0.0025(4)
C9 0.0198(5) 0.0143(5) 0.0143(5) -0.0024(4) 0.0060(4) 0.0002(4)
C10 0.0184(5) 0.0122(5) 0.0124(4) 0.0007(4) 0.0062(4) -0.0003(4)
C11 0.0192(5) 0.0131(5) 0.0123(4) 0.0014(3) 0.0062(4) -0.0002(4)
loop_
_atom_type_symbol
_atom_type_description
_atom_type_scat_dispersion_real
_atom_type_scat_dispersion_imag
_atom_type_scat_source
C C 0.0033 0.0016 'International Tables Vol C Tables 4.2.6.8 and 6.1.1.4'
H H 0.0000 0.0000 'International Tables Vol C Tables 4.2.6.8 and 6.1.1.4'
N N 0.0061 0.0033 'International Tables Vol C Tables 4.2.6.8 and 6.1.1.4'
loop_
_geom_angle_atom_site_label_1
_geom_angle_atom_site_label_2
_geom_angle_atom_site_label_3
_geom_angle
_geom_angle_site_symmetry_1
_geom_angle_site_symmetry_3
C11 N1 C1 108.74(9) . .
N1 C1 C2 129.17(10) . .
N1 C1 C6 108.75(9) . .
C2 C1 C6 122.06(10) . .
C3 C2 C1 117.25(11) . .
C2 C3 C4 121.70(10) . .
C5 C4 C3 120.90(10) . .
C4 C5 C6 118.58(10) . .
C5 C6 C1 119.50(10) . .
C5 C6 C7 134.10(10) . .
C1 C6 C7 106.40(9) . .
C11 C7 C8 120.20(9) . .
C11 C7 C6 106.86(9) . .
C8 C7 C6 132.94(10) . .
C9 C8 C7 119.14(9) . .
C8 C9 C10 121.15(9) . 3_556
C11 C10 C9 122.96(9) . 3_556
C11 C10 C10 115.97(11) . 3_556
C9 C10 C10 121.06(12) 3_556 3_556
N1 C11 C7 109.24(9) . .
N1 C11 C10 128.29(9) . .
C7 C11 C10 122.46(9) . .
loop_
_geom_bond_atom_site_label_1
_geom_bond_atom_site_label_2
_geom_bond_distance
_geom_bond_site_symmetry_2
N1 C11 1.3800(13) .
N1 C1 1.3900(13) .
C1 C2 1.3947(15) .
C1 C6 1.4131(15) .
C2 C3 1.3865(16) .
C3 C4 1.4045(17) .
C4 C5 1.3868(16) .
C5 C6 1.4041(15) .
C6 C7 1.4457(14) .
C7 C11 1.4032(14) .
C7 C8 1.4131(14) .
C8 C9 1.3739(15) .
C9 C10 1.4276(14) 3_556
C10 C11 1.4196(14) .
C10 C9 1.4275(14) 3_556
C10 C10 1.4291(19) 3_556
loop_
_geom_torsion_atom_site_label_1
_geom_torsion_atom_site_label_2
_geom_torsion_atom_site_label_3
_geom_torsion_atom_site_label_4
_geom_torsion
_geom_torsion_site_symmetry_1
_geom_torsion_site_symmetry_4
C11 N1 C1 C2 179.96(10) . .
C11 N1 C1 C6 -1.15(11) . .
N1 C1 C2 C3 178.70(10) . .
C6 C1 C2 C3 -0.06(16) . .
C1 C2 C3 C4 0.25(17) . .
C2 C3 C4 C5 -0.18(18) . .
C3 C4 C5 C6 -0.09(16) . .
C4 C5 C6 C1 0.27(16) . .
C4 C5 C6 C7 179.96(11) . .
N1 C1 C6 C5 -179.19(9) . .
C2 C1 C6 C5 -0.20(16) . .
N1 C1 C6 C7 1.05(11) . .
C2 C1 C6 C7 -179.97(9) . .
C5 C6 C7 C11 179.72(11) . .
C1 C6 C7 C11 -0.56(11) . .
C5 C6 C7 C8 -0.2(2) . .
C1 C6 C7 C8 179.56(11) . .
C11 C7 C8 C9 -0.18(15) . .
C6 C7 C8 C9 179.69(10) . .
C7 C8 C9 C10 -0.85(15) . 3_556
C1 N1 C11 C7 0.79(11) . .
C1 N1 C11 C10 179.48(9) . .
C8 C7 C11 N1 179.77(9) . .
C6 C7 C11 N1 -0.13(11) . .
C8 C7 C11 C10 0.99(15) . .
C6 C7 C11 C10 -178.91(9) . .
C9 C10 C11 N1 0.43(16) 3_556 .
C10 C10 C11 N1 -179.25(11) 3_556 .
C9 C10 C11 C7 178.96(9) 3_556 .
C10 C10 C11 C7 -0.72(16) 3_556 .
