#------------------------------------------------------------------------------
#$Date: 2019-11-24 02:43:11 +0200 (Sun, 24 Nov 2019) $
#$Revision: 236314 $
#$URL: file:///home/coder/svn-repositories/cod/cif/7/23/65/7236572.cif $
#------------------------------------------------------------------------------
#
# This file is available in the Crystallography Open Database (COD),
# http://www.crystallography.net/
#
# All data on this site have been placed in the public domain by the
# contributors.
#
data_7236572
loop_
_publ_author_name
'Sun, Qi'
'Shen, Cheng'
'Li, Xin'
'Lin, Qiuhan'
'Lu, Ming'
_publ_section_title
;
 Combination of four oxadiazole rings for the generation of energetic
 materials with high detonation performance, low sensitivity and excellent
 thermal stability
;
_journal_issue                   22
_journal_name_full               'Journal of Materials Chemistry A'
_journal_page_first              11063
_journal_paper_doi               10.1039/C7TA02209C
_journal_volume                  5
_journal_year                    2017
_chemical_formula_moiety         '2(H4 N), C8 N10 O6'
_chemical_formula_sum            'C8 H8 N12 O6'
_chemical_formula_weight         368.26
_space_group_crystal_system      monoclinic
_space_group_IT_number           14
_space_group_name_Hall           '-P 2yn'
_space_group_name_H-M_alt        'P 1 21/n 1'
_atom_sites_solution_hydrogens   difmap
_audit_creation_method           SHELXL-2014/7
_audit_update_record
;
2017-03-13 deposited with the CCDC.
2017-05-02 downloaded from the CCDC.
;
_cell_angle_alpha                90
_cell_angle_beta                 90.185(5)
_cell_angle_gamma                90
_cell_formula_units_Z            2
_cell_length_a                   4.7289(6)
_cell_length_b                   10.5845(12)
_cell_length_c                   14.3425(19)
_cell_measurement_reflns_used    1046
_cell_measurement_temperature    172(2)
_cell_measurement_theta_max      25.34
_cell_measurement_theta_min      2.84
_cell_volume                     717.88(15)
_computing_structure_refinement  'SHELXL-2014/7 (Sheldrick, 2014)'
_diffrn_ambient_temperature      172(2)
_diffrn_measured_fraction_theta_full 0.998
_diffrn_measured_fraction_theta_max 0.996
_diffrn_measurement_device_type  'PHOTON 100 CMOS detector'
_diffrn_measurement_method       'omega scan'
_diffrn_radiation_type           MoK\a
_diffrn_radiation_wavelength     0.71073
_diffrn_reflns_av_R_equivalents  0.0663
_diffrn_reflns_av_unetI/netI     0.0655
_diffrn_reflns_Laue_measured_fraction_full 0.998
_diffrn_reflns_Laue_measured_fraction_max 0.996
_diffrn_reflns_limit_h_max       5
_diffrn_reflns_limit_h_min       -5
_diffrn_reflns_limit_k_max       12
_diffrn_reflns_limit_k_min       -12
_diffrn_reflns_limit_l_max       17
_diffrn_reflns_limit_l_min       -17
_diffrn_reflns_number            4148
_diffrn_reflns_point_group_measured_fraction_full 0.998
_diffrn_reflns_point_group_measured_fraction_max 0.996
_diffrn_reflns_theta_full        25.242
_diffrn_reflns_theta_max         25.346
_diffrn_reflns_theta_min         2.840
_diffrn_source                   'sealed tube'
_exptl_absorpt_coefficient_mu    0.147
_exptl_absorpt_correction_T_max  0.7452
_exptl_absorpt_correction_T_min  0.6784
_exptl_absorpt_correction_type   multi-scan
_exptl_absorpt_process_details   'SADABS (Bruker, 2014)'
_exptl_crystal_density_diffrn    1.704
_exptl_crystal_description       block
_exptl_crystal_F_000             376
_exptl_crystal_size_max          0.250
_exptl_crystal_size_mid          0.210
_exptl_crystal_size_min          0.170
_refine_diff_density_max         0.276
_refine_diff_density_min         -0.333
_refine_diff_density_rms         0.071
_refine_ls_extinction_method     none
_refine_ls_goodness_of_fit_ref   1.038
_refine_ls_hydrogen_treatment    refxyz
_refine_ls_matrix_type           full
_refine_ls_number_parameters     130
_refine_ls_number_reflns         1312
_refine_ls_number_restraints     21
_refine_ls_restrained_S_all      1.029
_refine_ls_R_factor_all          0.0855
_refine_ls_R_factor_gt           0.0494
_refine_ls_shift/su_max          0.000
_refine_ls_shift/su_mean         0.000
_refine_ls_structure_factor_coef Fsqd
_refine_ls_weighting_details
'w=1/[\s^2^(Fo^2^)+(0.0439P)^2^+0.3627P] where P=(Fo^2^+2Fc^2^)/3'
_refine_ls_weighting_scheme      calc
_refine_ls_wR_factor_gt          0.0939
_refine_ls_wR_factor_ref         0.1049
_reflns_Friedel_coverage         0.000
_reflns_number_gt                947
_reflns_number_total             1312
_reflns_threshold_expression     'I > 2\s(I)'
_cod_data_source_file            c7ta02209c2.cif
_cod_data_source_block           1
_cod_original_sg_symbol_H-M      'P 21/n'
_cod_database_code               7236572
_shelx_shelxl_version_number     2014/7
_shelx_space_group_comment
;
The symmetry employed for this shelxl refinement is uniquely defined
by the following loop, which should always be used as a source of
symmetry information in preference to the above space-group names.
They are only intended as comments.
;
_shelx_estimated_absorpt_t_min   0.964
_shelx_estimated_absorpt_t_max   0.975
_shelx_res_file
;

    1.res created by SHELXL-2014/7


TITL 1 in P2(1)/n
CELL 0.71073   4.7289  10.5845  14.3425  90.000  90.185  90.000
ZERR    2.00   0.0006   0.0012   0.0019   0.000   0.005   0.000
LATT 1
SYMM 0.5-X, 0.5+Y, 0.5-Z
SFAC C  H  N  O
UNIT 16 16 24 12
L.S. 10
acta
BOND $H
size 0.25 0.21 0.17
FMAP 2
PLAN 20
sadi h6a h6b h6a h6c h6a h6d h6b h6c h6c h6d h6d h6b
sadi .02 n6 h6a n6 h6b n6 h6c n6 h6d
TEMP -101.150
WGHT    0.043900    0.362739
FVAR       0.32244
MOLE 1
C1    1    0.648268    0.527438    0.890194    11.00000    0.01456    0.01153 =
         0.01447   -0.00498   -0.00169    0.00171
C2    1    0.604762    0.507898    0.793008    11.00000    0.00954    0.01100 =
         0.01614   -0.00169    0.00141    0.00290
C3    1    0.397713    0.432443    0.742202    11.00000    0.01260    0.01018 =
         0.01254    0.00036   -0.00056    0.00356
C4    1    0.170475    0.354719    0.629177    11.00000    0.01345    0.01495 =
         0.01269    0.00021    0.00196    0.00311
N1    3    0.488663    0.470562    0.962410    11.00000    0.02060    0.01775 =
         0.01356   -0.00357   -0.00334    0.00103
N2    3    0.863111    0.602743    0.903148    11.00000    0.02007    0.01870 =
         0.02054   -0.00543    0.00047   -0.00018
N3    3    0.790915    0.575136    0.747093    11.00000    0.01656    0.01556 =
         0.01947   -0.00562   -0.00065   -0.00056
N4    3    0.219264    0.357969    0.785581    11.00000    0.01739    0.01556 =
         0.01358   -0.00169   -0.00195   -0.00389
N5    3    0.378222    0.436256    0.647953    11.00000    0.01462    0.01449 =
         0.01068   -0.00093   -0.00116   -0.00210
N6    3   -0.417410    0.318080    0.444188    11.00000    0.02009    0.01586 =
         0.01232   -0.00088   -0.00108   -0.00091
H6A   2   -0.272164    0.314958    0.487074    11.00000   -1.20000
H6B   2   -0.586560    0.307528    0.473937    11.00000   -1.20000
H6C   2   -0.415226    0.395341    0.415331    11.00000   -1.20000
H6D   2   -0.390207    0.255900    0.400995    11.00000   -1.20000
O1    4    0.954254    0.633341    0.814947    11.00000    0.01873    0.01952 =
         0.02414   -0.00495    0.00109   -0.00616
O2    4    0.061638    0.305227    0.710565    11.00000    0.01552    0.01761 =
         0.01559   -0.00340   -0.00046   -0.00570
O3    4    0.076241    0.318750    0.553147    11.00000    0.01834    0.03106 =
         0.01488   -0.00537   -0.00184   -0.00290
HKLF 4

REM  1 in P2(1)/n
REM R1 =  0.0494 for     947 Fo > 4sig(Fo)  and  0.0855 for all    1312 data
REM    130 parameters refined using     21 restraints

END

WGHT      0.0505      0.0208

REM Highest difference peak  0.276,  deepest hole -0.333,  1-sigma level  0.071
Q1    1   0.3109  0.6079  0.9407  11.00000  0.05    0.28
Q2    1  -0.2232  0.4154  0.3059  11.00000  0.05    0.25
Q3    1   0.4405  0.6415  0.8797  11.00000  0.05    0.24
Q4    1   0.5892  0.4520  0.6151  11.00000  0.05    0.23
Q5    1   0.1405  0.5507  0.6466  11.00000  0.05    0.22
Q6    1   1.0556  0.5968  0.9561  11.00000  0.05    0.22
Q7    1   0.9406  0.4637  0.7614  11.00000  0.05    0.22
Q8    1   0.3508  0.5864  0.7580  11.00000  0.05    0.22
Q9    1   0.3861  0.6030  0.7426  11.00000  0.05    0.22
Q10   1   0.9944  0.4492  0.9715  11.00000  0.05    0.21
Q11   1   0.0556  0.2130  0.4434  11.00000  0.05    0.20
Q12   1   0.3777  0.6378  0.8208  11.00000  0.05    0.20
Q13   1   0.2586  0.4579  0.9556  11.00000  0.05    0.20
Q14   1   0.8603  0.5317  0.6290  11.00000  0.05    0.20
Q15   1   0.0938  0.4321  0.4574  11.00000  0.05    0.20
Q16   1   1.1501  0.6581  0.8159  11.00000  0.05    0.20
Q17   1  -0.6087  0.4670  0.4623  11.00000  0.05    0.19
Q18   1   0.9913  0.5385  0.7029  11.00000  0.05    0.19
Q19   1   0.4382  0.4976  0.7674  11.00000  0.05    0.18
Q20   1  -0.8559  0.2810  0.4398  11.00000  0.05    0.18
;
_shelx_res_checksum              65978
_shelx_hkl_file
;
  -1   0   0    0.15    0.31
   1   0   0    0.09    0.31
  -2   0   0  114.74    2.96
   2   0   0  113.21    2.96
  -3   0   0    0.72    0.90
   3   0   0    1.83    0.95
  -4   0   0   43.87    2.89
   4   0   0   45.14    2.88
   5   0   0   -0.78    2.38
  -5   0   0    0.33    2.28
  -1   1   0   76.08    1.93
   1   1   0   77.50    1.66
  -1  -1   0   76.90    1.65
   1  -1   0   75.07    1.90
   2   1   0  375.96    6.73
  -2   1   0  388.53    7.11
  -2  -1   0  395.46    6.80
   2  -1   0  388.12    7.14
   3   1   0    0.05    0.85
  -3   1   0    1.72    1.02
  -3  -1   0    1.83    0.88
   3  -1   0    2.47    1.05
  -4   1   0   16.47    2.16
   4   1   0   21.26    2.45
  -4  -1   0   17.73    2.14
   5   1   0   27.08    3.10
  -5   1   0   31.23    3.67
   5  -1   0   23.73    3.26
  -5  -1   0   33.19    3.71
   0   2   0  146.42    2.56
   0  -2   0  144.23    2.54
   1   2   0  931.97   13.90
  -1   2   0 1000.00   14.71
  -1  -2   0  933.18   13.90
   1  -2   0  988.76   14.69
  -2   2   0   11.60    1.31
   2   2   0   10.88    0.99
  -2  -2   0   11.82    0.99
   2  -2   0   12.77    1.24
  -3   2   0   56.18    2.72
   3   2   0   57.35    2.36
   3  -2   0   55.04    2.71
  -3  -2   0   60.24    2.43
   4   2   0    9.03    1.71
  -4   2   0    7.99    1.98
   4  -2   0    6.83    1.90
  -4  -2   0    7.78    1.54
  -5   2   0    2.68    2.51
   5   2   0    1.54    2.09
   5  -2   0    1.44    2.43
  -5  -2   0    1.50    2.09
   0   3   0   -0.05    0.32
   0  -3   0    0.32    0.32
   1   3   0  844.87   12.40
  -1   3   0  872.64   13.41
   1  -3   0  852.98   13.34
  -1  -3   0  841.38   12.42
  -2   3   0   22.43    1.63
   2   3   0   21.22    1.12
  -2  -3   0   23.10    1.17
   2  -3   0   18.74    1.50
   3   3   0    4.59    0.99
  -3   3   0    3.99    1.39
   3  -3   0    2.82    1.28
  -3  -3   0    6.41    1.06
  -4   3   0   32.94    3.07
   4   3   0   31.49    2.46
  -4  -3   0   33.26    2.50
   4  -3   0   29.40    3.14
  -5   3   0   -6.50    2.55
   5   3   0   -1.40    2.10
  -5  -3   0   -1.31    2.00
   5  -3   0    5.86    2.84
   0   4   0  133.24    2.85
   0  -4   0  131.80    2.82
  -1   4   0   87.04    2.58
  -1  -4   0   85.73    1.86
   1  -4   0   83.49    2.55
   2   4   0   24.90    1.13
  -2   4   0   21.94    1.74
   2  -4   0   20.39    1.77
  -2  -4   0   22.87    1.12
   3   4   0    0.49    0.71
  -3   4   0    2.43    1.30
  -3  -4   0    2.11    0.83
   3  -4   0   -0.64    1.24
   4   4   0    0.94    1.24
  -4   4   0    4.31    2.02
   4  -4   0    3.86    2.07
  -4  -4   0    0.65    1.22
   5   4   0   17.79    3.06
  -5   4   0   21.57    3.65
   5  -4   0   22.57    3.36
   0   5   0    0.06    0.50
   0  -5   0    0.33    0.52
  -1   5   0   27.53    1.68
  -1  -5   0   27.45    1.10
   1  -5   0   29.09    1.66
  -1  -5   0   27.26    1.10
   2   5   0  281.73    4.92
  -2   5   0  288.00    6.53
   2  -5   0  285.07    6.49
  -2  -5   0  281.11    4.91
  -3   5   0   12.13    1.93
   3   5   0   13.90    1.36
   3  -5   0   12.52    1.96
  -3  -5   0   15.12    1.39
  -4   5   0    7.79    2.42
   4   5   0    9.16    1.52
   4  -5   0   12.34    2.67
  -4  -5   0   10.18    1.55
  -5   5   0    6.76    3.45
   5   5   0    4.43    2.16
   5  -5   0    0.82    3.37
  -5  -5   0    3.37    2.12
   0   6   0   97.01    2.68
   0  -6   0   93.82    2.65
  -1   6   0    1.25    0.81
   1  -6   0   -0.24    0.76
  -1  -6   0    0.22    0.49
  -1  -6   0    0.19    0.50
  -2   6   0   37.59    2.46
  -2  -6   0   38.92    1.42
   2  -6   0   40.23    2.57
   3   6   0   23.42    1.52
  -3   6   0   23.17    2.67
   3  -6   0   24.99    2.71
  -3  -6   0   22.33    1.51
  -4   6   0   -1.31    2.15
   4   6   0    0.22    1.16
   4  -6   0   -0.42    2.32
  -4  -6   0   -0.50    1.16
   5   6   0    1.01    1.91
  -5  -6   0    1.70    2.05
   0  -7   0    0.69    0.72
  -1   7   0    7.37    1.36
  -1  -7   0    7.13    0.88
  -1  -7   0    5.80    0.88
   1  -7   0    5.39    1.18
  -2   7   0    2.71    1.45
  -2  -7   0    3.18    0.62
  -2  -7   0    2.74    0.66
   2  -7   0    2.40    1.34
  -3   7   0    3.35    2.05
   3  -7   0    2.82    1.87
  -3  -7   0    1.20    0.77
   4   7   0   16.70    1.85
  -4   7   0   13.56    3.15
   4  -7   0   13.27    3.24
  -4  -7   0   16.24    1.59
   0  -8   0   33.43    1.98
  -1   8   0    5.24    1.49
   1  -8   0    8.02    1.56
  -1  -8   0    7.28    0.99
  -1  -8   0    7.19    1.02
  -2   8   0    3.47    1.68
  -2  -8   0    5.50    0.81
   2  -8   0    3.94    1.79
  -2  -8   0    9.01    1.06
  -3   8   0    1.56    2.19
  -3  -8   0    0.61    0.63
  -3  -8   0   -1.43    0.64
   3  -8   0    2.02    2.21
  -4   8   0    3.01    3.22
   4  -8   0   -1.30    3.07
  -4  -8   0    5.81    1.07
   0  -9   0   -2.31    1.03
  -1   9   0    5.33    1.72
  -1  -9   0    5.81    1.17
   1  -9   0    7.13    1.71
  -1  -9   0    5.88    1.06
  -2   9   0   10.11    2.24
   2  -9   0   13.23    2.21
  -2  -9   0   10.22    1.26
  -2  -9   0    9.02    0.97
  -3   9   0    3.37    2.66
   3  -9   0    5.53    2.76
   4  -9   0    2.90    4.00
   0 -10   0    0.81    1.37
  -1  10   0   -0.83    1.61
  -1 -10   0    0.56    1.05
  -1 -10   0   -1.47    1.11
  -2  10   0   10.07    2.71
  -2 -10   0    9.07    0.99
   2 -10   0   10.54    2.63
  -2 -10   0   11.26    1.35
  -3  10   0    2.08    2.95
   3 -10   0    2.52    3.10
   0 -11   0    1.44    1.70
  -1 -11   0   -0.76    1.38
   1 -11   0   -2.83    2.05
  -1 -11   0    1.79    1.36
  -2  11   0   -1.65    2.73
  -2 -11   0    2.10    0.93
   2 -11   0    4.89    2.84
  -2 -11   0    2.43    0.84
   0 -12   0    2.79    2.14
   0 -12   0   -0.32    3.25
   1 -12   0    9.63    2.73
  -1 -12   0    6.04    1.87
  -1 -12   0    7.14    1.75
  -5   0  -1    3.75    2.23
   5   0   1   -0.56    2.18
  -4   0  -1    0.32    1.30
   4   0   1    3.09    1.46
   3   0   1    0.98    0.96
  -3   0  -1    0.27    0.93
  -2   0  -1    0.27    0.54
   2   0   1    0.25    0.51
   1   0   1    4.88    0.52
  -1   0  -1    5.59    0.55
  -1   0   1   91.49    2.11
   1   0  -1   93.00    2.10
  -2   0   1   -0.73    0.54
   2   0  -1   -0.09    0.53
   3   0  -1   49.24    2.40
  -3   0   1   45.46    2.36
   4   0  -1    0.56    1.51
  -4   0   1    1.72    2.35
  -5   0   1    9.18    2.67
   5   0  -1   17.10    2.72
  -5   1  -1    1.60    2.37
   5   1   1   -0.06    2.20
  -5  -1  -1    0.63    2.16
   5  -1   1   -4.54    2.27
   4   1   1    0.58    1.44
  -4   1  -1   -1.60    1.77
  -4  -1  -1    1.39    1.38
   4  -1   1   -0.01    2.66
   3   1   1    0.08    0.79
  -3   1  -1   -0.14    0.94
  -3  -1  -1   -0.30    0.78
   3  -1   1    1.62    0.97
  -2   1  -1    2.08    0.71
   2   1   1    2.92    0.69
   2  -1   1    2.94    0.71
  -2  -1  -1    2.06    0.59
  -1   1  -1    5.85    0.66
   1   1   1    5.36    0.46
   1  -1   1    5.17    0.62
  -1  -1  -1    5.07    0.43
   1   1  -1   23.65    0.97
  -1   1   1   23.09    1.07
   1  -1  -1   22.49    1.08
  -1  -1   1   24.18    0.98
   2   1  -1   41.40    1.70
  -2   1   1   40.80    1.83
  -2  -1   1   40.40    1.72
   2  -1  -1   38.64    1.79
   3   1  -1    1.51    1.02
  -3   1   1    3.28    1.15
  -3  -1   1    2.50    1.01
   3  -1  -1    0.71    1.02
  -4   1   1   12.87    2.11
   4   1  -1   14.49    2.06
   4  -1  -1    9.06    2.00
  -4  -1   1   10.40    1.86
   5   1  -1    1.89    2.33
  -5   1   1   -1.46    2.28
   5  -1  -1    3.62    2.69
  -5  -1   1   -0.17    2.07
  -5   2  -1    4.61    2.61
   5   2   1    7.65    2.34
  -5  -2  -1    7.77    2.20
   5  -2   1   10.90    2.84
  -4   2  -1    4.38    1.71
   4   2   1    1.27    1.26
   4  -2   1    3.46    1.80
  -4  -2  -1    2.53    1.31
   3   2   1   15.12    1.51
  -3   2  -1   15.92    1.78
   3  -2   1   19.10    2.02
  -3  -2  -1   18.98    1.54
  -2   2  -1    0.78    0.68
   2   2   1    1.30    0.50
   2  -2   1    1.43    0.74
  -2  -2  -1    0.49    0.45
  -1   2  -1  259.71    4.88
   1   2   1  262.07    4.00
  -1  -2  -1  262.50    3.99
   1  -2   1  271.99    4.96
   0   2   1   41.50    0.99
   0  -2   1   41.13    1.17
   0  -2  -1   39.29    0.98
  -1   2   1   48.10    1.69
   1   2  -1   47.79    1.38
  -1  -2   1   51.35    1.41
   1  -2  -1   50.35    1.69
   2   2  -1   28.06    1.41
  -2   2   1   26.89    1.73
   2  -2  -1   27.59    1.65
  -2  -2   1   29.63    1.42
  -3   2   1    1.70    1.15
   3   2  -1   -1.07    0.80
  -3  -2   1    0.73    0.89
   3  -2  -1   -0.67    1.02
   4   2  -1   12.34    1.82
  -4   2   1   15.45    2.16
   4  -2  -1   19.57    2.45
  -4  -2   1   10.20    1.89
  -5   2   1   -0.44    2.54
   5   2  -1   -1.50    2.22
  -5  -2   1    1.51    2.14
  -5   3  -1    8.85    2.83
  -5  -3  -1    2.43    2.08
   5  -3   1    0.53    2.84
   4   3   1   -1.69    1.21
  -4   3  -1   -2.22    1.70
  -4  -3  -1    2.27    1.25
   4  -3   1    1.05    1.73
  -3   3  -1    0.38    1.14
   3   3   1   -0.50    0.72
   3  -3   1    0.33    1.14
  -3  -3  -1    1.08    0.74
   2   3   1   37.82    1.30
  -2   3  -1   36.29    1.97
  -2  -3  -1   33.85    1.24
   2  -3   1   35.99    1.94
  -1   3  -1  391.36    6.80
  -1  -3  -1  371.25    5.44
   1  -3   1  366.76    6.71
   0   3   1  512.41    7.82
   0  -3  -1  503.21    7.81
   0  -3   1  518.64    8.12
  -1   3   1  190.80    4.05
   1   3  -1  196.94    3.59
  -1  -3   1  200.54    3.60
   1  -3  -1  192.65    4.07
   2   3  -1   67.77    2.07
  -2   3   1   69.41    2.59
   2  -3  -1   66.92    2.54
  -2  -3   1   67.35    2.06
   3   3  -1    9.31    1.25
  -3   3   1    5.96    1.44
  -3  -3   1   10.20    1.31
   3  -3  -1    6.29    1.43
  -4   3   1   17.11    2.50
   4   3  -1   12.53    1.88
   4  -3  -1   15.77    2.45
  -4  -3   1   12.31    1.82
  -5   3   1    7.41    3.04
   5   3  -1    8.03    2.44
  -5  -3   1    5.66    2.24
   5  -3  -1    9.01    2.99
   5   4   1   12.27    2.19
  -5   4  -1    5.78    2.86
  -5  -4  -1    3.72    2.03
   5  -4   1    0.79    3.10
  -4   4  -1   40.64    3.58
   4   4   1   35.24    2.40
  -4  -4  -1   38.82    2.44
   4  -4   1   38.15    3.62
  -3   4  -1    3.46    1.35
   3   4   1    1.51    0.75
   3  -4   1    1.61    1.25
  -3  -4  -1    2.99    0.78
  -2   4  -1   32.43    2.01
   2   4   1   30.12    1.06
  -2  -4  -1   30.83    1.07
   2  -4   1   30.19    1.95
  -1   4  -1  247.06    5.11
   1  -4   1  241.06    5.06
  -1  -4  -1  241.43    3.74
  -1  -4  -1  242.28    3.74
   0   4   1   87.86    2.10
   0  -4  -1   83.59    2.03
   0  -4   1   91.02    2.30
  -1   4   1   17.31    1.23
   1  -4  -1   18.93    1.33
  -1  -4   1   17.55    0.98
   2   4  -1  204.16    4.13
  -2   4   1  213.02    5.55
  -2  -4   1  210.17    4.17
   2  -4  -1  203.00    5.04
  -3   4   1    9.02    1.66
   3   4  -1    6.87    1.12
  -3  -4   1    8.15    1.21
   3  -4  -1    8.05    1.55
  -4   4   1    0.26    1.85
   4   4  -1    0.92    1.28
  -4  -4   1   -1.00    1.33
   4  -4  -1   -1.16    1.99
   5   4  -1   -0.86    2.07
  -5   4   1    4.57    2.91
   5  -4  -1    4.92    2.95
  -5  -4   1    3.23    2.14
   5   5   1   -2.25    1.85
  -5   5  -1    4.37    3.24
   5  -5   1   -2.83    3.19
  -5  -5  -1   -0.97    1.84
  -4   5  -1   28.10    3.29
   4   5   1   25.84    2.08
   4  -5   1   28.13    3.26
  -4  -5  -1   26.96    2.15
  -3   5  -1   33.36    2.64
   3   5   1   28.64    1.45
   3  -5   1   25.27    2.50
  -3  -5  -1   27.22    1.44
  -2   5  -1  112.04    3.74
  -2  -5  -1  109.02    2.11
   2  -5   1  112.77    3.78
  -1   5  -1   27.20    1.68
  -1  -5  -1   29.80    0.93
   1  -5   1   31.45    1.76
  -1  -5  -1   28.04    0.90
   0   5   1   62.72    1.90
   0  -5  -1   66.21    1.89
   0  -5   1   59.06    2.01
  -1   5   1   14.35    1.30
   1  -5  -1   18.93    1.44
  -1  -5   1   15.12    1.03
  -2   5   1  228.58    5.68
   2   5  -1  222.54    4.42
  -2  -5   1  232.09    4.49
   2  -5  -1  223.53    5.53
   3   5  -1   23.15    1.66
  -3   5   1   26.69    2.56
   3  -5  -1   24.56    2.74
  -3  -5   1   25.50    1.78
  -4   5   1    0.83    2.06
   4   5  -1    2.46    1.36
   4  -5  -1    4.80    2.11
  -4  -5   1    1.40    1.34
  -5   5   1   -5.73    3.00
   5   5  -1    5.23    2.82
   5  -5  -1    6.30    3.18
   5   6   1    1.58    1.77
  -5  -6  -1    8.40    1.99
   4   6   1    3.91    1.12
  -4   6  -1    2.97    2.44
   4  -6   1    0.84    2.23
  -4  -6  -1    2.13    1.12
  -3   6  -1   10.75    2.07
   3   6   1    7.76    0.95
  -3  -6  -1    8.34    1.00
   3  -6   1    7.92    1.94
  -2   6  -1  227.10    5.98
  -2  -6  -1  226.35    3.58
  -2  -6  -1  229.19    3.60
   2  -6   1  227.14    5.84
  -1   6  -1   12.16    1.48
   1  -6   1   10.72    1.34
  -1  -6  -1   10.49    0.83
  -1  -6  -1   10.66    0.77
   0   6   1   39.46    1.67
   0  -6   1   37.54    1.74
   0  -6  -1   36.14    1.58
  -1   6   1  110.63    3.40
   1  -6  -1  111.12    3.35
  -1  -6   1  111.04    2.80
  -1  -6   1  110.75    2.79
  -2   6   1   13.71    1.77
   2  -6  -1   16.53    1.94
  -2  -6   1   19.11    1.33
   3   6  -1   51.65    2.15
  -3   6   1   48.30    3.21
   3  -6  -1   46.86    3.28
  -3  -6   1   52.16    2.22
  -4   6   1   13.08    2.80
   4   6  -1   15.39    1.75
  -4  -6   1   11.39    1.73
   4  -6  -1   11.91    2.79
   5   6  -1    0.60    2.12
  -5  -6   1    1.69    2.17
   4   7   1   28.62    1.58
  -4   7  -1   20.75    3.42
   4  -7   1   27.08    3.60
  -4  -7  -1   28.01    1.65
   3  -7   1    1.02    1.85
  -2   7  -1   85.31    4.53
   2  -7   1   91.97    3.79
  -1   7  -1   64.74    2.90
  -1  -7  -1   64.19    1.87
   1  -7   1   64.20    2.84
  -1  -7  -1   63.74    1.80
   0   7   1   34.08    1.78
   0  -7  -1   37.65    1.80
   0  -7   1   33.54    1.89
  -1   7   1   33.35    2.22
  -1  -7   1   33.37    1.73
   1  -7  -1   31.78    2.08
  -1  -7   1   33.42    1.66
  -2   7   1   21.82    2.47
   2  -7  -1   22.92    2.28
  -2  -7   1   17.78    1.42
  -3   7   1    3.22    2.01
   3  -7  -1    7.88    2.19
  -3  -7   1    5.78    1.06
  -4   7   1   19.20    3.24
   4   7  -1   17.41    2.18
  -4  -7   1   15.85    1.82
   4  -7  -1   13.01    3.06
  -4   8  -1    1.94    3.05
   4  -8   1    3.15    2.99
  -3   8  -1   80.49    4.73
   3  -8   1   76.22    4.51
  -2   8  -1    1.45    1.59
   2  -8   1    0.56    1.49
  -1   8  -1    6.43    1.58
  -1  -8  -1    8.67    1.09
   1  -8   1    8.45    1.63
  -1  -8  -1    7.29    0.92
   0  -8  -1    3.82    1.00
   0  -8   1    2.84    1.01
  -1   8   1    8.85    1.58
  -1  -8   1    7.40    1.18
  -1  -8   1    9.54    1.15
   1  -8  -1    9.87    1.51
  -2   8   1   76.73    3.89
  -2  -8   1   78.93    2.52
   2  -8  -1   76.85    3.76
  -2  -8   1   79.18    2.44
  -3   8   1  148.03    5.71
   3  -8  -1  142.21    5.72
  -3  -8   1  146.97    3.53
  -4   8   1   11.32    3.27
   4  -8  -1   12.52    3.24
  -4  -8   1    8.44    1.54
  -3   9  -1   76.31    4.81
   3  -9   1   84.36    5.29
  -2   9  -1   20.75    2.79
   2  -9   1   24.94    3.31
  -1   9  -1    4.38    1.68
  -1  -9  -1    7.41    1.01
  -1  -9  -1    4.61    0.97
   1  -9   1    6.15    1.58
   0  -9   1   49.68    2.66
   0  -9  -1   46.82    2.44
  -1   9   1   -0.21    1.41
  -1  -9   1   -0.67    1.05
  -1  -9   1    1.46    0.98
   1  -9  -1   -1.93    1.34
  -2   9   1    1.50    1.99
  -2  -9   1    5.82    1.07
  -2  -9   1    2.25    1.07
   2  -9  -1    3.56    1.94
  -3   9   1   29.20    3.46
   3  -9  -1   26.77    3.54
  -3  -9   1   31.14    1.84
  -3  -9   1   31.72    1.77
   4  -9  -1   16.52    4.32
   3 -10   1    1.45    2.95
  -2  10  -1   21.14    2.99
   2 -10   1   19.13    2.89
  -1 -10  -1   14.24    1.71
   1 -10   1   14.89    2.31
  -1 -10  -1   12.73    1.71
   0 -10   1   16.78    1.99
   0 -10  -1   13.02    1.77
   1 -10  -1   17.79    2.45
  -1 -10   1   17.22    2.10
  -1 -10   1   17.83    2.22
  -2  10   1   18.09    2.75
  -2 -10   1   16.00    1.84
   2 -10  -1    9.28    2.37
  -2 -10   1   15.04    1.58
  -3  10   1   -0.37    3.11
  -3 -10   1    5.00    0.92
  -3 -10   1    3.64    0.97
   3 -10  -1    7.70    3.21
  -2  11  -1    0.16    2.80
   2 -11   1    6.43    2.87
   1 -11   1   -4.29    2.14
  -1 -11  -1   -0.77    1.27
  -1 -11  -1    2.02    1.17
   0 -11   1   10.62    2.13
   0 -11   1   10.47    2.03
   0 -11  -1   13.36    1.99
  -1  11   1   40.52    3.63
  -1 -11   1   36.83    2.94
  -1 -11   1   42.53    2.83
   1 -11  -1   44.37    3.62
  -2  11   1   12.24    2.87
  -2 -11   1   13.19    1.50
  -2 -11   1    9.56    1.56
   2 -11  -1   14.83    3.04
  -1 -12  -1   -0.17    1.50
  -1 -12  -1    0.07    1.38
   1 -12   1    0.67    2.64
   0 -12  -1   15.70    2.41
   0 -12   1   18.70    2.72
   0 -12   1   17.10    2.65
  -1 -12   1    6.13    2.05
   1 -12  -1    2.17    2.48
  -1 -12   1    5.43    1.88
  -5   0  -2   -0.66    2.08
   5   0   2   -1.01    2.29
  -4   0  -2    7.26    1.62
   4   0   2    6.42    1.64
  -3   0  -2    0.24    0.80
   3   0   2    1.10    0.90
  -2   0  -2   59.21    1.97
   2   0   2   59.15    1.99
  -1   0  -2    0.08    0.34
   1   0   2    0.01    0.31
   0   0   2  265.91    4.51
  -1   0   2   -0.78    0.37
   1   0  -2   -0.27    0.38
   2   0  -2   68.75    2.33
  -2   0   2   70.95    2.43
  -3   0   2   -2.18    0.90
   3   0  -2   -0.06    1.04
  -4   0   2    3.74    1.68
   5   0  -2    0.43    2.55
  -5   0   2   -0.43    2.38
   5   1   2   12.94    2.48
  -5   1  -2   17.37    2.78
  -5  -1  -2   12.94    2.48
   5  -1   2   15.14    2.60
   4   1   2    2.06    1.34
  -4   1  -2    1.80    1.78
   4  -1   2    0.76    2.37
  -4  -1  -2    1.19    1.32
  -3   1  -2  206.08    5.11
   3   1   2  198.12    4.72
   3  -1   2  198.68    5.05
  -3  -1  -2  201.64    4.68
  -2   1  -2   41.43    1.77
   2   1   2   40.10    1.56
   2  -1   2   37.84    1.74
  -2  -1  -2   38.89    1.50
   1   1   2  510.95    7.85
  -1   1  -2  523.49    8.42
  -1  -1  -2  535.29    7.90
   1  -1   2  526.53    8.41
   0   1   2  330.15    5.10
   0   1  -2  331.08    5.34
   0  -1  -2  315.08    5.07
   0  -1   2  337.33    5.34
  -1   1   2  213.72    4.16
   1   1  -2  217.01    4.06
  -1  -1   2  223.78    4.11
   1  -1  -2  214.51    4.16
  -2   1   2    5.64    0.99
   2   1  -2    6.39    0.88
  -2  -1   2    5.97    0.89
   2  -1  -2    5.18    0.89
   3   1  -2   46.72    2.33
  -3   1   2   50.94    2.56
  -3  -1   2   47.46    2.39
   3  -1  -2   50.57    2.69
   4   1  -2   20.89    2.40
  -4   1   2   21.44    2.57
   4  -1  -2   23.13    2.85
  -4  -1   2   19.83    2.70
   5   1  -2   93.26    5.15
  -5   1   2  102.84    5.12
   5  -1  -2   95.02    5.40
  -5  -1   2   92.99    5.02
   5   2   2    6.87    2.34
  -5   2  -2   11.66    2.62
  -5  -2  -2   11.67    2.29
   5  -2   2   10.32    2.80
   4   2   2   31.95    2.51
  -4   2  -2   33.09    2.99
   4  -2   2   30.53    3.06
  -4  -2  -2   32.39    2.45
   3   2   2    1.38    0.75
  -3   2  -2    1.43    1.13
   3  -2   2   -0.84    0.97
  -3  -2  -2    2.05    0.81
   2   2   2  191.25    3.67
  -2   2  -2  188.52    4.42
  -2  -2  -2  191.11    3.63
   2  -2   2  184.31    4.37
   1   2   2    0.21    0.16
  -1   2  -2   -0.12    0.46
   1  -2   2   -0.02    0.44
   0   2   2   74.65    1.58
   0  -2  -2   74.74    1.58
   0  -2   2   72.22    1.85
   1   2  -2  900.01   13.61
  -1   2   2  908.95   13.90
  -1  -2   2  898.84   13.61
   1  -2  -2  888.83   13.85
  -2   2   2   35.73    1.90
   2   2  -2   35.79    1.65
  -2  -2   2   32.13    1.62
   2  -2  -2   36.48    1.93
   3   2  -2    6.08    1.19
  -3   2   2    5.47    1.42
   3  -2  -2    7.74    1.41
  -3  -2   2    6.22    1.23
  -4   2   2   16.04    2.43
   4   2  -2   14.52    1.99
  -4  -2   2   14.28    2.01
   4  -2  -2   17.22    2.36
  -5   2   2    4.31    2.71
   5   2  -2    8.01    2.52
   5  -2  -2   11.77    2.92
  -5  -2   2    8.58    2.36
   5   3   2    1.92    2.09
  -5   3  -2   -5.33    2.48
   5  -3   2    1.45    2.63
  -4   3  -2    5.84    1.88
   4   3   2    5.15    1.34
  -4  -3  -2    5.51    1.40
   4  -3   2    6.46    1.94
   3   3   2   16.61    1.40
  -3   3  -2   15.63    1.89
  -3  -3  -2   16.49    1.37
   3  -3   2   18.41    1.99
   2   3   2    2.31    0.45
  -2   3  -2    1.12    0.84
  -2  -3  -2    1.98    0.44
   2  -3   2    1.38    0.78
  -1   3  -2  126.43    3.16
   1  -3   2  120.58    3.08
   0   3   2  240.93    4.07
   0  -3   2  237.01    4.48
   0  -3  -2  238.79    4.05
   1   3  -2   34.62    1.34
  -1   3   2   31.81    1.53
   1  -3  -2   31.67    1.53
  -1  -3   2   31.86    1.34
   2   3  -2    6.76    0.91
  -2   3   2    4.99    1.08
   2  -3  -2    6.27    1.14
  -2  -3   2    3.91    0.84
  -3   3   2   57.11    2.97
   3   3  -2   51.98    2.42
  -3  -3   2   59.98    2.57
   3  -3  -2   58.56    2.91
  -4   3   2   58.11    3.88
   4   3  -2   59.76    3.29
  -4  -3   2   63.94    3.28
   4  -3  -2   68.62    3.99
  -5   3   2   26.16    3.72
   5   3  -2   28.34    3.68
   5  -3  -2   29.02    3.94
  -5  -3   2   30.63    3.67
  -5   4  -2   16.60    3.49
   5   4   2   30.65    3.37
   5  -4   2   29.18    4.23
  -5  -4  -2   25.81    3.20
  -4   4  -2   18.49    2.54
   4   4   2   20.77    2.05
   4  -4   2   19.19    2.57
  -4  -4  -2   21.38    2.02
   3   4   2   16.41    1.27
  -3   4  -2   16.15    2.30
   3  -4   2   14.30    1.95
  -3  -4  -2   15.26    1.22
   2   4   2   79.77    1.59
  -2   4  -2   84.62    3.09
  -2  -4  -2   80.60    1.57
   2  -4   2   81.75    3.00
  -1   4  -2  257.20    5.43
   1  -4   2  261.54    5.43
   0   4   2   62.41    1.67
   0  -4  -2   58.86    1.65
   0  -4   2   62.56    2.02
   1   4  -2  100.81    2.54
  -1   4   2  101.77    2.83
  -1  -4   2  102.08    2.56
   1  -4  -2  102.81    2.89
   2   4  -2  106.08    2.84
  -2   4   2  104.80    3.49
   2  -4  -2  103.45    3.41
  -2  -4   2  105.83    2.88
  -3   4   2    2.19    2.04
   3   4  -2    3.23    1.05
  -3  -4   2    4.25    1.07
   3  -4  -2    2.43    1.37
   4   4  -2   30.36    2.66
  -4   4   2   29.00    3.23
   4  -4  -2   30.98    3.42
  -4  -4   2   27.82    2.54
  -5   4   2   -2.82    2.99
   5   4  -2    0.85    2.28
   5  -4  -2    5.21    3.39
  -5  -4   2    3.59    2.36
  -5   5  -2    4.21    3.47
   5   5   2   -0.79    1.75
   5  -5   2   -5.80    3.37
  -5  -5  -2   -1.78    1.83
   4   5   2    4.18    1.14
  -4   5  -2    4.43    2.16
  -4  -5  -2    4.11    1.14
   4  -5   2   -2.46    2.03
   3   5   2   18.93    1.12
  -3   5  -2   19.92    2.43
  -3  -5  -2   16.63    1.09
   3  -5   2   23.15    2.48
  -2   5  -2    1.81    1.14
   2  -5   2    3.26    1.16
  -1   5  -2   30.41    1.81
  -1  -5  -2   32.75    0.66
   1  -5   2   31.48    1.78
   0   5   2    0.05    0.45
   0  -5  -2    0.82    0.50
   0  -5   2    0.82    0.62
  -1   5   2    7.95    1.14
  -1  -5   2    9.25    1.03
   1  -5  -2   11.99    1.29
  -2   5   2   35.26    2.28
   2   5  -2   39.46    1.79
   2  -5  -2   36.57    2.27
  -2  -5   2   38.34    1.79
   3   5  -2    2.05    0.98
  -3   5   2    1.25    1.54
  -3  -5   2   -1.36    0.91
   3  -5  -2    2.04    1.49
   4   5  -2   14.54    1.93
  -4   5   2   14.88    2.78
  -4  -5   2   11.17    1.84
   4  -5  -2   11.21    2.47
   5   5  -2   10.88    2.57
  -5   5   2   14.09    3.50
  -5  -5   2   10.84    2.54
   5  -5  -2    5.24    3.50
  -4   6  -2    1.47    2.26
   4   6   2    3.02    0.94
   4  -6   2    6.55    2.51
  -4  -6  -2    1.67    0.97
  -3   6  -2    2.40    1.78
   3  -6   2    6.90    1.88
  -2   6  -2    1.23    1.24
   2  -6   2    1.10    1.19
  -1   6  -2   20.83    1.86
  -1  -6  -2   18.16    0.73
  -1  -6  -2   17.97    0.72
   1  -6   2   20.01    1.69
   0   6   2   32.27    1.53
   0  -6   2   31.93    1.72
   0  -6  -2   32.35    1.48
  -1   6   2    7.05    1.15
  -1  -6   2    9.94    1.18
   1  -6  -2    7.01    1.14
  -1  -6   2    5.26    0.91
  -2   6   2    1.26    1.16
  -2  -6   2    2.16    0.88
   2  -6  -2    2.30    1.23
  -3   6   2   62.07    3.55
   3   6  -2   59.21    2.54
   3  -6  -2   61.52    3.73
  -3  -6   2   58.58    2.48
  -4   6   2   -1.69    2.24
   4   6  -2    0.91    1.45
   4  -6  -2    2.71    2.38
  -4  -6   2   -1.94    1.44
  -4   7  -2    0.55    2.76
   4  -7   2   -3.09    2.67
  -3   7  -2    2.71    1.87
   3  -7   2    1.81    1.90
  -2   7  -2   -0.30    1.75
   2  -7   2    4.16    2.52
  -1   7  -2    1.26    1.12
  -1  -7  -2    3.56    0.53
   1  -7   2    3.88    1.25
  -1  -7  -2    3.33    0.55
   0   7   2    0.31    0.72
   0  -7  -2    0.78    0.71
   0  -7   2    1.88    0.89
  -1   7   2    4.38    1.15
  -1  -7   2    3.92    0.97
  -1  -7   2    4.11    0.96
   1  -7  -2    4.70    1.19
  -2   7   2   12.63    1.89
   2  -7  -2    8.04    1.69
  -2  -7   2   11.49    1.51
   3   7  -2   -0.03    1.00
  -3   7   2   -1.82    1.70
   3  -7  -2   -1.08    1.78
  -3  -7   2    0.41    1.02
  -4   7   2    6.82    2.76
   4   7  -2    8.80    1.71
   4  -7  -2   10.39    3.11
  -4  -7   2    8.39    1.79
  -4   8  -2    0.55    3.09
   4  -8   2   -6.08    2.95
  -3   8  -2   14.45    2.74
   3  -8   2   12.64    2.59
  -2   8  -2   18.92    2.54
   2  -8   2   16.08    2.34
  -1   8  -2    2.30    1.24
   1  -8   2    0.13    1.18
  -1  -8  -2    0.70    0.57
  -1  -8  -2    0.37    0.56
   0   8   2    2.31    0.98
   0  -8  -2    1.08    0.86
   0  -8   2    1.88    1.13
  -1   8   2   -1.14    1.15
  -1  -8   2   -0.07    0.99
   1  -8  -2    0.25    1.12
  -1  -8   2    0.08    0.89
  -2   8   2    1.92    1.64
  -2  -8   2    1.30    1.00
   2  -8  -2    0.61    1.49
  -2  -8   2    1.17    0.95
  -3   8   2    3.58    2.20
  -3  -8   2    4.56    1.30
   3  -8  -2    3.76    2.28
  -4   8   2    3.61    2.91
   4  -8  -2   -3.07    3.13
  -4  -8   2   -0.99    1.61
  -3   9  -2    2.51    2.65
   3  -9   2    3.92    2.64
  -2   9  -2   10.78    2.53
   2  -9   2   15.22    2.45
  -1  -9  -2    0.00    0.73
   1  -9   2   -0.05    1.70
  -1  -9  -2    1.09    0.70
   0  -9  -2    1.45    1.04
   0  -9   2    0.42    1.26
  -1   9   2   -0.53    1.41
   1  -9  -2   -1.49    1.25
  -1  -9   2    0.63    1.11
  -1  -9   2    3.03    1.30
  -2   9   2    3.75    1.90
   2  -9  -2    3.75    1.94
  -2  -9   2    2.72    1.20
  -2  -9   2    3.07    1.10
  -3   9   2    6.05    2.75
   3  -9  -2    3.18    2.64
  -3  -9   2    3.44    1.27
  -3  -9   2    1.85    1.28
  -3  10  -2   10.73    3.22
   3 -10   2   13.67    3.64
  -2  10  -2    5.30    2.55
   2 -10   2    9.41    2.58
  -1 -10  -2    7.53    1.00
   1 -10   2    6.44    1.96
  -1 -10  -2    6.62    1.10
   0 -10  -2    2.31    1.37
   0 -10   2    2.61    1.52
   0 -10   2    2.56    1.68
  -1  10   2    3.19    1.89
  -1 -10   2    2.71    1.48
  -1 -10   2    4.20    1.45
   1 -10  -2    5.50    1.92
  -2  10   2    1.27    2.35
  -2 -10   2    0.05    1.34
   2 -10  -2   -1.22    2.08
  -2 -10   2    1.82    1.32
  -3  10   2   -4.95    3.06
   3 -10  -2    3.51    2.94
  -3 -10   2    2.01    1.36
  -3 -10   2    1.78    1.29
   2 -11   2   11.10    3.15
  -1 -11  -2    2.56    1.12
   1 -11   2   -0.37    2.17
  -1 -11  -2    3.25    1.01
   0 -11   2    3.76    2.23
   0 -11   2    6.58    3.25
   0 -11  -2    3.44    1.63
  -1  11   2    8.43    2.24
   1 -11  -2    8.56    2.29
  -1 -11   2   10.54    1.99
  -2  11   2    2.39    2.64
   2 -11  -2   -0.76    2.62
  -2 -11   2    2.62    1.63
  -2 -11   2    1.63    1.46
   1 -12   2   30.08    3.58
  -1 -12  -2   34.26    2.16
  -1 -12  -2   29.36    2.24
   0 -12   2    1.48    2.42
   0 -12   2    1.27    2.19
   0 -12  -2   -1.67    1.80
  -1 -12   2    3.18    1.99
  -1 -12   2    4.38    2.11
   1 -12  -2    5.88    2.63
   5   0   3   -0.74    2.07
  -5   0  -3    5.93    2.36
   4   0   3    1.51    1.52
  -4   0  -3   -3.18    1.28
   3   0   3    4.30    1.05
  -3   0  -3    2.71    0.97
  -2   0  -3    0.48    0.59
   2   0   3   -0.34    0.55
   1   0   3   39.69    1.35
   0   0   3    0.07    0.32
   0   0  -3   -0.08    0.29
   1   0  -3  107.42    2.67
  -1   0   3  109.48    2.70
  -2   0   3    0.34    0.70
   2   0  -3    0.23    0.67
   3   0  -3   42.11    2.46
  -3   0   3   47.20    2.64
   4   0  -3    2.07    1.60
  -4   0   3    1.56    1.65
   5   0  -3   18.28    3.05
  -5   0   3   16.48    3.05
   5   1   3   -1.80    2.09
  -5   1  -3   -0.62    2.39
   5  -1   3   -4.99    2.43
  -5  -1  -3   -2.62    2.09
  -4   1  -3    0.85    1.92
   4   1   3    0.52    1.31
  -4  -1  -3    1.23    1.32
   4  -1   3    0.03    2.72
  -3   1  -3    4.29    1.20
   3   1   3    3.38    1.01
   3  -1   3    5.58    1.18
  -3  -1  -3    2.69    0.95
   2   1   3    2.49    0.59
  -2   1  -3    2.25    0.82
   2  -1   3    2.38    0.74
  -2  -1  -3    2.23    0.59
  -1   1  -3   44.25    1.57
   1   1   3   46.50    1.28
   1  -1   3   44.43    1.56
   0   1  -3   11.24    0.81
   0   1   3   10.84    0.69
   0  -1  -3   10.72    0.69
   0  -1   3   10.16    0.76
  -1   1   3   60.80    1.97
   1   1  -3   60.60    1.88
   1  -1  -3   59.66    1.92
   2   1  -3    1.31    0.68
  -2   1   3    1.83    0.88
   2  -1  -3   -0.28    0.70
  -2  -1   3    0.47    0.69
  -3   1   3    1.15    1.11
   3   1  -3    0.36    1.02
  -3  -1   3   -2.05    1.02
   3  -1  -3    0.34    1.04
  -4   1   3    6.10    2.01
  -4  -1   3    5.09    1.78
   4  -1  -3    5.60    1.88
   5   1  -3    9.14    2.72
  -5   1   3    8.60    2.99
   5  -1  -3    4.39    2.87
  -5  -1   3    3.45    2.55
  -5   2  -3    2.99    2.59
   5   2   3    0.51    2.15
  -5  -2  -3   -2.02    1.98
   5  -2   3    0.26    2.48
  -4   2  -3   38.84    3.21
   4   2   3   37.27    2.48
   4  -2   3   35.73    3.15
  -4  -2  -3   36.99    2.54
  -3   2  -3   36.31    2.32
   3   2   3   41.39    1.99
   3  -2   3   38.52    2.37
  -3  -2  -3   40.70    1.94
   2   2   3   53.34    1.64
  -2   2  -3   51.10    2.26
  -2  -2  -3   53.65    1.63
   2  -2   3   50.71    2.24
   1   2   3   68.27    1.41
  -1   2  -3   67.93    2.19
   1   2   3   69.04    1.43
   1  -2   3   69.83    2.16
   0   2   3   40.86    1.24
   0  -2   3   39.18    1.50
   0  -2  -3   40.97    1.24
   1   2  -3   24.83    1.23
  -1   2   3   26.12    1.39
   1  -2  -3   24.20    1.36
  -1  -2   3   26.90    1.27
   2   2  -3   45.43    1.96
  -2   2   3   46.37    2.18
  -2  -2   3   46.83    2.03
   2  -2  -3   42.07    2.05
  -3   2   3    3.49    1.32
   3   2  -3    1.05    1.05
  -3  -2   3    1.68    1.14
   3  -2  -3    1.09    1.10
   4   2  -3   -2.16    1.47
  -4   2   3    5.03    2.00
   4  -2  -3   -0.47    1.78
  -4  -2   3   -0.23    1.84
  -5   2   3    6.31    3.01
   5   2  -3    7.85    2.58
   5  -2  -3    4.83    2.94
  -5  -2   3    2.99    2.47
  -5   3  -3    6.79    2.89
   5   3   3    4.65    2.16
  -5  -3  -3    5.93    2.16
   5  -3   3   11.79    2.88
  -4   3  -3    3.93    1.87
   4   3   3    3.02    1.31
   4  -3   3    5.33    2.04
  -4  -3  -3    3.48    1.25
   3   3   3   -0.53    0.68
  -3   3  -3   -0.83    1.16
  -3  -3  -3    0.50    0.73
   3  -3   3    0.71    1.31
   2   3   3   54.38    1.43
  -2   3  -3   52.48    2.38
   2  -3   3   54.49    2.35
  -2  -3  -3   54.05    1.44
  -1   3  -3   -0.69    0.58
   1  -3   3    0.08    0.62
   0   3   3  116.58    2.44
   0  -3   3  115.78    2.86
   0  -3  -3  113.92    2.42
  -1   3   3    0.74    0.59
   1   3  -3   -0.89    0.49
   1  -3  -3    0.68    0.55
  -1  -3   3    0.04    0.56
   2   3  -3    5.27    0.88
  -2   3   3    4.74    1.10
  -2  -3   3    4.13    0.90
   2  -3  -3    5.01    1.00
  -3   3   3    1.05    1.32
   3   3  -3    0.61    1.01
  -3  -3   3    0.56    0.99
   3  -3  -3    2.89    1.36
  -4   3   3   16.96    2.60
   4   3  -3   19.88    2.59
  -4  -3   3   19.17    2.28
   4  -3  -3   16.16    2.46
  -5   3   3    0.57    2.76
   5   3  -3   -1.53    2.33
  -5  -3   3   -2.98    2.30
   5  -3  -3    1.96    2.80
   5   4   3    3.68    1.95
  -5   4  -3    1.48    3.13
  -5  -4  -3    4.36    1.95
   5  -4   3    2.25    3.15
  -4   4  -3   22.86    2.90
   4   4   3   21.71    2.04
  -4  -4  -3   19.92    2.00
   4  -4   3   23.68    2.86
   3   4   3    1.71    0.66
   3  -4   3    1.86    1.38
  -3  -4  -3    1.70    0.66
  -2   4  -3    2.47    1.04
   2  -4   3    4.42    1.08
  -1   4  -3   65.47    2.43
   1  -4   3   64.69    2.40
   0   4   3   22.36    1.07
   0  -4   3   21.22    1.34
   0  -4   3   23.34    1.35
   0  -4  -3   22.23    1.06
  -1   4   3   25.57    1.56
   1   4  -3   27.15    1.42
  -1  -4   3   26.96    1.47
   1  -4  -3   24.66    1.53
  -2   4   3    3.86    1.18
   2   4  -3    9.44    1.22
  -2  -4   3    6.64    1.06
   2  -4  -3    7.74    1.31
   3   4  -3   -0.05    1.00
  -3   4   3    0.27    2.31
  -3  -4   3   -0.07    0.99
   3  -4  -3   -0.83    2.07
   4   4  -3   19.07    2.21
  -4   4   3   24.68    3.02
  -4  -4   3   18.84    2.27
   4  -4  -3   24.81    2.99
   5   4  -3    1.35    2.36
  -5   4   3   -0.23    3.31
  -5  -4   3    2.70    2.60
   5  -4  -3    1.32    3.04
  -5   5  -3    3.63    3.41
   5   5   3    4.02    1.74
   5  -5   3   -1.25    3.47
  -5  -5  -3    2.14    1.77
   4   5   3    2.56    1.02
  -4   5  -3    2.10    2.19
   4  -5   3    1.30    2.30
  -4  -5  -3    1.96    1.02
   3   5   3   37.04    1.16
  -3   5  -3   40.40    2.93
   3  -5   3   31.81    3.01
  -2   5  -3    4.30    1.29
   2  -5   3    2.01    1.16
  -1   5  -3   50.67    2.37
   1  -5   3   44.78    2.16
   0   5   3    1.63    0.54
   0  -5   3    3.89    0.87
   0  -5  -3    1.94    0.53
  -1   5   3    0.29    0.71
  -1  -5   3    0.76    0.71
   1  -5  -3    0.83    0.75
   2   5  -3   16.45    1.50
  -2   5   3   18.80    2.03
   2  -5  -3   18.66    2.04
  -2  -5   3   18.15    1.63
   3   5  -3    2.21    1.12
  -3   5   3    3.30    1.62
  -3  -5   3    3.57    1.25
   3  -5  -3    2.62    1.52
  -4   5   3   41.96    3.86
   4   5  -3   42.00    2.95
  -4  -5   3   43.37    3.19
   4  -5  -3   47.73    3.79
   5   5  -3   13.57    2.77
  -5   5   3    4.21    3.45
   5  -5  -3   10.26    3.72
  -5  -5   3   16.29    2.94
  -4   6  -3    1.30    2.33
   4   6   3    0.14    0.66
   4  -6   3   -1.36    2.47
  -3   6  -3   14.96    2.42
   3  -6   3   17.19    2.40
  -2   6  -3   14.32    1.93
   2  -6   3   12.98    1.81
  -1   6  -3   25.13    1.90
   1  -6   3   22.42    1.98
   0   6   3    0.86    0.61
   0  -6   3    0.42    0.77
   0  -6  -3    0.56    0.57
  -1   6   3    8.02    1.27
   1  -6  -3    7.78    1.20
  -1  -6   3    8.63    1.21
   2   6  -3    1.73    0.88
  -2   6   3    1.87    1.22
   2  -6  -3    3.42    1.24
  -2  -6   3    1.80    0.95
  -3   6   3  119.01    4.76
   3   6  -3  124.35    3.84
  -3  -6   3  124.24    3.85
   3  -6  -3  121.37    4.72
  -4   6   3   12.43    3.02
   4   6  -3   11.62    1.90
  -4  -6   3   12.81    2.07
   4  -6  -3   10.98    2.70
  -4   7  -3    4.32    2.80
   4  -7   3    7.50    3.14
  -3   7  -3   30.91    3.34
   3  -7   3   40.25    3.77
  -2   7  -3    5.38    1.63
   2  -7   3    7.36    1.82
  -1  -7  -3    3.16    0.42
   1  -7   3    2.57    1.23
  -1  -7  -3    3.03    0.40
   0   7   3   85.12    2.58
   0  -7   3   83.42    3.05
   0  -7  -3   83.52    2.53
  -1   7   3   18.36    1.83
  -1  -7   3   19.63    1.78
   1  -7  -3   20.10    1.81
  -1  -7   3   17.13    1.68
  -2   7   3    1.55    1.45
  -2  -7   3    2.79    1.11
   2  -7  -3    2.35    1.52
   3   7  -3    4.64    1.37
  -3   7   3    8.58    2.19
  -3  -7   3    5.57    1.40
   3  -7  -3    4.03    2.12
   4   7  -3   -1.52    1.63
  -4   7   3    0.44    2.65
  -4  -7   3    3.46    1.82
   4  -7  -3    2.39    2.63
  -4   8  -3   -0.38    3.54
   4  -8   3   -3.20    3.27
  -3   8  -3    2.95    2.22
   3  -8   3   -1.38    2.45
  -2   8  -3   16.70    2.38
   2  -8   3   10.93    2.19
  -1  -8  -3   18.81    0.95
  -1  -8  -3   20.41    0.98
   1  -8   3   22.13    2.44
   0   8   3    7.95    1.16
   0  -8  -3    8.02    1.12
   0  -8   3    7.72    1.52
   0  -8   3    5.89    1.36
  -1   8   3    1.87    1.25
   1  -8  -3    2.16    1.24
  -1  -8   3    3.40    1.11
  -1  -8   3    1.47    1.15
  -2   8   3   24.64    2.64
   2  -8  -3   27.37    2.86
  -2  -8   3   25.75    2.15
  -3   8   3   34.40    3.87
   3  -8  -3   34.01    3.95
  -3  -8   3   34.32    2.64
  -4   8   3    8.01    3.57
   4   8  -3   14.06    2.15
  -4  -8   3   13.95    2.21
   4  -8  -3   15.95    3.33
  -3   9  -3    5.16    2.74
   3  -9   3    0.98    2.73
  -2   9  -3   23.52    2.96
   2  -9   3   22.05    2.91
  -1  -9  -3    4.93    0.68
   1  -9   3    3.97    1.77
  -1  -9  -3    5.69    0.75
   0   9   3   11.95    1.50
   0  -9   3   16.16    1.97
   0  -9   3   11.29    1.93
   0  -9  -3   14.11    1.73
  -1   9   3   17.81    2.39
  -1  -9   3   21.57    2.34
  -1  -9   3   15.99    1.85
   1  -9  -3   17.08    2.33
  -2   9   3    8.75    2.16
   2  -9  -3   10.85    2.16
  -2  -9   3   13.20    1.71
  -2  -9   3   14.66    1.74
  -3   9   3   16.18    3.27
   3  -9  -3    8.22    2.96
  -3  -9   3   11.29    1.85
  -3  10  -3   -3.49    3.18
   3 -10   3    2.82    3.24
   2 -10   3    3.15    2.60
   1 -10   3   17.41    2.49
  -1 -10  -3   11.18    1.27
  -1 -10  -3   13.02    1.20
   0 -10   3   -1.74    1.90
   0 -10  -3    0.69    1.24
   0 -10   3    1.04    1.57
  -1  10   3   14.51    2.13
   1 -10  -3   12.85    2.08
  -1 -10   3   11.17    1.98
  -1 -10   3   12.88    1.84
  -2  10   3   47.19    4.11
   2 -10  -3   52.82    4.15
  -2 -10   3   47.71    2.92
  -2 -10   3   54.66    3.14
  -3  10   3    9.15    3.22
   3 -10  -3    3.53    3.09
  -3 -10   3    3.08    1.67
  -3 -10   3    3.22    1.77
   2 -11   3    9.23    3.03
   1 -11   3    1.36    2.38
  -1 -11  -3    2.29    0.89
  -1 -11  -3    3.71    0.93
   0 -11  -3    2.32    1.48
   0 -11   3    1.31    2.14
   0 -11   3    1.51    1.96
  -1  11   3   33.23    3.54
  -1 -11   3   31.63    3.13
   1 -11  -3   35.79    3.45
  -1 -11   3   36.39    3.40
  -2  11   3    4.18    2.84
  -2 -11   3    7.96    1.84
   2 -11  -3    4.40    2.80
  -2 -11   3    8.05    2.00
  -1 -12  -3   15.67    1.44
  -1 -12  -3   16.30    1.53
   1 -12   3   20.41    3.26
   0 -12  -3    7.71    1.94
   0 -12   3    7.60    2.64
   0 -12   3    5.00    2.47
  -1  12   3    1.79    2.48
   1 -12  -3    0.95    2.49
  -1 -12   3    4.50    3.06
  -5   0  -4    5.54    2.48
   5   0   4   -0.65    2.35
  -4   0  -4   93.99    3.85
   4   0   4   87.04    3.80
   3   0   4    0.95    0.88
  -3   0  -4    0.39    0.94
  -2   0  -4   -0.45    0.65
   2   0   4    0.35    0.58
   1   0   4    0.10    0.44
   0   0  -4   87.84    2.24
   0   0   4   85.25    2.19
   1   0  -4    1.09    0.55
  -1   0   4    0.92    0.55
  -2   0   4   52.17    2.35
   2   0  -4   51.55    2.25
   3   0  -4   -0.76    1.08
  -3   0   4    0.44    1.13
  -4   0   4    6.58    2.05
   4   0  -4    4.45    1.82
   5   0  -4    4.03    2.84
  -5   0   4   -0.46    2.54
  -5   1  -4   15.08    2.84
   5   1   4    9.34    2.45
  -5  -1  -4    9.86    2.38
   5  -1   4   11.05    2.88
   4   1   4    5.09    1.50
  -4   1  -4    1.83    1.54
  -4  -1  -4    1.68    1.41
   3   1   4    1.21    0.91
  -3   1  -4    1.25    1.06
   3  -1   4    1.90    0.97
  -3  -1  -4    1.80    0.93
  -2   1  -4   77.53    2.62
   2   1   4   72.88    2.19
   2  -1   4   73.51    2.49
  -2  -1  -4   73.16    2.24
   1   1   4   24.37    1.05
   1   1   4   24.93    1.06
   1  -1   4   24.01    1.35
   0   1   4   75.69    1.98
   0   1  -4   72.45    2.09
   0  -1  -4   75.59    1.96
   0  -1   4   75.87    2.13
   1   1  -4    1.46    0.59
  -1   1   4    1.04    0.63
   1  -1  -4    1.24    0.65
  -1  -1   4    2.34    0.70
   2   1  -4  104.15    3.24
  -2   1   4  109.80    3.36
  -2  -1   4  101.16    3.17
   2  -1  -4  108.54    3.32
  -3   1   4   60.08    2.95
   3   1  -4   61.36    2.89
  -3  -1   4   57.38    2.81
   3  -1  -4   60.33    3.01
   4   1  -4    3.61    1.62
  -4   1   4    1.28    1.92
  -4  -1   4    3.26    1.73
   4  -1  -4    3.58    1.75
   5   1  -4    3.33    2.70
  -5   1   4    2.70    2.62
  -5  -1   4   -3.04    2.47
   5  -1  -4    4.35    2.95
  -5   2  -4   11.44    3.02
   5   2   4    4.75    2.31
   5  -2   4   10.60    2.80
  -5  -2  -4    7.16    2.31
   4   2   4    0.27    1.35
  -4   2  -4   -1.15    1.70
  -4  -2  -4    2.29    1.34
   4  -2   4   -1.67    1.66
  -3   2  -4   55.80    2.90
   3   2   4   60.31    2.34
   3  -2   4   51.82    2.68
  -3  -2  -4   56.06    2.25
  -2   2  -4   57.12    2.38
   2   2   4   56.96    1.72
   2  -2   4   54.56    2.37
   1   2   4   45.77    1.30
   1  -2   4   46.41    1.88
   0   2   4    3.59    0.55
   0  -2  -4    2.97    0.55
   0  -2   4    3.32    0.70
  -1   2   4   26.67    1.43
   1   2  -4   29.26    1.52
   1  -2  -4   28.45    1.48
  -1  -2   4   28.46    1.47
  -2   2   4   57.86    2.51
   2   2  -4   54.42    2.24
   2  -2  -4   52.97    2.39
  -2  -2   4   56.88    2.36
   3   2  -4   10.19    1.64
  -3   2   4    9.01    1.74
  -3  -2   4    9.24    1.51
   3  -2  -4   15.21    1.95
   4   2  -4   34.26    3.18
  -4   2   4   34.87    3.30
   4  -2  -4   38.03    3.50
  -4  -2   4   37.90    3.20
   5   2  -4   34.88    4.22
  -5   2   4   41.29    5.02
   5  -2  -4   36.89    5.01
  -5  -2   4   32.62    4.44
   5   3   4    0.20    1.97
  -5   3  -4   -6.76    2.86
  -5  -3  -4   -0.31    1.93
   5  -3   4   -0.13    2.76
   4   3   4   17.60    1.81
  -4   3  -4   17.77    2.63
   4  -3   4   18.76    2.57
  -4  -3  -4   15.62    2.06
   3   3   4   11.95    1.31
  -3   3  -4   12.65    1.80
  -3  -3  -4   11.98    1.31
   3  -3   4   12.86    1.76
  -2   3  -4   40.84    2.27
   2   3   4   42.61    1.32
   2  -3   4   44.08    2.31
   1   3   4   39.66    1.04
   1  -3   4   40.31    1.92
   0   3   4    1.85    0.47
   0  -3  -4    1.36    0.48
   0  -3   4    2.71    0.73
  -1   3   4  113.17    3.10
   1   3  -4  111.59    3.04
  -1  -3   4  120.30    3.17
   1  -3  -4  114.10    3.12
   2   3  -4   14.65    1.48
  -2   3   4   12.53    1.59
   2  -3  -4   14.54    1.74
  -2  -3   4   11.23    1.48
  -3   3   4   66.64    3.89
   3   3  -4   66.83    2.99
   3  -3  -4   68.82    3.32
  -3  -3   4   64.63    2.93
  -4   3   4    6.63    2.17
   4  -3  -4   12.75    2.36
  -4  -3   4    3.36    1.98
  -5   3   4   -3.89    2.84
   5   3  -4   -1.02    2.51
   5  -3  -4   -0.47    2.88
  -5  -3   4    4.19    2.50
   5   4   4    6.42    1.93
  -5   4  -4    2.67    3.18
   5  -4   4   -4.46    2.87
  -5  -4  -4    0.48    1.93
  -4   4  -4   30.81    3.33
   4   4   4   30.39    2.13
   4  -4   4   33.62    3.41
  -4  -4  -4   30.02    2.16
   3   4   4    7.91    1.06
  -3   4  -4    9.38    1.88
  -2   4  -4   12.70    1.70
   2  -4   4    9.51    1.45
   1   4   4    8.00    0.39
   1  -4   4    8.65    1.25
   0   4   4   10.99    0.92
   0  -4   4   11.39    1.28
   0  -4  -4   10.34    0.90
   1   4  -4    7.15    1.03
  -1   4   4    6.49    1.07
   1  -4  -4    6.93    0.98
  -1  -4   4    6.44    1.01
  -2   4   4   21.49    1.96
   2   4  -4   21.04    1.61
  -2  -4   4   20.60    1.67
   2  -4  -4   21.18    1.87
   3   4  -4   20.18    2.07
  -3   4   4   14.86    2.26
  -3  -4   4   19.09    2.04
   3  -4  -4   18.19    2.38
  -4   4   4    4.25    2.39
   4   4  -4    4.94    1.87
   4  -4  -4    7.58    2.26
   5   4  -4    4.34    2.67
  -5   4   4   -1.74    3.13
  -5  -4   4    0.65    2.64
   5  -4  -4   10.75    3.39
  -5   5  -4    4.05    3.62
   5   5   4   -0.46    1.61
   5  -5   4   10.64    3.65
  -5  -5  -4   10.71    1.88
   4   5   4   19.14    1.61
  -4   5  -4   15.13    2.73
   4  -5   4   19.32    3.01
  -3   5  -4    6.43    1.84
   3  -5   4    5.55    1.73
  -2   5  -4   34.16    2.44
   2  -5   4   33.48    2.53
   1  -5   4   12.32    1.53
   0   5   4   11.87    1.03
   0  -5  -4   12.43    1.02
   0  -5   4   11.85    1.44
   0  -5   4   12.06    1.40
  -1   5   4    4.16    0.96
  -1  -5   4    4.37    1.05
   1  -5  -4    4.53    0.97
  -2   5   4    0.39    1.08
   2   5  -4    1.62    0.92
  -2  -5   4    0.77    0.92
   2  -5  -4    2.03    1.09
  -3   5   4   -0.30    1.53
   3   5  -4    0.84    1.19
  -3  -5   4    2.07    1.27
   3  -5  -4    1.73    1.57
  -4   5   4   12.79    2.68
   4   5  -4   15.59    2.25
   4  -5  -4   14.14    2.74
  -4  -5   4   16.04    2.78
   5   5  -4    1.36    2.61
  -5  -5   4    1.94    2.78
   5  -5  -4    4.33    4.24
  -4   6  -4   -0.30    2.53
   4  -6   4    0.45    2.41
  -3   6  -4   30.83    3.09
   3  -6   4   33.29    3.00
   2  -6   4   39.62    2.67
   1  -6   4   60.16    2.77
   0   6   4    2.94    0.73
   0  -6   4    3.88    1.08
   0  -6  -4    3.70    0.81
   0  -6   4    3.45    1.12
  -1   6   4   25.37    1.83
  -1  -6   4   24.28    1.79
   1  -6  -4   23.67    1.72
  -2   6   4    3.72    1.46
   2   6  -4    3.18    1.11
   2  -6  -4    4.56    1.31
  -2  -6   4    2.50    1.13
  -3   6   4    1.12    1.84
   3   6  -4    0.37    1.28
   3  -6  -4    2.00    1.70
  -3  -6   4    2.72    1.37
  -4   6   4    2.15    2.67
   4   6  -4   -0.79    1.81
  -4  -6   4    2.42    1.87
   4  -6  -4    4.94    2.56
  -4   7  -4    2.23    2.84
   4  -7   4    4.21    3.11
  -3   7  -4   16.10    2.65
   3  -7   4   16.38    2.64
  -2   7  -4    6.52    1.80
   2  -7   4    7.69    1.82
   1  -7   4   15.58    1.99
   0   7   4   26.10    1.61
   0  -7   4   28.19    2.18
   0  -7  -4   27.44    1.60
   0  -7   4   29.90    2.33
  -1   7   4    1.81    1.15
   1  -7  -4    1.97    1.05
  -1  -7   4    2.18    1.06
  -1  -7   4    2.48    1.12
  -2   7   4   35.76    3.32
   2  -7  -4   42.33    2.86
  -2  -7   4   36.67    2.36
  -3   7   4    2.01    2.01
   3   7  -4    2.74    1.39
  -3  -7   4    0.28    1.44
   3  -7  -4   -1.46    1.81
  -4   7   4   -2.89    2.65
   4   7  -4   -1.72    1.87
  -4  -7   4    0.48    1.95
   4  -7  -4   -0.55    2.86
  -4   8  -4    5.34    3.39
   4  -8   4   -6.11    3.19
  -3   8  -4    5.14    2.59
   3  -8   4    4.36    2.43
  -2   8  -4    0.30    1.74
   2  -8   4    4.79    1.92
   1  -8   4    1.00    1.62
   0   8   4   31.26    1.89
   0  -8   4   28.32    2.40
   0  -8  -4   30.91    1.85
   0  -8   4   32.06    2.52
  -1   8   4   14.87    1.82
  -1  -8   4   14.49    1.81
   1  -8  -4   15.92    1.98
  -1  -8   4   15.16    2.02
  -2   8   4    0.40    1.69
  -2  -8   4    0.25    1.25
   2  -8  -4    0.32    1.49
  -3   8   4    4.92    2.39
   3  -8  -4    2.62    2.28
  -3  -8   4    2.60    1.66
   4   8  -4    0.06    1.96
  -4   8   4    3.48    3.31
  -4  -8   4    0.82    2.12
   4  -8  -4    0.78    3.48
  -3   9  -4   11.42    3.04
   3  -9   4    8.81    2.99
   2  -9   4   17.26    2.61
  -1  -9  -4    0.84    0.41
  -1  -9  -4    0.72    0.42
   1  -9   4   -2.34    1.57
   0   9   4    0.26    1.03
   0  -9   4    2.30    1.41
   0  -9   4   -0.59    1.55
   0  -9  -4    1.15    1.04
  -1   9   4    4.38    1.60
   1  -9  -4    2.08    1.46
  -1  -9   4    5.84    1.58
  -1  -9   4    2.64    1.41
  -2   9   4   -2.32    1.95
  -2  -9   4    2.17    1.48
   2  -9  -4    3.35    1.85
  -2  -9   4    3.21    1.55
  -3   9   4    0.37    2.70
  -3  -9   4   -0.48    1.77
   3  -9  -4   -1.52    2.53
  -3  10  -4   -3.52    3.22
   3 -10   4    5.69    3.52
   2 -10   4    5.04    2.54
  -1 -10  -4   32.95    0.95
   1 -10   4   30.84    3.61
   0  10   4    4.06    1.30
   0 -10  -4    5.32    1.38
   0 -10   4    2.86    1.87
   0 -10   4    3.18    1.96
  -1  10   4    1.99    1.80
  -1 -10   4   -1.09    1.66
   1 -10  -4   -1.22    1.60
  -2  10   4    3.23    2.39
  -2 -10   4   -0.17    1.63
   2 -10  -4    0.96    2.20
  -2 -10   4    0.22    1.71
  -3  10   4    0.04    3.10
  -3 -10   4    0.92    1.89
   3 -10  -4   -0.94    3.09
  -3 -10   4    4.25    2.10
   2 -11   4   -3.35    3.05
   1 -11   4    4.02    2.50
   0 -11   4   -0.70    2.03
   0 -11   4   -0.50    2.09
   0 -11  -4    2.83    1.54
  -1  11   4    3.28    2.02
  -1 -11   4   -3.93    3.43
  -1 -11   4    3.51    2.18
   1 -11  -4   -0.20    1.99
  -2  11   4   -0.30    2.88
  -2 -11   4    6.59    2.07
  -2 -11   4    7.19    2.24
   2 -11  -4    7.56    2.86
   1 -12   4    6.26    3.12
   0 -12   4    6.78    2.80
   0 -12   4   11.06    2.88
   0 -12  -4    2.87    1.85
  -1  12   4   16.48    2.92
   1 -12  -4   24.32    3.10
  -1 -12   4   13.35    2.65
  -1 -12   4   16.20    3.00
  -5   0  -5   82.25    4.95
   5   0   5   80.71    4.88
   4   0   5   -0.87    1.49
  -4   0  -5   -0.34    1.54
   3   0   5   60.51    2.67
  -3   0  -5   56.18    2.73
   2   0   5    0.09    0.64
   1   0   5   18.13    1.18
   0   0   5    0.35    0.54
   0   0  -5   -0.59    0.43
  -1   0   5   37.70    1.80
   1   0  -5   34.52    1.70
  -2   0   5    0.56    0.84
   2   0  -5    0.30    0.90
   3   0  -5  138.64    4.53
  -3   0   5  139.99    4.50
  -4   0   5   -0.58    1.76
   4   0  -5    1.67    1.84
   5   0  -5    2.23    3.00
  -5   0   5    5.45    2.90
   5   1   5   16.09    2.80
  -5   1  -5   13.84    2.92
   5  -1   5   20.65    3.24
  -5  -1  -5   18.06    2.94
  -4   1  -5   32.40    3.01
   4   1   5   31.41    2.74
  -4  -1  -5   32.25    2.69
   4  -1   5   36.96    3.08
   3   1   5   54.31    2.41
  -3   1  -5   57.30    2.86
  -3  -1  -5   55.34    2.50
   3  -1   5   48.50    2.58
  -2   1  -5    3.55    0.93
   2   1   5    1.32    0.61
   2  -1   5    2.43    0.83
   1   1   5  117.03    2.74
   1  -1   5  113.65    3.02
   0   1  -5   17.64    1.26
   0   1   5   20.78    1.15
   0  -1   5   19.61    1.30
   0  -1  -5   22.06    1.14
  -1   1   5  158.18    3.84
   1   1  -5  149.76    3.74
  -1  -1   5  155.90    3.82
   1  -1  -5  152.06    3.74
  -2   1   5   18.58    1.76
   2   1  -5   19.79    1.72
   2  -1  -5   18.20    1.68
  -2  -1   5   15.63    1.69
   3   1  -5    4.38    1.46
  -3   1   5   -0.10    1.39
  -3  -1   5    3.41    1.32
   3  -1  -5    1.32    1.31
  -4   1   5    0.51    2.00
   4   1  -5   -2.30    1.72
   4  -1  -5   -1.10    1.82
  -4  -1   5   -0.46    1.78
  -5   1   5    7.94    3.16
   5   1  -5    4.42    3.09
  -5  -1   5   11.18    3.00
   5  -1  -5    9.10    3.00
   5   2   5    2.48    2.18
  -5   2  -5    1.45    2.80
  -5  -2  -5    4.11    2.28
   5  -2   5    0.50    2.62
  -4   2  -5    7.69    2.02
   4   2   5   10.11    1.65
   4  -2   5   10.10    2.09
  -4  -2  -5    9.21    1.70
  -3   2  -5   10.41    1.74
   3   2   5   10.12    1.23
  -3  -2  -5   11.41    1.29
   3  -2   5   10.21    1.65
   2   2   5   37.64    1.51
  -2   2  -5   34.56    2.00
   2  -2   5   35.63    2.00
   1   2   5   53.03    1.59
   1  -2   5   54.49    2.20
   0   2   5    0.05    0.45
   0   2  -5   -0.98    0.52
   0  -2   5   -0.09    0.56
   0  -2  -5   -0.39    0.48
  -1   2   5   49.81    2.03
   1   2  -5   44.21    1.94
  -1  -2   5   51.33    2.08
   1  -2  -5   48.07    2.01
  -2   2   5   77.06    2.96
   2   2  -5   73.58    2.78
  -2  -2   5   73.75    2.82
   2  -2  -5   73.60    2.93
  -3   2   5    9.00    1.79
   3   2  -5    8.45    1.61
   3  -2  -5   11.01    1.74
  -3  -2   5   11.70    1.69
  -4   2   5    4.14    2.14
   4   2  -5   -0.08    1.62
   4  -2  -5   -1.77    1.80
  -4  -2   5    2.91    1.88
  -5   2   5    7.32    3.21
   5   2  -5    5.34    2.63
  -5  -2   5    5.93    2.70
   5  -2  -5    3.57    2.99
   5   3   5   19.78    2.59
  -5   3  -5   14.59    3.46
   5  -3   5   18.61    3.63
  -5  -3  -5   18.16    2.57
   4   3   5   15.24    1.72
  -4   3  -5   13.35    2.62
  -4  -3  -5   18.31    2.14
   4  -3   5   13.08    2.52
  -3   3  -5   -1.17    1.26
   3   3   5   -0.01    0.76
   3  -3   5   -0.27    1.25
   2   3   5   13.50    0.90
  -2   3  -5   12.74    1.63
   2   3   5   14.25    0.95
   2  -3   5   14.29    1.63
   1   3   5   26.89    1.05
   1  -3   5   26.16    1.69
   0   3   5    7.61    0.85
   0  -3  -5    7.36    0.88
   0  -3   5    7.63    1.07
  -1   3   5   39.29    1.90
   1   3  -5   41.86    1.98
  -1  -3   5   37.70    1.97
   1  -3  -5   36.09    1.81
  -2   3   5   35.72    2.31
   2   3  -5   38.50    2.13
   2  -3  -5   44.12    2.38
  -2  -3   5   42.32    2.21
   3   3  -5    2.10    1.33
  -3   3   5    0.33    1.42
  -3  -3   5    0.73    1.37
  -4   3   5    0.38    2.06
   4   3  -5    5.51    1.87
   4  -3  -5    4.05    2.10
  -4  -3   5    3.14    1.93
  -5   3   5    7.97    3.28
   5   3  -5    1.84    2.79
   5  -3  -5    5.36    3.51
  -5  -3   5    6.26    3.13
  -5   4  -5   -1.00    3.35
   5   4   5   10.43    2.10
   5  -4   5    4.27    3.25
   4   4   5    2.76    1.17
  -4   4  -5    1.84    2.32
   4  -4   5    0.72    2.28
   3   4   5   15.12    1.16
  -3   4  -5   17.65    2.30
   3  -4   5   12.71    1.91
   2   4   5   12.11    0.63
   2   4   5   12.32    0.62
  -2   4  -5   12.36    1.75
   2  -4   5   12.98    1.76
   1   4   5   30.48    1.00
   1  -4   5   27.53    1.87
   0   4   5   18.46    1.17
   0  -4  -5   18.52    1.19
   0  -4   5   19.15    1.52
   1   4  -5   51.30    2.21
  -1   4   5   51.67    2.28
  -1  -4   5   49.50    2.22
   1  -4  -5   50.69    2.17
   2   4  -5   11.75    1.48
  -2   4   5   10.65    1.62
  -2  -4   5    8.20    1.37
   2  -4  -5   11.50    1.69
  -3   4   5    0.14    1.50
   3   4  -5   -0.35    1.20
  -3  -4   5    1.65    1.34
   3  -4  -5   -1.26    1.43
   4   4  -5    1.85    1.85
  -4   4   5    1.53    2.42
   4  -4  -5   -0.73    2.06
  -4  -4   5    2.72    1.81
   5   4  -5   -0.92    2.87
  -5   4   5    0.36    3.41
  -5  -4   5   -1.00    2.86
   5  -4  -5   -0.04    3.52
  -4   5  -5    3.61    2.66
   4   5   5   10.75    1.40
   4  -5   5    8.34    2.66
  -3   5  -5   12.73    2.17
   3  -5   5   14.29    2.20
  -2   5  -5    2.18    1.25
   2  -5   5   -0.11    1.27
   1   5   5    1.85    0.33
   1  -5   5    1.77    1.07
   0   5   5    1.14    0.63
   0  -5   5    0.53    0.90
   0  -5  -5    1.32    0.64
   0  -5   5    2.62    0.94
  -1   5   5  214.39    5.02
  -1  -5   5  210.71    5.07
   1  -5  -5  212.56    5.00
  -2   5   5   11.75    1.77
   2   5  -5   16.92    1.83
  -2  -5   5   15.87    1.92
   2  -5  -5   17.40    2.01
  -3   5   5    6.37    1.98
   3   5  -5    4.61    1.44
   3  -5  -5    5.50    1.83
  -3  -5   5    7.40    1.71
   4   5  -5    6.08    2.03
  -4   5   5    8.00    2.62
  -4  -5   5    6.33    2.05
   4  -5  -5    7.62    2.56
  -4   6  -5    6.24    2.74
   4  -6   5   12.36    3.09
  -3   6  -5    1.66    1.93
   3  -6   5    2.00    1.87
   2  -6   5   17.40    2.30
   1   6   5   32.29    0.76
   1  -6   5   31.47    2.32
   0   6   5    1.09    0.71
   0  -6   5    3.58    1.15
   0  -6  -5    3.37    0.78
   0  -6   5    2.93    1.18
  -1   6   5   37.53    2.25
   1  -6  -5   36.45    2.17
  -1  -6   5   38.58    2.33
   2   6  -5    0.16    1.09
  -2   6   5    0.42    1.34
   2  -6  -5   -0.51    1.25
  -2  -6   5    3.39    1.32
  -3   6   5   27.42    3.05
   3   6  -5   22.60    2.47
  -3  -6   5   33.90    2.75
   3  -6  -5   25.03    3.28
   4   6  -5    2.85    2.06
  -4   6   5    0.16    2.79
   4  -6  -5    1.81    2.74
  -4  -6   5    6.18    2.18
  -4   7  -5    1.83    3.23
   4  -7   5    6.35    3.07
  -3   7  -5   -0.66    1.97
   3  -7   5   -2.66    2.06
   2  -7   5    2.96    1.75
   1  -7   5    8.76    1.61
   0   7   5  128.77    3.34
   0  -7   5  129.66    4.25
   0  -7   5  129.46    4.22
   0  -7  -5  127.47    3.33
  -1   7   5    8.27    1.48
   1  -7  -5    7.85    1.39
  -1  -7   5    9.23    1.45
  -2   7   5    1.37    1.80
  -2  -7   5    1.11    1.28
   2  -7  -5    0.43    2.51
   3   7  -5    7.63    1.76
  -3   7   5    7.91    2.46
  -3  -7   5    6.87    1.85
   3  -7  -5    9.47    2.45
  -4   7   5    0.79    2.86
   4   7  -5   -1.69    2.10
   4  -7  -5    3.05    3.07
  -4  -7   5    1.57    2.09
   4  -8   5    8.91    4.49
  -3   8  -5   10.81    2.84
   3  -8   5    7.25    2.77
   2  -8   5   18.51    2.61
   1  -8   5    7.44    1.84
   0   8   5   15.85    1.62
   0  -8  -5   14.62    1.65
   0  -8   5   12.77    1.88
   0  -8   5   15.10    2.10
  -1   8   5    7.34    1.59
  -1  -8   5    7.87    1.65
   1  -8  -5    8.22    1.59
  -1  -8   5    6.29    1.55
  -2   8   5   26.33    3.14
   2  -8  -5   32.78    3.14
  -2  -8   5   29.76    2.69
  -3   8   5   36.96    3.95
   3  -8  -5   41.96    4.01
  -3  -8   5   37.63    3.30
  -4   8   5    3.21    3.44
   4   8  -5    3.10    2.30
  -4  -8   5    2.80    2.39
   4  -8  -5   -0.41    3.59
   3  -9   5   14.28    3.31
   2  -9   5    4.15    2.36
   1  -9   5   65.72    3.77
   0   9   5   -2.20    1.04
   0  -9  -5    1.80    1.11
   0  -9   5   -1.08    1.63
  -1   9   5   -1.87    1.40
  -1  -9   5    1.03    1.59
  -1  -9   5    0.43    1.61
   1  -9  -5    3.15    1.57
  -2   9   5   -0.27    1.87
  -2  -9   5    2.86    1.75
   2  -9  -5    1.74    2.05
  -2  -9   5    0.90    1.62
  -3   9   5    1.48    2.91
  -3  -9   5    0.78    2.02
   3  -9  -5    2.25    2.60
   3 -10   5   18.89    4.07
   2 -10   5    0.96    2.62
   1 -10   5   18.28    2.74
   0  10   5   20.13    2.21
   0 -10   5   24.24    3.27
   0 -10   5   26.80    3.04
   0 -10  -5   24.41    2.31
  -1  10   5   46.76    3.43
  -1 -10   5   42.38    3.49
   1 -10  -5   39.83    3.38
  -2  10   5    0.70    2.38
   2 -10  -5    3.71    2.40
  -2 -10   5   -1.70    2.54
  -2 -10   5    3.86    2.00
  -3  10   5   -5.59    2.82
   3 -10  -5    3.87    3.48
  -3 -10   5   -1.27    2.52
   2 -11   5   -2.47    3.20
   1 -11   5    8.48    2.91
   0 -11   5   17.96    3.02
   0 -11   5   22.01    3.02
   0 -11  -5   19.04    2.57
  -1  11   5    5.44    2.32
  -1 -11   5   13.62    2.42
   1 -11  -5    2.30    2.26
  -1 -11   5    1.84    2.35
  -2  11   5    4.28    2.96
  -2 -11   5   -3.56    2.21
  -2 -11   5   -0.12    2.33
   2 -11  -5    6.79    2.97
   0 -12   5    3.24    3.17
   0 -12  -5    6.96    1.93
   0 -12   5    1.67    2.91
  -1 -12   5   -1.51    2.89
  -5   0  -6   -0.35    2.57
   5   0   6    0.21    2.60
  -4   0  -6   14.33    3.66
   4   0   6   12.69    2.03
   3   0   6   -1.02    1.00
  -3   0  -6   -0.25    1.08
   2   0   6    6.41    1.04
   1   0   6    0.27    0.62
   0   0   6  176.31    4.03
   0   0  -6  176.57    4.06
  -1   0   6   -0.59    0.71
   1   0  -6   -1.23    0.65
   2   0  -6   44.54    2.34
  -2   0   6   43.42    2.38
   3   0  -6   -0.76    1.24
  -3   0   6   -1.33    1.28
  -4   0   6   77.05    4.29
   4   0  -6   79.85    4.37
  -5   0   6   -2.71    2.93
   5   0  -6   -2.51    3.15
   5   1   6   28.02    3.25
  -5   1  -6   26.13    3.48
  -5  -1  -6   25.30    3.19
   5  -1   6   26.32    3.50
   4   1   6    3.60    1.58
  -4   1  -6    2.52    1.82
   4  -1   6    0.35    1.69
  -4  -1  -6    2.59    1.59
   3   1   6    4.62    1.12
  -3   1  -6    4.39    1.31
   3  -1   6    6.56    1.43
   2   1   6   24.49    1.48
   2  -1   6   23.92    1.80
   1   1   6   35.58    1.59
   1  -1   6   36.83    1.79
   0   1   6    2.79    0.75
   0   1  -6    1.20    0.72
   0  -1  -6    1.20    0.63
   0  -1   6    1.00    0.68
   1   1  -6   29.02    1.75
  -1   1   6   24.23    1.64
   1  -1  -6   25.08    1.61
  -1  -1   6   28.38    1.73
  -2   1   6  196.60    5.12
   2   1  -6  200.45    5.15
  -2  -1   6  200.82    5.20
   2  -1  -6  196.59    5.15
   3   1  -6   82.04    3.69
  -3  -1   6   82.01    3.54
   3  -1  -6   76.79    3.76
  -4   1   6   -1.40    2.07
   4   1  -6   -1.09    1.80
  -4  -1   6    4.32    2.09
   4  -1  -6    0.00    1.96
  -5   1   6    6.30    3.36
   5   1  -6    3.20    3.15
  -5  -1   6    9.36    3.07
   5  -1  -6    6.74    3.33
   5   2   6    3.65    2.26
  -5   2  -6    2.01    3.01
  -5  -2  -6    5.10    2.39
   5  -2   6    5.77    2.87
  -4   2  -6   25.44    2.97
   4   2   6   16.62    1.92
   4  -2   6   16.16    2.56
  -3   2  -6   86.50    3.65
   3   2   6   86.36    2.85
   3  -2   6   84.67    3.61
   2   2   6   31.35    1.51
   2   2   6   35.20    1.62
   2  -2   6   35.70    2.11
   1   2   6   40.36    1.57
   1  -2   6   39.30    1.97
   1  -2   6   40.09    2.10
   0   2  -6    3.52    0.81
   0   2   6    2.92    0.71
   0  -2   6    3.73    0.87
   0  -2  -6    3.65    0.67
   1   2  -6  315.51    6.58
  -1   2   6  324.59    6.53
  -1  -2   6  327.19    6.65
   1  -2  -6  324.52    6.56
   2   2  -6    3.93    1.15
  -2   2   6    3.86    1.17
  -2  -2   6    2.08    1.22
   2  -2  -6    4.06    1.11
  -3   2   6   21.50    2.58
   3   2  -6   22.68    2.39
   3  -2  -6   24.14    3.06
  -3  -2   6   16.81    2.22
   4   2  -6   15.69    2.49
  -4   2   6   16.59    2.86
  -4  -2   6   14.08    2.58
   4  -2  -6   15.72    2.72
   5   2  -6   22.29    3.46
  -5   2   6   11.68    3.47
  -5  -2   6   26.73    3.65
   5  -2  -6   25.77    4.01
  -5   3  -6   14.56    3.46
   5   3   6   10.97    2.38
   5  -3   6   10.41    3.59
  -4   3  -6   28.30    3.31
   4   3   6   23.74    2.32
   4  -3   6   26.28    3.06
   3   3   6   49.35    2.06
  -3   3  -6   47.20    3.07
   2   3   6    0.28    0.56
   2   3   6    0.48    0.52
   2  -3   6   -1.38    0.96
   1   3   6    2.44    0.59
   1  -3   6    3.65    1.04
   0   3   6  153.31    3.58
   0  -3   6  159.80    4.18
   0  -3  -6  152.09    3.55
   1   3  -6    3.83    1.01
  -1   3   6    1.82    0.85
   1  -3  -6    3.79    0.96
  -1  -3   6    3.84    1.03
  -2   3   6    7.67    1.47
   2   3  -6    6.91    1.34
   2  -3  -6    8.53    1.46
  -2  -3   6    5.01    1.26
  -3   3   6  121.11    4.61
   3   3  -6  116.88    4.35
   3  -3  -6  123.28    4.76
  -3  -3   6  123.58    4.48
  -4   3   6   12.66    2.78
   4   3  -6   10.56    2.27
   4  -3  -6   11.27    2.54
  -4  -3   6    7.49    2.15
   5   3  -6   22.63    3.60
  -5   3   6   21.31    3.84
  -5  -3   6   14.70    3.53
   5  -3  -6   17.23    3.94
   5   4   6   11.24    2.19
  -5   4  -6   21.93    4.07
   5  -4   6   14.79    4.15
  -4   4  -6   10.10    2.75
   4   4   6   13.47    1.54
   4  -4   6   18.10    2.93
   3   4   6    6.74    0.89
   3   4   6    7.34    0.91
  -3   4  -6    6.69    1.89
   3  -4   6    9.29    1.97
   2   4   6   36.20    1.16
   2   4   6   37.18    1.24
   2  -4   6   38.38    2.59
   1   4   6  153.81    3.05
   1  -4   6  150.60    4.37
   0   4   6   -0.08    0.57
   0  -4   6    0.90    0.97
   0  -4  -6    0.05    0.59
  -1   4   6    5.09    1.10
   1   4  -6    4.90    1.09
   1  -4  -6    5.63    1.15
  -1  -4   6    3.75    1.07
  -2   4   6    0.12    1.17
   2   4  -6   -0.56    1.03
   2  -4  -6   -0.29    1.14
  -2  -4   6   -0.94    1.10
   3   4  -6    9.40    1.77
  -3   4   6    8.42    2.09
  -3  -4   6    5.73    1.69
   3  -4  -6    7.36    1.91
  -4   4   6   28.45    3.58
   4   4  -6   26.62    3.33
  -4  -4   6   19.10    2.77
   4  -4  -6   32.08    4.03
   5   4  -6   19.43    3.49
  -5  -4   6   14.51    3.46
   4   5   6    1.74    0.85
   4   5   6   -0.14    0.87
  -4   5  -6    1.92    2.60
   4  -5   6   -0.48    2.67
  -3   5  -6  101.77    4.58
   3  -5   6  112.75    4.70
   2  -5   6   62.11    3.74
   1   5   6   52.12    1.49
  -1  -5  -6   53.84    1.47
   1  -5   6   50.31    2.70
   0   5   6    7.88    1.02
   0  -5  -6    5.67    0.89
   0  -5   6    7.09    1.32
   1   5  -6   51.48    2.52
  -1   5   6   50.98    2.39
  -1  -5   6   52.53    2.55
   1  -5  -6   50.18    2.40
  -2   5   6   44.52    2.92
   2   5  -6   45.93    2.68
  -2  -5   6   46.26    2.75
   2  -5  -6   43.08    2.84
  -3   5   6    9.41    2.13
   3   5  -6    1.94    1.63
   3  -5  -6    3.23    1.87
  -3  -5   6    6.22    1.71
  -4   5   6    2.75    2.58
   4   5  -6    2.70    2.12
  -4  -5   6    0.00    2.05
   4  -5  -6    5.27    2.68
  -4   6  -6    4.25    2.91
   4  -6   6   10.77    3.11
  -3   6  -6   13.89    2.56
   3  -6   6   13.86    2.43
   2  -6   6    1.87    1.51
   1   6   6   66.60    1.55
  -1  -6  -6   65.22    1.54
   1  -6   6   69.05    3.29
   0   6   6   11.68    1.37
   0  -6  -6   10.15    1.16
   0  -6   6    8.18    1.43
   0  -6   6   12.18    1.77
  -1   6   6   96.90    3.40
   1  -6  -6   93.20    3.33
  -1  -6   6   93.90    3.50
  -2   6   6   10.83    2.25
   2   6  -6    8.46    1.62
  -2  -6   6    6.24    1.57
   2  -6  -6    6.50    1.75
  -3   6   6    4.28    2.01
   3   6  -6    6.02    1.66
  -3  -6   6    5.95    2.07
   3  -6  -6    3.68    1.91
   4   6  -6    7.18    2.38
  -4   6   6    4.37    2.80
   4  -6  -6    6.80    3.09
  -4  -6   6    0.27    2.18
  -4   7  -6    3.95    3.26
   4  -7   6   16.03    3.88
   3  -7   6   13.62    2.76
   2  -7   6   -0.24    1.67
   1   7   6   36.85    0.98
   1  -7   6   32.41    3.31
  -1  -7  -6   38.98    0.99
   0   7   6    0.81    0.84
   0  -7   6    2.81    1.46
   0  -7   6    0.55    1.27
   0  -7  -6    2.41    0.89
  -1   7   6    1.61    1.20
  -1  -7   6    1.70    1.35
   1  -7  -6    1.70    1.26
  -2   7   6    1.73    1.68
   2  -7  -6    1.26    1.65
  -2  -7   6    2.76    1.47
  -3   7   6   -3.34    2.27
   3   7  -6    5.75    2.30
   3  -7  -6    2.84    2.14
  -3  -7   6    3.95    2.17
  -4   7   6   -1.01    3.10
   4   7  -6    0.27    2.40
  -4  -7   6    2.49    2.43
   4  -7  -6    1.25    3.15
   3  -8   6    8.82    3.06
   2  -8   6   43.06    3.94
   1  -8   6   27.90    3.09
   0   8   6   19.81    1.77
   0  -8   6   22.88    3.05
   0  -8  -6   20.95    1.80
  -1   8   6   -1.34    1.33
  -1  -8   6    0.32    1.45
   1  -8  -6    1.14    1.30
  -1  -8   6    1.01    1.46
  -2   8   6    8.99    2.00
   2  -8  -6    5.05    1.92
  -2  -8   6    4.97    1.83
  -3   8   6   -2.36    2.42
  -3  -8   6    0.33    2.07
   3  -8  -6    0.87    2.65
   3  -9   6    1.12    3.19
   2  -9   6   20.78    3.07
   1  -9   6    1.10    1.83
   0   9   6   38.31    2.26
   0  -9  -6   33.79    2.23
   0  -9   6   33.53    3.27
   0  -9   6   36.76    3.35
  -1   9   6   -2.12    1.55
   1  -9  -6   -0.15    1.60
  -1  -9   6   -0.84    1.69
  -1  -9   6    1.72    2.14
  -2   9   6   13.14    2.52
  -2  -9   6   13.86    2.31
   2  -9  -6   15.62    2.57
  -3   9   6   -2.79    2.84
  -3  -9   6    0.80    2.33
   3  -9  -6   -3.03    3.09
   2 -10   6    2.56    3.08
   1 -10   6    3.79    2.40
   1 -10   6    0.89    2.43
   0  10   6   11.54    1.65
   0 -10   6   12.21    2.40
   0 -10  -6    9.87    1.58
   0 -10   6   14.29    2.70
  -1  10   6    6.53    2.34
  -1 -10   6    6.18    2.20
  -1 -10   6    5.60    2.29
   1 -10  -6    6.15    2.02
  -2  10   6    0.18    2.50
   2 -10  -6    3.47    2.45
  -2 -10   6   -1.58    2.23
  -2 -10   6    3.89    2.26
   2 -11   6   -1.50    3.14
   1 -11   6   37.14    5.01
   1 -11   6   40.97    4.83
   0  11   6    2.04    1.58
   0 -11   6    2.75    2.74
   0 -11  -6    3.87    1.59
   0 -11   6    0.46    2.51
  -1  11   6   10.46    2.51
  -1 -11   6    8.98    2.59
   1 -11  -6    9.92    2.52
  -1 -11   6   11.12    2.89
  -2  11   6    1.64    3.10
   2 -11  -6    2.59    3.12
  -2 -11   6   -3.78    2.64
  -2 -11   6    4.36    2.50
   5   0   7   26.52    3.34
   3   0   7    9.39    1.59
   2   0   7   -0.60    0.81
   1   0   7  202.85    4.67
   0   0   7    1.28    0.79
   0   0  -7   -1.03    0.63
   1   0  -7    5.42    1.08
  -1   0   7    6.86    1.22
   2   0  -7    0.70    0.98
  -2   0   7   -0.70    1.08
  -3   0   7    6.94    1.78
   3   0  -7    6.83    1.81
   4   0  -7    1.36    2.14
  -4   0   7   -2.57    2.10
   5   0  -7   10.53    3.55
  -5   0   7   10.06    3.45
   5   1   7   19.28    2.97
  -5   1  -7   27.92    3.58
   5  -1   7   25.78    3.50
   4   1   7    4.76    1.67
  -4   1  -7    0.26    1.88
   4  -1   7    2.94    1.92
   3   1   7   23.91    2.06
   3  -1   7   25.02    2.19
   2   1   7   26.28    1.74
   2   1   7   27.17    1.69
   2  -1   7   25.41    1.98
   1   1   7   70.17    2.38
   1  -1   7   67.87    2.63
   0   1   7   77.86    2.57
   0   1  -7   69.75    2.59
   0  -1  -7   72.31    2.47
   0  -1   7   71.96    2.63
  -1   1   7    2.78    1.03
   1   1  -7    3.81    1.01
   1  -1  -7    3.68    1.03
  -1  -1   7    3.70    1.01
  -2   1   7    4.69    1.30
   2   1  -7    7.16    1.41
   2  -1  -7   -0.31    1.03
  -2  -1   7    2.56    1.14
  -3   1   7    1.05    1.61
   3  -1  -7    1.96    1.56
  -3  -1   7    0.78    1.51
   4   1  -7    7.45    2.39
  -4   1   7   10.61    2.53
   4  -1  -7    7.36    2.38
  -4  -1   7    5.43    2.47
   5   1  -7   -0.58    3.32
  -5   1   7   -5.54    3.15
  -5  -1   7    0.35    3.31
   5  -1  -7   -1.96    3.42
   5   2   7    7.49    2.52
  -5   2  -7    7.14    3.08
   5  -2   7    7.37    3.37
  -4   2  -7   29.42    3.15
   4   2   7   34.35    2.72
   4  -2   7   39.20    3.65
   3   2   7   37.61    2.12
   3  -2   7   37.16    2.82
   2   2   7   40.80    1.87
   2   2   7   35.88    1.77
   2  -2   7   37.20    2.43
   1   2   7    9.74    1.11
   1  -2   7   10.68    1.46
   1  -2   7   10.20    1.36
   0   2  -7    6.37    1.08
   0   2   7    6.51    1.05
   0  -2  -7    5.81    0.88
   0  -2   7    7.89    1.16
  -1   2   7    5.23    1.11
   1   2  -7    4.31    1.00
   1  -2  -7    5.83    1.11
  -1  -2   7    5.34    1.19
  -2   2   7    1.56    1.15
   2   2  -7    1.97    1.20
   2  -2  -7    4.00    1.26
  -2  -2   7   -0.74    1.11
  -3   2   7   -0.11    1.48
   3  -2  -7    1.50    1.55
  -3  -2   7    0.50    1.47
  -4   2   7   27.41    3.67
   4   2  -7   28.39    3.56
  -4  -2   7   25.08    3.01
   4  -2  -7   30.63    3.55
  -5   2   7   10.79    3.74
   5   2  -7   -0.46    3.36
  -5  -2   7   -3.17    3.31
   5  -2  -7    4.25    3.67
  -5   3  -7    3.16    3.10
   5   3   7    0.12    2.13
   5  -3   7   -1.97    3.15
  -4   3  -7   15.41    2.58
   4   3   7   15.02    1.83
   4  -3   7   19.15    2.93
   3   3   7    4.17    1.01
   3   3   7    3.77    0.97
   3  -3   7    2.42    1.61
   2   3   7   88.80    2.49
   2   3   7   84.43    2.41
   2  -3   7   90.73    3.51
   1   3   7   15.36    1.22
   1  -3   7   12.18    1.63
   1  -3   7   15.02    1.63
   0   3   7   47.70    2.02
   0  -3  -7   47.54    1.96
   0  -3   7   47.22    2.36
  -1   3   7   82.19    2.95
   1   3  -7   83.80    3.20
   1  -3  -7   81.48    2.98
  -1  -3   7   84.24    3.18
   2   3  -7   72.89    3.14
  -2   3   7   70.79    3.22
  -2  -3   7   69.01    3.21
   2  -3  -7   74.51    3.25
  -3   3   7   52.28    3.44
   3  -3  -7   49.04    3.30
  -3  -3   7   43.53    3.32
  -4   3   7    3.17    2.72
   4   3  -7   13.51    2.68
   4  -3  -7   12.29    2.58
   5   3  -7    1.23    3.40
  -5  -3   7   -2.39    3.09
   5  -3  -7   -1.77    4.11
  -4   4  -7   38.42    3.87
   4   4   7   37.90    2.42
   4   4   7   41.85    2.34
   4  -4   7   42.89    3.95
   3   4   7    3.55    0.81
   3   4   7    2.86    0.85
   3  -4   7    0.75    1.66
   2   4   7    0.22    0.56
   2   4   7   -0.23    0.52
   2  -4   7   -0.47    1.30
   1   4   7   49.13    1.76
   1  -4   7   47.60    2.65
   1  -4   7   47.39    2.56
  -1  -4  -7   46.40    1.68
   0   4   7   56.78    2.19
   0  -4   7   53.72    2.64
   0  -4  -7   57.39    2.22
  -1   4   7   33.02    2.14
   1   4  -7   30.44    2.12
  -1  -4   7   32.51    2.19
   1  -4  -7   36.01    2.09
   2   4  -7   30.37    2.34
  -2   4   7   27.96    2.38
   2  -4  -7   27.78    2.39
  -2  -4   7   30.42    2.55
   3   4  -7   17.16    2.70
  -3   4   7   19.17    2.56
   3  -4  -7   19.16    2.61
  -3  -4   7   17.81    2.43
  -4   4   7   14.71    3.06
   4   4  -7   17.54    2.60
   4  -4  -7   21.84    3.33
  -4  -4   7   16.34    2.81
   4   5   7    4.54    0.95
  -4   5  -7    5.13    2.81
   4   5   7    6.11    0.94
   4  -5   7    7.73    2.75
   3  -5   7   -2.65    1.79
   2   5   7   -0.15    0.28
   2  -5   7   -0.02    1.43
   1   5   7   17.80    1.11
   1  -5   7   17.08    2.17
  -1  -5  -7   16.61    1.09
   1  -5   7   16.38    2.13
   0   5   7   79.63    2.59
   0  -5  -7   77.54    2.60
   0  -5   7   75.81    3.25
  -1   5   7    6.91    1.36
   1   5  -7    6.88    1.47
   1  -5  -7    5.70    1.31
  -1  -5   7    9.23    1.62
   2   5  -7   34.25    2.71
  -2   5   7   35.61    2.68
  -2  -5   7   36.63    2.84
   2  -5  -7   36.22    2.83
  -3   5   7   15.81    2.60
   3   5  -7   18.05    2.38
  -3  -5   7   17.64    2.35
   3  -5  -7   18.37    2.61
   4   5  -7   14.64    2.66
  -4   5   7    7.27    2.98
  -4  -5   7   10.23    2.63
   4  -5  -7   16.92    3.23
   4  -6   7    3.31    3.20
   3  -6   7   36.59    3.89
   2  -6   7   23.43    2.80
   1   6   7    0.56    0.55
   1  -6   7   -3.76    2.21
  -1  -6  -7    0.18    0.52
   1  -6   7    1.76    1.76
   0   6   7   46.95    2.16
   0  -6   7   47.63    2.89
   0  -6   7   49.50    2.85
   0  -6  -7   48.62    2.15
  -1   6   7   12.37    1.64
   1  -6  -7    9.76    1.55
  -1  -6   7   12.71    1.92
  -2   6   7  101.24    4.09
   2   6  -7   94.01    3.92
  -2  -6   7   96.07    4.03
   3   6  -7    2.77    1.87
  -3   6   7    3.95    2.14
  -3  -6   7    1.04    1.86
   3  -6  -7   -3.16    2.08
   4   6  -7    6.52    2.74
  -4   6   7    4.34    3.27
   4  -6  -7   17.80    3.65
  -4  -6   7    8.67    2.88
   4  -7   7    3.19    3.40
   3  -7   7    5.24    2.47
   2  -7   7   21.34    2.75
   1   7   7   -0.45    0.51
  -1  -7  -7    0.39    0.49
   1  -7   7   -0.90    1.64
   1  -7   7    2.17    1.74
   0   7   7   65.83    2.55
   0  -7   7   59.01    5.33
   0  -7  -7   59.95    2.44
   0  -7   7   47.59    3.98
  -1   7   7   -0.21    1.31
  -1  -7   7   -0.70    1.42
   1  -7  -7   -0.33    1.23
  -2   7   7   23.12    2.81
  -2  -7   7   25.89    3.40
   2  -7  -7   23.09    2.74
   3   7  -7   12.48    2.19
  -3   7   7    9.94    2.72
  -3  -7   7    9.41    2.36
   3  -7  -7    5.12    2.73
  -4   7   7    2.77    3.52
   4   7  -7    1.08    2.75
  -4  -7   7    1.11    2.92
   4  -7  -7   -0.93    3.59
   3  -8   7   -3.55    2.79
   2  -8   7    9.70    2.44
   1  -8   7   40.57    3.35
   1  -8   7   38.52    3.71
   0   8   7   -0.36    1.02
   0  -8   7    0.42    1.73
   0  -8  -7    1.68    1.06
   0  -8   7    0.53    1.80
  -1   8   7    2.71    1.51
  -1  -8   7    0.87    1.75
   1  -8  -7   -0.64    1.45
  -2   8   7    3.82    2.03
   2  -8  -7    3.34    2.01
  -2  -8   7    1.06    1.98
  -3   8   7    9.33    2.98
  -3  -8   7    5.37    2.44
   3  -8  -7    5.42    2.80
   3  -9   7    5.82    3.44
   2  -9   7    3.73    2.80
   1  -9   7   20.29    2.92
   1  -9   7   19.64    3.06
   0   9   7    3.19    1.26
   0  -9  -7    3.93    1.32
   0  -9   7    1.75    1.96
   0  -9   7    2.53    1.93
  -1   9   7  136.97    4.83
  -1  -9   7  131.81    5.38
   1  -9  -7  143.03    4.96
  -1  -9   7  150.24    5.47
  -2   9   7    8.31    2.56
   2  -9  -7    6.22    2.56
  -2  -9   7   11.53    2.46
   3  -9  -7   -0.02    3.18
  -3  -9   7    3.64    2.67
   2 -10   7   14.96    3.46
   1 -10   7   39.30    4.39
   1 -10   7   28.24    3.57
   0  10   7    0.89    1.38
   0 -10  -7   -2.00    1.31
   0 -10   7    0.04    2.37
   0 -10   7   -0.05    2.29
  -1  10   7   -0.36    2.32
  -1 -10   7    2.86    2.15
   1 -10  -7    5.21    3.59
  -1 -10   7    3.60    2.46
  -2  10   7    2.22    2.71
  -2 -10   7    0.63    2.61
   2 -10  -7    1.44    2.74
  -2 -10   7    7.94    2.59
   1 -11   7   19.48    3.62
   1 -11   7   16.88    3.77
   0  11   7   18.72    2.09
   0 -11   7   26.52    3.43
   0 -11   7   20.29    3.47
   0 -11  -7   27.01    2.62
  -1  11   7    4.64    2.36
  -1 -11   7    1.79    2.84
  -1 -11   7    3.56    2.71
   1 -11  -7    2.08    2.35
   5   0   8    1.15    2.92
   4   0   8   -0.22    1.78
   3   0   8    2.02    1.31
   2   0   8  150.36    4.25
   2   0   8  151.13    4.22
   1   0   8   -0.35    0.79
   0   0   8   21.07    1.67
   0   0  -8   21.59    1.76
  -1   0   8   -0.57    0.97
   1   0  -8   -0.52    0.95
  -2   0   8  161.45    4.98
   2   0  -8  162.09    4.89
   3   0  -8    0.96    1.57
  -3   0   8    1.52    1.62
   4   0  -8   15.81    2.82
  -4   0   8   17.06    3.23
   5   0  -8   -0.44    3.50
  -5   0   8   10.46    3.82
   5   1   8    4.88    2.64
   5  -1   8    1.61    3.02
   4   1   8   33.95    3.13
   4  -1   8   32.00    3.34
   3   1   8    4.02    1.31
   3  -1   8    7.74    1.71
   2   1   8  121.86    3.57
   2   1   8  119.75    3.60
   2  -1   8  124.82    4.10
   2  -1   8  125.42    3.98
   1   1   8   10.04    1.32
   1  -1   8    8.83    1.26
   0   1   8    2.69    0.97
   0   1  -8    4.31    1.06
   0  -1  -8    3.21    0.98
   0  -1   8    4.70    1.12
  -1   1   8   21.45    1.88
   1   1  -8   20.84    1.82
  -1  -1   8   20.33    1.85
   1  -1  -8   18.47    1.75
  -2   1   8    5.63    1.52
   2   1  -8    2.70    1.29
  -2  -1   8    2.79    1.40
   2  -1  -8    5.05    1.45
   3   1  -8   28.05    2.98
  -3   1   8   24.02    2.80
  -3  -1   8   37.56    3.21
   3  -1  -8   28.33    2.76
  -4   1   8   65.10    4.88
   4   1  -8   63.46    4.29
   4  -1  -8   57.26    4.37
  -4  -1   8   61.00    4.74
  -5   1   8   16.12    4.58
   5   1  -8   17.78    4.10
  -5  -1   8   12.73    4.01
   5  -1  -8    5.13    3.91
   4   2   8   18.66    2.26
   4  -2   8   25.94    3.05
   3   2   8    2.67    1.10
   3   2   8    0.11    1.12
   3  -2   8    3.24    1.75
   2   2   8    5.43    0.97
   2   2   8    4.07    1.01
   2  -2   8    7.34    1.54
   1   2   8   28.47    1.74
   1  -2   8   26.91    2.03
   0   2  -8  119.04    3.76
   0   2   8  123.93    3.52
   0  -2  -8  118.90    3.47
   0  -2   8  123.48    3.81
  -1   2   8   29.85    2.09
   1   2  -8   32.15    2.15
  -1  -2   8   27.64    2.10
   1  -2  -8   33.50    2.11
   2   2  -8   14.76    1.93
  -2   2   8   12.84    1.93
  -2  -2   8    9.11    1.65
   2  -2  -8   15.48    2.02
   3   2  -8    5.92    1.89
  -3   2   8    7.05    1.93
   3  -2  -8   11.92    2.18
  -3  -2   8    5.95    1.87
  -4   2   8    1.93    2.49
   4   2  -8   -2.19    2.23
   4  -2  -8    3.18    2.45
  -4  -2   8   -2.00    2.33
   4   3   8    0.13    1.50
   4   3   8    3.30    1.50
   4  -3   8    1.01    2.20
   3   3   8   18.57    1.83
   3   3   8   20.47    1.75
   3  -3   8   22.20    2.62
   2   3   8    2.21    0.88
   2   3   8    3.13    0.85
   2  -3   8    1.92    1.31
   1   3   8   80.62    2.60
   1  -3   8   86.81    3.39
   1  -3   8   90.68    3.56
   0   3   8    1.06    0.88
   0  -3  -8    1.52    0.83
   0  -3   8    1.97    1.03
   1   3  -8    0.94    1.07
  -1   3   8    1.69    1.11
  -1  -3   8   -1.43    1.07
   1  -3  -8    1.31    1.06
   2   3  -8   -1.77    1.26
  -2   3   8   -1.09    1.19
  -2  -3   8    1.95    1.38
   2  -3  -8   -1.29    1.27
  -3   3   8   23.56    3.03
   3   3  -8   24.93    2.68
  -3  -3   8   25.48    2.85
   3  -3  -8   25.63    3.28
   4   3  -8   13.15    2.59
  -4   3   8    7.84    2.88
  -4  -3   8    8.80    2.78
   4  -3  -8   11.88    3.06
   4   4   8   -0.52    1.31
   4   4   8    0.88    1.29
   4  -4   8   -1.74    2.57
   3   4   8   31.75    1.81
   3   4   8   34.07    1.85
   3  -4   8   31.09    3.11
   2   4   8   -0.49    0.67
   2   4   8    0.77    0.69
   2  -4   8    1.44    1.55
   1   4   8   55.43    2.12
  -1  -4  -8   56.53    2.07
   1  -4   8   61.55    3.09
   1  -4   8   56.72    2.96
   0   4   8    0.03    0.86
   0  -4  -8   -0.30    0.79
   0  -4   8   -0.15    1.10
  -1   4   8   26.65    2.08
   1   4  -8   22.23    2.11
   1  -4  -8   25.81    2.08
  -1  -4   8   25.72    2.41
   2   4  -8   31.00    2.78
  -2  -4   8   35.97    2.80
   3   4  -8    0.47    1.68
  -3   4   8    3.12    2.03
  -3  -4   8    2.36    1.86
   3  -4  -8    1.53    1.88
   4   4  -8    5.54    2.66
  -4   4   8    5.31    2.87
   4  -4  -8    2.34    2.93
  -4  -4   8    7.11    2.73
   4   5   8    2.31    0.97
   4   5   8    0.92    0.89
   4  -5   8    0.10    2.76
   3   5   8    8.00    0.89
   3   5   8   10.96    0.99
   3  -5   8    8.20    2.32
   2   5   8    0.88    0.58
   2   5   8    0.15    0.51
   2  -5   8   -0.86    1.47
   1   5   8    8.69    1.17
   1  -5   8    7.55    2.95
   1  -5   8   10.84    2.17
  -1  -5  -8   11.53    1.23
   0   5   8   25.83    1.79
   0  -5   8   29.43    2.42
   0  -5  -8   28.04    1.83
  -1   5   8    1.78    1.19
   1   5  -8    1.53    1.38
  -1  -5   8   -1.25    1.23
   1  -5  -8   -0.20    1.13
  -2   5   8    1.19    1.50
   2  -5  -8    0.35    1.84
  -2  -5   8    0.33    1.89
  -3   5   8    2.47    2.05
   3   5  -8   -1.04    1.87
   3  -5  -8    2.20    1.96
  -3  -5   8    0.69    1.90
   4   5  -8   20.89    3.24
  -4   5   8   27.69    4.07
  -4  -5   8   21.62    3.39
   4  -5  -8   24.82    3.91
   4  -6   8    6.75    3.34
   3  -6   8    2.44    2.36
   2  -6   8   53.32    3.52
   1   6   8    9.67    1.17
  -1  -6  -8   10.09    1.16
   1  -6   8    7.60    1.83
   1  -6   8    5.68    1.91
   0   6   8  111.76    3.33
   0  -6  -8  105.33    3.28
   0  -6   8   97.01    4.93
  -1   6   8    0.38    1.23
   1  -6  -8   -0.97    1.20
  -2   6   8    2.88    1.70
   2   6  -8    0.95    1.61
   2  -6  -8    3.56    1.86
  -2  -6   8    3.45    1.75
  -3   6   8    1.90    2.41
   3   6  -8    3.60    1.99
  -3  -6   8   -0.22    2.02
   3  -6  -8    1.92    2.26
   4   6  -8    8.24    2.88
  -4   6   8    5.21    3.57
  -4  -6   8    0.04    2.94
   3  -7   8   -1.27    2.72
   2  -7   8   59.53    4.05
   1   7   8    1.36    0.69
   1  -7   8    2.23    1.91
  -1  -7  -8    1.25    0.67
   1  -7   8    0.53    1.84
   0   7   8   14.68    1.87
   0  -7   8   16.34    2.40
   0  -7   8   13.89    2.14
   0  -7  -8   14.82    1.80
  -1   7   8    8.58    1.65
  -1  -7   8    9.09    1.96
   1  -7  -8    6.36    1.63
  -2   7   8    5.61    2.05
  -2  -7   8    4.45    1.83
   2  -7  -8    6.06    1.91
  -3   7   8   12.18    2.96
   3   7  -8   17.14    2.64
   3  -7  -8   11.21    2.83
  -3  -7   8   15.97    2.90
   3  -8   8    5.30    3.09
   2  -8   8    7.68    2.74
   1   8   8   29.91    1.24
   1  -8   8   32.88    3.49
   1  -8   8   31.05    3.27
   0   8   8    3.67    1.26
   0  -8  -8    3.70    1.22
   0  -8   8    0.82    1.93
   0  -8   8    1.73    1.99
  -1   8   8   36.35    2.93
   1  -8  -8   31.87    3.00
  -1  -8   8   33.58    3.30
  -2   8   8   20.66    2.70
  -2  -8   8   18.13    2.69
   2  -8  -8   23.52    2.91
  -3   8   8    0.16    2.75
   3  -8  -8   10.15    3.13
  -3  -8   8    7.48    2.77
   2  -9   8   -4.48    2.61
   1  -9   8   18.31    2.86
   1  -9   8   28.74    3.76
   0   9   8    1.33    1.35
   0  -9   8    6.26    2.25
   0  -9   8    1.99    2.38
   0  -9  -8    0.20    1.27
  -1   9   8    5.04    2.28
  -1  -9   8    1.24    2.11
  -1  -9   8    3.64    2.17
   1  -9  -8    1.57    1.92
  -2   9   8   15.33    2.77
   2  -9  -8   16.12    2.98
  -2  -9   8   18.33    3.03
  -3   9   8   11.80    3.32
  -3  -9   8   12.81    3.16
   3  -9  -8    4.77    3.44
   2 -10   8    1.49    3.29
   1 -10   8    0.56    2.75
   1 -10   8    0.00    2.90
   0  10   8   19.58    2.43
   0 -10   8   17.31    3.09
   0 -10  -8   14.42    1.84
   0 -10   8   11.49    3.14
  -1  10   8   22.91    2.77
  -1 -10   8   21.26    3.13
   1 -10  -8   19.71    2.89
  -1 -10   8   26.70    3.42
  -2  10   8    4.15    2.92
  -2 -10   8    4.96    2.93
  -2 -10   8    3.94    2.85
   2 -10  -8    2.49    2.94
   1 -11   8   15.91    4.09
   1 -11   8   17.37    3.62
   0  11   8   44.18    3.08
   0 -11   8   47.41    5.33
   0 -11   8   36.43    4.40
   0 -11  -8   37.54    2.98
  -1  11   8    2.30    2.49
  -1 -11   8    0.58    3.09
   1 -11  -8   -2.16    2.46
  -1 -11   8    5.02    3.17
   4   0   9   -2.62    1.86
   3   0   9   74.93    3.52
   2   0   9    1.54    1.08
   2   0   9    1.25    1.23
   1   0   9    0.34    0.94
   0   0   9    1.01    1.07
   0   0  -9   -0.61    0.86
  -1   0   9   77.38    3.31
   1   0  -9   76.94    3.26
   2   0  -9   -0.06    1.40
  -3   0   9   37.97    3.60
   3   0  -9   42.74    3.53
  -4   0   9   -5.92    2.50
   4   0  -9    3.37    2.63
   4   1   9   17.42    4.08
   4  -1   9   22.20    2.79
   3   1   9    6.92    1.64
   3   1   9    9.05    1.58
   3  -1   9    3.28    2.75
   2   1   9   51.70    2.64
   2   1   9   57.40    2.66
   2  -1   9   57.23    3.05
   2  -1   9   53.55    2.78
   1   1   9    5.91    1.18
   1  -1   9    5.53    1.27
   0   1  -9   41.23    2.33
   0   1   9   43.79    2.30
   0  -1   9   41.31    2.41
   0  -1  -9   41.81    2.31
   1   1  -9    2.06    1.10
  -1   1   9    0.87    1.16
  -1  -1   9    1.44    1.17
   1  -1  -9    0.84    1.12
   2   1  -9    3.00    1.44
   2  -1  -9    2.38    1.41
  -3   1   9    6.99    2.08
   3   1  -9    7.00    2.06
   3  -1  -9    7.47    2.05
  -3  -1   9    5.42    2.03
  -4   1   9   13.19    3.15
   4   1  -9   10.81    2.90
  -4  -1   9   12.40    3.07
   4  -1  -9   16.53    3.13
   4   2   9   20.34    2.39
   4   2   9   21.62    2.47
   4  -2   9   22.82    2.93
   3   2   9   81.20    3.23
   3   2   9   83.13    3.32
   3  -2   9   83.08    4.02
   2   2   9    6.98    1.19
   2   2   9    6.81    1.20
   2  -2   9    6.15    1.55
   2  -2   9    2.24    1.44
   1   2   9   12.98    1.60
   1  -2   9   12.44    1.80
   0   2   9   61.85    2.75
   0   2  -9   68.93    3.10
   0  -2   9   66.12    3.00
   0  -2  -9   66.01    2.78
  -1   2   9    5.18    1.40
   1   2  -9    3.55    1.28
  -1  -2   9    4.56    1.46
   1  -2  -9    4.46    1.33
  -2   2   9   33.35    3.29
  -2  -2   9   39.63    3.22
  -3   2   9    5.10    2.18
   3   2  -9    5.84    2.07
   3  -2  -9    4.87    2.08
  -3  -2   9    4.54    2.17
  -4   2   9    8.03    3.03
   4   2  -9   10.43    2.69
   4  -2  -9    9.09    2.91
  -4  -2   9    9.00    2.73
   4   3   9    6.39    1.77
   4   3   9    7.21    1.81
   4  -3   9    7.54    2.76
   3   3   9   -1.58    1.11
   3   3   9    2.02    1.09
   3  -3   9   -0.61    1.70
   2   3   9   35.60    2.04
   2   3   9   34.83    1.92
   2  -3   9   38.85    2.85
   1   3   9   24.61    1.79
   1  -3   9   26.57    2.50
   1  -3   9   25.79    2.37
   0   3   9    4.15    1.19
   0  -3  -9    4.23    1.12
   0  -3   9    2.97    1.32
  -1   3   9    4.69    1.41
   1   3  -9    2.38    1.29
  -1  -3   9    4.56    1.46
   1  -3  -9    3.67    1.32
  -2   3   9   22.37    2.38
   2   3  -9   25.05    3.10
   2  -3  -9   24.94    3.39
  -3   3   9    4.52    2.22
   3   3  -9    8.47    2.21
  -3  -3   9    7.86    2.30
   3  -3  -9    9.82    2.38
  -4   3   9    4.13    2.93
   4   3  -9    4.29    2.80
   4  -3  -9    7.01    2.93
  -4  -3   9   -0.47    2.55
   4   4   9    3.72    1.57
   4   4   9    6.42    1.55
   4  -4   9   -1.46    2.89
   3   4   9    3.98    1.13
   3   4   9    3.42    1.02
   3  -4   9    6.69    2.17
   2   4   9   61.04    2.24
   2   4   9   61.70    2.31
   2  -4   9   67.50    3.58
   2  -4   9   64.94    3.69
   1   4   9    2.81    1.00
   1  -4   9    5.57    1.74
  -1  -4  -9    4.51    0.98
   0   4   9   43.14    2.28
   0  -4   9   43.63    2.80
   0  -4  -9   38.30    2.22
  -1   4   9   -0.87    1.16
   1   4  -9   -1.45    1.26
   1  -4  -9   -0.76    1.05
  -1  -4   9    1.56    1.48
  -2   4   9   -0.77    1.44
   2   4  -9    0.28    1.54
  -2  -4   9   -0.38    1.62
   2  -4  -9    1.42    1.67
   3   4  -9   35.30    3.29
  -3   4   9   31.18    3.56
  -3  -4   9   32.09    3.37
   3  -4  -9   35.30    3.62
  -4   4   9    6.81    3.18
   4   4  -9    4.57    3.00
   4  -4  -9    0.37    3.24
  -4  -4   9    9.25    3.14
   4  -5   9   19.78    3.74
   3   5   9    1.94    0.74
   3   5   9    1.26    0.82
   3  -5   9    0.75    2.15
   2   5   9    1.63    0.74
   2   5   9    1.61    0.77
   2  -5   9    2.47    1.86
   1   5   9   75.16    2.55
  -1  -5  -9   76.48    2.54
   1  -5   9   72.43    3.70
   1  -5   9   75.01    3.92
   0   5   9    8.97    1.34
   0  -5  -9    7.54    1.30
   0  -5   9    8.22    1.82
  -1   5   9   52.40    2.93
   1   5  -9   46.11    3.64
   1  -5  -9   52.49    2.76
  -1  -5   9   48.25    3.27
  -2   5   9   10.87    2.14
   2   5  -9   10.35    2.10
   2  -5  -9    9.86    2.10
  -2  -5   9    8.21    2.16
   3   5  -9   17.89    2.81
  -3   5   9   19.58    3.01
  -3  -5   9   19.09    2.78
   3  -5  -9   14.22    2.85
  -4   5   9    4.66    3.47
   4   5  -9   -2.23    2.80
   4  -5  -9   -1.11    3.14
  -4  -5   9    1.02    2.90
   4  -6   9   -3.67    3.70
   3  -6   9    1.00    2.56
   2  -6   9    2.07    1.93
   1   6   9    2.81    0.91
   1  -6   9    3.08    1.84
  -1  -6  -9    3.18    0.91
   1  -6   9    2.68    1.79
   0   6   9    2.70    1.17
   0  -6   9    2.07    1.66
   0  -6  -9    1.18    1.10
  -1   6   9   14.19    1.88
  -1  -6   9   12.47    2.27
   1  -6  -9   13.98    1.92
   2   6  -9    0.67    1.87
  -2   6   9    1.84    1.91
   2  -6  -9   -0.62    1.92
  -2  -6   9    1.95    2.00
   3   6  -9   15.78    2.63
  -3   6   9   10.30    2.99
  -3  -6   9   16.30    2.88
   3  -6  -9    6.94    2.88
   4   6  -9    6.82    3.21
   4  -6  -9    0.28    3.48
  -4  -6   9   14.81    3.43
   3  -7   9   -1.16    3.04
   2  -7   9    9.63    2.59
   1   7   9   23.06    1.62
   1  -7   9   29.22    3.25
   1  -7   9   26.62    3.09
   0   7   9    3.32    1.29
   0  -7  -9    6.42    1.37
   0  -7   9    5.18    2.01
   0  -7   9    2.54    1.90
  -1   7   9   18.41    2.23
   1  -7  -9   18.99    2.52
  -1  -7   9   17.84    2.66
  -2   7   9   34.23    3.67
  -2  -7   9   31.88    3.34
   2  -7  -9   39.60    3.48
   3   7  -9    3.07    2.35
  -3   7   9    2.38    2.69
  -3  -7   9    0.86    2.63
   3  -7  -9    0.82    2.84
   3  -8   9   -1.98    3.21
   2  -8   9   10.81    2.99
   2  -8   9   13.50    3.01
   1   8   9    3.23    0.83
   1  -8   9    7.25    2.43
   1  -8   9   -0.59    2.26
   0   8   9   16.98    1.82
   0  -8  -9   11.19    1.62
   0  -8   9   10.47    2.47
   0  -8   9   11.30    2.55
  -1   8   9    4.63    2.16
  -1  -8   9    2.19    2.15
   1  -8  -9    0.13    1.76
  -2   8   9   -2.15    2.29
  -2  -8   9   -3.45    2.28
   2  -8  -9   -0.82    2.28
  -3   8   9    7.50    3.06
   3  -8  -9   -5.85    3.17
  -3  -8   9    3.84    2.87
   2  -9   9   -1.12    3.23
   2  -9   9   -2.27    3.16
   1  -9   9    1.34    2.50
   1  -9   9   -2.63    2.67
   0   9   9    0.01    1.46
   0  -9   9   -0.03    2.65
   0  -9  -9    1.45    1.47
   0  -9   9    2.95    2.49
  -1   9   9   24.56    3.33
  -1  -9   9   25.41    3.39
   1  -9  -9   20.21    3.22
  -1  -9   9   27.29    3.46
  -2   9   9    7.72    2.89
  -2  -9   9    7.48    2.98
   2  -9  -9    9.81    2.97
   1 -10   9    0.82    3.21
   1 -10   9    4.74    3.25
   0  10   9    3.61    1.71
   0 -10  -9    9.54    1.84
   0 -10   9    5.07    3.13
   0 -10   9   -0.38    3.23
  -1  10   9    0.56    2.38
  -1 -10   9    1.77    2.94
   1 -10  -9   -1.32    2.22
  -1 -10   9   -0.65    2.87
   4   0  10    2.29    2.16
   3   0  10   -1.55    1.54
   2   0  10    0.69    1.27
   2   0  10    0.78    1.29
   1   0  10    1.63    1.17
   0   0  10   13.20    1.75
   0   0 -10   13.47    1.79
  -1   0  10   -0.39    1.26
   1   0 -10   -1.88    1.21
  -2   0  10   10.98    1.98
   2   0 -10   12.85    2.12
   3   0 -10   -1.10    1.92
  -3   0  10    0.73    2.06
  -4   0  10   -3.53    2.76
   4   0 -10   -3.31    2.68
   4   1  10    9.24    2.45
   4   1  10    7.25    2.09
   4  -1  10    9.47    2.38
   3   1  10   -0.83    1.51
   3   1  10    1.65    1.47
   3  -1  10   -0.19    1.72
   3  -1  10    1.74    1.75
   2   1  10    2.37    1.32
   2   1  10    0.70    1.24
   2  -1  10    3.23    1.52
   2  -1  10    0.98    1.40
   1   1  10   22.11    2.02
   1  -1  10   16.85    2.26
   0   1 -10   -0.83    1.06
   0   1  10   -1.36    0.98
   0  -1  10    0.88    1.12
   0  -1 -10    0.08    1.04
   1   1 -10   42.52    2.79
  -1   1  10   35.89    2.78
  -1  -1  10   40.31    2.90
   1  -1 -10   36.93    2.57
   2   1 -10    1.74    1.51
  -2   1  10    4.08    1.81
   2  -1 -10   -0.25    1.43
  -2  -1  10   -0.64    1.63
  -3   1  10   12.65    2.46
   3   1 -10    7.26    2.12
  -3  -1  10    8.13    2.40
   3  -1 -10   13.65    2.48
  -4   1  10   11.06    3.29
   4   1 -10   10.15    3.07
  -4  -1  10   10.33    3.14
   4  -1 -10    5.12    2.98
   4   2  10    7.50    2.11
   4   2  10    9.38    2.48
   4  -2  10    7.22    2.54
   3   2  10   -1.03    1.43
   3   2  10    1.49    1.32
   3  -2  10   -3.49    1.81
   3  -2  10    2.13    1.96
   2   2  10   15.09    1.97
   2   2  10   13.80    1.81
   2  -2  10   14.06    2.12
   1   2  10    7.64    1.43
   1  -2  10    7.47    1.60
   0   2 -10    1.05    1.24
   0   2  10    2.99    1.21
   0  -2  10    3.11    1.36
   0  -2 -10    2.04    1.08
  -1   2  10   10.24    1.86
   1   2 -10    9.23    1.72
   1  -2 -10    8.52    1.70
  -2   2  10   18.91    2.50
   2   2 -10   19.33    2.44
  -2  -2  10   21.70    2.70
   2  -2 -10   18.50    2.52
  -3   2  10   -0.59    2.06
   3   2 -10    2.09    2.08
  -3  -2  10    0.83    2.19
   3  -2 -10    1.08    1.95
   4   2 -10   10.62    3.09
  -4   2  10   12.41    3.53
  -4  -2  10   15.01    3.11
   4  -2 -10   12.83    3.17
   4   3  10    1.44    1.91
   4   3  10    1.34    1.77
   4  -3  10   -1.43    2.77
   3   3  10    1.10    1.24
   3   3  10    2.10    1.41
   3  -3  10   -0.33    1.90
   2   3  10    7.23    1.36
   2   3  10   10.69    1.39
   2  -3  10    8.64    2.10
   2  -3  10    7.91    1.95
   1   3  10   30.22    2.14
   1  -3  10   26.54    3.26
   0   3  10    5.76    1.33
   0  -3 -10    6.84    1.38
   0  -3  10    4.86    2.48
  -1   3  10    2.78    1.35
   1   3 -10    1.38    2.41
  -1  -3  10    2.82    1.52
   1  -3 -10   -0.88    1.26
   2   3 -10   39.79    3.34
  -2   3  10   43.22    3.35
   2  -3 -10   38.89    3.00
   3   3 -10    6.62    2.18
  -3   3  10    6.31    2.45
  -3  -3  10    9.30    2.56
   3  -3 -10    8.46    2.50
  -4   3  10   28.43    4.02
   4   3 -10   26.10    3.55
  -4  -3  10   21.08    3.80
   4  -3 -10   21.44    3.84
   4   4  10   20.97    2.15
   4   4  10   20.93    2.63
   4  -4  10   26.41    3.90
   3   4  10    1.66    1.24
   3   4  10    0.09    1.07
   3  -4  10    1.18    2.20
   2   4  10    0.81    0.94
   2   4  10   -0.55    0.97
   2  -4  10    0.52    1.74
   2  -4  10    0.84    1.79
   1   4  10   31.82    2.10
   1  -4  10   26.36    2.66
   1  -4  10   30.24    3.09
   0   4  10    1.25    1.23
   0  -4  10   -2.98    1.41
   0  -4 -10   -0.15    1.06
   1   4 -10    6.72    1.82
  -1   4  10    5.98    1.59
   1  -4 -10    8.77    1.81
  -1  -4  10    8.82    1.86
   2   4 -10    4.04    1.94
  -2   4  10    2.31    1.80
   2  -4 -10    1.50    1.68
  -2  -4  10    2.82    1.90
   3   4 -10   20.33    2.92
  -3   4  10   20.36    3.17
  -3  -4  10   18.15    3.01
   3  -4 -10   16.58    2.85
  -4   4  10    5.66    3.47
   4   4 -10   -1.09    3.11
  -4  -4  10    1.37    3.22
   4  -4 -10    2.87    3.59
   4  -5  10    6.68    3.43
   3   5  10   12.64    1.65
   3   5  10   11.22    1.50
   3  -5  10    6.64    2.84
   2   5  10    2.60    1.01
   2   5  10    3.33    0.93
   2  -5  10    2.15    2.01
   2  -5  10    2.61    2.11
   1   5  10   15.41    1.78
   1  -5  10   15.47    2.34
  -1  -5 -10   16.65    1.74
   1  -5  10   19.60    2.50
   0   5  10    3.33    1.28
   0  -5  10    5.79    1.82
   0  -5 -10    5.89    1.35
   1   5 -10    0.24    1.61
  -1   5  10    2.38    1.44
   1  -5 -10   -1.18    1.36
  -1  -5  10   -1.48    1.54
   2   5 -10    4.60    1.93
  -2   5  10   10.44    2.25
   2  -5 -10    6.51    2.03
  -2  -5  10    7.87    2.18
  -3   5  10   15.96    3.03
   3   5 -10   18.26    2.94
   3  -5 -10   23.37    3.25
  -3  -5  10   12.76    3.01
   4   5 -10   10.35    3.71
   4  -5 -10    6.73    4.20
  -4  -5  10   16.50    3.47
   3  -6  10   13.24    3.36
   2   6  10   15.57    1.27
   2   6  10   16.31    1.21
   2  -6  10   14.05    2.76
   2  -6  10   12.90    2.86
   1   6  10   -1.18    0.92
   1  -6  10    1.86    1.91
  -1  -6 -10    0.64    0.96
   1  -6  10    0.46    2.01
   0   6  10   12.37    1.64
   0  -6 -10   14.41    1.80
   0  -6  10   14.89    2.36
  -1   6  10   21.06    2.50
  -1  -6  10   20.58    2.68
   1  -6 -10   19.44    2.59
   2   6 -10    0.83    1.93
  -2   6  10   -0.08    2.09
   2  -6 -10   -0.92    1.91
  -2  -6  10    0.48    2.09
  -3   6  10   11.52    3.31
   3   6 -10   14.22    3.04
  -3  -6  10   23.60    3.54
   3  -6 -10   14.34    3.39
   3  -7  10    7.48    3.21
   2  -7  10   23.31    3.43
   2  -7  10   30.78    3.93
   1   7  10   10.27    1.29
   1  -7  10    9.81    2.54
   1  -7  10    7.79    2.43
   0   7  10    7.44    1.57
   0  -7  10    8.38    2.53
   0  -7 -10    7.89    1.52
   0  -7  10    6.59    2.27
  -1  -7  10   11.58    2.50
   1  -7 -10   11.76    2.38
  -2   7  10   13.00    2.75
  -2  -7  10   18.68    3.07
   2  -7 -10   17.26    2.85
   3   7 -10    1.80    2.86
  -3   7  10   -0.14    2.96
   3  -7 -10   -3.59    3.19
  -3  -7  10   -3.31    3.00
   2  -8  10    6.79    3.30
   2  -8  10    2.71    2.93
   1   8  10    4.26    1.05
   1  -8  10    3.20    2.61
   1  -8  10    1.19    2.70
   0   8  10  103.54    3.93
   0  -8 -10  103.84    3.83
   0  -8  10   98.70    5.26
   0  -8  10  113.13    5.59
  -1   8  10    4.12    2.04
  -1  -8  10    2.39    2.64
   1  -8 -10    0.94    1.88
  -2   8  10    5.65    2.46
  -2  -8  10    1.71    2.65
   2  -8 -10   -2.29    2.48
   2  -9  10   13.30    3.64
   2  -9  10   16.86    4.33
   1   9  10    0.63    0.79
   1  -9  10    5.15    2.94
   1  -9  10   -1.87    2.96
   0   9  10    8.57    1.82
   0  -9  10    3.52    2.94
   0  -9 -10    1.98    1.63
   0  -9  10    7.93    2.96
  -1   9  10    8.23    2.39
   1  -9 -10    4.06    2.21
  -1  -9  10    9.86    2.99
  -1  -9  10    8.24    2.88
  -2   9  10    1.37    2.85
  -2  -9  10    2.82    3.22
   2  -9 -10    0.83    3.00
   1 -10  10   23.78    4.26
   1 -10  10   24.86    4.14
   0  10  10    9.47    2.05
   0 -10 -10   10.06    1.92
   0 -10  10    7.44    3.32
   0 -10  10    8.91    3.49
  -1  10  10   17.40    3.08
  -1 -10  10   20.78    3.98
   1 -10 -10   19.81    3.05
  -1 -10  10   16.20    3.89
   4   0  11    2.67    2.41
   4   0  11    0.49    2.52
   3   0  11   33.51    3.17
   3   0  11   31.90    3.27
   2   0  11   -0.32    1.43
   2   0  11    1.73    1.51
   1   0  11   30.30    2.62
   0   0  11    0.81    1.35
   0   0 -11    1.84    1.43
  -1   0  11   73.69    3.85
   2   0 -11    2.41    1.71
  -2   0  11    0.50    1.83
   3   0 -11  101.94    5.05
  -3   0  11  108.98    5.27
  -4   0  11   -7.45    3.02
   4   0 -11    3.56    3.17
   4   1  11   28.51    3.25
   4   1  11   36.68    3.71
   4  -1  11   29.56    3.71
   4  -1  11   33.96    3.68
   3   1  11   40.33    3.11
   3  -1  11   42.18    3.70
   3  -1  11   39.10    3.50
   2   1  11   73.29    3.44
   2   1  11   73.24    3.38
   2  -1  11   67.28    4.19
   2  -1  11   70.59    3.86
   1   1  11    6.03    1.48
   1  -1  11    6.55    1.64
   0   1  11   53.58    3.04
   0   1 -11   52.41    3.02
   0  -1 -11   56.22    2.90
   0  -1  11   45.67    3.38
   1   1 -11   22.00    2.51
  -1   1  11   20.60    2.95
   1  -1 -11   24.91    4.08
  -1  -1  11   20.43    2.53
   2   1 -11   52.62    3.47
  -2   1  11   57.62    3.69
  -2  -1  11   46.53    3.84
   2  -1 -11   59.53    3.66
   3   1 -11    7.37    2.36
  -3   1  11    3.21    2.28
   3  -1 -11    2.94    2.29
  -3  -1  11    4.34    2.45
  -4   1  11   10.52    3.43
   4   1 -11   13.26    3.50
   4  -1 -11   13.88    3.45
   4   2  11    2.63    2.45
   4   2  11    0.37    2.27
   4  -2  11    2.85    2.82
   3   2  11    5.32    1.75
   3   2  11    3.96    1.66
   3  -2  11    2.20    2.17
   3  -2  11    3.37    2.07
   2   2  11   51.87    2.93
   2   2  11   53.00    2.89
   2  -2  11   54.03    3.60
   2  -2  11   43.52    3.56
   1   2  11   18.13    2.24
   1  -2  11   22.99    2.71
   0   2 -11    4.62    1.89
   0   2  11    3.17    1.44
   0  -2  11    3.65    1.64
   0  -2 -11    3.68    1.41
   1   2 -11    4.82    1.92
   1  -2 -11    7.86    1.98
  -1  -2  11   11.24    1.91
   2   2 -11    6.44    2.01
  -2   2  11    9.98    2.30
   2  -2 -11    4.23    1.92
  -2  -2  11    4.22    1.99
  -3   2  11   39.60    4.23
   3   2 -11   25.01    3.14
   3  -2 -11   29.89    3.65
  -3  -2  11   31.02    3.79
   4   2 -11   32.42    4.28
  -4   2  11   28.50    4.19
  -4  -2  11   39.34    4.84
   4  -2 -11   32.26    4.42
   4   3  11    0.45    2.10
   4   3  11    2.80    1.99
   4  -3  11    4.00    3.24
   3   3  11   49.86    2.90
   3   3  11   42.97    3.10
   3  -3  11   43.39    4.35
   3  -3  11   39.53    4.12
   2   3  11   19.56    2.26
   2   3  11   16.95    2.07
   2  -3  11   15.33    2.39
   2  -3  11   17.20    2.65
   1   3  11    2.31    1.32
   1  -3  11    3.70    1.76
   0   3  11   88.39    3.66
   0  -3  11   88.70    4.02
   0  -3 -11   86.00    3.53
   1   3 -11   32.59    2.92
   1  -3 -11   28.94    3.31
  -1  -3  11   30.09    2.87
  -2   3  11   60.26    4.03
   2   3 -11   69.14    4.11
   2  -3 -11   55.02    3.70
   3   3 -11   -2.26    2.38
  -3   3  11    0.59    2.53
  -3  -3  11    0.79    2.51
   3  -3 -11    4.46    2.57
   4   3 -11   -0.66    3.46
  -4   3  11    3.25    4.75
  -4  -3  11   -1.63    3.44
   4  -3 -11   -3.00    3.18
   4   4  11   43.21    3.48
   4  -4  11   54.35    5.53
   3   4  11   10.82    1.60
   3   4  11    8.82    1.67
   3  -4  11    3.35    2.64
   3  -4  11   11.83    3.07
   2   4  11   17.08    2.05
   2   4  11   15.09    2.05
   2  -4  11   17.62    2.68
   2  -4  11   17.22    2.57
   1   4  11   30.14    2.38
   1  -4  11   30.19    3.18
   1  -4  11   31.41    3.10
   0   4  11   32.30    2.66
   0  -4  11   35.14    3.05
   0  -4 -11   31.61    2.58
   1   4 -11    1.82    1.79
  -1   4  11    1.71    1.92
  -1  -4  11   -0.19    1.92
   1  -4 -11    5.74    3.12
   2   4 -11   45.73    3.73
  -2   4  11   44.16    3.88
   2  -4 -11   44.57    3.71
  -2  -4  11   49.98    4.21
  -3   4  11    1.96    2.60
   3   4 -11   -5.13    2.37
  -3  -4  11    1.12    2.50
   4   4 -11   -1.73    3.32
  -4  -4  11   -1.95    3.40
   3   5  11    4.35    1.31
   3   5  11    3.98    1.16
   3  -5  11    5.51    2.88
   3  -5  11    3.11    3.05
   2   5  11    8.24    1.37
   2   5  11    8.09    1.27
   2  -5  11    5.92    2.37
   2  -5  11    9.70    2.60
   1   5  11    6.82    1.43
   1  -5  11    5.74    2.21
   1  -5  11    4.91    2.18
   0   5  11    2.31    1.38
   0  -5 -11   -1.10    1.31
   0  -5  11   -0.09    1.77
  -1   5  11   21.47    2.73
  -1  -5  11   14.39    2.70
  -2   5  11    3.27    2.11
   2   5 -11    2.43    2.17
  -2  -5  11    3.64    2.29
   2  -5 -11    5.62    2.26
   3   5 -11   15.93    3.28
  -3   5  11   11.34    3.24
  -3  -5  11   13.59    3.06
   3  -5 -11   10.78    3.12
   3  -6  11    6.31    3.08
   3  -6  11    4.96    3.13
   2   6  11   22.46    1.65
   2   6  11   21.82    1.75
   2  -6  11   29.64    3.68
   2  -6  11   22.79    3.18
   1   6  11    6.04    1.35
   1  -6  11    5.89    2.43
   1  -6  11    3.74    2.41
   0   6  11    4.29    1.52
   0  -6 -11    0.53    1.42
   0  -6  11    0.65    1.97
  -1   6  11   12.31    2.30
   1  -6 -11   13.54    2.33
  -1  -6  11   10.65    2.48
  -2   6  11    0.48    2.34
   2   6 -11    1.01    2.21
  -2  -6  11    1.60    2.58
   2  -6 -11    7.06    2.42
   3   6 -11    1.44    3.12
  -3   6  11    5.35    3.03
   3  -6 -11   -0.19    3.26
  -3  -6  11    5.43    3.26
   2  -7  11    2.16    2.95
   2  -7  11    5.63    3.00
   1   7  11    2.08    1.25
   1  -7  11   -3.72    2.42
   1  -7  11   -3.77    2.43
   0   7  11    4.04    1.66
   0  -7 -11    3.73    1.61
   0  -7  11    7.83    2.60
   0  -7  11    5.46    2.51
  -1   7  11    3.51    2.02
  -1  -7  11   -1.32    2.37
   1  -7 -11   -0.26    1.85
  -2   7  11    1.94    2.62
   2  -7 -11    7.06    2.63
  -2  -7  11    4.08    2.92
   3   7 -11   -1.67    3.26
  -3   7  11    6.12    3.59
  -3  -7  11    1.34    3.31
   3  -7 -11    5.10    3.56
   2  -8  11    0.07    3.22
   2  -8  11    1.37    3.34
   1   8  11   11.38    1.44
   1  -8  11    8.88    3.37
   1  -8  11   12.71    3.29
   0   8  11   -0.18    1.68
   0  -8 -11    1.17    1.61
   0  -8  11    6.47    2.77
   0  -8  11   -2.66    2.75
  -1   8  11    3.16    2.26
  -1  -8  11    0.76    2.65
   1  -8 -11    4.23    2.20
  -2   8  11   -4.27    2.59
   2  -8 -11    4.08    2.93
  -2  -8  11    4.01    3.22
   1  -9  11    3.91    3.72
   0   9  11    5.59    1.96
   0  -9  11    3.71    3.25
   0  -9 -11    4.53    1.89
   0  -9  11    6.26    3.33
  -1   9  11    7.44    2.56
  -1  -9  11    3.22    3.21
   1  -9 -11    3.55    2.41
  -1  -9  11    0.28    3.21
   4   0  12    7.11    3.05
   4   0  12    7.01    3.06
   3   0  12   -3.08    1.95
   3   0  12   -2.52    2.07
   2   0  12   61.02    3.55
   2   0  12   60.74    3.44
   1   0  12   -0.09    1.79
   0   0  12   86.58    4.02
   0   0 -12   81.75    3.91
  -1   0  12    0.69    1.67
   1   0 -12    0.66    1.59
  -2   0  12   -1.08    2.02
   2   0 -12    1.91    1.93
  -3   0  12    5.72    2.80
   3   0 -12    0.42    2.53
   4   0 -12   -1.24    3.35
   4   1  12   -4.62    2.69
   4   1  12    0.24    2.42
   4  -1  12    6.49    3.09
   4  -1  12   -5.14    2.86
   3   1  12   11.23    2.38
   3   1  12   12.08    2.14
   3  -1  12   12.39    2.46
   3  -1  12   10.44    2.62
   2   1  12   14.88    2.05
   2   1  12   21.25    2.77
   2  -1  12   24.26    3.12
   2  -1  12   21.91    2.77
   1   1  12    1.34    1.47
   1  -1  12    4.24    1.74
   0   1 -12    2.00    1.66
   0  -1 -12    2.70    1.68
   0  -1  12    4.79    1.67
   1   1 -12    6.76    1.97
  -1   1  12   10.65    2.18
   1  -1 -12    7.44    1.87
  -1  -1  12    4.74    1.96
  -2   1  12   18.75    2.73
   2   1 -12   18.93    2.82
  -2  -1  12   18.32    2.97
   2  -1 -12   21.86    2.78
   3   1 -12    3.97    2.63
  -3   1  12    2.71    2.69
   3  -1 -12    4.73    2.71
  -3  -1  12    3.22    2.45
   4   1 -12    6.32    3.84
   3   2  12    0.29    2.00
   3   2  12    0.52    1.79
   3  -2  12    2.00    2.45
   3  -2  12   -0.84    2.51
   2   2  12    5.49    1.76
   2   2  12    3.97    1.63
   2  -2  12    4.91    2.15
   2  -2  12    5.14    2.17
   1   2  12    1.67    1.46
   1  -2  12    4.04    1.85
   0   2  12   11.05    2.11
   0  -2  12   12.95    2.29
   0  -2 -12    7.87    1.66
  -1   2  12   20.98    2.77
   1   2 -12   15.92    2.35
  -1  -2  12   16.12    2.49
   1  -2 -12   11.94    2.07
  -2   2  12   -0.27    2.12
   2   2 -12    1.18    2.10
  -2  -2  12   -1.79    1.96
   2  -2 -12   -0.81    2.03
   3   2 -12    1.74    2.78
  -3   2  12   -0.19    2.68
   3  -2 -12    0.50    2.55
  -3  -2  12    4.80    3.02
   4   2 -12    4.00    3.64
   3   3  12    6.23    1.94
   3   3  12   10.10    1.93
   3  -3  12   15.77    2.91
   3  -3  12    5.97    2.77
   2   3  12    0.29    1.47
   2   3  12    1.64    1.42
   2  -3  12    0.39    1.98
   2  -3  12   -2.03    2.05
   1   3  12   31.57    2.67
   1  -3  12   27.60    3.15
   0   3  12    2.11    1.62
   0  -3 -12    2.48    1.58
   0  -3  12    1.65    1.85
  -1   3  12   54.81    3.70
   1   3 -12   45.31    3.44
  -1  -3  12   42.25    3.80
   1  -3 -12   52.20    3.36
  -2   3  12    2.76    2.40
   2   3 -12    3.51    2.27
  -2  -3  12    2.80    2.37
   2  -3 -12    3.48    2.24
   3   3 -12    3.59    2.89
  -3   3  12    2.83    2.92
  -3  -3  12   -2.53    2.75
   3  -3 -12   -4.55    2.71
   3   4  12    1.63    1.71
   3   4  12    1.70    1.50
   3  -4  12   -3.15    2.96
   3  -4  12   -5.52    2.54
   2   4  12    1.15    1.47
   2   4  12    0.74    1.34
   2  -4  12    0.04    2.34
   2  -4  12   -1.78    2.47
   1   4  12  117.43    4.18
   1  -4  12  126.85    5.48
   1  -4  12  109.69    5.09
   0   4  12    6.42    1.90
   0  -4 -12    7.31    1.67
   0  -4  12    8.69    2.07
   1   4 -12    4.79    2.13
  -1   4  12   -0.51    1.76
   1  -4 -12    0.62    1.71
  -1  -4  12    2.49    2.10
  -2   4  12   50.77    4.23
   2   4 -12   45.87    4.03
  -2  -4  12   49.89    4.27
   2  -4 -12   50.89    4.31
   3   4 -12    3.35    2.91
  -3   4  12   10.04    3.36
  -3  -4  12   -0.95    2.80
   3  -4 -12   10.43    3.20
   3   5  12    1.44    1.25
   3   5  12    3.97    1.64
   3  -5  12    3.53    3.15
   3  -5  12    3.10    3.14
   2   5  12    2.50    1.33
   2   5  12   -0.39    1.37
   2  -5  12    0.14    2.71
   2  -5  12    3.85    2.59
   1   5  12    1.27    1.48
   1  -5  12    6.63    2.64
   1  -5  12    4.44    2.38
   0   5  12   20.14    2.59
   0  -5 -12   21.98    2.74
   0  -5  12   18.81    3.00
  -1   5  12    3.73    1.86
   1  -5 -12   -1.74    1.87
  -1  -5  12    3.01    2.27
  -2   5  12   26.99    3.30
   2   5 -12   29.90    3.47
   2  -5 -12   26.88    3.27
  -2  -5  12   26.84    3.57
   3   5 -12    2.48    3.32
  -3   5  12    5.89    3.22
  -3  -5  12    8.14    3.16
   3  -5 -12    2.93    3.20
   3  -6  12    9.65    3.92
   2   6  12   10.58    1.37
   2   6  12    7.22    1.41
   2  -6  12    9.07    3.17
   2  -6  12    6.00    3.00
   1   6  12    4.29    1.50
   1  -6  12   -0.86    2.56
   1  -6  12    0.42    2.63
   0   6  12  124.56    4.55
   0  -6  12  128.25    5.69
   0  -6 -12  128.68    4.51
  -1   6  12   18.77    2.51
  -1  -6  12   19.97    3.40
   1  -6 -12   15.13    2.51
  -2   6  12   13.62    3.07
   2   6 -12    6.18    2.81
  -2  -6  12   13.37    3.36
   2  -6 -12   15.45    2.99
  -3   6  12    4.39    3.69
   3   6 -12    7.02    3.35
   3  -6 -12   12.89    3.66
  -3  -6  12   10.97    3.87
   2  -7  12   22.72    3.68
   2  -7  12   15.32    3.87
   1   7  12   -1.12    1.42
   1  -7  12    0.25    3.04
   1  -7  12   -4.44    2.73
   0   7  12    4.10    1.88
   0  -7  12    9.18    3.03
   0  -7 -12    1.96    1.83
   0  -7  12    4.58    2.98
  -1   7  12   27.68    3.02
   1  -7 -12   33.75    3.68
  -1  -7  12   29.95    3.91
  -2   7  12    0.15    2.74
  -2  -7  12    2.85    3.03
   2  -7 -12    6.97    3.06
   1   8  12   30.00    2.61
   1  -8  12   33.20    4.36
   1  -8  12   30.29    4.13
   0   8  12    2.33    2.05
   0  -8  12    5.86    3.14
   0  -8 -12    4.95    2.03
   0  -8  12    4.75    3.23
  -1   8  12    9.41    2.78
   1  -8 -12   15.36    2.80
  -1  -8  12   12.25    3.34
  -2   8  12    3.00    3.29
  -2  -8  12    8.43    3.77
   2  -8 -12    7.03    3.38
   0   9  12    8.37    2.39
   0  -9  12    9.73    3.58
   0  -9 -12   10.77    2.26
   0  -9  12    5.17    4.01
   3   0  13   22.45    3.14
   3   0  13   16.12    2.77
   2   0  13   -1.03    1.96
   2   0  13   -4.51    1.77
   1   0  13   19.51    2.55
   0   0 -13   -0.17    1.75
   0   0  13    1.41    1.82
   1   0 -13  192.81    6.33
   2   0 -13    0.48    2.19
  -2   0  13    0.64    2.23
   3   0 -13    0.93    2.84
  -3   0  13   -0.39    2.84
   3   1  13    6.86    2.46
   3   1  13   11.83    2.72
   3  -1  13    7.72    2.61
   3  -1  13    5.30    2.75
   2   1  13   64.37    3.80
   2   1  13   57.33    3.83
   2  -1  13   59.09    4.21
   2  -1  13   60.48    4.26
   1   1  13   67.98    3.85
   1  -1  13   58.36    3.94
   0   1  13   51.36    3.45
   0   1 -13   52.82    3.73
   0  -1 -13   45.05    3.23
   0  -1  13   48.46    3.55
   1   1 -13   69.29    4.44
  -1   1  13   71.85    4.24
   1  -1 -13   83.40    4.32
  -1  -1  13   73.86    4.34
   2   1 -13    6.74    2.49
  -2   1  13    8.63    2.52
  -2  -1  13   10.51    2.76
   2  -1 -13   10.28    2.76
   3   1 -13    0.28    3.02
  -3   1  13    3.06    3.14
   3  -1 -13    2.35    3.04
  -3  -1  13    2.09    2.97
   3   2  13   21.76    2.65
   3   2  13   16.31    2.67
   3  -2  13   25.71    3.66
   3  -2  13   19.01    3.38
   2   2  13    2.09    2.13
   2  -2  13   -1.51    2.23
   2  -2  13    3.16    2.15
   1   2  13   32.60    3.76
   1  -2  13   37.53    3.87
   0  -2  13   80.74    4.61
   0  -2 -13   89.48    4.17
   1   2 -13    5.21    2.08
  -1   2  13    8.86    2.30
  -1  -2  13    7.83    2.34
   1  -2 -13    7.14    2.09
  -2   2  13   27.41    3.40
   2   2 -13   26.64    3.30
  -2  -2  13   27.61    3.58
   2  -2 -13   30.13    3.90
   3   2 -13   26.84    3.73
  -3   2  13   31.58    3.84
   3  -2 -13   34.85    4.27
  -3  -2  13   35.91    4.67
   3   3  13   32.69    3.36
   3   3  13   34.76    3.55
   3  -3  13   23.75    3.64
   3  -3  13   33.77    4.13
   2   3  13    7.88    1.98
   2   3  13    5.99    1.92
   2  -3  13    3.84    2.66
   2  -3  13   13.60    2.87
   1   3  13    2.57    1.83
   1  -3  13    2.41    2.13
   0   3  13   26.54    3.13
   0  -3 -13   26.03    2.76
   0  -3  13   29.18    3.39
   1   3 -13   17.31    2.64
  -1   3  13   13.68    2.62
  -1  -3  13   22.43    2.90
   1  -3 -13   19.38    2.72
   2   3 -13   12.74    3.11
  -2   3  13    3.71    2.48
  -2  -3  13    8.42    2.81
   2  -3 -13    9.42    2.59
   3   3 -13    1.79    3.03
  -3   3  13   -2.20    3.03
   3  -3 -13    0.12    3.03
  -3  -3  13    1.28    3.17
   3   4  13    4.52    1.83
   3   4  13    1.82    2.01
   3  -4  13   -1.26    3.16
   3  -4  13    0.39    3.05
   2   4  13    3.40    1.81
   2   4  13    2.08    1.62
   2  -4  13    2.02    2.63
   2  -4  13   -2.39    2.57
   1   4  13   66.06    3.66
   1  -4  13   57.70    4.66
   1  -4  13   71.87    4.56
   0   4  13    6.61    1.97
   0  -4  13    4.31    2.39
   0  -4 -13    2.88    1.85
   1   4 -13    6.10    2.57
  -1   4  13    3.86    2.14
   1  -4 -13    8.38    2.17
  -1  -4  13    2.29    2.49
   2   4 -13   28.44    3.75
  -2   4  13   27.50    3.49
   2  -4 -13   34.28    3.96
  -2  -4  13   26.56    3.69
   3   4 -13    6.05    3.43
  -3   4  13   -7.99    3.12
  -3  -4  13    0.56    3.30
   3  -4 -13    2.99    3.20
   3   5  13   -0.43    1.71
   3   5  13    0.07    2.07
   3  -5  13    3.64    3.55
   2   5  13    4.17    1.61
   2   5  13    1.03    1.68
   2  -5  13    4.15    3.01
   2  -5  13    2.45    2.94
   1   5  13   47.57    3.34
   1  -5  13   52.46    4.47
   1  -5  13   37.13    4.69
   0   5  13   -0.11    1.85
   0  -5  13    1.90    2.42
  -1   5  13    2.52    2.16
  -1  -5  13   -0.41    2.58
   1  -5 -13    8.22    2.36
  -2   5  13   -2.24    2.63
   2   5 -13    1.32    2.79
   2  -5 -13    3.35    2.64
  -2  -5  13   -0.47    2.90
  -3   5  13   12.05    3.76
   3   5 -13   -1.22    3.34
   3  -5 -13    3.20    3.73
  -3  -5  13   11.83    3.71
   2   6  13   21.66    2.46
   2   6  13   21.72    2.62
   2  -6  13   20.54    4.04
   2  -6  13   16.87    3.94
   1   6  13    1.43    1.72
   1  -6  13   -0.47    2.82
   1  -6  13    7.17    3.20
   0   6  13    5.46    2.31
   0  -6  13    4.33    2.76
  -1   6  13    0.70    2.21
  -1  -6  13    2.43    2.78
   1  -6 -13    1.89    2.30
   2   6 -13   10.89    3.29
  -2   6  13    3.15    2.83
   2  -6 -13    1.93    3.13
  -2  -6  13    5.83    3.36
   1   7  13    2.44    1.79
   1  -7  13    3.74    3.35
   1  -7  13    0.94    3.23
   0   7  13   -0.77    2.33
   0  -7 -13    1.55    3.38
   0  -7  13   -1.61    2.89
   0  -7  13    2.96    3.11
  -1   7  13   19.65    3.10
  -1  -7  13   10.08    3.41
   1  -7 -13    9.00    2.81
  -2   7  13   -0.97    3.12
  -2  -7  13   -3.16    3.48
   2  -7 -13    4.63    3.43
   1   8  13    0.78    1.81
   0  -8  13   -4.81    3.75
   0  -8  13   -7.77    3.48
   0  -8 -13   -1.39    3.57
  -1   8  13   13.52    3.16
  -1  -8  13    8.03    4.04
   1  -8 -13    7.64    2.92
   3   0  14    1.29    2.81
   3   0  14   -1.73    2.62
   2   0  14   -2.31    2.24
   2   0  14   -0.19    2.09
   1   0  14   -4.03    1.95
   0   0  14   -0.47    1.99
   0   0 -14    2.78    2.09
  -1   0  14   -3.13    2.39
   1   0 -14    2.37    2.46
   2   0 -14   10.51    3.08
  -2   0  14   10.28    3.16
   3   0 -14   -5.09    3.12
  -3   0  14   -5.27    3.12
   3   1  14    3.03    2.59
   3   1  14    1.64    2.71
   3  -1  14    2.66    3.25
   3  -1  14    4.07    2.84
   2   1  14    1.64    2.25
   2   1  14   -2.16    2.19
   2  -1  14    3.09    2.39
   2  -1  14   -2.24    2.26
   1   1  14    4.77    2.07
   1  -1  14    2.25    2.25
   0   1 -14    8.98    2.36
   0   1  14    3.84    2.13
   0  -1 -14    7.09    2.12
   0  -1  14    7.91    2.32
  -1   1  14   -3.01    2.25
   1   1 -14    2.28    2.45
   1  -1 -14    0.81    2.24
  -1  -1  14    0.75    2.31
   2   1 -14    3.14    2.97
  -2   1  14   -2.59    2.50
   2  -1 -14    3.25    2.81
  -2  -1  14    4.15    2.92
  -3   1  14   -0.43    3.38
   3   1 -14   -3.81    3.25
  -3  -1  14    3.78    3.40
   3  -1 -14    0.69    3.26
   3   2  14    2.38    2.65
   3   2  14   -2.26    2.37
   3  -2  14   -3.07    3.08
   3  -2  14    2.51    3.22
   2   2  14    3.30    2.29
   2   2  14    4.55    2.12
   2  -2  14    6.11    2.88
   2  -2  14    3.35    2.72
   1   2  14   25.73    2.83
   1  -2  14   21.42    3.04
   0   2  14   22.17    2.91
   0  -2 -14   32.40    3.51
   0  -2  14   29.26    3.86
   1   2 -14   22.58    3.24
  -1   2  14   21.29    3.16
   1  -2 -14   20.29    2.95
  -1  -2  14   19.71    3.18
   2   2 -14    0.48    2.72
  -2   2  14    1.23    2.77
  -2  -2  14   -1.65    2.64
   2  -2 -14    2.06    2.65
   3   2 -14    0.76    3.47
  -3   2  14    6.66    4.08
  -3  -2  14    2.50    4.61
   3  -2 -14    1.62    3.49
   3   3  14    5.82    2.35
   3   3  14   -0.45    2.48
   3  -3  14    4.26    3.33
   3  -3  14   -3.19    3.52
   2   3  14    3.75    2.11
   2   3  14    3.71    2.24
   2  -3  14    2.05    2.84
   2  -3  14    1.36    2.77
   1   3  14    3.52    2.13
   1  -3  14    5.37    2.57
   0   3  14    0.12    2.01
   0  -3 -14    2.01    2.01
   0  -3  14    1.37    2.32
  -1   3  14   11.65    2.80
   1   3 -14   16.15    2.95
  -1  -3  14   11.27    2.80
   1  -3 -14   13.03    2.76
   2   3 -14    4.06    3.15
  -2   3  14    5.71    3.18
  -2  -3  14    4.88    3.29
   2  -3 -14    8.64    3.17
   3   3 -14   22.45    4.77
   3  -3 -14   24.39    4.39
   2   4  14    1.94    1.93
   2   4  14    2.66    2.16
   2  -4  14    1.17    2.86
   2  -4  14    0.66    3.17
   1   4  14    3.41    2.10
   1  -4  14   -2.12    2.41
   1  -4  14    0.34    2.82
   0   4  14   -1.07    2.08
   0  -4  14    0.56    2.47
   0  -4 -14   -1.22    1.95
  -1   4  14   44.60    4.27
   1   4 -14   45.42    4.53
   1  -4 -14   41.25    4.23
  -1  -4  14   49.83    4.60
  -2   4  14   15.55    3.09
   2   4 -14   19.22    3.44
  -2  -4  14   19.12    3.76
   2   5  14    3.85    1.89
   2   5  14   -0.37    2.01
   2  -5  14    8.44    3.50
   2  -5  14   -0.36    3.15
   1   5  14   36.19    4.32
   1  -5  14   53.10    5.00
   1  -5  14   43.48    5.13
   0   5  14   12.16    2.61
   0  -5  14   12.00    3.01
   0  -5 -14   16.88    2.62
  -1   5  14    1.00    2.44
  -1  -5  14    1.59    2.89
   1  -5 -14   -1.49    2.33
  -2   5  14    4.89    3.04
   2   5 -14    3.73    3.21
  -2  -5  14    3.18    3.81
   2  -5 -14    2.54    3.14
   1   6  14    8.79    2.28
   1  -6  14   14.82    3.82
   1  -6  14   14.46    3.70
   0   6  14    9.16    2.35
   0  -6 -14   12.17    2.63
   0  -6  14    5.78    3.22
  -1   6  14   -0.52    2.64
   1  -6 -14    1.65    2.68
  -1  -6  14    5.18    3.46
   2   6 -14    6.68    3.62
  -2   6  14   -2.44    3.27
   2  -6 -14    1.53    3.62
   1   7  14    3.44    2.12
   0   7  14    0.43    2.47
   0  -7  14   -2.77    3.36
   0  -7 -14    1.62    2.34
   0  -7  14    0.66    3.84
  -1   7  14   12.77    3.40
   1  -7 -14   12.93    3.31
   2   0  15   -3.74    2.40
   2   0  15   -4.15    2.47
   1   0  15   -0.90    2.49
   0   0 -15    3.73    2.40
   0   0  15   -1.25    2.46
   1   0 -15   14.13    3.09
  -1   0  15   14.81    3.34
   2   0 -15    0.20    3.14
  -2   0  15   -0.81    2.97
   2   1  15   -1.97    2.51
   2   1  15    2.48    2.62
   2  -1  15    3.10    2.92
   2  -1  15    3.42    2.99
   1   1  15    3.81    2.27
   1  -1  15    0.38    2.40
   0   1  15   11.36    2.90
   0  -1  15   10.26    2.87
   0  -1 -15    8.39    2.60
  -1   1  15    2.91    2.88
   1   1 -15    6.12    2.98
   1  -1 -15    0.41    2.56
  -1  -1  15    7.87    2.80
   2   1 -15   -0.20    3.03
  -2   1  15   16.90    3.64
   2  -1 -15   -0.19    3.15
   2   2  15   10.32    2.63
   2   2  15    7.54    2.77
   2  -2  15    5.15    3.18
   2  -2  15    4.96    3.21
   1   2  15    8.63    2.50
   1  -2  15    9.23    2.91
   0   2  15   23.24    3.31
   0  -2 -15   29.80    3.91
   0  -2  15   22.35    3.49
  -1   2  15    0.16    2.56
   1   2 -15    0.49    2.85
   1  -2 -15   -1.06    2.61
  -1  -2  15   -0.85    2.78
   2   2 -15    7.58    3.48
  -2   2  15   21.93    3.82
  -2  -2  15   15.50    3.58
   2   3  15    5.78    2.51
   2   3  15    3.25    2.48
   2  -3  15   -4.45    3.09
   2  -3  15   -0.59    3.18
   1   3  15    4.96    2.52
   1  -3  15    2.80    3.00
   0   3  15    3.79    2.57
   0  -3 -15    5.06    2.46
   0  -3  15    6.54    2.90
   1   3 -15   -1.67    2.71
  -1   3  15    1.90    2.80
  -1  -3  15   -5.16    2.88
   1  -3 -15   -0.45    2.66
   2   3 -15   -3.51    3.25
  -2   3  15    2.94    3.35
   2  -3 -15    0.23    3.14
  -2  -3  15    2.67    3.60
   2   4  15   18.38    2.76
   2   4  15   13.81    2.84
   2  -4  15   22.96    4.17
   2  -4  15   15.50    4.13
   1   4  15    1.29    2.42
   1  -4  15    1.30    3.09
   1  -4  15    0.04    3.13
   0   4  15   -0.38    2.39
   0  -4  15   -0.10    2.82
   0  -4 -15    3.82    2.42
  -1   4  15    4.44    2.82
   1  -4 -15    3.39    2.86
  -1  -4  15    4.05    3.20
   2   4 -15   -1.36    3.73
  -2   4  15    1.12    3.11
   2  -4 -15    5.93    3.44
   1   5  15    0.39    2.37
   1  -5  15    0.87    3.61
   1  -5  15   -3.69    3.24
   0   5  15    1.80    2.65
   0  -5  15    5.86    3.44
   0  -5 -15    6.44    2.59
  -1   5  15    2.69    2.93
   1  -5 -15    0.75    2.89
  -1  -5  15    3.73    3.60
   0   6  15    5.32    2.66
   0  -6 -15    6.11    2.65
   2   0  16   -3.55    3.12
   2   0  16    3.53    3.05
   1   0  16    3.26    2.80
   0   0  16    2.28    2.70
   1   0 -16    2.79    2.92
  -1   0  16    4.55    3.22
   2   0 -16   10.12    4.28
   2   1  16    5.39    3.16
   2   1  16    6.71    3.20
   2  -1  16    3.55    3.46
   2  -1  16   11.45    3.56
   1   1  16    2.80    2.82
   1  -1  16   -1.43    3.21
   0   1  16   -2.79    2.70
   0  -1 -16    4.97    2.84
   0  -1  16    2.04    3.03
   1   1 -16   -0.67    3.21
  -1   1  16    9.11    3.55
   1  -1 -16    7.20    3.27
  -1  -1  16    4.24    3.39
   2   1 -16   -3.50    6.13
  -2   1  16    1.20    5.48
   2  -1 -16   -2.80    3.51
   1   2  16    9.75    2.96
   1  -2  16    8.24    3.44
   0   2  16    7.50    3.04
   0  -2 -16    6.10    2.89
   0  -2  16    5.45    3.21
   1   2 -16   -2.00    3.26
  -1   2  16    5.41    3.31
   1  -2 -16    0.86    3.22
  -1  -2  16    5.65    3.55
   1   3  16   -4.77    2.86
   1  -3  16   -0.09    3.25
   1  -3  16    0.31    3.21
   0   3  16   -0.24    2.97
   0  -3  16    0.37    3.12
   0  -3 -16   -1.25    2.69
  -1   3  16   10.43    3.19
   1   3 -16    3.80    3.48
  -1  -3  16    0.63    3.61
   1  -3 -16    7.77    3.31
   1   4  16   -1.09    2.84
   1  -4  16   -0.65    3.62
   0   4  16    3.09    3.06
   0  -4 -16    6.66    2.81
   0  -4  16    3.93    4.07
  -1   4  16   -2.18    3.09
   1  -4 -16    2.18    3.18
   0   0  17    2.75    3.46
  -1   0  17    5.28    4.23
   1   0 -17    8.73    3.75
   0   1  17    3.38    3.45
   0  -1  17    4.38    3.85
   0   2  17    5.99    3.35
   0  -2  17   -2.15    5.84
   0  -2 -17   10.34    3.51
   0   0   0    0.00    0.00
;
_shelx_hkl_checksum              34380
loop_
_space_group_symop_operation_xyz
'x, y, z'
'-x+1/2, y+1/2, -z+1/2'
'-x, -y, -z'
'x-1/2, -y-1/2, z-1/2'
loop_
_atom_site_label
_atom_site_type_symbol
_atom_site_fract_x
_atom_site_fract_y
_atom_site_fract_z
_atom_site_U_iso_or_equiv
_atom_site_adp_type
_atom_site_occupancy
_atom_site_site_symmetry_order
_atom_site_calc_flag
_atom_site_refinement_flags_posn
_atom_site_refinement_flags_adp
C1 C 0.6483(5) 0.5274(2) 0.89019(18) 0.0135(6) Uani 1 1 d . .
C2 C 0.6048(5) 0.5079(2) 0.79301(18) 0.0122(6) Uani 1 1 d . .
C3 C 0.3977(5) 0.4324(2) 0.74220(17) 0.0118(6) Uani 1 1 d . .
C4 C 0.1705(5) 0.3547(2) 0.62918(18) 0.0137(6) Uani 1 1 d . .
N1 N 0.4887(5) 0.4706(2) 0.96241(14) 0.0173(6) Uani 1 1 d . .
N2 N 0.8631(5) 0.6027(2) 0.90315(16) 0.0198(6) Uani 1 1 d . .
N3 N 0.7909(5) 0.5751(2) 0.74709(15) 0.0172(5) Uani 1 1 d . .
N4 N 0.2193(4) 0.3580(2) 0.78558(15) 0.0155(5) Uani 1 1 d . .
N5 N 0.3782(4) 0.4363(2) 0.64795(14) 0.0133(5) Uani 1 1 d . .
N6 N -0.4174(5) 0.3181(2) 0.44419(15) 0.0161(5) Uani 1 1 d D .
H6A H -0.272(4) 0.315(2) 0.4871(13) 0.019 Uiso 1 1 d D U
H6B H -0.587(4) 0.308(2) 0.4739(14) 0.019 Uiso 1 1 d D U
H6C H -0.415(5) 0.3953(16) 0.4153(14) 0.019 Uiso 1 1 d D U
H6D H -0.390(4) 0.2559(18) 0.4010(13) 0.019 Uiso 1 1 d D U
O1 O 0.9543(4) 0.63334(17) 0.81495(13) 0.0208(5) Uani 1 1 d . .
O2 O 0.0616(4) 0.30523(17) 0.71057(12) 0.0162(5) Uani 1 1 d . .
O3 O 0.0762(4) 0.31875(19) 0.55315(12) 0.0214(5) Uani 1 1 d . .
loop_
_atom_site_aniso_label
_atom_site_aniso_U_11
_atom_site_aniso_U_22
_atom_site_aniso_U_33
_atom_site_aniso_U_23
_atom_site_aniso_U_13
_atom_site_aniso_U_12
C1 0.0146(13) 0.0115(14) 0.0145(15) -0.0050(11) -0.0017(11) 0.0017(12)
C2 0.0095(13) 0.0110(13) 0.0161(15) -0.0017(11) 0.0014(11) 0.0029(11)
C3 0.0126(13) 0.0102(13) 0.0125(15) 0.0004(11) -0.0006(11) 0.0036(11)
C4 0.0134(13) 0.0149(14) 0.0127(15) 0.0002(12) 0.0020(11) 0.0031(12)
N1 0.0206(12) 0.0177(13) 0.0136(12) -0.0036(10) -0.0033(10) 0.0010(11)
N2 0.0201(13) 0.0187(13) 0.0205(14) -0.0054(11) 0.0005(10) -0.0002(11)
N3 0.0166(12) 0.0156(12) 0.0195(13) -0.0056(10) -0.0007(10) -0.0006(10)
N4 0.0174(12) 0.0156(12) 0.0136(12) -0.0017(10) -0.0019(10) -0.0039(10)
N5 0.0146(11) 0.0145(12) 0.0107(12) -0.0009(10) -0.0012(9) -0.0021(10)
N6 0.0201(13) 0.0159(12) 0.0123(12) -0.0009(10) -0.0011(10) -0.0009(10)
O1 0.0187(10) 0.0195(11) 0.0241(12) -0.0049(9) 0.0011(9) -0.0062(9)
O2 0.0155(10) 0.0176(10) 0.0156(10) -0.0034(8) -0.0005(8) -0.0057(8)
O3 0.0183(10) 0.0311(12) 0.0149(11) -0.0054(9) -0.0018(8) -0.0029(9)
loop_
_atom_type_symbol
_atom_type_description
_atom_type_scat_dispersion_real
_atom_type_scat_dispersion_imag
_atom_type_scat_source
C C 0.0033 0.0016 'International Tables Vol C Tables 4.2.6.8 and 6.1.1.4'
H H 0.0000 0.0000 'International Tables Vol C Tables 4.2.6.8 and 6.1.1.4'
N N 0.0061 0.0033 'International Tables Vol C Tables 4.2.6.8 and 6.1.1.4'
O O 0.0106 0.0060 'International Tables Vol C Tables 4.2.6.8 and 6.1.1.4'
loop_
_geom_angle_atom_site_label_1
_geom_angle_atom_site_label_2
_geom_angle_atom_site_label_3
_geom_angle
_geom_angle_site_symmetry_1
N2 C1 N1 124.9(2) .
N2 C1 C2 109.8(2) .
N1 C1 C2 125.3(2) .
N3 C2 C1 108.5(2) .
N3 C2 C3 119.8(2) .
C1 C2 C3 131.6(2) .
N4 C3 N5 116.7(2) .
N4 C3 C2 121.6(2) .
N5 C3 C2 121.7(2) .
O3 C4 N5 129.8(2) .
O3 C4 O2 119.6(2) .
N5 C4 O2 110.5(2) .
N1 N1 C1 112.0(3) 3_667
C1 N2 O1 105.0(2) .
C2 N3 O1 105.2(2) .
C3 N4 O2 102.32(19) .
C4 N5 C3 103.3(2) .
H6A N6 H6B 109.6(14) .
H6A N6 H6C 108.9(15) .
H6B N6 H6C 109.3(14) .
H6A N6 H6D 108.7(14) .
H6B N6 H6D 110.7(15) .
H6C N6 H6D 109.6(15) .
N2 O1 N3 111.44(18) .
C4 O2 N4 107.16(18) .
loop_
_geom_bond_atom_site_label_1
_geom_bond_atom_site_label_2
_geom_bond_distance
_geom_bond_site_symmetry_2
C1 N2 1.304(3) .
C1 N1 1.418(3) .
C1 C2 1.423(3) .
C2 N3 1.311(3) .
C2 C3 1.457(3) .
C3 N4 1.313(3) .
C3 N5 1.355(3) .
C4 O3 1.237(3) .
C4 N5 1.334(3) .
C4 O2 1.381(3) .
N1 N1 1.250(4) 3_667
N2 O1 1.376(3) .
N3 O1 1.385(3) .
N4 O2 1.421(3) .
N6 H6A 0.921(15) .
N6 H6B 0.915(15) .
N6 H6C 0.917(15) .
N6 H6D 0.913(15) .
