#------------------------------------------------------------------------------
#$Date: 2019-11-24 03:20:29 +0200 (Sun, 24 Nov 2019) $
#$Revision: 236462 $
#$URL: file:///home/coder/svn-repositories/cod/cif/7/23/67/7236717.cif $
#------------------------------------------------------------------------------
#
# This file is available in the Crystallography Open Database (COD),
# http://www.crystallography.net/
#
# All data on this site have been placed in the public domain by the
# contributors.
#
data_7236717
loop_
_publ_author_name
'Lei, Yunxiang'
'Zhou, Yibin'
'Qian, Lebin'
'Wang, Yuxiang'
'Liu, Miaochang'
'Huang, Xiaobo'
'Wu, Ge'
'Wu, Huayue'
'Ding, Jinchang'
'Cheng, Yixiang'
_publ_section_title
;
 Polymorphism and mechanochromism of N-alkylated 1,4-dihydropyridine
 derivatives containing different electron-withdrawing end groups
;
_journal_issue                   21
_journal_name_full               'Journal of Materials Chemistry C'
_journal_page_first              5183
_journal_paper_doi               10.1039/C7TC00362E
_journal_volume                  5
_journal_year                    2017
_chemical_formula_sum            'C10 H8 N2 O'
_chemical_formula_weight         172.18
_space_group_crystal_system      triclinic
_space_group_IT_number           2
_space_group_name_Hall           '-P 1'
_space_group_name_H-M_alt        'P -1'
_atom_sites_solution_hydrogens   geom
_audit_creation_method           SHELXL-2013
_audit_update_record
;
2016-08-08 deposited with the CCDC.
2017-05-09 downloaded from the CCDC.
;
_cell_angle_alpha                72.724(2)
_cell_angle_beta                 74.137(2)
_cell_angle_gamma                68.176(2)
_cell_formula_units_Z            2
_cell_length_a                   7.1417(9)
_cell_length_b                   7.8540(10)
_cell_length_c                   8.9569(11)
_cell_measurement_reflns_used    1970
_cell_measurement_temperature    133(2)
_cell_measurement_theta_max      55.239
_cell_measurement_theta_min      5.726
_cell_volume                     437.76(10)
_computing_cell_refinement       'Bruker SAINT'
_computing_data_collection       'Bruker APEX2'
_computing_data_reduction        'Bruker SAINT'
_computing_molecular_graphics    'Bruker SHELXTL'
_computing_publication_material  'Bruker SHELXTL'
_computing_structure_refinement  'SHELXL-2013 (Sheldrick, 2013)'
_computing_structure_solution    'SHELXS-97 (Sheldrick, 2008)'
_diffrn_ambient_temperature      133(2)
_diffrn_measured_fraction_theta_full 0.995
_diffrn_measured_fraction_theta_max 0.995
_diffrn_measurement_device_type  'Bruker APEX-II CCD'
_diffrn_measurement_method       '\f and \w scans'
_diffrn_radiation_type           MoK\a
_diffrn_radiation_wavelength     0.71073
_diffrn_reflns_av_R_equivalents  0.0164
_diffrn_reflns_av_unetI/netI     0.0221
_diffrn_reflns_Laue_measured_fraction_full 0.995
_diffrn_reflns_Laue_measured_fraction_max 0.995
_diffrn_reflns_limit_h_max       8
_diffrn_reflns_limit_h_min       -8
_diffrn_reflns_limit_k_max       9
_diffrn_reflns_limit_k_min       -9
_diffrn_reflns_limit_l_max       11
_diffrn_reflns_limit_l_min       -11
_diffrn_reflns_number            3198
_diffrn_reflns_point_group_measured_fraction_full 0.995
_diffrn_reflns_point_group_measured_fraction_max 0.995
_diffrn_reflns_theta_full        25.242
_diffrn_reflns_theta_max         25.998
_diffrn_reflns_theta_min         2.423
_exptl_absorpt_coefficient_mu    0.088
_exptl_absorpt_correction_T_max  0.7456
_exptl_absorpt_correction_T_min  0.6995
_exptl_absorpt_correction_type   multi-scan
_exptl_absorpt_process_details   sadabs
_exptl_crystal_colour            colorless
_exptl_crystal_density_diffrn    1.306
_exptl_crystal_description       prismatic
_exptl_crystal_F_000             180
_exptl_crystal_size_max          0.200
_exptl_crystal_size_mid          0.160
_exptl_crystal_size_min          0.120
_refine_diff_density_max         0.190
_refine_diff_density_min         -0.168
_refine_diff_density_rms         0.033
_refine_ls_extinction_coef       0.061(8)
_refine_ls_extinction_expression Fc^*^=kFc[1+0.001xFc^2^\l^3^/sin(2\q)]^-1/4^
_refine_ls_extinction_method     SHELXL
_refine_ls_goodness_of_fit_ref   1.036
_refine_ls_hydrogen_treatment    constr
_refine_ls_matrix_type           full
_refine_ls_number_parameters     121
_refine_ls_number_reflns         1713
_refine_ls_number_restraints     0
_refine_ls_restrained_S_all      1.036
_refine_ls_R_factor_all          0.0362
_refine_ls_R_factor_gt           0.0320
_refine_ls_shift/su_max          0.000
_refine_ls_shift/su_mean         0.000
_refine_ls_structure_factor_coef Fsqd
_refine_ls_weighting_details
'w=1/[\s^2^(Fo^2^)+(0.0411P)^2^+0.1113P] where P=(Fo^2^+2Fc^2^)/3'
_refine_ls_weighting_scheme      calc
_refine_ls_wR_factor_gt          0.0850
_refine_ls_wR_factor_ref         0.0888
_reflns_Friedel_coverage         0.000
_reflns_number_gt                1527
_reflns_number_total             1713
_reflns_threshold_expression     'I > 2\s(I)'
_cod_data_source_file            c7tc00362e2.cif
_cod_data_source_block           mo_dm16481_0m
_cod_database_code               7236717
_shelx_space_group_comment
; 
The symmetry employed for this shelxl refinement is uniquely defined 
by the following loop, which should always be used as a source of 
symmetry information in preference to the above space-group names. 
They are only intended as comments. 
;
_shelx_estimated_absorpt_t_min   0.983
_shelx_estimated_absorpt_t_max   0.990
_shelxl_version_number           2013-4
_shelx_res_file
; 
TITL mo_dm16481_0m in P-1 
CELL 0.71073   7.1417   7.8540   8.9569  72.724  74.137  68.176 
ZERR    2.00   0.0009   0.0010   0.0011   0.002   0.002   0.002 
LATT 1 
SFAC C  H  N  O 
UNIT 20 16 4 2 
OMIT  -3.00  52.00 
L.S. 10 
ACTA 
BOND  $H 
FMAP 2 
PLAN 20 
size 0.20 0.16 0.12 
wpdb -1 
mpla o1 c1 > c5 
htab 
conf 
TEMP -140 
WGHT    0.041100    0.111300 
EXTI    0.060751 
FVAR       0.40693 
MOLE 1 
N1    3    0.211285    0.790261    1.426089    11.00000    0.04873    0.03904 = 
         0.02797    0.00345   -0.01262   -0.01879 
N2    3    0.136931    1.395243    1.199506    11.00000    0.03461    0.03029 = 
         0.02667   -0.00615   -0.00583   -0.00859 
O1    4    0.318111    0.951562    0.720827    11.00000    0.02781    0.02261 = 
         0.02081   -0.00187   -0.00439   -0.00869 
C1    1    0.317865    0.808673    0.852696    11.00000    0.01889    0.02246 = 
         0.02498    0.00022   -0.00546   -0.00799 
C2    1    0.277605    0.838571    1.000623    11.00000    0.01944    0.02253 = 
         0.02272    0.00116   -0.00589   -0.00721 
AFIX  43 
H2    2    0.277771    0.736328    1.089882    11.00000   -1.20000 
AFIX   0 
C3    1    0.234647    1.022614    1.024575    11.00000    0.01463    0.02489 = 
         0.02319   -0.00173   -0.00433   -0.00660 
C4    1    0.227883    1.169046    0.883645    11.00000    0.02011    0.02064 = 
         0.02384   -0.00228   -0.00490   -0.00579 
AFIX  43 
H4    2    0.194722    1.295005    0.892374    11.00000   -1.20000 
AFIX   0 
C5    1    0.267750    1.131343    0.738737    11.00000    0.01965    0.02171 = 
         0.02484   -0.00175   -0.00450   -0.00726 
C6    1    0.263704    1.268503    0.583484    11.00000    0.03508    0.02769 = 
         0.02101    0.00008   -0.00474   -0.01078 
AFIX 137 
H6A   2    0.234433    1.394310    0.600311    11.00000   -1.50000 
H6B   2    0.156725    1.268927    0.534181    11.00000   -1.50000 
H6C   2    0.397282    1.232810    0.513476    11.00000   -1.50000 
AFIX   0 
C7    1    0.367580    0.625903    0.809830    11.00000    0.02977    0.02454 = 
         0.02811   -0.00351   -0.00654   -0.01014 
AFIX 137 
H7A   2    0.512667    0.584355    0.760264    11.00000   -1.50000 
H7B   2    0.282099    0.640824    0.734936    11.00000   -1.50000 
H7C   2    0.340762    0.531989    0.906019    11.00000   -1.50000 
AFIX   0 
C8    1    0.199742    1.058348    1.174877    11.00000    0.02114    0.02524 = 
         0.02174   -0.00185   -0.00537   -0.00708 
C9    1    0.205163    0.911535    1.315072    11.00000    0.02660    0.03226 = 
         0.02304   -0.00413   -0.00634   -0.01077 
C10   1    0.163580    1.243559    1.191870    11.00000    0.02172    0.03245 = 
         0.01713   -0.00261   -0.00422   -0.00790 
HKLF 4 
  
REM  mo_dm16481_0m in P-1 
REM R1 =  0.0320 for    1527 Fo > 4sig(Fo)  and  0.0362 for all    1713 data 
REM    121 parameters refined using      0 restraints 
  
END 
  
WGHT      0.0394      0.1073 
  
REM Instructions for potential hydrogen bonds 
EQIV $1 -x+1, -y+2, -z+2 
HTAB C7 N2_$1 
  
REM Highest difference peak  0.190,  deepest hole -0.168,  1-sigma level  0.033 
Q1    1   0.2359  0.8427  0.9288  11.00000  0.05    0.19 
Q2    1   0.1774  1.1555  0.8170  11.00000  0.05    0.19 
Q3    1   0.2696  1.0327  1.1074  11.00000  0.05    0.19 
Q4    1   0.3195  1.1448  0.8082  11.00000  0.05    0.19 
Q5    1   0.1742  1.0433  1.1153  11.00000  0.05    0.17 
Q6    1   0.2287  0.9378  1.0181  11.00000  0.05    0.16 
Q7    1   0.3791  0.8064  0.9271  11.00000  0.05    0.16 
Q8    1   0.2681  1.0873  0.9617  11.00000  0.05    0.15 
Q9    1   0.3278  0.7193  0.8353  11.00000  0.05    0.14 
Q10   1   0.1485  1.1508  1.1862  11.00000  0.05    0.13 
Q11   1   0.2667  1.2040  0.6715  11.00000  0.05    0.13 
Q12   1   0.1856  0.9948  1.2377  11.00000  0.05    0.12 
Q13   1   0.2095  1.2619  1.2468  11.00000  0.05    0.11 
Q14   1   0.3054  0.8804  0.7991  11.00000  0.05    0.11 
Q15   1   0.2752  1.0581  0.7394  11.00000  0.05    0.11 
Q16   1   0.2727  0.9412  0.6360  11.00000  0.05    0.10 
Q17   1   0.0996  1.3280  1.1693  11.00000  0.05    0.10 
Q18   1   0.1459  0.8350  1.3398  11.00000  0.05    0.10 
Q19   1   0.2441  1.4837  1.1461  11.00000  0.05    0.10 
Q20   1   0.2921  0.8090  1.3325  11.00000  0.05    0.09 
;
_shelx_res_checksum              30554
_shelx_hkl_file
; 
   1   0   0   -0.48    0.04 
   1   0   0   -0.43    0.03 
   2   0   0 1000.00   20.83 
   2   0   0  977.29   21.33 
   2   0   0  967.64   21.64 
   3   0   0    4.15    0.12 
   4   0   0   24.10    0.55 
   4   0   0   24.82    0.55 
   5   0   0    0.58    0.06 
   5   0   0    0.48    0.06 
   6   0   0    0.16    0.05 
   7   0   0    0.34    0.07 
   8   0   0   -0.03    0.05 
   8  -1   0    0.12    0.06 
   7  -1   0    6.39    0.23 
   6  -1   0    1.41    0.10 
   5  -1   0    3.60    0.14 
   4  -1   0    6.78    0.20 
   3  -1   0    0.17    0.03 
   2  -1   0   25.22    0.55 
   1  -1   0    1.39    0.05 
   0  -1   0  255.40    5.81 
   0   1   0  270.78    5.67 
  -1  -1   0    3.27    0.08 
   1   1   0    3.31    0.08 
   1   1   0    3.31    0.08 
   1   1   0    3.29    0.08 
   2   1   0  650.03   14.11 
   2   1   0  657.72   14.08 
   2   1   0  605.10   14.10 
   3   1   0    1.78    0.07 
   3   1   0    1.87    0.07 
   3   1   0    1.78    0.07 
   4   1   0  150.98    3.05 
   4   1   0  147.29    3.50 
   4   1   0  145.43    3.07 
   5   1   0    0.07    0.04 
   5   1   0    0.16    0.04 
   5   1   0    0.11    0.04 
   6   1   0    0.03    0.04 
   6   1   0    0.06    0.04 
   7   1   0    0.12    0.05 
   7   1   0    0.09    0.05 
   8   1   0    6.96    0.24 
   7  -2   0    8.48    0.28 
   6  -2   0    6.64    0.23 
   5  -2   0    4.45    0.16 
   4  -2   0    4.69    0.16 
   3  -2   0    0.31    0.04 
   2  -2   0    0.17    0.03 
   1  -2   0   23.05    0.50 
  -1   2   0   23.11    0.48 
   0  -2   0   26.48    0.56 
   0   2   0   25.81    0.54 
  -1  -2   0   11.01    0.23 
   1   2   0   10.65    0.24 
   1   2   0   10.95    0.24 
  -2  -2   0   54.95    1.13 
   2   2   0   54.97    1.13 
   2   2   0   52.60    1.12 
   3   2   0    1.62    0.07 
   3   2   0    1.63    0.06 
   3   2   0    1.64    0.07 
   4   2   0    0.53    0.05 
   4   2   0    0.54    0.04 
   4   2   0    0.54    0.05 
   5   2   0    3.66    0.13 
   5   2   0    3.70    0.13 
   5   2   0    3.60    0.12 
   6   2   0    8.03    0.22 
   6   2   0    8.20    0.23 
   6   2   0    7.75    0.23 
   7   2   0    0.21    0.06 
   7   2   0    0.30    0.06 
   8   2   0    0.19    0.06 
   8   2   0    0.16    0.06 
   7  -3   0    2.29    0.14 
   5  -3   0    3.92    0.16 
   4  -3   0   12.50    0.33 
   3  -3   0    0.59    0.06 
   2  -3   0   40.00    0.87 
  -2   3   0   39.42    0.82 
   1  -3   0    1.84    0.07 
  -1   3   0    1.84    0.08 
  -1   3   0    1.88    0.06 
   0  -3   0    2.69    0.08 
   0   3   0    2.75    0.08 
   0   3   0    2.70    0.09 
  -1  -3   0    2.31    0.06 
   1   3   0    2.36    0.08 
   1   3   0    2.39    0.09 
   2   3   0    2.10    0.08 
   2   3   0    1.93    0.07 
  -3  -3   0    0.21    0.02 
   3   3   0    0.20    0.04 
   3   3   0    0.23    0.03 
  -4  -3   0    4.44    0.12 
   4   3   0    4.36    0.14 
   4   3   0    4.20    0.13 
   5   3   0    0.61    0.05 
   5   3   0    0.51    0.05 
   5   3   0    0.48    0.06 
   6   3   0    1.85    0.10 
   6   3   0    1.93    0.11 
   6   3   0    1.89    0.09 
   7   3   0   -0.02    0.05 
   7   3   0    0.02    0.04 
   7   3   0    0.05    0.04 
   8   3   0    0.92    0.09 
   6  -4   0    0.21    0.07 
   5  -4   0    2.20    0.12 
   4  -4   0    0.61    0.07 
   3  -4   0    6.28    0.20 
  -3   4   0    6.24    0.20 
   2  -4   0    0.33    0.05 
  -2   4   0    0.27    0.06 
  -2   4   0    0.36    0.03 
   1  -4   0    3.39    0.11 
  -1   4   0    3.64    0.13 
  -1   4   0    3.50    0.10 
   0  -4   0    1.10    0.06 
   0   4   0    1.13    0.08 
   0   4   0    1.07    0.05 
  -1  -4   0    0.98    0.04 
   1   4   0    1.00    0.07 
   1   4   0    0.90    0.05 
   2   4   0    1.26    0.07 
   2   4   0    1.28    0.07 
   3   4   0    2.54    0.10 
   3   4   0    2.59    0.10 
  -4  -4   0    3.59    0.10 
   4   4   0    3.52    0.13 
   4   4   0    3.72    0.12 
  -5  -4   0    0.69    0.05 
   5   4   0    0.75    0.07 
   5   4   0    0.70    0.07 
   6   4   0    0.07    0.05 
   6   4   0    0.12    0.04 
   7   4   0   -0.02    0.05 
   7   4   0    0.06    0.05 
   8   4   0    2.26    0.13 
   8   4   0    2.51    0.13 
   5  -5   0    0.18    0.06 
  -5   5   0    0.30    0.07 
   4  -5   0    4.18    0.17 
  -4   5   0    4.34    0.18 
   3  -5   0    0.00    0.04 
  -3   5   0    0.01    0.06 
   2  -5   0    0.38    0.06 
  -2   5   0    0.38    0.07 
   1  -5   0    1.16    0.08 
  -1   5   0    1.04    0.06 
  -1   5   0    1.12    0.09 
   0  -5   0   25.35    0.57 
   0   5   0   25.83    0.58 
   0   5   0   24.76    0.55 
  -1  -5   0    2.14    0.08 
   1   5   0    2.11    0.09 
   1   5   0    2.03    0.10 
  -2  -5   0   11.06    0.25 
   2   5   0   11.19    0.28 
   2   5   0   11.31    0.28 
   3   5   0    0.05    0.04 
   3   5   0    0.03    0.04 
   4   5   0    0.31    0.05 
   4   5   0    0.32    0.05 
   5   5   0    0.02    0.04 
   5   5   0   -0.05    0.03 
   6   5   0    0.09    0.04 
   6   5   0    0.01    0.05 
   7   5   0    0.00    0.05 
   7   5   0    0.03    0.04 
   8   5   0    0.26    0.07 
   8   5   0    0.29    0.06 
   4  -6   0    0.76    0.09 
  -4   6   0    0.90    0.10 
   3  -6   0    7.55    0.24 
  -3   6   0    7.25    0.25 
   2  -6   0    8.93    0.26 
  -2   6   0    8.79    0.27 
   1  -6   0   14.28    0.36 
  -1   6   0   14.34    0.38 
   0  -6   0    0.83    0.06 
   0   6   0    0.81    0.08 
   0   6   0    0.81    0.06 
  -1  -6   0    2.69    0.10 
   1   6   0    2.70    0.11 
   1   6   0    2.75    0.13 
   2   6   0   28.49    0.65 
   2   6   0   28.11    0.63 
   3   6   0    3.61    0.14 
   3   6   0    3.25    0.13 
   4   6   0   38.18    0.85 
   4   6   0   38.35    0.85 
   5   6   0    2.95    0.13 
   5   6   0    3.24    0.13 
   6   6   0    8.98    0.27 
   6   6   0    8.99    0.26 
   7   6   0    0.17    0.06 
   7   6   0    0.21    0.06 
   8   6   0    1.06    0.09 
   8   6   0    0.70    0.10 
   3  -7   0   -0.03    0.05 
  -3   7   0    0.01    0.07 
   2  -7   0   -0.01    0.04 
  -2   7   0    0.11    0.07 
   1  -7   0    2.19    0.11 
  -1   7   0    2.38    0.14 
   0  -7   0    0.98    0.08 
   0   7   0    0.91    0.09 
   1   7   0    4.91    0.15 
   1   7   0    4.70    0.18 
   2   7   0    0.51    0.07 
   2   7   0    0.48    0.06 
   3   7   0    0.11    0.05 
   3   7   0    0.25    0.06 
   4   7   0   33.58    0.76 
   4   7   0   32.70    0.75 
   5   7   0   15.16    0.40 
   5   7   0   15.33    0.39 
   6   7   0   56.50    1.22 
   6   7   0   52.81    1.20 
   7   7   0   13.70    0.37 
   7   7   0   12.86    0.37 
   2  -8   0    4.18    0.17 
  -2   8   0    3.98    0.20 
  -1   8   0    5.65    0.22 
   0   8   0    0.01    0.07 
   1   8   0    6.10    0.19 
   1   8   0    5.81    0.22 
   2   8   0    1.52    0.12 
   2   8   0    1.43    0.10 
   3   8   0    2.02    0.11 
   3   8   0    1.94    0.12 
   4   8   0    2.92    0.14 
   4   8   0    2.73    0.14 
   5   8   0    1.74    0.12 
   5   8   0    1.39    0.11 
   6   8   0   10.24    0.31 
   6   8   0    9.91    0.30 
   7   8   0    5.68    0.23 
   0   9   0    9.79    0.32 
   1   9   0    3.09    0.17 
   2   9   0    1.61    0.13 
   3   9   0    1.51    0.11 
   3   9   0    1.47    0.12 
   4   9   0    0.25    0.07 
   4   9   0    0.36    0.07 
   5   9   0    0.19    0.07 
   5   9   0    0.11    0.07 
   5   9  -1    1.29    0.12 
   5   9  -1    1.35    0.12 
   4   9  -1    0.38    0.08 
   4   9  -1    0.58    0.08 
   3   9  -1    1.06    0.11 
   3   9  -1    1.22    0.10 
   2   9  -1    0.02    0.07 
   1   9  -1    1.41    0.13 
   0   9  -1    0.68    0.11 
   6   8  -1    0.75    0.09 
   6   8  -1    0.79    0.09 
   5   8  -1   -0.11    0.05 
   5   8  -1    0.03    0.05 
   4   8  -1    0.07    0.05 
   4   8  -1    0.04    0.06 
   3   8  -1    1.52    0.10 
   3   8  -1    1.58    0.12 
   2   8  -1    0.27    0.07 
   2   8  -1    0.39    0.06 
   1   8  -1    0.85    0.10 
   0   8  -1    0.16    0.07 
  -1   8  -1   -0.06    0.06 
  -2   8  -1    0.09    0.08 
   7   7  -1    1.20    0.12 
   7   7  -1    1.30    0.11 
   6   7  -1   10.13    0.30 
   6   7  -1    9.60    0.29 
   5   7  -1   17.02    0.43 
   5   7  -1   16.02    0.43 
   4   7  -1   42.92    0.96 
   4   7  -1   42.80    0.97 
   3   7  -1   27.63    0.64 
   3   7  -1   26.57    0.62 
   2   7  -1   27.84    0.62 
   2   7  -1   26.90    0.65 
   1   7  -1   10.03    0.26 
   1   7  -1    9.72    0.29 
   0   7  -1    2.74    0.15 
  -1   7  -1    2.22    0.13 
   1  -7   1    2.00    0.11 
  -2   7  -1    0.11    0.07 
   2  -7   1    0.11    0.05 
  -3   7  -1    1.49    0.13 
   3  -7   1    1.90    0.12 
   8   6  -1    0.71    0.10 
   8   6  -1    0.88    0.09 
   7   6  -1    0.01    0.06 
   7   6  -1    0.04    0.05 
   6   6  -1    3.37    0.16 
   5   6  -1    6.70    0.21 
   5   6  -1    6.51    0.22 
   4   6  -1   34.72    0.79 
   4   6  -1   35.18    0.79 
   3   6  -1   43.99    0.97 
   3   6  -1   45.62    0.99 
   2   6  -1  120.56    2.51 
   2   6  -1  122.52    2.56 
   1   6  -1   59.68    1.29 
   1   6  -1   59.03    1.25 
   0   6  -1   90.09    1.90 
   0   6  -1   88.03    1.84 
   0  -6   1   88.95    1.89 
  -1   6  -1   16.07    0.42 
   1  -6   1   16.81    0.40 
  -2   6  -1    7.17    0.24 
   2  -6   1    7.58    0.23 
  -3   6  -1   -0.02    0.07 
   3  -6   1    0.09    0.05 
  -4   6  -1    0.30    0.08 
   4  -6   1    0.26    0.07 
   8   5  -1    0.72    0.09 
   7   5  -1    0.75    0.08 
   7   5  -1    1.00    0.10 
   6   5  -1    3.24    0.15 
   6   5  -1    3.03    0.14 
   5   5  -1    0.24    0.05 
   5   5  -1    0.32    0.06 
   4   5  -1    2.78    0.13 
   4   5  -1    2.97    0.13 
   3   5  -1    3.13    0.12 
   3   5  -1    3.28    0.13 
   2   5  -1    8.27    0.23 
   2   5  -1    8.24    0.22 
   1   5  -1    7.42    0.22 
   1   5  -1    7.30    0.19 
  -1  -5   1    7.24    0.18 
   0   5  -1   47.68    1.04 
   0   5  -1   47.59    1.00 
   0  -5   1   47.36    1.02 
  -1   5  -1    7.33    0.18 
  -1   5  -1    7.21    0.22 
   1  -5   1    7.30    0.21 
  -2   5  -1   44.33    0.98 
   2  -5   1   43.83    0.98 
  -3   5  -1    1.12    0.10 
   3  -5   1    1.14    0.09 
  -4   5  -1    3.40    0.16 
   4  -5   1    3.54    0.16 
  -5   5  -1    0.66    0.09 
   5  -5   1    0.76    0.10 
   8   4  -1    0.31    0.07 
   7   4  -1    9.56    0.28 
   7   4  -1    9.64    0.29 
   6   4  -1    5.05    0.18 
   6   4  -1    4.90    0.18 
   5   4  -1    6.44    0.20 
   5   4  -1    6.58    0.20 
   4   4  -1    1.75    0.09 
   4   4  -1    1.74    0.10 
   3   4  -1    0.53    0.05 
   3   4  -1    0.41    0.05 
   2   4  -1    0.34    0.04 
   2   4  -1    0.30    0.04 
   1   4  -1    0.08    0.03 
   1   4  -1    0.07    0.04 
  -1  -4   1    0.11    0.02 
   0   4  -1    0.13    0.05 
   0   4  -1    0.16    0.03 
   0  -4   1    0.10    0.03 
  -1   4  -1    0.04    0.05 
  -1   4  -1    0.05    0.02 
   1  -4   1    0.12    0.03 
   2  -4   1    2.35    0.10 
  -3   4  -1   -0.03    0.05 
   3  -4   1    0.05    0.04 
  -4   4  -1    6.92    0.22 
   4  -4   1    6.97    0.23 
  -5   4  -1    0.80    0.09 
   5  -4   1    0.82    0.09 
  -6   4  -1    1.62    0.13 
   6  -4   1    1.79    0.12 
   8   3  -1    1.25    0.11 
   7   3  -1    6.26    0.21 
   6   3  -1    0.06    0.04 
   6   3  -1    0.07    0.05 
   6   3  -1    0.02    0.03 
   5   3  -1    7.41    0.21 
   5   3  -1    7.29    0.21 
   5   3  -1    7.25    0.19 
   4   3  -1   14.44    0.35 
   4   3  -1   14.09    0.32 
   4   3  -1   14.46    0.35 
   3   3  -1    5.08    0.15 
   3   3  -1    5.06    0.15 
  -3  -3   1    5.02    0.11 
   2   3  -1    9.35    0.23 
   2   3  -1    9.38    0.23 
   1   3  -1    1.89    0.08 
   1   3  -1    1.66    0.06 
  -1  -3   1    1.66    0.05 
   0   3  -1   19.18    0.41 
   0   3  -1   19.20    0.43 
   0  -3   1   19.07    0.42 
  -1   3  -1    1.74    0.08 
  -1   3  -1    1.76    0.05 
   1  -3   1    1.82    0.07 
  -2   3  -1    3.79    0.13 
   2  -3   1    3.91    0.13 
  -3   3  -1    0.40    0.06 
   3  -3   1    0.46    0.06 
   4  -3   1    0.71    0.07 
   5  -3   1    0.68    0.08 
   6  -3   1    0.10    0.05 
   7  -3   1    1.52    0.12 
   8   2  -1    0.24    0.06 
   8   2  -1    0.27    0.06 
   7   2  -1    2.55    0.13 
   7   2  -1    2.80    0.12 
   6   2  -1    4.99    0.17 
   6   2  -1    4.51    0.15 
   5   2  -1    3.47    0.13 
   5   2  -1    3.34    0.12 
   5   2  -1    3.64    0.13 
   4   2  -1   19.86    0.45 
   4   2  -1   18.79    0.43 
   4   2  -1   19.41    0.45 
   3   2  -1    0.81    0.06 
   3   2  -1    0.88    0.05 
   3   2  -1    0.82    0.04 
   2   2  -1    0.86    0.03 
   2   2  -1    0.88    0.06 
   2   2  -1    0.79    0.05 
   1   2  -1    8.01    0.18 
   1   2  -1    7.63    0.19 
   0   2  -1   15.89    0.36 
   0   2  -1   16.14    0.34 
   0  -2   1   16.55    0.35 
  -1   2  -1    2.59    0.06 
  -1   2  -1    2.67    0.09 
   1  -2   1    2.59    0.08 
  -2   2  -1    0.03    0.03 
   2  -2   1   -0.02    0.03 
   3  -2   1    0.90    0.07 
   4  -2   1    0.06    0.04 
   5  -2   1    0.77    0.08 
   7  -2   1   -0.02    0.05 
   8   1  -1    0.10    0.06 
   8   1  -1    0.07    0.06 
   7   1  -1    0.05    0.05 
   7   1  -1    0.10    0.05 
   6   1  -1   11.87    0.32 
   6   1  -1   12.05    0.32 
   5   1  -1    0.03    0.04 
   5   1  -1    0.04    0.04 
   4   1  -1    6.06    0.18 
   4   1  -1    5.90    0.16 
   3   1  -1    0.29    0.04 
   3   1  -1    0.31    0.03 
   3   1  -1    0.26    0.03 
   2   1  -1   49.81    1.06 
   2   1  -1   53.29    1.06 
   2   1  -1   49.01    1.05 
   1   1  -1    5.45    0.13 
   1   1  -1    5.61    0.12 
   0   1  -1   61.45    1.27 
   0   1  -1   61.88    1.28 
   0  -1   1   61.34    1.37 
  -1   1  -1    2.22    0.08 
   1  -1   1    2.01    0.07 
   2  -1   1   13.69    0.32 
   3  -1   1    0.46    0.04 
   4  -1   1    7.88    0.22 
   5  -1   1    3.46    0.14 
   6  -1   1    0.71    0.08 
   7  -1   1    0.71    0.08 
   8  -1   1    0.72    0.09 
   8   0  -1    0.34    0.07 
   7   0  -1    0.55    0.08 
   6   0  -1    2.45    0.13 
   6   0  -1    2.59    0.12 
   5   0  -1    3.13    0.13 
   5   0  -1    3.19    0.13 
   4   0  -1   80.51    1.75 
   4   0  -1   83.86    1.74 
   3   0  -1   12.72    0.30 
   3   0  -1   12.64    0.30 
   2   0  -1  183.74    3.72 
   2   0  -1  169.62    3.68 
   1   0  -1   20.25    0.43 
   0   0  -1   86.11    1.79 
   0   0  -1   86.52    1.81 
   1   0   1   14.90    0.32 
   1   0   1   14.97    0.31 
   2   0   1  529.94   12.15 
   2   0   1  539.06   11.28 
   3   0   1    5.27    0.13 
   3   0   1    5.11    0.15 
   4   0   1  113.30    2.36 
   4   0   1  117.68    2.44 
   5   0   1    1.05    0.08 
   6   0   1    4.55    0.17 
   7   0   1    0.61    0.08 
   8   0   1    0.16    0.06 
   8  -1  -1    0.56    0.09 
   7  -1  -1    0.35    0.07 
   6  -1  -1    0.76    0.08 
   5  -1  -1    2.11    0.11 
   4  -1  -1    0.04    0.04 
   4  -1  -1    0.12    0.04 
   3  -1  -1    2.38    0.10 
   3  -1  -1    2.08    0.09 
   2  -1  -1    3.04    0.10 
   1  -1  -1    0.83    0.05 
   1  -1  -1    0.75    0.04 
  -1  -1  -1   13.74    0.29 
  -1  -1  -1   13.72    0.30 
   1   1   1   13.82    0.29 
   1   1   1   13.90    0.29 
   2   1   1  385.32    8.67 
   2   1   1  367.64    8.56 
   2   1   1  396.41    8.45 
   3   1   1    2.15    0.08 
   3   1   1    2.06    0.07 
   3   1   1    2.09    0.07 
   4   1   1  520.91   10.55 
   4   1   1  487.73   11.54 
   4   1   1  501.76   11.78 
   5   1   1    2.35    0.10 
   5   1   1    2.29    0.10 
   5   1   1    2.15    0.10 
   6   1   1  160.28    3.36 
   6   1   1  167.86    3.46 
   7   1   1    1.82    0.11 
   8   1   1   15.79    0.43 
   7  -2  -1    3.40    0.16 
   6  -2  -1    0.26    0.06 
   5  -2  -1   22.62    0.55 
   4  -2  -1    3.06    0.12 
   2  -2  -1    4.63    0.14 
   1  -2  -1   51.21    1.09 
   0  -2  -1  184.87    3.82 
   0   2   1  179.96    3.73 
  -1  -2  -1    8.91    0.20 
   1   2   1    8.82    0.20 
   1   2   1    8.80    0.20 
  -2  -2  -1  108.11    2.29 
   2   2   1  110.01    2.26 
  -3  -2  -1    5.80    0.15 
   3   2   1    5.88    0.15 
   3   2   1    5.99    0.15 
   4   2   1   63.80    1.36 
   4   2   1   66.00    1.34 
   4   2   1   63.06    1.35 
   5   2   1    0.91    0.07 
   5   2   1    0.89    0.07 
   5   2   1    0.74    0.06 
   6   2   1   67.08    1.43 
   6   2   1   66.70    1.44 
   6   2   1   66.62    1.41 
   7   2   1    0.03    0.04 
   7   2   1    0.01    0.04 
   7   2   1    0.05    0.04 
   8   2   1   38.55    0.89 
   9   2   1    0.00    0.06 
   7  -3  -1    0.95    0.10 
   6  -3  -1    0.73    0.09 
   5  -3  -1   18.41    0.47 
   4  -3  -1    0.16    0.05 
   3  -3  -1   48.70    1.07 
   2  -3  -1   16.12    0.38 
   1  -3  -1   57.34    1.24 
  -1   3   1   58.60    1.20 
   0  -3  -1   53.13    1.13 
   0   3   1   53.57    1.12 
   0   3   1   53.64    1.10 
  -1  -3  -1    6.33    0.16 
   1   3   1    6.59    0.16 
   1   3   1    6.36    0.16 
  -2  -3  -1   -0.03    0.02 
   2   3   1    0.02    0.02 
   2   3   1    0.00    0.02 
  -3  -3  -1    1.83    0.06 
   3   3   1    1.73    0.07 
   3   3   1    1.81    0.07 
  -4  -3  -1    0.88    0.05 
   4   3   1    0.75    0.06 
  -5  -3  -1    2.38    0.09 
   5   3   1    2.33    0.09 
   5   3   1    2.41    0.10 
  -6  -3  -1    0.29    0.05 
   6   3   1    0.37    0.05 
   6   3   1    0.24    0.05 
   6   3   1    0.30    0.05 
  -7  -3  -1    0.13    0.05 
   7   3   1    0.07    0.05 
   7   3   1    0.05    0.04 
   7   3   1    0.04    0.05 
  -8  -3  -1    0.08    0.05 
   8   3   1    0.06    0.05 
   8   3   1    0.06    0.05 
   8   3   1    0.05    0.06 
   6  -4  -1    0.50    0.08 
   5  -4  -1    0.15    0.06 
   4  -4  -1    0.24    0.06 
   3  -4  -1    9.50    0.27 
  -3   4   1    9.69    0.23 
   2  -4  -1    0.21    0.05 
  -2   4   1    0.18    0.04 
   1  -4  -1   22.56    0.52 
  -1   4   1   23.25    0.52 
  -1   4   1   23.37    0.50 
   0  -4  -1   24.06    0.53 
   0   4   1   23.57    0.52 
   0   4   1   24.41    0.54 
  -1  -4  -1    8.64    0.20 
   1   4   1    8.52    0.21 
   1   4   1    8.30    0.21 
  -2  -4  -1   79.58    1.64 
   2   4   1   79.15    1.63 
   2   4   1   76.98    1.64 
  -3  -4  -1   -0.01    0.03 
   3   4   1    0.12    0.03 
   3   4   1    0.02    0.03 
  -4  -4  -1   11.40    0.26 
   4   4   1   11.11    0.27 
  -5  -4  -1   -0.02    0.03 
   5   4   1    0.06    0.04 
   5   4   1    0.05    0.04 
  -6  -4  -1    0.24    0.04 
   6   4   1    0.20    0.04 
   6   4   1    0.29    0.05 
  -7  -4  -1    0.11    0.05 
   7   4   1    0.09    0.05 
   7   4   1    0.07    0.04 
   8   4   1    0.87    0.08 
   8   4   1    0.64    0.08 
   9   4   1    0.00    0.06 
   5  -5  -1    0.05    0.05 
  -5   5   1   -0.02    0.06 
   4  -5  -1    0.15    0.06 
  -4   5   1    0.16    0.06 
   3  -5  -1    0.64    0.07 
  -3   5   1    0.45    0.07 
   2  -5  -1    7.79    0.23 
  -2   5   1    7.58    0.23 
  -2   5   1    7.43    0.19 
   1  -5  -1    1.11    0.08 
  -1   5   1    1.22    0.06 
  -1   5   1    1.18    0.09 
   0  -5  -1    0.82    0.06 
   0   5   1    0.77    0.07 
   0   5   1    0.79    0.05 
  -1  -5  -1    9.06    0.23 
   1   5   1    9.33    0.24 
   1   5   1    9.51    0.23 
  -2  -5  -1    2.19    0.07 
   2   5   1    2.14    0.10 
   2   5   1    2.24    0.09 
  -3  -5  -1    6.18    0.15 
   3   5   1    6.35    0.17 
   3   5   1    6.02    0.18 
  -4  -5  -1   -0.03    0.03 
   4   5   1    0.03    0.04 
   4   5   1    0.02    0.04 
   5   5   1    0.57    0.07 
   5   5   1    0.54    0.06 
   6   5   1    0.16    0.05 
   6   5   1    0.12    0.04 
   7   5   1    0.16    0.05 
   7   5   1    0.18    0.05 
   8   5   1    0.06    0.05 
   8   5   1   -0.02    0.05 
   4  -6  -1    7.98    0.26 
  -4   6   1    7.86    0.27 
   3  -6  -1    1.91    0.12 
  -3   6   1    1.93    0.13 
   2  -6  -1    0.51    0.07 
  -2   6   1    0.55    0.08 
   1  -6  -1    0.31    0.05 
  -1   6   1    0.25    0.07 
  -1   6   1    0.23    0.04 
   0  -6  -1    9.32    0.24 
   0   6   1    8.97    0.23 
   0   6   1    9.21    0.26 
  -1  -6  -1    1.59    0.08 
   1   6   1    1.72    0.09 
   1   6   1    1.71    0.10 
  -2  -6  -1    1.63    0.07 
   2   6   1    1.81    0.09 
   2   6   1    1.80    0.10 
   3   6   1    0.27    0.05 
   3   6   1    0.33    0.05 
   4   6   1    8.37    0.23 
   4   6   1    8.40    0.24 
   5   6   1    2.11    0.11 
   5   6   1    1.73    0.09 
   6   6   1    8.07    0.23 
   6   6   1    7.92    0.25 
   7   6   1    0.71    0.09 
   7   6   1    0.90    0.08 
   8   6   1    0.67    0.09 
   3  -7  -1    2.02    0.13 
  -3   7   1    1.74    0.13 
   2  -7  -1    1.55    0.10 
  -2   7   1    1.68    0.13 
   1  -7  -1    0.77    0.08 
  -1   7   1    0.78    0.09 
   0  -7  -1    0.19    0.05 
   0   7   1    0.10    0.06 
   0   7   1    0.05    0.04 
  -1  -7  -1    4.02    0.13 
   1   7   1    4.25    0.16 
   1   7   1    4.03    0.14 
   2   7   1    8.01    0.23 
   2   7   1    8.92    0.25 
   3   7   1   20.63    0.50 
   3   7   1   21.25    0.50 
   4   7   1    5.22    0.17 
   4   7   1    5.06    0.18 
   5   7   1    6.83    0.23 
   5   7   1    7.06    0.21 
   6   7   1    2.61    0.13 
   6   7   1    2.71    0.13 
   7   7   1    0.22    0.07 
   8   7   1   10.08    0.32 
   2  -8  -1    1.63    0.12 
  -2   8   1    1.60    0.13 
   1  -8  -1    0.11    0.05 
  -1   8   1    0.07    0.06 
   0  -8  -1    2.09    0.11 
   0   8   1    2.38    0.14 
   1   8   1    0.13    0.07 
   1   8   1    0.13    0.05 
   2   8   1    0.32    0.06 
   2   8   1    0.27    0.07 
   3   8   1    1.31    0.09 
   3   8   1    1.34    0.10 
   4   8   1    0.70    0.08 
   4   8   1    0.50    0.07 
   5   8   1    6.32    0.22 
   5   8   1    5.79    0.20 
   6   8   1    0.08    0.06 
   7   8   1    2.04    0.14 
   0   9   1    3.04    0.17 
   1   9   1    1.79    0.14 
   2   9   1    8.00    0.27 
   2   9   1    8.59    0.25 
   3   9   1    3.62    0.16 
   3   9   1    3.51    0.15 
   4   9   1    0.84    0.09 
   4   9   1    0.87    0.09 
   5   9   1    4.18    0.17 
   5   9   1    3.92    0.17 
   6   9   1    0.51    0.09 
   3  10   1    9.13    0.28 
   3   9  -2    0.02    0.06 
   2   9  -2    0.04    0.07 
   5   8  -2    0.61    0.09 
   5   8  -2    0.58    0.09 
   4   8  -2    0.16    0.06 
   4   8  -2    0.14    0.06 
   3   8  -2    0.02    0.05 
   3   8  -2   -0.05    0.05 
   2   8  -2    2.86    0.13 
   2   8  -2    2.80    0.15 
   1   8  -2    1.15    0.11 
   0   8  -2    1.28    0.12 
  -1   8  -2    1.28    0.12 
   6   7  -2    3.78    0.17 
   6   7  -2    3.84    0.17 
   5   7  -2    0.54    0.08 
   5   7  -2    0.33    0.07 
   4   7  -2    0.10    0.05 
   4   7  -2    0.03    0.06 
   3   7  -2    1.07    0.10 
   3   7  -2    1.17    0.10 
   2   7  -2    2.90    0.13 
   2   7  -2    2.91    0.14 
   1   7  -2    0.65    0.06 
   1   7  -2    0.51    0.08 
   0   7  -2    0.06    0.07 
  -1   7  -2    0.45    0.09 
  -2   7  -2    0.67    0.09 
   2  -7   2    0.79    0.08 
  -3   7  -2    1.67    0.14 
   3  -7   2    1.80    0.12 
   7   6  -2    0.47    0.09 
   7   6  -2    0.54    0.08 
   6   6  -2    6.26    0.22 
   6   6  -2    5.78    0.22 
   5   6  -2    3.13    0.14 
   5   6  -2    2.72    0.14 
   4   6  -2   12.33    0.34 
   4   6  -2   12.15    0.33 
   3   6  -2    0.16    0.05 
   3   6  -2    0.12    0.05 
   2   6  -2    0.10    0.06 
   2   6  -2   -0.01    0.04 
   1   6  -2   13.94    0.37 
   1   6  -2   14.29    0.34 
   0   6  -2   30.71    0.73 
   0   6  -2   31.60    0.68 
   0  -6   2   31.68    0.69 
  -1   6  -2   28.03    0.67 
   1  -6   2   28.07    0.64 
  -2   6  -2   25.34    0.62 
   2  -6   2   25.53    0.60 
  -3   6  -2   12.49    0.36 
   3  -6   2   12.17    0.34 
  -4   6  -2    1.84    0.14 
   4  -6   2    1.92    0.12 
   8   5  -2   -0.01    0.06 
   7   5  -2    0.59    0.08 
   6   5  -2    0.56    0.07 
   6   5  -2    0.53    0.08 
   5   5  -2    0.56    0.07 
   5   5  -2    0.54    0.07 
   4   5  -2    1.69    0.10 
   4   5  -2    1.84    0.11 
   3   5  -2    0.52    0.07 
   3   5  -2    0.50    0.06 
   2   5  -2    1.40    0.10 
   2   5  -2    1.23    0.08 
   1   5  -2   12.14    0.32 
   1   5  -2   12.26    0.28 
   1   5  -2   12.23    0.29 
   0   5  -2   12.38    0.29 
   0   5  -2   12.15    0.32 
   0  -5   2   12.18    0.29 
  -1   5  -2   42.48    0.95 
   1  -5   2   42.99    0.94 
  -2   5  -2   60.66    1.33 
   2  -5   2   61.20    1.33 
  -3   5  -2   45.49    1.04 
   3  -5   2   46.37    1.03 
  -4   5  -2   49.96    1.14 
   4  -5   2   51.20    1.15 
  -5   5  -2   18.04    0.48 
   5  -5   2   16.98    0.47 
   8   4  -2    4.12    0.19 
   7   4  -2    5.50    0.20 
   6   4  -2    2.58    0.13 
   6   4  -2    2.60    0.13 
   5   4  -2   11.83    0.32 
   5   4  -2   12.60    0.33 
   4   4  -2    3.06    0.13 
   4   4  -2    3.05    0.13 
   3   4  -2    5.32    0.17 
   2   4  -2   14.07    0.34 
   2   4  -2   13.98    0.33 
   1   4  -2    3.17    0.08 
   1   4  -2    2.97    0.10 
   0   4  -2   16.93    0.37 
   0   4  -2   16.84    0.40 
   0  -4   2   16.70    0.38 
  -1   4  -2   11.68    0.30 
  -1   4  -2   11.34    0.25 
   1  -4   2   11.25    0.28 
  -2   4  -2    7.24    0.23 
   2  -4   2    7.32    0.21 
  -3   4  -2   10.77    0.31 
   3  -4   2   11.51    0.30 
  -4   4  -2   15.40    0.40 
   4  -4   2   15.20    0.40 
  -5   4  -2    7.61    0.25 
   5  -4   2    7.72    0.25 
  -6   4  -2   17.07    0.46 
   6  -4   2   17.49    0.47 
   8   3  -2    0.82    0.09 
   7   3  -2    5.48    0.20 
   6   3  -2    8.64    0.25 
   5   3  -2   22.74    0.54 
   5   3  -2   23.12    0.55 
   5   3  -2   23.10    0.51 
   4   3  -2    1.12    0.08 
   4   3  -2    0.94    0.05 
   4   3  -2    1.25    0.08 
   3   3  -2   52.95    1.14 
   3   3  -2   53.01    1.12 
   2   3  -2   18.52    0.43 
   2   3  -2   18.34    0.42 
   1   3  -2   55.75    1.19 
   1   3  -2   56.25    1.17 
   1   3  -2   55.49    1.16 
   0   3  -2   10.25    0.23 
   0   3  -2   10.09    0.25 
   0  -3   2   10.02    0.23 
  -1   3  -2    8.03    0.18 
  -1   3  -2    8.43    0.22 
   1  -3   2    7.93    0.20 
  -2   3  -2    0.77    0.07 
   2  -3   2    0.77    0.06 
  -3   3  -2    0.09    0.05 
   3  -3   2    0.06    0.04 
  -4   3  -2    0.72    0.08 
   4  -3   2    0.61    0.07 
  -5   3  -2    0.01    0.06 
   5  -3   2    0.00    0.04 
  -6   3  -2    0.14    0.07 
   6  -3   2    0.01    0.05 
  -7   3  -2    0.29    0.08 
   7  -3   2    0.41    0.08 
   8   2  -2    1.40    0.11 
   7   2  -2    0.92    0.09 
   7   2  -2    0.90    0.08 
   6   2  -2    1.93    0.12 
   6   2  -2    1.94    0.10 
   5   2  -2   14.35    0.36 
   5   2  -2   14.56    0.35 
   4   2  -2    2.84    0.12 
   4   2  -2    2.84    0.09 
   3   2  -2   55.57    1.16 
   3   2  -2   54.85    1.16 
   2   2  -2    2.48    0.09 
   2   2  -2    2.41    0.06 
   1   2  -2   76.63    1.58 
   1   2  -2   74.78    1.56 
   0   2  -2   43.37    0.92 
   0   2  -2   42.33    0.91 
   0   2  -2   44.45    0.90 
  -1   2  -2   16.04    0.37 
   1  -2   2   16.62    0.37 
  -2   2  -2   20.75    0.47 
   2  -2   2   20.74    0.47 
  -3   2  -2    2.30    0.10 
   3  -2   2    2.41    0.10 
  -4   2  -2    0.06    0.05 
   4  -2   2    0.02    0.04 
   5  -2   2    0.29    0.06 
   6  -2   2    0.30    0.06 
   7  -2   2    0.08    0.05 
   8   1  -2    8.24    0.27 
   8   1  -2    7.91    0.26 
   7   1  -2    0.17    0.05 
   7   1  -2    0.17    0.06 
   6   1  -2    0.82    0.08 
   6   1  -2    0.78    0.07 
   5   1  -2    0.72    0.06 
   5   1  -2    0.61    0.07 
   4   1  -2    4.53    0.15 
   4   1  -2    4.42    0.14 
   3   1  -2   21.84    0.49 
   3   1  -2   21.80    0.48 
   2   1  -2    1.69    0.07 
   2   1  -2    2.00    0.06 
   1   1  -2   27.59    0.59 
   1   1  -2   27.38    0.58 
   0   1  -2  147.03    3.14 
   0   1  -2  153.98    3.15 
  -1   1  -2    1.59    0.07 
  -1   1  -2    1.60    0.06 
   1  -1   2    1.67    0.06 
  -2   1  -2   28.53    0.60 
   2  -1   2   27.41    0.61 
   3  -1   2    4.12    0.13 
   4  -1   2    0.50    0.06 
   5  -1   2    0.39    0.06 
   6  -1   2    0.79    0.08 
   7  -1   2    0.05    0.06 
   8  -1   2   -0.01    0.05 
   8   0  -2    7.62    0.26 
   7   0  -2    0.15    0.06 
   7   0  -2    0.24    0.06 
   6   0  -2   31.94    0.74 
   5   0  -2    0.18    0.05 
   5   0  -2    0.25    0.05 
   4   0  -2   20.16    0.47 
   4   0  -2   20.20    0.47 
   3   0  -2    0.16    0.03 
   3   0  -2    0.11    0.03 
   2   0  -2   26.02    0.56 
   2   0  -2   25.35    0.56 
   1   0  -2    0.19    0.03 
   1   0  -2    0.16    0.03 
   0   0  -2  109.68    2.30 
   0   0  -2  108.74    2.26 
  -1   0  -2    0.69    0.05 
  -1   0  -2    0.73    0.05 
  -2   0  -2   12.86    0.28 
   2   0   2   12.63    0.27 
   2   0   2   13.01    0.30 
   3   0   2    1.24    0.05 
   3   0   2    1.45    0.07 
   4   0   2   28.21    0.64 
   4   0   2   28.41    0.60 
   5   0   2    1.80    0.07 
   5   0   2    1.75    0.09 
   6   0   2    2.10    0.11 
   7   0   2    0.02    0.05 
   8   0   2    0.30    0.07 
   7  -1  -2    0.00    0.05 
   6  -1  -2    0.58    0.07 
   5  -1  -2    0.00    0.04 
   5  -1  -2    0.05    0.05 
   4  -1  -2    5.84    0.19 
   3  -1  -2    0.38    0.05 
   3  -1  -2    0.27    0.04 
   2  -1  -2    0.40    0.04 
   2  -1  -2    0.66    0.05 
   1  -1  -2   13.37    0.30 
   1  -1  -2   12.63    0.29 
   0  -1  -2  215.25    4.44 
  -1  -1  -2   32.98    0.71 
  -1  -1  -2   33.80    0.69 
  -2  -1  -2  398.03    8.26 
   2   1   2  393.55    8.69 
  -3  -1  -2   22.82    0.52 
   3   1   2   24.02    0.53 
   3   1   2   24.25    0.50 
   4   1   2    7.81    0.21 
   4   1   2    7.81    0.19 
   5   1   2    2.56    0.10 
   5   1   2    2.62    0.11 
   6   1   2   32.11    0.74 
   6   1   2   31.94    0.70 
   7   1   2    0.64    0.08 
   8   1   2   20.62    0.53 
   7  -2  -2    2.12    0.14 
   6  -2  -2    0.02    0.05 
   5  -2  -2    1.53    0.10 
   4  -2  -2    4.97    0.17 
   3  -2  -2    0.05    0.04 
   2  -2  -2   38.25    0.84 
   1  -2  -2    7.09    0.18 
   0  -2  -2   35.66    0.76 
  -1  -2  -2    2.12    0.08 
   1   2   2    2.20    0.07 
   1   2   2    2.08    0.06 
  -2  -2  -2    6.36    0.16 
   2   2   2    6.77    0.14 
   2   2   2    6.40    0.16 
  -3  -2  -2    2.83    0.09 
   3   2   2    2.99    0.08 
   3   2   2    3.08    0.09 
  -4  -2  -2    3.68    0.12 
   4   2   2    3.56    0.10 
   4   2   2    3.45    0.11 
  -5  -2  -2    8.22    0.22 
   5   2   2    7.81    0.21 
   5   2   2    7.81    0.22 
   5   2   2    8.14    0.21 
  -6  -2  -2    6.63    0.20 
   6   2   2    6.46    0.19 
   6   2   2    6.48    0.19 
   6   2   2    6.64    0.20 
  -7  -2  -2    3.57    0.15 
   7   2   2    4.05    0.16 
   7   2   2    3.96    0.14 
  -8  -2  -2   36.50    0.85 
   8   2   2   36.52    0.85 
  -9  -2  -2    1.35    0.11 
   9   2   2    1.11    0.11 
   6  -3  -2    0.24    0.07 
   5  -3  -2    1.51    0.10 
   4  -3  -2    2.51    0.12 
   3  -3  -2    9.36    0.26 
   2  -3  -2    0.60    0.06 
   1  -3  -2   88.55    1.87 
   0  -3  -2   19.56    0.44 
   0   3   2   20.09    0.43 
  -1  -3  -2  147.89    3.00 
   1   3   2  143.43    3.41 
   1   3   2  136.26    2.93 
  -2  -3  -2    1.42    0.06 
   2   3   2    1.35    0.05 
   2   3   2    1.37    0.06 
  -3  -3  -2   58.60    1.23 
   3   3   2   59.29    1.21 
   3   3   2   56.29    1.20 
  -4  -3  -2   20.10    0.45 
   4   3   2   20.29    0.44 
  -5  -3  -2    1.76    0.09 
   5   3   2    2.07    0.08 
   5   3   2    2.15    0.09 
  -6  -3  -2   17.04    0.41 
   6   3   2   17.74    0.41 
   6   3   2   17.00    0.41 
  -7  -3  -2    0.76    0.08 
   7   3   2    0.86    0.08 
   7   3   2    0.85    0.07 
  -8  -3  -2    8.54    0.26 
   8   3   2    8.28    0.25 
  -9  -3  -2    1.27    0.11 
   6  -4  -2    0.05    0.05 
   5  -4  -2    0.77    0.09 
   4  -4  -2    0.38    0.07 
   3  -4  -2    1.97    0.11 
   2  -4  -2    6.56    0.20 
   1  -4  -2   62.16    1.32 
  -1   4   2   60.38    1.27 
   0  -4  -2   35.73    0.79 
   0   4   2   35.84    0.77 
   0   4   2   37.01    0.78 
  -1  -4  -2  168.58    3.56 
   1   4   2  172.87    3.53 
   1   4   2  169.48    3.48 
  -2  -4  -2    0.19    0.04 
   2   4   2    0.27    0.04 
   2   4   2    0.30    0.03 
  -3  -4  -2   68.13    1.44 
   3   4   2   68.71    1.42 
   3   4   2   67.80    1.42 
  -4  -4  -2    5.33    0.15 
   4   4   2    5.70    0.16 
   4   4   2    5.28    0.14 
  -5  -4  -2    9.80    0.25 
   5   4   2   10.10    0.24 
  -6  -4  -2    0.01    0.04 
   6   4   2    0.10    0.04 
   6   4   2    0.04    0.04 
  -7  -4  -2    0.99    0.08 
   7   4   2    1.11    0.09 
   7   4   2    1.03    0.08 
  -8  -4  -2    1.05    0.09 
   8   4   2    1.41    0.10 
   9   4   2   -0.03    0.06 
   5  -5  -2    0.24    0.07 
   4  -5  -2    4.22    0.18 
   3  -5  -2    0.36    0.06 
   2  -5  -2    0.14    0.05 
  -2   5   2    0.16    0.04 
   1  -5  -2    0.06    0.04 
  -1   5   2    0.07    0.05 
  -1   5   2    0.09    0.04 
   0  -5  -2    3.96    0.13 
   0   5   2    4.10    0.13 
   0   5   2    4.06    0.14 
  -1  -5  -2   12.35    0.29 
   1   5   2   11.99    0.29 
   1   5   2   12.09    0.29 
  -2  -5  -2    0.03    0.03 
   2   5   2    0.02    0.03 
   2   5   2   -0.03    0.03 
  -3  -5  -2   30.25    0.66 
   3   5   2   30.02    0.66 
   3   5   2   30.96    0.67 
  -4  -5  -2    1.10    0.08 
   4   5   2    0.98    0.08 
   4   5   2    1.05    0.06 
  -5  -5  -2    8.53    0.22 
   5   5   2    8.03    0.22 
   5   5   2    8.66    0.24 
  -6  -5  -2    5.56    0.16 
   6   5   2    5.53    0.19 
   6   5   2    5.33    0.16 
   7   5   2    0.80    0.08 
   7   5   2    0.77    0.07 
   8   5   2    2.55    0.13 
   9   5   2    0.07    0.06 
   4  -6  -2    8.29    0.28 
  -4   6   2    7.91    0.27 
   3  -6  -2    0.63    0.08 
  -3   6   2    0.74    0.09 
   2  -6  -2   18.41    0.47 
  -2   6   2   18.49    0.46 
   1  -6  -2    0.15    0.04 
  -1   6   2    0.14    0.06 
  -1   6   2    0.14    0.04 
   0  -6  -2    0.95    0.08 
   0   6   2    0.96    0.07 
   0   6   2    0.93    0.08 
  -1  -6  -2    2.45    0.10 
   1   6   2    2.55    0.10 
   1   6   2    2.45    0.12 
  -2  -6  -2   14.99    0.35 
   2   6   2   14.56    0.36 
   2   6   2   15.01    0.36 
  -3  -6  -2    0.39    0.05 
   3   6   2    0.36    0.05 
   3   6   2    0.42    0.06 
  -4  -6  -2    5.09    0.15 
   4   6   2    4.84    0.15 
   4   6   2    5.20    0.17 
   5   6   2    3.07    0.13 
   5   6   2    3.28    0.12 
   6   6   2    0.19    0.06 
   6   6   2    0.16    0.04 
   7   6   2    4.09    0.17 
   8   6   2    0.21    0.06 
   3  -7  -2    0.71    0.09 
  -3   7   2    0.52    0.09 
   2  -7  -2    4.75    0.19 
  -2   7   2    4.82    0.19 
   1  -7  -2    5.10    0.18 
  -1   7   2    5.68    0.20 
   0  -7  -2   18.82    0.46 
   0   7   2   19.00    0.44 
   0   7   2   19.20    0.47 
  -1  -7  -2    7.08    0.20 
   1   7   2    6.96    0.21 
   1   7   2    6.97    0.22 
  -2  -7  -2    8.59    0.23 
   2   7   2    8.66    0.24 
   2   7   2    9.04    0.25 
   3   7   2    0.08    0.05 
   3   7   2    0.13    0.05 
   4   7   2    1.44    0.10 
   4   7   2    1.66    0.09 
   5   7   2    2.50    0.11 
   5   7   2    2.63    0.13 
   6   7   2    2.38    0.13 
   7   7   2    0.37    0.07 
   8   7   2    0.47    0.08 
   2  -8  -2    0.34    0.07 
  -2   8   2    0.30    0.09 
   1  -8  -2    1.02    0.09 
  -1   8   2    0.99    0.10 
   0  -8  -2    0.04    0.05 
   0   8   2   -0.03    0.06 
  -1  -8  -2    3.16    0.13 
   1   8   2    3.32    0.15 
   1   8   2    3.32    0.14 
   2   8   2    1.56    0.10 
   2   8   2    1.50    0.11 
   3   8   2    3.89    0.15 
   3   8   2    3.62    0.15 
   4   8   2    1.10    0.09 
   4   8   2    1.25    0.10 
   5   8   2    0.00    0.05 
   6   8   2    0.79    0.09 
   7   8   2    5.53    0.22 
   1  -9  -2    0.15    0.06 
  -1   9   2    0.24    0.09 
   0   9   2    0.88    0.11 
   1   9   2    0.26    0.08 
   2   9   2    1.02    0.09 
   2   9   2    0.67    0.09 
   3   9   2    0.36    0.07 
   3   9   2    0.43    0.07 
   4   9   2    3.16    0.15 
   4   9   2    2.92    0.14 
   5   9   2    0.06    0.06 
   6   9   2    0.93    0.10 
   2  10   2    1.33    0.12 
   3  10   2    0.09    0.07 
   3  10   2    0.10    0.06 
   4  10   2    0.48    0.08 
   4   8  -3    7.49    0.25 
   4   8  -3    7.81    0.27 
   3   8  -3    1.40    0.11 
   3   8  -3    1.46    0.13 
   2   8  -3    1.10    0.11 
   1   8  -3    1.41    0.12 
   0   8  -3    0.84    0.11 
  -1   8  -3    0.43    0.10 
   6   7  -3   -0.03    0.06 
   5   7  -3    0.78    0.10 
   5   7  -3    1.03    0.10 
   4   7  -3    0.10    0.06 
   4   7  -3    0.22    0.07 
   3   7  -3    0.01    0.06 
   3   7  -3    0.05    0.05 
   2   7  -3    4.84    0.19 
   2   7  -3    5.05    0.17 
   1   7  -3    1.37    0.11 
   0   7  -3    3.31    0.17 
  -1   7  -3    0.72    0.10 
  -2   7  -3    0.19    0.08 
  -3   7  -3    0.04    0.08 
   7   6  -3    2.78    0.16 
   6   6  -3    3.78    0.17 
   5   6  -3    0.46    0.08 
   5   6  -3    0.37    0.07 
   4   6  -3    1.32    0.10 
   4   6  -3    1.18    0.10 
   3   6  -3    2.16    0.12 
   3   6  -3    2.21    0.13 
   2   6  -3   12.61    0.35 
   2   6  -3   13.12    0.33 
   1   6  -3    2.62    0.13 
   1   6  -3    2.18    0.10 
   0   6  -3    2.22    0.13 
  -1   6  -3    0.02    0.06 
   1  -6   3    0.06    0.04 
  -2   6  -3    2.10    0.13 
   2  -6   3    2.48    0.12 
  -3   6  -3    0.79    0.11 
   3  -6   3    1.09    0.10 
  -4   6  -3    1.09    0.12 
   4  -6   3    1.38    0.12 
   7   5  -3    0.47    0.08 
   6   5  -3    0.24    0.07 
   5   5  -3    0.06    0.05 
   4   5  -3    0.72    0.08 
   4   5  -3    0.84    0.08 
   3   5  -3    0.97    0.08 
   3   5  -3    0.90    0.08 
   2   5  -3    8.46    0.23 
   2   5  -3    8.23    0.25 
   1   5  -3    6.58    0.21 
   1   5  -3    6.61    0.19 
   0   5  -3   30.61    0.68 
   0   5  -3   31.16    0.71 
  -1   5  -3    2.32    0.12 
   1  -5   3    2.17    0.10 
  -2   5  -3    7.13    0.23 
   2  -5   3    7.06    0.21 
  -3   5  -3    1.88    0.13 
   3  -5   3    1.64    0.11 
  -4   5  -3    4.37    0.19 
   4  -5   3    4.41    0.18 
  -5   5  -3    8.15    0.28 
   5  -5   3    7.62    0.26 
   7   4  -3    0.49    0.08 
   6   4  -3    0.05    0.05 
   5   4  -3    0.42    0.06 
   4   4  -3    1.32    0.09 
   3   4  -3    7.96    0.23 
   3   4  -3    7.82    0.24 
   2   4  -3    1.83    0.09 
   2   4  -3    1.84    0.10 
   1   4  -3    5.95    0.19 
   1   4  -3    5.95    0.15 
   1   4  -3    6.02    0.17 
   0   4  -3    0.13    0.05 
   0   4  -3    0.09    0.03 
  -1   4  -3    0.00    0.05 
   1  -4   3    0.04    0.03 
  -2   4  -3    0.00    0.06 
   2  -4   3    0.07    0.04 
  -3   4  -3    5.20    0.19 
   3  -4   3    5.23    0.18 
  -4   4  -3    0.28    0.07 
   4  -4   3    0.40    0.07 
  -5   4  -3   13.12    0.37 
   5  -4   3   13.41    0.38 
  -6   4  -3    7.38    0.26 
   6  -4   3    6.86    0.25 
   7   3  -3    0.55    0.08 
   6   3  -3    0.98    0.09 
   5   3  -3    0.20    0.05 
   4   3  -3   28.27    0.65 
   3   3  -3    8.95    0.20 
   3   3  -3    8.74    0.24 
   2   3  -3   32.53    0.71 
   2   3  -3   31.45    0.67 
   1   3  -3   26.17    0.55 
   1   3  -3   25.33    0.58 
   0   3  -3    6.05    0.15 
   0   3  -3    6.13    0.18 
  -1   3  -3    8.06    0.21 
   1  -3   3    7.93    0.20 
  -2   3  -3    9.45    0.26 
   2  -3   3    9.37    0.25 
  -3   3  -3    0.13    0.06 
   3  -3   3    0.04    0.04 
  -4   3  -3    8.52    0.25 
   4  -3   3    8.51    0.25 
  -5   3  -3    3.23    0.15 
   5  -3   3    3.39    0.15 
  -6   3  -3    3.50    0.16 
   6  -3   3    3.60    0.17 
  -7   3  -3    4.53    0.19 
   7  -3   3    4.13    0.19 
   7   2  -3    0.32    0.07 
   6   2  -3    2.03    0.10 
   6   2  -3    2.00    0.12 
   5   2  -3    0.06    0.03 
   5   2  -3    0.12    0.04 
   4   2  -3    0.96    0.06 
   4   2  -3    0.87    0.08 
   3   2  -3   15.85    0.38 
   3   2  -3   15.86    0.35 
   2   2  -3   65.94    1.39 
   2   2  -3   66.82    1.41 
   1   2  -3   68.83    1.46 
   1   2  -3   70.02    1.45 
   0   2  -3   79.37    1.63 
   0   2  -3   75.79    1.63 
  -1   2  -3   75.07    1.56 
  -1   2  -3   73.42    1.57 
  -2   2  -3    0.03    0.04 
   2  -2   3    0.02    0.03 
  -3   2  -3   18.14    0.43 
   3  -2   3   18.51    0.44 
  -4   2  -3    0.85    0.08 
   4  -2   3    0.72    0.07 
  -5   2  -3    2.68    0.13 
   5  -2   3    2.57    0.13 
  -6   2  -3    0.54    0.08 
   6  -2   3    0.65    0.08 
  -7   2  -3    0.24    0.07 
   7  -2   3    0.25    0.07 
   7   1  -3    0.71    0.08 
   7   1  -3    0.66    0.09 
   6   1  -3    5.57    0.20 
   6   1  -3    5.48    0.18 
   5   1  -3    2.82    0.11 
   5   1  -3    3.00    0.13 
   4   1  -3    2.72    0.10 
   4   1  -3    2.61    0.11 
   3   1  -3    0.15    0.04 
   3   1  -3    0.14    0.03 
   2   1  -3   42.63    0.92 
   2   1  -3   43.60    0.93 
   1   1  -3   67.75    1.46 
   1   1  -3   71.26    1.46 
   0   1  -3    7.21    0.18 
   0   1  -3    7.37    0.18 
  -1   1  -3  172.34    3.63 
  -1   1  -3  173.49    3.59 
  -2   1  -3    9.93    0.24 
  -2   1  -3   10.06    0.25 
  -3   1  -3   55.38    1.18 
   3  -1   3   55.66    1.20 
  -4   1  -3    0.08    0.04 
   4  -1   3    0.11    0.04 
  -5   1  -3    6.82    0.20 
   5  -1   3    6.61    0.21 
   6  -1   3    1.90    0.11 
   7  -1   3    0.76    0.09 
  -8   1  -3    0.26    0.07 
   8  -1   3    0.18    0.07 
   7   0  -3    0.22    0.06 
   7   0  -3    0.16    0.06 
   6   0  -3    7.10    0.23 
   6   0  -3    7.32    0.23 
   5   0  -3    0.88    0.08 
   5   0  -3    0.99    0.08 
   4   0  -3   52.57    1.14 
   4   0  -3   52.24    1.14 
   3   0  -3    2.78    0.11 
   3   0  -3    2.49    0.10 
   2   0  -3   36.77    0.77 
   2   0  -3   34.05    0.77 
   1   0  -3    1.07    0.05 
   1   0  -3    1.02    0.05 
   0   0  -3   38.12    0.81 
   0   0  -3   38.16    0.81 
  -1   0  -3    9.71    0.23 
  -1   0  -3   10.08    0.22 
  -2   0  -3   18.87    0.43 
  -2   0  -3   19.44    0.42 
   2   0   3   19.57    0.41 
  -3   0  -3   30.10    0.66 
  -3   0  -3   30.74    0.68 
   3   0   3   31.40    0.64 
   3   0   3   31.32    0.68 
   4   0   3    9.81    0.22 
   4   0   3    9.69    0.26 
   5   0   3    5.82    0.15 
   5   0   3    6.12    0.19 
   6   0   3   10.78    0.30 
   7   0   3    0.13    0.06 
   8   0   3    0.50    0.08 
   7  -1  -3    0.14    0.06 
   6  -1  -3    2.66    0.14 
   5  -1  -3    0.08    0.05 
   5  -1  -3    0.01    0.04 
   4  -1  -3   22.54    0.54 
   4  -1  -3   23.19    0.54 
   3  -1  -3    1.46    0.08 
   3  -1  -3    1.48    0.08 
   2  -1  -3  197.07    4.08 
   2  -1  -3  193.45    4.12 
   1  -1  -3    0.81    0.05 
   1  -1  -3    0.81    0.05 
   0  -1  -3  360.53    8.51 
   0  -1  -3  377.36    7.73 
  -1  -1  -3    1.58    0.05 
  -1  -1  -3    1.41    0.07 
  -2  -1  -3    6.83    0.15 
  -2  -1  -3    6.67    0.17 
   2   1   3    6.54    0.16 
  -3  -1  -3    6.24    0.15 
  -3  -1  -3    6.19    0.17 
   3   1   3    6.24    0.15 
  -4  -1  -3   30.83    0.67 
   4   1   3   29.31    0.64 
  -5  -1  -3    0.99    0.08 
   5   1   3    1.11    0.08 
   5   1   3    1.06    0.06 
  -6  -1  -3    1.23    0.09 
   6   1   3    1.01    0.07 
   6   1   3    1.14    0.09 
  -7  -1  -3    0.17    0.06 
   7   1   3    0.16    0.06 
  -8  -1  -3    4.70    0.19 
   8   1   3    4.63    0.19 
   7  -2  -3    1.10    0.11 
   6  -2  -3    1.98    0.13 
   5  -2  -3    0.26    0.06 
   4  -2  -3    8.10    0.24 
   3  -2  -3    0.47    0.06 
   3  -2  -3    0.70    0.06 
   2  -2  -3    9.32    0.24 
   2  -2  -3    9.72    0.25 
   1  -2  -3    0.73    0.05 
   1  -2  -3    0.67    0.06 
   0  -2  -3   16.21    0.35 
   0  -2  -3   15.55    0.36 
  -1  -2  -3    0.28    0.02 
  -1  -2  -3    0.27    0.04 
  -2  -2  -3   19.64    0.46 
   2   2   3   21.49    0.45 
  -3  -2  -3    0.87    0.06 
   3   2   3    0.85    0.05 
  -4  -2  -3   16.36    0.35 
   4   2   3   12.77    0.33 
  -5  -2  -3    7.68    0.22 
   5   2   3    7.86    0.20 
  -6  -2  -3   35.76    0.81 
   6   2   3   35.76    0.78 
  -7  -2  -3    4.01    0.16 
   7   2   3    4.27    0.15 
  -8  -2  -3    6.91    0.23 
  -9  -2  -3    1.27    0.12 
   6  -3  -3    4.55    0.19 
   5  -3  -3    1.60    0.11 
   4  -3  -3    0.77    0.08 
   3  -3  -3   11.09    0.30 
   2  -3  -3    2.57    0.11 
   1  -3  -3   15.43    0.37 
   0  -3  -3    3.03    0.11 
  -1  -3  -3    0.54    0.05 
   1   3   3    0.65    0.05 
  -2  -3  -3   79.63    1.69 
   2   3   3   80.28    1.65 
   2   3   3   80.44    1.66 
  -3  -3  -3    1.70    0.08 
   3   3   3    1.52    0.07 
   3   3   3    1.56    0.04 
  -4  -3  -3   23.74    0.53 
   4   3   3   23.79    0.52 
   4   3   3   22.96    0.50 
  -5  -3  -3    2.31    0.10 
   5   3   3    2.36    0.10 
   5   3   3    2.20    0.08 
  -6  -3  -3    3.17    0.13 
   6   3   3    3.00    0.12 
  -7  -3  -3    0.06    0.05 
   7   3   3    0.08    0.04 
  -8  -3  -3    1.45    0.10 
   8   3   3    1.26    0.10 
  -9  -3  -3    1.79    0.12 
   6  -4  -3    0.06    0.06 
   5  -4  -3    0.57    0.08 
   4  -4  -3    5.33    0.20 
   3  -4  -3   19.13    0.48 
   2  -4  -3    8.24    0.24 
   1  -4  -3   21.81    0.51 
   0  -4  -3    0.45    0.05 
   0   4   3    0.45    0.05 
  -1  -4  -3    0.50    0.05 
   1   4   3    0.51    0.04 
   1   4   3    0.49    0.05 
  -2  -4  -3    6.64    0.18 
   2   4   3    6.47    0.18 
   2   4   3    6.44    0.16 
  -3  -4  -3   40.99    0.88 
   3   4   3   40.35    0.87 
   3   4   3   40.87    0.85 
  -4  -4  -3    1.57    0.08 
   4   4   3    1.45    0.06 
   4   4   3    1.35    0.08 
  -5  -4  -3   26.69    0.60 
   5   4   3   26.99    0.60 
   5   4   3   26.49    0.58 
  -6  -4  -3    0.88    0.07 
   6   4   3    0.94    0.08 
   6   4   3    0.97    0.07 
  -7  -4  -3    6.73    0.21 
   7   4   3    6.78    0.21 
  -8  -4  -3    1.25    0.10 
   8   4   3    1.22    0.09 
  -9  -4  -3    0.72    0.09 
   9   4   3    0.66    0.08 
   5  -5  -3    1.10    0.11 
   3  -5  -3    0.04    0.05 
   2  -5  -3    1.48    0.10 
  -2   5   3    1.45    0.09 
   1  -5  -3    3.20    0.13 
  -1   5   3    3.27    0.12 
   0  -5  -3    0.09    0.04 
   0   5   3    0.13    0.04 
   0   5   3    0.06    0.04 
  -1  -5  -3    0.20    0.05 
   1   5   3    0.13    0.04 
   1   5   3    0.18    0.04 
  -2  -5  -3    3.26    0.12 
   2   5   3    3.31    0.11 
   2   5   3    3.53    0.12 
  -3  -5  -3   25.22    0.57 
   3   5   3   25.63    0.57 
   3   5   3   25.73    0.55 
  -4  -5  -3   14.90    0.35 
   4   5   3   14.90    0.36 
   4   5   3   14.57    0.33 
  -5  -5  -3   48.91    1.04 
   5   5   3   47.94    1.02 
   5   5   3   47.56    1.04 
  -6  -5  -3    3.43    0.13 
   6   5   3    3.40    0.13 
  -7  -5  -3   22.07    0.51 
   7   5   3   20.99    0.52 
   8   5   3    0.12    0.05 
   9   5   3    4.01    0.17 
   4  -6  -3    0.04    0.06 
   3  -6  -3    0.81    0.09 
   2  -6  -3    6.50    0.22 
  -2   6   3    6.54    0.19 
  -2   6   3    6.69    0.22 
   1  -6  -3    2.42    0.12 
  -1   6   3    2.32    0.12 
  -1   6   3    2.56    0.11 
   0  -6  -3   23.40    0.54 
   0   6   3   23.18    0.53 
   0   6   3   22.49    0.53 
  -1  -6  -3    0.41    0.06 
   1   6   3    0.39    0.06 
   1   6   3    0.35    0.06 
  -2  -6  -3    4.89    0.16 
   2   6   3    5.09    0.15 
   2   6   3    5.00    0.16 
  -3  -6  -3    0.14    0.05 
   3   6   3    0.14    0.04 
   3   6   3    0.21    0.05 
  -4  -6  -3    0.43    0.06 
   4   6   3    0.30    0.04 
   4   6   3    0.32    0.05 
  -5  -6  -3    1.30    0.09 
   5   6   3    1.40    0.09 
   6   6   3    0.03    0.05 
   7   6   3    8.33    0.26 
   8   6   3    0.11    0.06 
   9   6   3    6.21    0.23 
   3  -7  -3    1.14    0.11 
  -3   7   3    1.12    0.11 
   2  -7  -3    0.04    0.05 
  -2   7   3    0.06    0.06 
   1  -7  -3    1.03    0.09 
  -1   7   3    1.15    0.10 
  -1   7   3    1.15    0.08 
   0  -7  -3    2.95    0.13 
   0   7   3    2.64    0.11 
   0   7   3    2.60    0.12 
  -1  -7  -3   -0.01    0.04 
   1   7   3   -0.02    0.04 
   1   7   3    0.03    0.05 
  -2  -7  -3   19.46    0.44 
   2   7   3   19.16    0.45 
   2   7   3   17.48    0.44 
  -3  -7  -3    0.32    0.05 
   3   7   3    0.27    0.05 
   3   7   3    0.25    0.05 
  -4  -7  -3    6.55    0.19 
   4   7   3    6.51    0.21 
   4   7   3    6.72    0.19 
   5   7   3    0.94    0.09 
   6   7   3    0.74    0.08 
   7   7   3    1.70    0.12 
   8   7   3    1.56    0.12 
   2  -8  -3    1.46    0.12 
  -2   8   3    1.52    0.12 
   1  -8  -3   -0.01    0.05 
  -1   8   3    0.08    0.07 
   0  -8  -3    0.87    0.08 
   0   8   3    0.86    0.09 
   0   8   3    0.97    0.08 
  -1  -8  -3    0.34    0.06 
   1   8   3    0.37    0.06 
   1   8   3    0.37    0.07 
  -2  -8  -3    1.72    0.09 
   2   8   3    1.70    0.10 
   2   8   3    1.63    0.10 
   3   8   3    0.67    0.07 
   3   8   3    0.62    0.08 
   4   8   3   10.14    0.29 
   5   8   3    4.64    0.18 
   6   8   3    6.68    0.23 
   7   8   3    0.34    0.07 
   8   8   3    0.09    0.07 
   1  -9  -3    2.16    0.14 
   0  -9  -3    1.16    0.10 
   0   9   3    1.07    0.11 
   1   9   3    1.95    0.11 
   1   9   3    2.11    0.13 
   2   9   3    2.60    0.14 
   2   9   3    2.84    0.14 
   3   9   3    1.43    0.10 
   4   9   3    0.62    0.08 
   5   9   3    1.24    0.11 
   6   9   3    0.57    0.09 
   7   9   3    1.89    0.14 
   2  10   3    0.16    0.07 
   3  10   3    0.15    0.06 
   4  10   3    1.55    0.12 
   5  10   3    0.07    0.06 
   3   8  -4    1.49    0.13 
   2   8  -4   12.09    0.37 
   1   8  -4    3.84    0.19 
   5   7  -4    1.22    0.12 
   4   7  -4    0.63    0.09 
   3   7  -4    7.07    0.25 
   2   7  -4    0.78    0.10 
   1   7  -4    7.53    0.26 
   0   7  -4    8.90    0.29 
  -1   7  -4    2.64    0.16 
  -2   7  -4    5.86    0.24 
   6   6  -4    5.34    0.22 
   5   6  -4    4.45    0.19 
   4   6  -4    8.75    0.28 
   3   6  -4    0.95    0.10 
   2   6  -4    0.91    0.09 
   1   6  -4    0.58    0.08 
   0   6  -4    0.24    0.07 
  -1   6  -4    0.72    0.10 
  -2   6  -4    1.32    0.12 
  -3   6  -4   -0.03    0.07 
  -3   6  -4    0.08    0.05 
   3  -6   4   -0.01    0.05 
   6   5  -4    4.74    0.20 
   5   5  -4    5.78    0.21 
   4   5  -4   12.22    0.34 
   3   5  -4   12.66    0.35 
   2   5  -4   18.35    0.46 
   1   5  -4    7.24    0.23 
   0   5  -4    1.81    0.12 
  -1   5  -4    0.01    0.04 
  -1   5  -4    0.08    0.06 
  -2   5  -4    7.32    0.25 
  -2   5  -4    7.49    0.22 
   2  -5   4    7.43    0.22 
  -3   5  -4    0.66    0.09 
   3  -5   4    0.82    0.08 
  -4   5  -4    3.91    0.18 
   4  -5   4    3.76    0.17 
  -5   5  -4    0.02    0.07 
   5  -5   4    0.10    0.06 
   7   4  -4    0.17    0.07 
   6   4  -4    2.67    0.15 
   5   4  -4    2.77    0.14 
   4   4  -4    1.38    0.10 
   3   4  -4    3.92    0.16 
   2   4  -4    0.22    0.05 
   1   4  -4    0.35    0.07 
   0   4  -4    0.58    0.05 
   0   4  -4    0.50    0.07 
  -1   4  -4    0.91    0.07 
  -1   4  -4    0.77    0.08 
  -2   4  -4    2.80    0.12 
  -2   4  -4    2.90    0.14 
  -3   4  -4    2.54    0.13 
   3  -4   4    2.49    0.12 
  -4   4  -4   11.01    0.32 
   4  -4   4   11.30    0.32 
  -5   4  -4    1.09    0.11 
   5  -4   4    1.04    0.10 
  -6   4  -4    6.14    0.24 
   6  -4   4    6.52    0.25 
   7   3  -4    0.24    0.07 
   6   3  -4   10.30    0.31 
   5   3  -4    1.52    0.10 
   4   3  -4    2.93    0.13 
   3   3  -4    3.61    0.15 
   2   3  -4    0.10    0.05 
   2   3  -4    0.05    0.03 
   1   3  -4    0.29    0.04 
   1   3  -4    0.37    0.06 
   0   3  -4    3.03    0.12 
   0   3  -4    3.08    0.11 
  -1   3  -4    9.20    0.25 
  -1   3  -4    8.73    0.23 
  -2   3  -4    5.23    0.18 
  -2   3  -4    5.47    0.17 
  -3   3  -4    5.98    0.20 
  -3   3  -4    6.19    0.20 
   3  -3   4    6.34    0.20 
  -4   3  -4    0.54    0.08 
   4  -3   4    0.46    0.07 
  -5   3  -4    0.52    0.08 
   5  -3   4    0.41    0.07 
  -6   3  -4    0.06    0.07 
   6  -3   4    0.20    0.07 
   7   2  -4    0.20    0.07 
   6   2  -4    3.66    0.17 
   5   2  -4    1.53    0.10 
   4   2  -4   24.79    0.59 
   4   2  -4   25.53    0.56 
   3   2  -4    3.74    0.11 
   3   2  -4    3.88    0.14 
   2   2  -4    3.43    0.10 
   2   2  -4    3.36    0.13 
   1   2  -4    0.57    0.05 
   1   2  -4    0.64    0.06 
   0   2  -4   41.58    0.88 
   0   2  -4   39.75    0.87 
  -1   2  -4    4.00    0.13 
  -1   2  -4    3.94    0.13 
  -2   2  -4   37.63    0.83 
  -2   2  -4   37.86    0.83 
  -3   2  -4    6.93    0.21 
  -3   2  -4    7.03    0.21 
   3  -2   4    7.13    0.21 
  -4   2  -4    4.47    0.16 
   4  -2   4    4.33    0.16 
  -5   2  -4    1.96    0.11 
   5  -2   4    1.89    0.11 
  -6   2  -4    1.18    0.10 
   6  -2   4    1.33    0.10 
  -7   2  -4   -0.01    0.06 
   7  -2   4   -0.03    0.05 
   7   1  -4    0.55    0.08 
   6   1  -4    7.02    0.22 
   6   1  -4    6.71    0.23 
   5   1  -4    0.06    0.05 
   5   1  -4    0.12    0.04 
   4   1  -4    8.45    0.22 
   4   1  -4    8.28    0.24 
   3   1  -4    7.12    0.19 
   3   1  -4    7.42    0.21 
   2   1  -4    0.11    0.04 
   2   1  -4    0.12    0.03 
   1   1  -4    7.87    0.20 
   1   1  -4    7.98    0.21 
   0   1  -4    0.04    0.03 
   0   1  -4    0.01    0.03 
  -1   1  -4    3.92    0.12 
  -1   1  -4    4.20    0.12 
  -2   1  -4   49.28    1.04 
  -2   1  -4   48.71    1.06 
  -3   1  -4   33.48    0.74 
  -3   1  -4   32.50    0.72 
   3  -1   4   32.54    0.68 
  -4   1  -4   40.69    0.90 
  -4   1  -4   40.70    0.88 
   4  -1   4   39.61    0.90 
  -5   1  -4   16.76    0.41 
  -5   1  -4   16.96    0.43 
   5  -1   4   16.89    0.43 
  -6   1  -4    6.40    0.20 
  -6   1  -4    6.27    0.22 
   6  -1   4    6.05    0.21 
  -7   1  -4    4.38    0.18 
  -7   1  -4    4.34    0.17 
   7  -1   4    4.29    0.18 
  -8   1  -4    0.50    0.08 
  -8   1  -4    0.55    0.09 
   8  -1   4    0.37    0.08 
   7   0  -4    0.07    0.05 
   7   0  -4   -0.05    0.05 
   6   0  -4    0.04    0.05 
   6   0  -4    0.07    0.06 
   5   0  -4    0.03    0.04 
   5   0  -4   -0.03    0.04 
   4   0  -4    5.65    0.18 
   4   0  -4    5.95    0.19 
   3   0  -4    1.79    0.09 
   3   0  -4    1.93    0.09 
   2   0  -4   43.76    0.94 
   2   0  -4   42.72    0.94 
   1   0  -4   18.58    0.44 
   1   0  -4   20.29    0.44 
   0   0  -4   10.42    0.25 
   0   0  -4   10.18    0.24 
  -1   0  -4    5.87    0.15 
  -1   0  -4    5.92    0.16 
  -2   0  -4   27.48    0.61 
  -2   0  -4   27.71    0.60 
  -3   0  -4    6.59    0.19 
  -3   0  -4    6.59    0.17 
   3   0   4    6.53    0.16 
  -4   0  -4    3.50    0.12 
  -4   0  -4    3.63    0.14 
   4   0   4    3.88    0.10 
  -5   0  -4   23.94    0.55 
  -5   0  -4   24.39    0.57 
  -6   0  -4    3.31    0.13 
  -6   0  -4    3.20    0.14 
   6   0   4    3.21    0.14 
  -7   0  -4   13.74    0.38 
  -7   0  -4   13.65    0.35 
   7   0   4   13.51    0.38 
  -8   0  -4    2.96    0.15 
  -8   0  -4    3.01    0.14 
   7  -1  -4    0.27    0.07 
   7  -1  -4    0.49    0.08 
   6  -1  -4    0.03    0.05 
   6  -1  -4   -0.02    0.05 
   5  -1  -4    2.11    0.12 
   5  -1  -4    2.01    0.11 
   4  -1  -4    2.62    0.12 
   4  -1  -4    2.57    0.12 
   3  -1  -4    8.27    0.23 
   3  -1  -4    7.93    0.23 
   2  -1  -4    0.09    0.04 
   2  -1  -4    0.04    0.03 
   1  -1  -4    8.22    0.21 
   1  -1  -4    8.36    0.21 
   0  -1  -4   64.44    1.34 
   0  -1  -4   64.07    1.37 
  -1  -1  -4    6.28    0.15 
  -1  -1  -4    6.41    0.17 
  -2  -1  -4   72.73    1.57 
  -2  -1  -4   75.34    1.53 
  -3  -1  -4    1.48    0.08 
  -3  -1  -4    1.57    0.06 
   3   1   4    1.52    0.06 
  -4  -1  -4    0.13    0.04 
  -4  -1  -4    0.14    0.03 
   4   1   4    0.10    0.03 
  -5  -1  -4   -0.04    0.04 
  -5  -1  -4    0.05    0.05 
   5   1   4    0.01    0.03 
  -6  -1  -4    6.14    0.20 
   6   1   4    6.25    0.17 
  -7  -1  -4    1.07    0.10 
  -8  -1  -4    0.02    0.05 
   6  -2  -4    0.07    0.06 
   5  -2  -4    0.47    0.07 
   5  -2  -4    0.55    0.07 
   4  -2  -4    1.79    0.11 
   4  -2  -4    1.83    0.10 
   3  -2  -4   -0.08    0.04 
   3  -2  -4   -0.02    0.04 
   2  -2  -4    5.94    0.18 
   2  -2  -4    5.82    0.17 
   1  -2  -4    2.22    0.10 
   1  -2  -4    2.23    0.09 
   0  -2  -4   20.45    0.45 
  -1  -2  -4    2.00    0.06 
  -1  -2  -4    1.88    0.09 
  -2  -2  -4  134.10    2.75 
  -2  -2  -4  132.28    2.84 
   2   2   4  135.50    2.75 
  -3  -2  -4    0.84    0.06 
  -3  -2  -4    0.72    0.03 
   3   2   4    0.80    0.06 
  -4  -2  -4  120.03    2.49 
  -4  -2  -4  118.70    2.43 
   4   2   4  114.94    2.42 
  -5  -2  -4    0.09    0.05 
   5   2   4    0.15    0.04 
  -6  -2  -4    8.49    0.26 
   6   2   4    9.23    0.23 
  -7  -2  -4    0.81    0.08 
   7   2   4    0.84    0.07 
  -8  -2  -4    2.36    0.14 
  -9  -2  -4    0.80    0.10 
   6  -3  -4    0.57    0.09 
   4  -3  -4    1.29    0.10 
   3  -3  -4   11.14    0.30 
   2  -3  -4    4.89    0.16 
   2  -3  -4    4.99    0.17 
   1  -3  -4    2.59    0.11 
   1  -3  -4    2.62    0.10 
   0  -3  -4   66.85    1.43 
  -1  -3  -4    0.49    0.05 
  -2  -3  -4   50.13    1.11 
   2   3   4   52.58    1.08 
  -3  -3  -4    2.63    0.10 
   3   3   4    2.65    0.10 
  -4  -3  -4   12.43    0.31 
   4   3   4   12.93    0.31 
  -5  -3  -4    0.04    0.05 
   5   3   4    0.06    0.04 
  -6  -3  -4    4.08    0.15 
   6   3   4    4.33    0.14 
  -7  -3  -4    0.02    0.05 
   7   3   4   -0.05    0.04 
  -8  -3  -4    0.02    0.05 
   8   3   4   -0.04    0.05 
  -9  -3  -4    0.30    0.07 
   5  -4  -4   36.99    0.88 
   4  -4  -4    0.08    0.05 
   3  -4  -4   20.28    0.50 
   2  -4  -4    7.46    0.23 
   1  -4  -4    0.28    0.05 
   0  -4  -4    5.07    0.17 
  -1  -4  -4   18.62    0.44 
   1   4   4   19.12    0.43 
  -2  -4  -4    5.75    0.17 
   2   4   4    5.85    0.17 
   2   4   4    5.95    0.14 
  -3  -4  -4    9.96    0.26 
   3   4   4   10.10    0.26 
  -4  -4  -4    1.06    0.09 
   4   4   4    1.16    0.07 
  -5  -4  -4    1.20    0.09 
   5   4   4    1.37    0.09 
  -6  -4  -4    3.51    0.14 
   6   4   4    3.57    0.13 
  -7  -4  -4    0.01    0.05 
   7   4   4    0.10    0.05 
  -8  -4  -4    3.69    0.15 
   8   4   4    3.57    0.15 
  -9  -4  -4    0.04    0.06 
   4  -5  -4    0.03    0.06 
   3  -5  -4   11.45    0.33 
   2  -5  -4    0.12    0.05 
   1  -5  -4    0.36    0.06 
  -1   5   4    0.38    0.06 
   0  -5  -4    4.63    0.16 
   0   5   4    4.73    0.15 
  -1  -5  -4   23.73    0.55 
   1   5   4   24.14    0.53 
   1   5   4   24.25    0.54 
  -2  -5  -4   23.56    0.54 
   2   5   4   23.30    0.53 
   2   5   4   23.75    0.51 
  -3  -5  -4   38.00    0.84 
   3   5   4   38.61    0.83 
   3   5   4   37.90    0.80 
  -4  -5  -4    2.38    0.11 
   4   5   4    2.20    0.10 
  -5  -5  -4    1.65    0.10 
   5   5   4    1.54    0.10 
  -6  -5  -4    0.33    0.06 
   6   5   4    0.28    0.05 
  -7  -5  -4    3.29    0.14 
   7   5   4    2.91    0.14 
  -8  -5  -4    0.04    0.05 
   8   5   4    0.04    0.05 
   9   5   4    3.18    0.15 
   4  -6  -4    1.02    0.11 
   3  -6  -4    0.32    0.07 
   2  -6  -4    1.23    0.10 
  -2   6   4    1.22    0.08 
   1  -6  -4    0.44    0.07 
  -1   6   4    0.33    0.06 
   0  -6  -4    1.09    0.09 
   0   6   4    1.01    0.08 
   0   6   4    1.09    0.08 
  -1  -6  -4    0.14    0.05 
   1   6   4    0.21    0.05 
   1   6   4    0.17    0.05 
  -2  -6  -4    5.31    0.17 
   2   6   4    4.99    0.17 
   2   6   4    5.05    0.15 
  -3  -6  -4    2.06    0.11 
   3   6   4    1.90    0.10 
   3   6   4    2.11    0.08 
  -4  -6  -4    0.20    0.06 
   4   6   4    0.26    0.06 
  -5  -6  -4    3.63    0.14 
   5   6   4    3.76    0.15 
  -6  -6  -4    0.10    0.06 
   6   6   4    0.03    0.05 
  -7  -6  -4    0.19    0.06 
   7   6   4    0.19    0.06 
   8   6   4    1.41    0.11 
   9   6   4    5.18    0.20 
   3  -7  -4    0.15    0.07 
  -3   7   4    0.18    0.07 
   2  -7  -4   -0.03    0.05 
  -2   7   4   -0.03    0.06 
   1  -7  -4    0.63    0.08 
  -1   7   4    0.63    0.08 
  -1   7   4    0.68    0.07 
   0  -7  -4    1.81    0.11 
   0   7   4    1.87    0.10 
   0   7   4    1.77    0.11 
  -1  -7  -4   -0.02    0.04 
   1   7   4   -0.05    0.05 
   1   7   4   -0.04    0.04 
  -2  -7  -4    0.96    0.08 
   2   7   4    0.87    0.08 
   2   7   4    1.01    0.08 
  -3  -7  -4    2.42    0.11 
   3   7   4    2.36    0.11 
   3   7   4    2.37    0.10 
  -4  -7  -4   15.12    0.37 
   4   7   4   14.34    0.38 
  -5  -7  -4    1.84    0.11 
   5   7   4    1.85    0.11 
   6   7   4    6.24    0.21 
   7   7   4    0.02    0.05 
   8   7   4    0.08    0.06 
   2  -8  -4    0.63    0.09 
  -2   8   4    0.58    0.09 
   1  -8  -4    0.02    0.05 
  -1   8   4    0.02    0.06 
   0  -8  -4    0.72    0.08 
   0   8   4    0.70    0.08 
   0   8   4    0.73    0.08 
  -1  -8  -4    1.06    0.09 
   1   8   4    1.09    0.09 
   1   8   4    1.16    0.10 
  -2  -8  -4    0.08    0.05 
   2   8   4    0.17    0.05 
   2   8   4    0.05    0.05 
  -3  -8  -4    3.39    0.14 
   3   8   4    3.12    0.14 
   4   8   4    0.23    0.06 
   5   8   4    0.12    0.05 
   6   8   4    6.13    0.22 
   7   8   4    0.88    0.10 
   8   8   4    3.85    0.18 
   0  -9  -4    0.03    0.06 
   0   9   4    0.16    0.07 
  -1  -9  -4    0.03    0.05 
   1   9   4    0.08    0.06 
   1   9   4    0.01    0.06 
   2   9   4    1.36    0.10 
   3   9   4    0.15    0.06 
   4   9   4    1.45    0.11 
   5   9   4    1.22    0.11 
   6   9   4    0.74    0.09 
   7   9   4    0.03    0.06 
   2  10   4    2.62    0.14 
   3  10   4    1.84    0.13 
   4  10   4    0.35    0.08 
   5  10   4    1.89    0.13 
   3   7  -5    0.14    0.07 
   2   7  -5    1.14    0.11 
   1   7  -5    0.17    0.07 
   0   7  -5    1.43    0.13 
  -1   7  -5    0.83    0.11 
   5   6  -5    0.87    0.10 
   4   6  -5    0.98    0.11 
   3   6  -5    1.54    0.12 
   2   6  -5    0.53    0.08 
   1   6  -5    0.04    0.06 
   0   6  -5    0.43    0.08 
  -1   6  -5    4.92    0.20 
  -2   6  -5    0.02    0.07 
  -3   6  -5    5.52    0.23 
   6   5  -5    0.27    0.08 
   5   5  -5    0.01    0.06 
   4   5  -5    0.45    0.08 
   3   5  -5    1.55    0.12 
   2   5  -5    1.31    0.10 
   1   5  -5    4.68    0.18 
   0   5  -5    9.73    0.29 
  -1   5  -5    2.10    0.13 
  -2   5  -5    2.70    0.12 
  -2   5  -5    2.44    0.14 
  -3   5  -5   -0.03    0.06 
  -3   5  -5    0.12    0.05 
  -4   5  -5    0.21    0.08 
  -4   5  -5    0.26    0.07 
   6   4  -5    0.65    0.09 
   5   4  -5    0.02    0.05 
   4   4  -5    6.00    0.21 
   3   4  -5    3.47    0.15 
   2   4  -5    6.43    0.22 
   1   4  -5   10.96    0.31 
   0   4  -5    7.39    0.20 
   0   4  -5    7.22    0.23 
  -1   4  -5   16.37    0.39 
  -1   4  -5   16.17    0.42 
  -2   4  -5   15.42    0.40 
  -2   4  -5   15.56    0.38 
  -3   4  -5    7.18    0.24 
  -3   4  -5    7.30    0.23 
  -4   4  -5    4.19    0.18 
  -4   4  -5    4.14    0.17 
  -5   4  -5    0.78    0.09 
  -5   4  -5    0.54    0.09 
   6   3  -5    1.23    0.11 
   5   3  -5    5.59    0.21 
   4   3  -5    0.89    0.09 
   3   3  -5    0.05    0.05 
   2   3  -5   10.93    0.30 
   1   3  -5   11.88    0.32 
   1   3  -5   11.82    0.28 
   0   3  -5   14.15    0.34 
   0   3  -5   14.65    0.37 
  -1   3  -5   11.87    0.30 
  -1   3  -5   11.96    0.31 
  -2   3  -5    0.65    0.07 
  -2   3  -5    0.65    0.07 
  -3   3  -5    3.58    0.14 
  -3   3  -5    3.65    0.15 
  -4   3  -5    0.02    0.05 
  -4   3  -5    0.08    0.06 
  -5   3  -5    0.10    0.06 
  -5   3  -5    0.10    0.06 
  -6   3  -5    0.10    0.07 
  -6   3  -5    0.25    0.07 
   6   2  -5   10.42    0.32 
   5   2  -5   17.18    0.45 
   4   2  -5    0.31    0.06 
   3   2  -5    2.56    0.10 
   3   2  -5    2.70    0.12 
   2   2  -5   30.03    0.69 
   2   2  -5   30.53    0.66 
   1   2  -5    0.97    0.07 
   1   2  -5    0.87    0.08 
   0   2  -5   15.92    0.37 
   0   2  -5   15.73    0.38 
  -1   2  -5    2.73    0.12 
  -1   2  -5    2.59    0.11 
  -2   2  -5    0.04    0.05 
  -2   2  -5    0.01    0.04 
  -3   2  -5    0.15    0.06 
  -3   2  -5    0.09    0.05 
  -4   2  -5    0.29    0.06 
  -4   2  -5    0.13    0.06 
  -5   2  -5    0.70    0.08 
  -5   2  -5    0.64    0.08 
  -6   2  -5    1.66    0.12 
  -6   2  -5    1.74    0.11 
  -7   2  -5    0.58    0.09 
  -7   2  -5    0.70    0.09 
   6   1  -5    0.17    0.06 
   5   1  -5   10.18    0.28 
   5   1  -5   10.36    0.30 
   4   1  -5    3.52    0.13 
   4   1  -5    3.39    0.15 
   3   1  -5    4.56    0.17 
   3   1  -5    4.48    0.14 
   2   1  -5    1.31    0.08 
   2   1  -5    1.32    0.09 
   1   1  -5    2.63    0.11 
   1   1  -5    2.57    0.11 
   0   1  -5   61.15    1.30 
   0   1  -5   60.31    1.29 
  -1   1  -5   10.15    0.26 
  -1   1  -5   10.26    0.26 
  -2   1  -5   31.84    0.71 
  -2   1  -5   31.48    0.70 
  -3   1  -5    1.03    0.09 
  -3   1  -5    1.02    0.08 
   3  -1   5    1.01    0.05 
  -4   1  -5    1.63    0.10 
  -4   1  -5    1.65    0.11 
  -5   1  -5    1.26    0.09 
  -5   1  -5    1.28    0.10 
  -6   1  -5    6.94    0.22 
  -6   1  -5    6.54    0.23 
  -7   1  -5    1.79    0.13 
  -7   1  -5    1.94    0.12 
   6   0  -5    0.34    0.07 
   6   0  -5    0.43    0.07 
   5   0  -5    0.18    0.06 
   5   0  -5    0.11    0.05 
   4   0  -5    0.81    0.07 
   4   0  -5    0.65    0.07 
   3   0  -5    4.05    0.15 
   3   0  -5    4.12    0.14 
   2   0  -5    6.56    0.19 
   2   0  -5    6.25    0.19 
   1   0  -5    0.93    0.08 
   1   0  -5    1.01    0.06 
   0   0  -5   36.32    0.79 
   0   0  -5   36.09    0.78 
  -1   0  -5   12.78    0.31 
  -1   0  -5   12.72    0.30 
  -2   0  -5    4.76    0.15 
  -2   0  -5    4.63    0.14 
  -3   0  -5   16.76    0.41 
  -3   0  -5   17.39    0.39 
   3   0   5   16.73    0.37 
  -4   0  -5    0.36    0.05 
  -4   0  -5    0.38    0.06 
   4   0   5    0.46    0.04 
  -5   0  -5    0.55    0.06 
  -5   0  -5    0.57    0.07 
  -6   0  -5    1.74    0.11 
  -6   0  -5    1.40    0.09 
  -7   0  -5    2.26    0.13 
  -7   0  -5    2.12    0.11 
  -8   0  -5    7.14    0.26 
   6  -1  -5    1.48    0.11 
   6  -1  -5    1.29    0.11 
   5  -1  -5    0.66    0.08 
   5  -1  -5    0.71    0.08 
   4  -1  -5    0.89    0.08 
   4  -1  -5    0.85    0.08 
   3  -1  -5    0.36    0.06 
   3  -1  -5    0.35    0.06 
   2  -1  -5    1.51    0.09 
   2  -1  -5    1.51    0.08 
   1  -1  -5    0.42    0.04 
   1  -1  -5    0.47    0.05 
   0  -1  -5    0.72    0.06 
   0  -1  -5    0.88    0.05 
  -1  -1  -5    1.91    0.07 
  -1  -1  -5    2.06    0.10 
  -2  -1  -5   51.39    1.08 
  -2  -1  -5   51.64    1.12 
  -3  -1  -5    3.12    0.12 
  -3  -1  -5    3.06    0.10 
   3   1   5    3.00    0.10 
  -4  -1  -5   20.31    0.48 
  -4  -1  -5   20.89    0.45 
   4   1   5   19.88    0.45 
  -5  -1  -5    2.52    0.11 
  -5  -1  -5    2.77    0.12 
   5   1   5    2.50    0.09 
  -6  -1  -5    0.01    0.05 
  -6  -1  -5    0.00    0.04 
  -7  -1  -5    0.04    0.06 
  -8  -1  -5    0.61    0.09 
   6  -2  -5    0.38    0.08 
   6  -2  -5    0.39    0.08 
   5  -2  -5   -0.01    0.05 
   5  -2  -5    0.06    0.05 
   4  -2  -5    0.02    0.04 
   4  -2  -5    0.00    0.05 
   3  -2  -5    0.61    0.07 
   3  -2  -5    0.50    0.06 
   2  -2  -5    0.02    0.04 
   2  -2  -5    0.05    0.05 
   1  -2  -5    8.85    0.23 
   1  -2  -5    8.58    0.24 
   0  -2  -5    5.62    0.17 
   0  -2  -5    5.36    0.15 
  -1  -2  -5   24.54    0.53 
  -2  -2  -5   11.83    0.26 
  -2  -2  -5   11.69    0.30 
  -3  -2  -5   17.78    0.39 
  -3  -2  -5   18.59    0.43 
   3   2   5   18.48    0.41 
  -4  -2  -5    6.71    0.20 
  -4  -2  -5    6.68    0.16 
   4   2   5    6.79    0.18 
  -5  -2  -5    1.33    0.09 
  -5  -2  -5    1.24    0.07 
   5   2   5    1.14    0.07 
  -6  -2  -5   15.66    0.41 
   6   2   5   16.05    0.37 
  -7  -2  -5    0.06    0.05 
  -8  -2  -5    1.15    0.11 
   5  -3  -5    6.08    0.22 
   4  -3  -5    1.32    0.10 
   3  -3  -5    3.36    0.14 
   3  -3  -5    3.59    0.15 
   2  -3  -5    6.64    0.21 
   2  -3  -5    6.67    0.20 
   1  -3  -5    2.13    0.11 
   1  -3  -5    2.02    0.10 
   0  -3  -5    1.19    0.07 
   0  -3  -5    0.99    0.08 
  -1  -3  -5    0.00    0.04 
  -1  -3  -5    0.01    0.02 
  -2  -3  -5    2.81    0.12 
   2   3   5    2.76    0.11 
  -3  -3  -5    3.50    0.13 
   3   3   5    3.28    0.12 
  -4  -3  -5    4.08    0.15 
   4   3   5    4.27    0.14 
  -5  -3  -5    4.52    0.17 
   5   3   5    4.40    0.15 
  -6  -3  -5   10.22    0.29 
   6   3   5   10.37    0.27 
  -7  -3  -5    0.56    0.08 
   7   3   5    0.59    0.07 
  -8  -3  -5   10.93    0.32 
  -9  -3  -5   -0.01    0.06 
   5  -4  -5   17.23    0.48 
   4  -4  -5    3.52    0.16 
   3  -4  -5   59.73    1.33 
   2  -4  -5    0.60    0.08 
   1  -4  -5   65.03    1.42 
   0  -4  -5    3.26    0.13 
  -1  -4  -5   27.56    0.63 
   1   4   5   27.46    0.61 
  -2  -4  -5    0.24    0.06 
   2   4   5    0.36    0.05 
   2   4   5    0.29    0.03 
  -3  -4  -5    6.09    0.19 
   3   4   5    6.02    0.18 
  -4  -4  -5   25.24    0.60 
   4   4   5   26.74    0.59 
  -5  -4  -5    0.45    0.07 
   5   4   5    0.54    0.06 
  -6  -4  -5   17.79    0.44 
   6   4   5   18.27    0.43 
  -7  -4  -5    0.11    0.06 
   7   4   5    0.14    0.05 
  -8  -4  -5    3.79    0.16 
   8   4   5    3.68    0.15 
  -9  -4  -5    0.24    0.07 
   4  -5  -5    0.31    0.08 
   3  -5  -5   42.43    0.98 
   2  -5  -5    2.33    0.13 
   1  -5  -5  119.41    2.55 
   0  -5  -5    8.18    0.25 
   0   5   5    8.35    0.24 
  -1  -5  -5   87.92    1.88 
   1   5   5   87.62    1.84 
  -2  -5  -5    0.16    0.06 
   2   5   5    0.13    0.03 
   2   5   5    0.12    0.05 
  -3  -5  -5    5.08    0.17 
   3   5   5    4.71    0.16 
  -4  -5  -5    1.08    0.09 
   4   5   5    1.16    0.09 
  -5  -5  -5    2.78    0.14 
   5   5   5    2.79    0.12 
  -6  -5  -5    0.67    0.08 
   6   5   5    0.66    0.07 
  -7  -5  -5    1.15    0.10 
   7   5   5    1.01    0.09 
  -8  -5  -5    1.27    0.11 
   8   5   5    1.30    0.10 
  -9  -5  -5    0.05    0.06 
   9   5   5    0.00    0.05 
   4  -6  -5    0.27    0.08 
   3  -6  -5    0.72    0.09 
   2  -6  -5    3.30    0.15 
  -2   6   5    3.23    0.14 
   1  -6  -5    8.15    0.25 
  -1   6   5    7.91    0.23 
   0  -6  -5    1.97    0.12 
   0   6   5    1.92    0.11 
  -1  -6  -5   25.11    0.58 
   1   6   5   24.24    0.57 
   1   6   5   24.70    0.55 
  -2  -6  -5    0.26    0.06 
   2   6   5    0.37    0.05 
   2   6   5    0.44    0.07 
  -3  -6  -5   11.67    0.31 
   3   6   5   11.85    0.31 
  -4  -6  -5    0.10    0.06 
   4   6   5    0.07    0.05 
  -5  -6  -5    1.75    0.12 
   5   6   5    1.97    0.11 
  -6  -6  -5    3.58    0.15 
   6   6   5    3.41    0.14 
  -7  -6  -5    9.56    0.28 
   7   6   5    9.65    0.28 
  -8  -6  -5    1.92    0.13 
   8   6   5    1.68    0.12 
   3  -7  -5    0.83    0.10 
   2  -7  -5    0.94    0.10 
  -2   7   5    0.86    0.09 
  -2   7   5    0.95    0.09 
   1  -7  -5    2.02    0.12 
  -1   7   5    1.97    0.11 
  -1   7   5    1.93    0.12 
   0  -7  -5    0.70    0.08 
   0   7   5    0.64    0.07 
   0   7   5    0.71    0.08 
  -1  -7  -5    2.64    0.13 
   1   7   5    2.64    0.12 
   1   7   5    2.87    0.13 
  -2  -7  -5    7.12    0.22 
   2   7   5    7.24    0.20 
   2   7   5    7.46    0.22 
  -3  -7  -5    0.30    0.06 
   3   7   5    0.30    0.06 
  -4  -7  -5    0.33    0.06 
   4   7   5    0.42    0.07 
  -5  -7  -5    0.73    0.08 
   5   7   5    0.74    0.08 
  -6  -7  -5    1.37    0.10 
   6   7   5    1.39    0.10 
   7   7   5    0.05    0.05 
   8   7   5    0.30    0.07 
   2  -8  -5    0.00    0.06 
   1  -8  -5    0.13    0.06 
  -1   8   5    0.34    0.07 
  -1   8   5    0.26    0.06 
   0  -8  -5    2.08    0.12 
   0   8   5    2.06    0.12 
   0   8   5    2.12    0.12 
  -1  -8  -5    0.01    0.05 
   1   8   5    0.09    0.05 
   1   8   5    0.08    0.05 
  -2  -8  -5    0.59    0.08 
   2   8   5    0.70    0.08 
  -3  -8  -5    1.17    0.09 
   3   8   5    1.08    0.09 
  -4  -8  -5    0.99    0.09 
   4   8   5    0.91    0.09 
   5   8   5    1.13    0.10 
   6   8   5   -0.01    0.05 
   7   8   5    0.15    0.06 
   8   8   5    2.69    0.15 
   0  -9  -5    1.09    0.11 
   0   9   5    1.14    0.11 
   0   9   5    1.19    0.10 
  -1  -9  -5    0.21    0.06 
   1   9   5    0.26    0.07 
  -2  -9  -5   -0.05    0.05 
   2   9   5   -0.01    0.05 
   3   9   5    0.43    0.07 
   4   9   5    0.90    0.10 
   5   9   5    0.02    0.05 
   6   9   5    0.08    0.06 
   7   9   5    1.30    0.12 
   3  10   5    0.57    0.09 
   4  10   5    0.93    0.10 
   5  10   5    0.07    0.06 
   4   6  -6    1.62    0.12 
   3   6  -6    1.35    0.13 
   2   6  -6    3.64    0.18 
   1   6  -6    4.19    0.19 
   0   6  -6    0.44    0.09 
  -1   6  -6    2.07    0.14 
  -2   6  -6    0.91    0.11 
   5   5  -6    0.56    0.09 
   4   5  -6    0.06    0.06 
   3   5  -6    0.36    0.07 
   2   5  -6    0.66    0.09 
   1   5  -6    1.25    0.11 
   0   5  -6    0.31    0.07 
  -1   5  -6    2.44    0.14 
  -2   5  -6    2.21    0.14 
  -3   5  -6    0.41    0.07 
  -3   5  -6    0.26    0.08 
   5   4  -6    0.01    0.05 
   4   4  -6    1.41    0.11 
   3   4  -6   -0.02    0.05 
   2   4  -6    2.06    0.12 
   1   4  -6    0.05    0.05 
   0   4  -6    4.65    0.18 
  -1   4  -6    0.48    0.07 
  -1   4  -6    0.36    0.06 
  -2   4  -6    0.37    0.06 
  -2   4  -6    0.34    0.07 
  -3   4  -6    2.30    0.12 
  -3   4  -6    2.10    0.13 
  -4   4  -6    3.38    0.15 
  -4   4  -6    3.29    0.16 
  -5   4  -6    1.04    0.11 
  -5   4  -6    1.08    0.11 
   6   3  -6    0.90    0.10 
   5   3  -6    4.95    0.21 
   4   3  -6    0.65    0.08 
   3   3  -6    4.33    0.17 
   2   3  -6    0.79    0.08 
   1   3  -6    0.75    0.08 
   0   3  -6    1.55    0.09 
   0   3  -6    1.51    0.10 
  -1   3  -6    1.39    0.10 
  -1   3  -6    1.31    0.09 
  -2   3  -6    3.66    0.14 
  -2   3  -6    3.42    0.15 
  -3   3  -6    6.93    0.22 
  -3   3  -6    7.13    0.23 
  -4   3  -6    2.88    0.13 
  -4   3  -6    2.85    0.14 
  -5   3  -6    8.04    0.26 
  -5   3  -6    7.86    0.26 
  -6   3  -6    2.88    0.16 
  -6   3  -6    3.10    0.16 
   6   2  -6   18.65    0.50 
   5   2  -6   24.56    0.61 
   4   2  -6   46.64    1.06 
   3   2  -6   31.07    0.73 
   2   2  -6   18.53    0.43 
   2   2  -6   18.45    0.46 
   1   2  -6   12.57    0.33 
   1   2  -6   12.62    0.31 
   0   2  -6    1.31    0.10 
   0   2  -6    1.38    0.10 
  -2   2  -6    6.83    0.21 
  -2   2  -6    6.86    0.21 
  -3   2  -6    4.25    0.16 
  -3   2  -6    4.20    0.16 
  -4   2  -6   10.94    0.30 
  -4   2  -6   10.04    0.30 
  -5   2  -6    5.17    0.19 
  -5   2  -6    5.08    0.20 
  -6   2  -6    2.41    0.14 
  -6   2  -6    2.57    0.15 
   6   1  -6    1.16    0.11 
   5   1  -6   23.88    0.60 
   4   1  -6   24.85    0.57 
   4   1  -6   24.08    0.60 
   3   1  -6   65.76    1.42 
   3   1  -6   64.79    1.40 
   2   1  -6   72.28    1.57 
   2   1  -6   74.39    1.57 
   1   1  -6   48.96    1.08 
   1   1  -6   50.92    1.09 
   0   1  -6   29.62    0.66 
   0   1  -6   29.10    0.66 
  -1   1  -6    7.01    0.20 
  -1   1  -6    7.24    0.21 
  -2   1  -6    5.57    0.18 
  -2   1  -6    5.53    0.17 
  -3   1  -6    0.96    0.08 
  -3   1  -6    0.93    0.08 
   3  -1   6    1.05    0.06 
  -4   1  -6    8.38    0.25 
  -4   1  -6    8.38    0.24 
  -5   1  -6    1.32    0.10 
  -5   1  -6    1.30    0.10 
  -6   1  -6    0.08    0.06 
  -6   1  -6    0.13    0.07 
  -7   1  -6    0.08    0.06 
   6   0  -6    0.09    0.06 
   5   0  -6    0.84    0.08 
   5   0  -6    0.76    0.09 
   4   0  -6    1.23    0.10 
   4   0  -6    1.00    0.08 
   3   0  -6    9.86    0.28 
   3   0  -6   10.10    0.27 
   2   0  -6    0.88    0.08 
   2   0  -6    0.89    0.08 
   1   0  -6   42.73    0.94 
   1   0  -6   43.33    0.95 
   0   0  -6    2.87    0.11 
   0   0  -6    2.88    0.13 
  -1   0  -6   34.01    0.75 
  -1   0  -6   34.41    0.77 
  -2   0  -6    2.23    0.09 
  -2   0  -6    2.09    0.11 
  -3   0  -6    0.69    0.08 
  -3   0  -6    0.82    0.06 
   3   0   6    0.79    0.06 
  -4   0  -6    8.52    0.25 
  -4   0  -6    8.55    0.23 
   4   0   6    8.85    0.21 
  -5   0  -6    3.48    0.15 
  -5   0  -6    3.31    0.13 
  -6   0  -6   12.02    0.35 
  -6   0  -6   12.92    0.33 
  -7   0  -6    1.18    0.11 
  -8   0  -6    1.06    0.11 
   6  -1  -6    1.96    0.14 
   6  -1  -6    2.10    0.13 
   5  -1  -6    1.66    0.11 
   5  -1  -6    1.82    0.12 
   4  -1  -6    0.09    0.05 
   4  -1  -6   -0.01    0.05 
   3  -1  -6    1.66    0.11 
   3  -1  -6    1.81    0.10 
   2  -1  -6    0.42    0.06 
   2  -1  -6    0.32    0.06 
   1  -1  -6    0.02    0.04 
   1  -1  -6    0.04    0.05 
   0  -1  -6   11.44    0.28 
   0  -1  -6   11.82    0.30 
  -1  -1  -6    5.40    0.18 
  -1  -1  -6    5.22    0.15 
  -2  -1  -6    0.77    0.06 
  -2  -1  -6    0.95    0.08 
  -3  -1  -6    4.78    0.14 
  -3  -1  -6    4.77    0.17 
   3   1   6    4.78    0.14 
  -4  -1  -6   12.83    0.33 
  -4  -1  -6   12.56    0.29 
   4   1   6   11.70    0.29 
  -5  -1  -6    0.08    0.05 
  -5  -1  -6   -0.06    0.04 
   5   1   6    0.02    0.03 
  -6  -1  -6    4.73    0.19 
  -7  -1  -6    2.28    0.13 
  -8  -1  -6    0.05    0.07 
   5  -2  -6    0.13    0.06 
   5  -2  -6    0.13    0.06 
   4  -2  -6    0.65    0.08 
   4  -2  -6    0.67    0.08 
   3  -2  -6    0.43    0.07 
   3  -2  -6    0.63    0.07 
   2  -2  -6    3.23    0.14 
   2  -2  -6    3.33    0.13 
   1  -2  -6    0.11    0.04 
   1  -2  -6    0.24    0.06 
   0  -2  -6    8.80    0.23 
   0  -2  -6    9.17    0.26 
  -1  -2  -6    1.30    0.06 
  -1  -2  -6    1.41    0.11 
  -2  -2  -6    0.15    0.03 
  -2  -2  -6    0.15    0.06 
  -3  -2  -6    3.25    0.09 
  -3  -2  -6    3.46    0.14 
   3   2   6    3.35    0.12 
  -4  -2  -6    0.53    0.07 
   4   2   6    0.62    0.06 
  -5  -2  -6    1.33    0.10 
   5   2   6    1.47    0.08 
  -6  -2  -6    5.56    0.20 
   6   2   6    5.45    0.16 
  -7  -2  -6    0.50    0.08 
  -8  -2  -6    7.24    0.25 
   5  -3  -6    1.75    0.12 
   4  -3  -6    0.85    0.09 
   4  -3  -6    0.61    0.08 
   3  -3  -6    1.74    0.11 
   3  -3  -6    1.70    0.11 
   2  -3  -6    0.12    0.05 
   2  -3  -6    0.08    0.05 
   1  -3  -6    0.20    0.05 
   1  -3  -6    0.19    0.06 
   0  -3  -6    0.08    0.04 
   0  -3  -6    0.13    0.06 
  -1  -3  -6   -0.06    0.02 
  -1  -3  -6    0.03    0.05 
  -2  -3  -6    0.61    0.04 
  -2  -3  -6    0.58    0.07 
  -3  -3  -6    1.91    0.11 
   3   3   6    1.80    0.09 
  -4  -3  -6    1.20    0.10 
   4   3   6    1.09    0.08 
  -5  -3  -6    6.69    0.21 
   5   3   6    6.25    0.19 
  -6  -3  -6    2.81    0.13 
   6   3   6    2.85    0.12 
  -7  -3  -6    3.70    0.17 
   7   3   6    3.90    0.14 
  -8  -3  -6    0.04    0.06 
   4  -4  -6    0.57    0.09 
   3  -4  -6    2.91    0.14 
   2  -4  -6    4.22    0.17 
   1  -4  -6   11.08    0.31 
   0  -4  -6   -0.12    0.05 
  -2  -4  -6   12.26    0.33 
   2   4   6   12.50    0.32 
  -3  -4  -6    0.51    0.08 
   3   4   6    0.58    0.07 
  -4  -4  -6    4.05    0.17 
   4   4   6    3.93    0.14 
  -5  -4  -6    0.07    0.06 
   5   4   6    0.07    0.04 
  -6  -4  -6    0.05    0.06 
   6   4   6    0.18    0.05 
  -7  -4  -6    0.69    0.09 
   7   4   6    0.46    0.06 
  -8  -4  -6    0.63    0.09 
   8   4   6    0.70    0.08 
   4  -5  -6    0.04    0.06 
   3  -5  -6    0.82    0.09 
   2  -5  -6   -0.02    0.05 
   1  -5  -6   13.13    0.36 
   0  -5  -6    5.41    0.19 
  -1  -5  -6   77.22    1.66 
   1   5   6   76.40    1.62 
  -2  -5  -6    6.30    0.21 
   2   5   6    6.05    0.20 
  -3  -5  -6   72.35    1.59 
   3   5   6   74.71    1.56 
  -4  -5  -6    0.10    0.07 
   4   5   6    0.21    0.05 
  -5  -5  -6   15.31    0.40 
   5   5   6   15.16    0.38 
  -6  -5  -6   -0.10    0.06 
   6   5   6   -0.01    0.05 
  -7  -5  -6    0.88    0.09 
   7   5   6    0.75    0.08 
  -8  -5  -6    2.89    0.15 
   8   5   6    3.02    0.14 
   3  -6  -6   -0.03    0.05 
   2  -6  -6    0.02    0.05 
   1  -6  -6    2.44    0.13 
  -1   6   6    2.17    0.12 
   0  -6  -6    0.07    0.06 
   0   6   6    0.07    0.05 
  -1  -6  -6   36.97    0.84 
   1   6   6   36.78    0.82 
   1   6   6   36.63    0.80 
  -2  -6  -6    2.31    0.12 
   2   6   6    2.10    0.11 
  -3  -6  -6  110.34    2.34 
   3   6   6  108.46    2.29 
  -4  -6  -6   12.06    0.33 
   4   6   6   11.89    0.32 
  -5  -6  -6   84.18    1.84 
   5   6   6   86.02    1.81 
  -6  -6  -6    3.79    0.17 
   6   6   6    3.77    0.16 
  -7  -6  -6   12.78    0.36 
   7   6   6   12.89    0.36 
  -8  -6  -6    0.14    0.07 
   8   6   6    0.22    0.07 
   2  -7  -6    0.15    0.06 
  -2   7   6    0.22    0.07 
   1  -7  -6    1.41    0.12 
  -1   7   6    1.40    0.11 
   0  -7  -6    0.29    0.07 
   0   7   6    0.36    0.06 
   0   7   6    0.27    0.06 
  -1  -7  -6    2.96    0.14 
   1   7   6    2.93    0.13 
  -2  -7  -6    0.32    0.07 
   2   7   6    0.31    0.06 
  -3  -7  -6    6.76    0.22 
   3   7   6    6.31    0.21 
  -4  -7  -6    1.16    0.10 
   4   7   6    1.27    0.09 
  -5  -7  -6   16.55    0.42 
   5   7   6   16.36    0.43 
  -6  -7  -6    0.11    0.07 
   6   7   6    0.10    0.06 
  -7  -7  -6   14.71    0.39 
   7   7   6   13.71    0.39 
   8   7   6    0.41    0.08 
   1  -8  -6    1.87    0.13 
  -1   8   6    1.90    0.12 
  -1   8   6    1.66    0.11 
   0  -8  -6    1.60    0.12 
   0   8   6    1.70    0.12 
   0   8   6    1.84    0.11 
  -1  -8  -6    0.55    0.08 
   1   8   6    0.61    0.08 
  -2  -8  -6    0.45    0.08 
   2   8   6    0.62    0.08 
  -3  -8  -6    0.23    0.07 
   3   8   6    0.37    0.07 
  -4  -8  -6   -0.04    0.06 
   4   8   6    0.10    0.06 
  -5  -8  -6    1.59    0.11 
   5   8   6    1.78    0.12 
   6   8   6    2.47    0.14 
   7   8   6    0.58    0.08 
  -1  -9  -6    2.21    0.14 
   1   9   6    2.25    0.14 
  -2  -9  -6    1.19    0.11 
   2   9   6    1.42    0.11 
  -3  -9  -6    1.09    0.10 
   3   9   6    0.92    0.10 
  -4  -9  -6    0.08    0.06 
   4   9   6    0.25    0.06 
   5   9   6    0.00    0.06 
   6   9   6    0.40    0.08 
   3   5  -7   -0.06    0.05 
   2   5  -7    0.09    0.06 
   1   5  -7    0.07    0.06 
   0   5  -7    0.18    0.07 
  -1   5  -7    0.34    0.08 
  -2   5  -7    2.49    0.15 
   4   4  -7    0.08    0.06 
   3   4  -7    2.37    0.14 
   2   4  -7    0.89    0.09 
   1   4  -7    2.56    0.14 
   0   4  -7    0.19    0.06 
  -1   4  -7    1.43    0.12 
  -2   4  -7    0.92    0.10 
  -3   4  -7    1.78    0.11 
  -3   4  -7    1.44    0.12 
  -4   4  -7    0.06    0.06 
  -4   4  -7    0.00    0.06 
   5   3  -7   -0.04    0.05 
   4   3  -7    0.11    0.06 
   3   3  -7    0.01    0.05 
   2   3  -7    3.02    0.15 
   1   3  -7   -0.07    0.05 
   0   3  -7    3.46    0.15 
  -1   3  -7    0.02    0.05 
  -1   3  -7    0.04    0.05 
  -2   3  -7    1.70    0.11 
  -2   3  -7    1.79    0.11 
  -3   3  -7    0.01    0.06 
  -3   3  -7    0.09    0.06 
  -4   3  -7    2.27    0.13 
  -4   3  -7    2.54    0.13 
  -5   3  -7    0.30    0.07 
  -5   3  -7    0.25    0.08 
   5   2  -7    0.13    0.06 
   4   2  -7    4.35    0.18 
   3   2  -7    3.53    0.16 
   2   2  -7    5.94    0.20 
   1   2  -7    8.49    0.26 
   1   2  -7    8.39    0.24 
   0   2  -7    0.66    0.07 
   0   2  -7    0.59    0.07 
  -1   2  -7    7.68    0.22 
  -1   2  -7    7.38    0.23 
  -2   2  -7    5.09    0.18 
  -2   2  -7    5.15    0.18 
  -3   2  -7    1.57    0.10 
  -3   2  -7    1.51    0.11 
  -4   2  -7    0.03    0.06 
  -4   2  -7    0.07    0.06 
  -5   2  -7   -0.01    0.06 
  -5   2  -7    0.13    0.06 
  -6   2  -7    0.83    0.10 
  -6   2  -7    0.67    0.09 
   5   1  -7    0.46    0.08 
   4   1  -7    0.13    0.06 
   3   1  -7    5.49    0.20 
   3   1  -7    5.25    0.18 
   2   1  -7   23.32    0.57 
   2   1  -7   24.32    0.56 
   1   1  -7   35.55    0.78 
   1   1  -7   33.52    0.78 
   0   1  -7   87.29    1.84 
   0   1  -7   86.07    1.85 
  -1   1  -7   40.46    0.87 
  -1   1  -7   38.26    0.88 
  -2   1  -7   45.02    0.98 
  -2   1  -7   43.25    0.97 
  -3   1  -7   10.61    0.29 
  -3   1  -7   10.69    0.28 
  -4   1  -7    3.95    0.16 
  -4   1  -7    4.03    0.15 
  -5   1  -7    0.05    0.06 
  -5   1  -7   -0.04    0.05 
  -6   1  -7    1.26    0.11 
  -7   1  -7    1.10    0.12 
   5   0  -7   -0.03    0.05 
   4   0  -7    1.51    0.10 
   4   0  -7    1.25    0.11 
   3   0  -7    2.27    0.12 
   3   0  -7    2.07    0.11 
   2   0  -7    4.25    0.16 
   2   0  -7    4.25    0.16 
   1   0  -7   24.19    0.55 
   1   0  -7   22.34    0.55 
   0   0  -7   32.68    0.74 
   0   0  -7   32.24    0.72 
  -1   0  -7   71.10    1.54 
  -1   0  -7   71.47    1.51 
  -2   0  -7  101.82    2.19 
  -2   0  -7  103.31    2.15 
  -3   0  -7   58.49    1.25 
  -3   0  -7   58.75    1.29 
  -4   0  -7   56.39    1.19 
  -4   0  -7   54.82    1.23 
  -5   0  -7   10.73    0.31 
  -6   0  -7    3.29    0.16 
  -7   0  -7    0.04    0.07 
   5  -1  -7    1.40    0.11 
   5  -1  -7    1.46    0.12 
   4  -1  -7    1.29    0.11 
   4  -1  -7    1.50    0.11 
   3  -1  -7    0.80    0.08 
   3  -1  -7    0.81    0.08 
   2  -1  -7    1.40    0.10 
   2  -1  -7    1.32    0.09 
   1  -1  -7    0.66    0.07 
   1  -1  -7    0.72    0.08 
   0  -1  -7    1.04    0.09 
   0  -1  -7    1.03    0.07 
  -1  -1  -7    6.87    0.22 
  -1  -1  -7    7.05    0.19 
  -2  -1  -7    0.23    0.04 
  -2  -1  -7    0.19    0.07 
  -3  -1  -7   23.39    0.52 
  -3  -1  -7   23.66    0.57 
   3   1   7   23.61    0.53 
  -4  -1  -7    2.32    0.12 
   4   1   7    2.35    0.10 
  -5  -1  -7   21.17    0.53 
  -6  -1  -7    6.03    0.22 
  -7  -1  -7    3.94    0.18 
  -8  -1  -7    0.45    0.09 
   5  -2  -7    0.62    0.09 
   5  -2  -7    0.60    0.09 
   4  -2  -7   16.08    0.44 
   4  -2  -7   16.92    0.44 
   3  -2  -7    0.16    0.06 
   3  -2  -7    0.07    0.05 
   2  -2  -7   14.32    0.37 
   2  -2  -7   13.89    0.36 
   1  -2  -7    1.28    0.10 
   1  -2  -7    1.04    0.08 
   0  -2  -7    0.57    0.08 
   0  -2  -7    0.55    0.05 
  -1  -2  -7    0.55    0.08 
  -1  -2  -7    0.59    0.05 
  -2  -2  -7   -0.02    0.03 
  -2  -2  -7   -0.03    0.06 
  -3  -2  -7   -0.01    0.06 
   3   2   7    0.08    0.05 
  -4  -2  -7    5.35    0.19 
   4   2   7    5.58    0.17 
  -5  -2  -7    0.04    0.06 
   5   2   7    0.09    0.04 
  -6  -2  -7    1.85    0.13 
  -7  -2  -7    0.41    0.08 
  -8  -2  -7    0.62    0.09 
   4  -3  -7    1.20    0.11 
   4  -3  -7    0.97    0.10 
   3  -3  -7    0.14    0.05 
   3  -3  -7    0.20    0.06 
   2  -3  -7    2.86    0.14 
   2  -3  -7    2.92    0.13 
   1  -3  -7    0.20    0.05 
   1  -3  -7    0.24    0.06 
   0  -3  -7    4.81    0.18 
   0  -3  -7    4.74    0.15 
  -1  -3  -7    0.55    0.07 
  -1  -3  -7    0.51    0.05 
  -2  -3  -7    0.01    0.02 
  -2  -3  -7    0.06    0.07 
  -3  -3  -7   -0.08    0.06 
   3   3   7    0.07    0.05 
   4   3   7    3.58    0.14 
  -5  -3  -7    0.09    0.06 
   5   3   7    0.07    0.04 
  -6  -3  -7    0.03    0.06 
   6   3   7    0.00    0.04 
  -7  -3  -7    0.96    0.10 
  -8  -3  -7    0.37    0.09 
   4  -4  -7    0.51    0.08 
   3  -4  -7    0.07    0.06 
   2  -4  -7    0.59    0.08 
   1  -4  -7    2.99    0.14 
   1  -4  -7    2.82    0.12 
   0  -4  -7    5.73    0.17 
   0  -4  -7    5.63    0.20 
  -1  -4  -7    3.78    0.16 
   2   4   7    1.97    0.11 
  -3  -4  -7    0.40    0.08 
   3   4   7    0.41    0.06 
  -4  -4  -7    0.14    0.07 
   4   4   7    0.10    0.05 
  -5  -4  -7   -0.02    0.05 
   5   4   7    0.11    0.05 
  -6  -4  -7    0.06    0.06 
   6   4   7    0.02    0.04 
   7   4   7    0.35    0.06 
  -8  -4  -7    0.06    0.07 
   3  -5  -7    2.36    0.14 
   2  -5  -7    0.25    0.07 
   1  -5  -7    5.09    0.19 
   0  -5  -7    0.20    0.06 
  -1  -5  -7    0.20    0.06 
   1   5   7    0.24    0.06 
  -2  -5  -7    7.53    0.24 
   2   5   7    7.55    0.23 
  -3  -5  -7   11.45    0.32 
   3   5   7   11.35    0.31 
  -4  -5  -7    1.88    0.13 
   4   5   7    1.96    0.11 
  -5  -5  -7    7.06    0.23 
   5   5   7    6.86    0.22 
  -6  -5  -7    1.19    0.10 
   6   5   7    1.31    0.09 
  -7  -5  -7    0.28    0.08 
   7   5   7    0.38    0.07 
  -8  -5  -7    1.27    0.12 
   8   5   7    1.19    0.10 
   3  -6  -7    0.37    0.08 
   2  -6  -7    1.06    0.11 
   1  -6  -7    7.59    0.26 
   0  -6  -7    0.08    0.06 
   0   6   7    0.16    0.06 
  -1  -6  -7   12.22    0.34 
   1   6   7   12.43    0.34 
  -2  -6  -7    0.06    0.06 
   2   6   7    0.18    0.05 
  -3  -6  -7    0.05    0.06 
   3   6   7    0.02    0.05 
  -4  -6  -7    1.90    0.12 
   4   6   7    1.93    0.11 
  -5  -6  -7   26.43    0.63 
   5   6   7   26.05    0.62 
  -6  -6  -7    4.73    0.19 
   6   6   7    4.59    0.18 
  -7  -6  -7   29.57    0.72 
   7   6   7   30.55    0.71 
  -8  -6  -7    0.76    0.10 
   8   6   7    0.97    0.10 
   2  -7  -7    1.83    0.14 
  -2   7   7    1.86    0.13 
   1  -7  -7    0.34    0.08 
  -1   7   7    0.31    0.07 
   0  -7  -7    0.07    0.06 
   0   7   7    0.08    0.06 
  -1  -7  -7   -0.02    0.06 
   1   7   7    0.05    0.05 
  -2  -7  -7    1.26    0.10 
   2   7   7    1.25    0.10 
  -3  -7  -7    0.12    0.07 
   3   7   7    0.11    0.06 
  -4  -7  -7    0.05    0.07 
   4   7   7    0.16    0.06 
  -5  -7  -7    6.58    0.23 
   5   7   7    6.58    0.23 
  -6  -7  -7    1.01    0.11 
   6   7   7    0.96    0.10 
  -7  -7  -7   27.70    0.68 
   7   7   7   27.79    0.68 
  -8  -7  -7    3.95    0.19 
   8   7   7    3.72    0.17 
   0  -8  -7   12.07    0.36 
   0   8   7   12.73    0.35 
  -1  -8  -7    0.08    0.06 
   1   8   7    0.04    0.06 
  -2  -8  -7    2.86    0.15 
   2   8   7    2.77    0.14 
  -3  -8  -7    2.50    0.14 
   3   8   7    2.40    0.13 
  -4  -8  -7    0.39    0.08 
   4   8   7    0.45    0.07 
  -5  -8  -7    4.88    0.19 
   5   8   7    4.74    0.19 
  -6  -8  -7    0.25    0.08 
   6   8   7    0.22    0.07 
  -1  -9  -7    0.02    0.07 
   1   9   7    0.12    0.07 
  -2  -9  -7   12.96    0.38 
   2   9   7   12.97    0.37 
  -3  -9  -7    1.05    0.11 
   3   9   7    1.04    0.10 
  -4  -9  -7    6.05    0.22 
   4   9   7    5.76    0.22 
  -5  -9  -7    0.06    0.07 
   5   9   7    0.18    0.07 
   6   9   7   -0.01    0.05 
   1   5  -8    2.76    0.16 
   0   5  -8    1.33    0.12 
   3   4  -8    1.01    0.11 
   2   4  -8    3.82    0.18 
   1   4  -8    0.20    0.07 
   0   4  -8   -0.11    0.05 
  -1   4  -8    0.16    0.07 
  -2   4  -8    0.20    0.07 
  -3   4  -8    0.20    0.08 
   4   3  -8   -0.01    0.06 
   3   3  -8    0.58    0.09 
   2   3  -8    0.32    0.07 
   1   3  -8    0.22    0.07 
   0   3  -8    0.71    0.08 
  -1   3  -8    1.65    0.12 
  -2   3  -8    0.15    0.06 
  -2   3  -8    0.33    0.07 
  -3   3  -8    1.29    0.11 
  -3   3  -8    1.60    0.12 
  -4   3  -8    0.20    0.07 
  -4   3  -8    0.27    0.07 
   4   2  -8    0.01    0.06 
   3   2  -8    0.09    0.06 
   2   2  -8    6.74    0.23 
   1   2  -8    0.04    0.05 
   0   2  -8    5.77    0.19 
   0   2  -8    5.64    0.20 
  -1   2  -8    0.19    0.06 
  -1   2  -8   -0.02    0.05 
  -2   2  -8    0.26    0.06 
  -2   2  -8    0.47    0.07 
  -3   2  -8    0.13    0.06 
  -3   2  -8    0.13    0.06 
  -4   2  -8    3.07    0.15 
  -4   2  -8    2.95    0.14 
  -5   2  -8    0.01    0.07 
  -5   2  -8    0.09    0.07 
   4   1  -8    2.53    0.15 
   3   1  -8    4.51    0.18 
   2   1  -8    4.85    0.19 
   2   1  -8    4.91    0.17 
   1   1  -8    0.89    0.09 
   1   1  -8    0.91    0.09 
   0   1  -8    1.33    0.10 
   0   1  -8    1.19    0.10 
  -1   1  -8    2.51    0.12 
  -1   1  -8    2.12    0.12 
  -2   1  -8   10.26    0.28 
  -2   1  -8   10.48    0.30 
  -3   1  -8    7.10    0.23 
  -3   1  -8    6.95    0.22 
  -4   1  -8    0.72    0.08 
  -4   1  -8    0.50    0.07 
  -5   1  -8    3.18    0.16 
  -6   1  -8    1.62    0.13 
   4   0  -8    0.09    0.06 
   3   0  -8    5.91    0.20 
   3   0  -8    5.84    0.21 
   2   0  -8    2.28    0.13 
   2   0  -8    2.62    0.13 
   1   0  -8    8.58    0.25 
   1   0  -8    8.66    0.26 
   0   0  -8    5.27    0.17 
   0   0  -8    4.78    0.18 
  -1   0  -8    0.08    0.04 
  -1   0  -8    0.02    0.06 
  -2   0  -8    3.08    0.12 
  -2   0  -8    3.03    0.15 
  -3   0  -8   14.04    0.34 
  -3   0  -8   13.63    0.37 
  -4   0  -8   37.95    0.88 
  -5   0  -8   20.88    0.54 
  -6   0  -8   26.04    0.65 
  -7   0  -8    5.55    0.23 
   4  -1  -8    3.92    0.17 
   4  -1  -8    3.85    0.18 
   3  -1  -8    0.16    0.06 
   3  -1  -8    0.11    0.05 
   2  -1  -8    0.20    0.05 
   2  -1  -8    0.17    0.06 
   1  -1  -8    0.01    0.04 
   1  -1  -8   -0.08    0.05 
   0  -1  -8    3.78    0.14 
   0  -1  -8    3.92    0.16 
  -1  -1  -8    0.18    0.07 
  -1  -1  -8    0.01    0.04 
  -2  -1  -8    7.11    0.19 
  -2  -1  -8    6.80    0.23 
  -3  -1  -8    3.83    0.16 
  -4  -1  -8   15.68    0.41 
   4   1   8   14.82    0.37 
  -5  -1  -8   17.31    0.46 
  -6  -1  -8   34.06    0.82 
  -7  -1  -8   17.01    0.47 
   4  -2  -8    1.82    0.13 
   4  -2  -8    1.89    0.13 
   3  -2  -8    6.30    0.22 
   3  -2  -8    6.20    0.22 
   2  -2  -8   11.42    0.33 
   2  -2  -8   11.39    0.32 
   1  -2  -8    4.76    0.18 
   1  -2  -8    5.06    0.17 
   0  -2  -8    5.03    0.19 
   0  -2  -8    5.12    0.16 
  -1  -2  -8    3.42    0.16 
  -1  -2  -8    3.13    0.11 
  -2  -2  -8    2.64    0.10 
  -2  -2  -8    2.62    0.14 
  -3  -2  -8    3.11    0.15 
   3   2   8    2.94    0.12 
  -4  -2  -8    5.13    0.20 
   4   2   8    5.32    0.17 
  -5  -2  -8    3.47    0.16 
   5   2   8    3.69    0.13 
  -6  -2  -8    1.16    0.11 
  -7  -2  -8    4.84    0.20 
   4  -3  -8    1.81    0.13 
   4  -3  -8    1.77    0.13 
   3  -3  -8    2.63    0.14 
   3  -3  -8    2.31    0.13 
   2  -3  -8    5.55    0.20 
   2  -3  -8    5.82    0.21 
   1  -3  -8    3.57    0.16 
   1  -3  -8    3.59    0.14 
   0  -3  -8   19.86    0.46 
   0  -3  -8   19.56    0.50 
  -1  -3  -8    0.18    0.04 
  -1  -3  -8    0.25    0.07 
  -2  -3  -8   24.70    0.60 
  -3  -3  -8    0.20    0.07 
   3   3   8    0.22    0.06 
  -4  -3  -8    4.22    0.17 
   4   3   8    4.21    0.15 
  -5  -3  -8    0.07    0.06 
   5   3   8    0.00    0.05 
  -6  -3  -8    0.09    0.07 
   6   3   8    0.18    0.05 
  -7  -3  -8    0.24    0.08 
  -8  -3  -8    0.28    0.08 
   3  -4  -8    0.79    0.10 
   2  -4  -8    5.91    0.22 
   2  -4  -8    6.14    0.21 
   1  -4  -8    0.06    0.04 
   1  -4  -8    0.10    0.06 
   0  -4  -8    5.26    0.17 
   0  -4  -8    5.14    0.20 
  -1  -4  -8    0.65    0.08 
  -2  -4  -8    4.01    0.17 
  -3  -4  -8    0.30    0.08 
   3   4   8    0.32    0.06 
  -4  -4  -8    6.38    0.22 
   4   4   8    6.68    0.21 
  -5  -4  -8    0.16    0.07 
   5   4   8    0.13    0.05 
  -6  -4  -8    2.57    0.15 
   6   4   8    2.45    0.12 
  -7  -4  -8    0.13    0.07 
   7   4   8    0.20    0.06 
  -8  -4  -8    0.10    0.08 
   3  -5  -8    1.12    0.12 
   2  -5  -8    0.16    0.07 
   1  -5  -8    0.87    0.10 
   0  -5  -8    1.53    0.12 
  -1  -5  -8    1.40    0.12 
  -2  -5  -8    0.06    0.07 
   2   5   8    0.24    0.06 
  -3  -5  -8    0.91    0.10 
   3   5   8    0.87    0.08 
  -4  -5  -8    3.43    0.17 
   4   5   8    3.14    0.14 
  -5  -5  -8    5.31    0.20 
   5   5   8    5.13    0.19 
  -6  -5  -8    1.44    0.12 
   6   5   8    1.14    0.10 
  -7  -5  -8    1.11    0.11 
   7   5   8    1.24    0.10 
  -8  -5  -8    0.03    0.08 
   8   5   8   -0.08    0.05 
   2  -6  -8    1.09    0.12 
   1  -6  -8    3.66    0.17 
   0  -6  -8    2.57    0.15 
   0   6   8    2.59    0.14 
  -1  -6  -8    0.63    0.09 
   1   6   8    0.69    0.08 
  -2  -6  -8    0.29    0.08 
   2   6   8    0.26    0.07 
  -3  -6  -8    9.07    0.28 
   3   6   8    8.63    0.26 
  -4  -6  -8    0.06    0.07 
   4   6   8    0.03    0.05 
  -5  -6  -8    1.28    0.12 
   5   6   8    1.27    0.11 
  -6  -6  -8    2.02    0.14 
   6   6   8    2.33    0.13 
  -7  -6  -8    3.02    0.16 
   7   6   8    3.31    0.16 
  -8  -6  -8    1.70    0.14 
   8   6   8    1.58    0.12 
   1  -7  -8    0.09    0.06 
  -1   7   8   -0.06    0.06 
   0  -7  -8    0.31    0.08 
   0   7   8    0.24    0.07 
  -1  -7  -8    0.02    0.06 
   1   7   8    0.08    0.06 
  -2  -7  -8    1.09    0.11 
   2   7   8    0.91    0.09 
  -3  -7  -8    3.94    0.18 
   3   7   8    3.74    0.17 
  -4  -7  -8    0.95    0.11 
   4   7   8    0.72    0.08 
  -5  -7  -8   10.53    0.32 
   5   7   8   10.58    0.32 
  -6  -7  -8   -0.03    0.07 
   6   7   8    0.04    0.05 
  -7  -7  -8    2.38    0.16 
   7   7   8    2.40    0.14 
   0  -8  -8    2.01    0.14 
   0   8   8    1.93    0.13 
  -1  -8  -8    1.77    0.14 
   1   8   8    1.55    0.12 
  -2  -8  -8    5.10    0.21 
   2   8   8    5.41    0.21 
  -3  -8  -8    1.58    0.13 
   3   8   8    1.75    0.12 
  -4  -8  -8    0.33    0.09 
   4   8   8    0.48    0.08 
  -5  -8  -8    0.20    0.08 
   5   8   8    0.21    0.07 
  -6  -8  -8    0.61    0.10 
   6   8   8    0.60    0.09 
  -3  -9  -8   -0.09    0.07 
   3   9   8    0.05    0.07 
  -4  -9  -8   10.32    0.32 
   4   9   8   10.15    0.32 
  -5  -9  -8   -0.02    0.07 
   5   9   8    0.04    0.07 
   2   3  -9    4.70    0.20 
   1   3  -9   10.66    0.33 
   0   3  -9   11.44    0.34 
  -1   3  -9    5.25    0.21 
  -2   3  -9    6.58    0.23 
  -3   3  -9    1.60    0.12 
  -3   3  -9    1.63    0.13 
   3   2  -9    1.46    0.13 
   2   2  -9    4.20    0.18 
   1   2  -9    4.78    0.19 
   0   2  -9    0.23    0.07 
  -1   2  -9    4.35    0.18 
  -1   2  -9    4.56    0.18 
  -2   2  -9    0.11    0.07 
  -2   2  -9    0.18    0.06 
  -3   2  -9    0.38    0.07 
  -3   2  -9    0.41    0.08 
  -4   2  -9    0.97    0.11 
   3   1  -9    0.02    0.06 
   2   1  -9    0.39    0.07 
   1   1  -9    0.46    0.07 
   0   1  -9    0.66    0.09 
   0   1  -9    0.76    0.08 
  -1   1  -9    0.09    0.06 
  -1   1  -9    0.05    0.05 
  -2   1  -9    3.60    0.17 
  -2   1  -9    3.76    0.15 
  -3   1  -9    0.17    0.06 
  -3   1  -9    0.09    0.05 
  -4   1  -9    7.01    0.24 
  -5   1  -9    0.08    0.07 
   3   0  -9    0.91    0.10 
   2   0  -9    5.65    0.20 
   2   0  -9    5.30    0.20 
   1   0  -9    1.80    0.12 
   1   0  -9    1.62    0.11 
   0   0  -9    0.07    0.06 
   0   0  -9   -0.01    0.04 
  -1   0  -9   10.23    0.28 
  -1   0  -9   10.75    0.31 
  -2   0  -9    5.81    0.21 
  -2   0  -9    5.71    0.19 
  -3   0  -9    5.61    0.21 
  -4   0  -9    0.19    0.07 
  -5   0  -9    0.15    0.07 
  -6   0  -9    3.40    0.18 
   3  -1  -9    0.19    0.06 
   3  -1  -9    0.07    0.06 
   2  -1  -9    1.58    0.11 
   2  -1  -9    1.64    0.12 
   1  -1  -9    0.28    0.07 
   1  -1  -9    0.34    0.06 
   0  -1  -9    0.64    0.07 
   0  -1  -9    0.79    0.10 
  -1  -1  -9    4.99    0.20 
  -1  -1  -9    5.48    0.17 
  -2  -1  -9    1.11    0.11 
  -3  -1  -9   11.23    0.33 
  -4  -1  -9    3.96    0.18 
  -5  -1  -9    3.02    0.16 
  -6  -1  -9    0.09    0.07 
   3  -2  -9    0.03    0.06 
   3  -2  -9   -0.06    0.06 
   2  -2  -9    0.91    0.09 
   2  -2  -9    0.90    0.10 
   1  -2  -9    0.12    0.05 
   1  -2  -9    0.04    0.06 
   0  -2  -9   11.28    0.32 
   0  -2  -9   10.50    0.29 
  -1  -2  -9    0.04    0.06 
  -1  -2  -9    0.05    0.04 
  -2  -2  -9    5.16    0.20 
  -3  -2  -9   -0.10    0.06 
  -4  -2  -9    0.69    0.10 
   4   2   9    0.61    0.07 
  -5  -2  -9   -0.05    0.06 
  -6  -2  -9    2.76    0.16 
  -7  -2  -9    0.09    0.07 
   3  -3  -9    0.00    0.06 
   3  -3  -9    0.04    0.06 
   2  -3  -9    0.48    0.08 
   2  -3  -9    0.55    0.09 
   1  -3  -9    3.26    0.17 
   1  -3  -9    3.61    0.15 
   0  -3  -9    0.11    0.07 
   0  -3  -9    0.06    0.04 
  -1  -3  -9    9.17    0.29 
  -2  -3  -9    6.43    0.23 
  -3  -3  -9    5.77    0.22 
   3   3   9    5.47    0.19 
  -4  -3  -9    5.49    0.22 
   4   3   9    5.50    0.19 
  -5  -3  -9    2.77    0.16 
   5   3   9    2.94    0.13 
  -6  -3  -9    0.10    0.07 
  -7  -3  -9    1.77    0.13 
   2  -4  -9    0.05    0.06 
   2  -4  -9    0.04    0.07 
   1  -4  -9    0.03    0.06 
   1  -4  -9    0.14    0.05 
   0  -4  -9    1.58    0.12 
  -1  -4  -9    3.58    0.17 
  -2  -4  -9    2.82    0.16 
  -3  -4  -9    9.26    0.29 
   3   4   9    8.88    0.27 
  -4  -4  -9    7.66    0.26 
   4   4   9    7.97    0.24 
  -5  -4  -9    4.06    0.19 
   5   4   9    4.41    0.17 
  -6  -4  -9   10.69    0.33 
   6   4   9   10.61    0.30 
  -7  -4  -9    0.99    0.12 
   2  -5  -9    1.62    0.13 
   1  -5  -9    0.72    0.10 
   0  -5  -9    0.11    0.07 
  -1  -5  -9    0.84    0.10 
  -2  -5  -9    7.85    0.27 
   2   5   9    7.35    0.25 
  -3  -5  -9    0.92    0.10 
   3   5   9    0.73    0.09 
  -4  -5  -9    7.13    0.25 
   4   5   9    7.33    0.23 
  -5  -5  -9    0.65    0.10 
   5   5   9    0.58    0.08 
  -6  -5  -9    3.12    0.18 
   6   5   9    3.48    0.15 
  -7  -5  -9    1.95    0.14 
   7   5   9    2.08    0.12 
   1  -6  -9    4.15    0.20 
   0  -6  -9    1.80    0.13 
  -1  -6  -9    4.58    0.19 
   1   6   9    4.57    0.19 
  -2  -6  -9    0.88    0.10 
   2   6   9    1.07    0.10 
  -3  -6  -9    0.06    0.08 
   3   6   9    0.07    0.06 
  -4  -6  -9    0.47    0.10 
   4   6   9    0.62    0.08 
  -5  -6  -9    3.10    0.16 
   5   6   9    3.09    0.15 
  -6  -6  -9    0.31    0.09 
   6   6   9    0.70    0.09 
  -7  -6  -9    0.20    0.09 
   7   6   9    0.25    0.07 
   0  -7  -9    0.34    0.09 
   0   7   9    0.31    0.08 
  -1  -7  -9    5.64    0.23 
   1   7   9    6.15    0.23 
  -2  -7  -9    0.37    0.09 
   2   7   9    0.32    0.08 
  -3  -7  -9    7.73    0.27 
   3   7   9    7.59    0.26 
  -4  -7  -9    3.08    0.17 
   4   7   9    3.32    0.16 
  -5  -7  -9    0.38    0.09 
   5   7   9    0.33    0.07 
  -6  -7  -9    1.13    0.12 
   6   7   9    1.46    0.12 
  -2  -8  -9    0.57    0.10 
   2   8   9    0.62    0.09 
  -3  -8  -9    0.17    0.08 
   3   8   9    0.10    0.07 
  -4  -8  -9    0.90    0.11 
   4   8   9    1.01    0.11 
  -5  -8  -9    0.08    0.08 
   5   8   9   -0.05    0.06 
   0   2 -10    2.15    0.13 
  -1   2 -10   12.12    0.35 
  -2   2 -10    1.40    0.12 
   1   1 -10    0.26    0.07 
   0   1 -10    9.38    0.29 
  -1   1 -10    1.09    0.10 
  -1   1 -10    1.07    0.11 
  -2   1 -10   10.59    0.32 
  -3   1 -10    4.84    0.21 
  -4   1 -10    1.21    0.12 
   2   0 -10    5.18    0.21 
   1   0 -10    3.02    0.15 
   1   0 -10    2.84    0.16 
   0   0 -10    7.00    0.25 
   0   0 -10    7.71    0.24 
  -1   0 -10    0.45    0.09 
  -1   0 -10    0.38    0.07 
  -2   0 -10    0.05    0.07 
  -3   0 -10    0.65    0.10 
  -4   0 -10    1.46    0.12 
  -5   0 -10    0.50    0.10 
   2  -1 -10    2.28    0.14 
   2  -1 -10    2.22    0.14 
   1  -1 -10    5.50    0.19 
   1  -1 -10    4.62    0.20 
   0  -1 -10    5.73    0.20 
   0  -1 -10    6.11    0.22 
  -1  -1 -10    3.29    0.17 
  -2  -1 -10   10.83    0.32 
  -3  -1 -10    0.06    0.07 
  -4  -1 -10    2.59    0.15 
  -5  -1 -10    4.77    0.21 
   2  -2 -10    3.00    0.16 
   2  -2 -10    3.35    0.16 
   1  -2 -10    0.94    0.09 
   1  -2 -10    0.71    0.10 
   0  -2 -10    0.57    0.09 
  -1  -2 -10    0.29    0.08 
  -2  -2 -10    1.05    0.11 
  -3  -2 -10    0.07    0.08 
  -4  -2 -10    0.72    0.10 
   4   2  10    0.82    0.09 
  -5  -2 -10    1.11    0.12 
  -6  -2 -10    0.17    0.08 
   2  -3 -10   -0.04    0.05 
   2  -3 -10   -0.02    0.07 
   1  -3 -10    2.84    0.16 
   0  -3 -10    0.72    0.10 
  -1  -3 -10    0.26    0.08 
  -2  -3 -10    0.02    0.07 
  -3  -3 -10    0.00    0.07 
   3   3  10   -0.06    0.05 
  -4  -3 -10    6.40    0.24 
   4   3  10    6.25    0.21 
  -5  -3 -10    0.13    0.08 
   5   3  10   -0.02    0.05 
  -6  -3 -10    5.52    0.23 
   1  -4 -10    2.11    0.15 
   0  -4 -10    0.18    0.07 
  -1  -4 -10    1.93    0.13 
  -2  -4 -10    0.36    0.09 
  -3  -4 -10    0.61    0.10 
   3   4  10    0.48    0.08 
  -4  -4 -10    0.10    0.07 
   4   4  10    0.01    0.05 
  -5  -4 -10    5.14    0.22 
   5   4  10    5.25    0.19 
  -6  -4 -10    1.08    0.12 
   6   4  10    1.13    0.10 
   1  -5 -10    2.84    0.17 
   0  -5 -10    4.56    0.21 
  -1  -5 -10    1.03    0.11 
  -2  -5 -10    0.97    0.11 
   2   5  10    1.06    0.11 
  -3  -5 -10   -0.04    0.07 
   3   5  10   -0.06    0.05 
  -4  -5 -10    0.15    0.09 
   4   5  10    0.12    0.06 
  -5  -5 -10    0.76    0.11 
   5   5  10    0.71    0.09 
  -6  -5 -10    0.69    0.11 
   6   5  10    0.73    0.09 
   0  -6 -10    0.28    0.08 
  -1  -6 -10    3.68    0.19 
   1   6  10    3.60    0.17 
  -2  -6 -10    2.56    0.16 
   2   6  10    2.25    0.13 
  -3  -6 -10    3.94    0.20 
   3   6  10    4.24    0.18 
  -4  -6 -10    0.33    0.09 
   4   6  10    0.45    0.08 
  -5  -6 -10   -0.01    0.07 
   5   6  10    0.13    0.07 
  -6  -6 -10    1.64    0.15 
   6   6  10    1.37    0.12 
  -2  -7 -10    0.05    0.07 
   2   7  10    0.13    0.07 
  -3  -7 -10    1.08    0.12 
   3   7  10    1.19    0.12 
  -4  -7 -10    0.39    0.10 
   4   7  10    0.32    0.08 
  -5  -7 -10    4.00    0.20 
   5   7  10    4.18    0.19 
  -1   0 -11    0.80    0.10 
  -2   0 -11    0.88    0.11 
   0  -1 -11   -0.04    0.07 
  -1  -1 -11    1.03    0.12 
  -2  -1 -11    1.07    0.12 
  -3  -1 -11    2.78    0.17 
  -4  -1 -11    4.08    0.20 
   0  -2 -11    3.06    0.17 
  -1  -2 -11    1.92    0.15 
  -2  -2 -11    3.68    0.19 
  -3  -2 -11    3.33    0.18 
  -4  -2 -11    3.14    0.18 
   0  -3 -11   -0.06    0.07 
  -1  -3 -11    0.48    0.09 
  -2  -3 -11    5.55    0.23 
  -3  -3 -11    1.12    0.12 
   3   3  11    1.41    0.11 
  -4  -3 -11    3.81    0.19 
   4   3  11    3.90    0.17 
  -5  -3 -11    0.96    0.12 
  -1  -4 -11    0.63    0.11 
  -2  -4 -11    0.28    0.09 
  -3  -4 -11    2.63    0.16 
   3   4  11    2.60    0.15 
  -4  -4 -11    0.23    0.09 
   4   4  11    0.25    0.07 
  -5  -4 -11    0.35    0.10 
   5   4  11    0.16    0.07 
  -1  -5 -11    0.19    0.09 
  -2  -5 -11    0.27    0.09 
   2   5  11    0.19    0.08 
  -3  -5 -11    0.59    0.11 
   3   5  11    0.77    0.10 
  -4  -5 -11    0.10    0.09 
   4   5  11    0.27    0.07 
  -5  -5 -11    2.53    0.17 
   5   5  11    2.68    0.15 
  -3  -6 -11    1.94    0.15 
   3   6  11    1.95    0.14 
  -4  -6 -11    3.36    0.19 
   4   6  11    3.49    0.17 
   0   0   0    0.00    0.00 
;
_shelx_hkl_checksum              73030
loop_
_space_group_symop_operation_xyz
'x, y, z'
'-x, -y, -z'
loop_
_atom_site_label
_atom_site_type_symbol
_atom_site_fract_x
_atom_site_fract_y
_atom_site_fract_z
_atom_site_U_iso_or_equiv
_atom_site_adp_type
_atom_site_occupancy
_atom_site_site_symmetry_order
_atom_site_calc_flag
_atom_site_refinement_flags_posn
_atom_site_refinement_flags_adp
N1 N 0.21128(17) 0.79026(15) 1.42609(13) 0.0384(3) Uani 1 1 d . .
N2 N 0.13693(15) 1.39524(14) 1.19951(11) 0.0310(3) Uani 1 1 d . .
O1 O 0.31811(11) 0.95156(10) 0.72083(9) 0.0242(2) Uani 1 1 d . .
C1 C 0.31786(15) 0.80867(14) 0.85270(13) 0.0226(3) Uani 1 1 d . .
C2 C 0.27761(15) 0.83857(15) 1.00062(13) 0.0224(2) Uani 1 1 d . .
H2 H 0.2778 0.7363 1.0899 0.027 Uiso 1 1 calc R U
C3 C 0.23465(14) 1.02261(14) 1.02458(12) 0.0214(2) Uani 1 1 d . .
C4 C 0.22788(15) 1.16905(14) 0.88364(13) 0.0221(2) Uani 1 1 d . .
H4 H 0.1947 1.2950 0.8924 0.027 Uiso 1 1 calc R U
C5 C 0.26775(15) 1.13134(14) 0.73874(13) 0.0225(2) Uani 1 1 d . .
C6 C 0.26370(18) 1.26850(16) 0.58348(13) 0.0290(3) Uani 1 1 d . .
H6A H 0.2344 1.3943 0.6003 0.044 Uiso 1 1 calc R U
H6B H 0.1567 1.2689 0.5342 0.044 Uiso 1 1 calc R U
H6C H 0.3973 1.2328 0.5135 0.044 Uiso 1 1 calc R U
C7 C 0.36758(17) 0.62590(15) 0.80983(14) 0.0273(3) Uani 1 1 d . .
H7A H 0.5127 0.5844 0.7603 0.041 Uiso 1 1 calc R U
H7B H 0.2821 0.6408 0.7349 0.041 Uiso 1 1 calc R U
H7C H 0.3408 0.5320 0.9060 0.041 Uiso 1 1 calc R U
C8 C 0.19974(16) 1.05835(15) 1.17488(13) 0.0232(3) Uani 1 1 d . .
C9 C 0.20516(17) 0.91154(16) 1.31507(13) 0.0269(3) Uani 1 1 d . .
C10 C 0.16358(16) 1.24356(16) 1.19187(12) 0.0245(3) Uani 1 1 d . .
loop_
_atom_site_aniso_label
_atom_site_aniso_U_11
_atom_site_aniso_U_22
_atom_site_aniso_U_33
_atom_site_aniso_U_23
_atom_site_aniso_U_13
_atom_site_aniso_U_12
N1 0.0487(7) 0.0390(6) 0.0280(6) 0.0035(5) -0.0126(5) -0.0188(5)
N2 0.0346(5) 0.0303(5) 0.0267(5) -0.0062(4) -0.0058(4) -0.0086(4)
O1 0.0278(4) 0.0226(4) 0.0208(4) -0.0019(3) -0.0044(3) -0.0087(3)
C1 0.0189(5) 0.0225(5) 0.0250(5) 0.0002(4) -0.0055(4) -0.0080(4)
C2 0.0194(5) 0.0225(5) 0.0227(5) 0.0012(4) -0.0059(4) -0.0072(4)
C3 0.0146(5) 0.0249(5) 0.0232(5) -0.0017(4) -0.0043(4) -0.0066(4)
C4 0.0201(5) 0.0206(5) 0.0238(6) -0.0023(4) -0.0049(4) -0.0058(4)
C5 0.0197(5) 0.0217(5) 0.0248(6) -0.0017(4) -0.0045(4) -0.0073(4)
C6 0.0351(6) 0.0277(6) 0.0210(6) 0.0001(4) -0.0047(5) -0.0108(5)
C7 0.0298(6) 0.0245(6) 0.0281(6) -0.0035(4) -0.0065(5) -0.0101(5)
C8 0.0211(5) 0.0252(5) 0.0217(5) -0.0019(4) -0.0054(4) -0.0071(4)
C9 0.0266(6) 0.0323(6) 0.0230(6) -0.0041(5) -0.0063(4) -0.0108(5)
C10 0.0217(5) 0.0325(6) 0.0171(5) -0.0026(4) -0.0042(4) -0.0079(4)
loop_
_atom_type_symbol
_atom_type_description
_atom_type_scat_dispersion_real
_atom_type_scat_dispersion_imag
_atom_type_scat_source
C C 0.0033 0.0016 'International Tables Vol C Tables 4.2.6.8 and 6.1.1.4'
H H 0.0000 0.0000 'International Tables Vol C Tables 4.2.6.8 and 6.1.1.4'
N N 0.0061 0.0033 'International Tables Vol C Tables 4.2.6.8 and 6.1.1.4'
O O 0.0106 0.0060 'International Tables Vol C Tables 4.2.6.8 and 6.1.1.4'
loop_
_geom_angle_atom_site_label_1
_geom_angle_atom_site_label_2
_geom_angle_atom_site_label_3
_geom_angle
C1 O1 C5 119.45(8)
C2 C1 O1 121.71(9)
C2 C1 C7 126.64(10)
O1 C1 C7 111.64(9)
C1 C2 C3 120.73(10)
C1 C2 H2 119.6
C3 C2 H2 119.6
C8 C3 C2 122.56(10)
C8 C3 C4 121.88(10)
C2 C3 C4 115.56(9)
C5 C4 C3 121.14(10)
C5 C4 H4 119.4
C3 C4 H4 119.4
C4 C5 O1 121.27(9)
C4 C5 C6 126.99(10)
O1 C5 C6 111.74(9)
C5 C6 H6A 109.5
C5 C6 H6B 109.5
H6A C6 H6B 109.5
C5 C6 H6C 109.5
H6A C6 H6C 109.5
H6B C6 H6C 109.5
C1 C7 H7A 109.5
C1 C7 H7B 109.5
H7A C7 H7B 109.5
C1 C7 H7C 109.5
H7A C7 H7C 109.5
H7B C7 H7C 109.5
C3 C8 C10 120.34(10)
C3 C8 C9 121.50(10)
C10 C8 C9 118.13(10)
N1 C9 C8 178.50(12)
N2 C10 C8 177.41(11)
loop_
_geom_bond_atom_site_label_1
_geom_bond_atom_site_label_2
_geom_bond_distance
N1 C9 1.1525(15)
N2 C10 1.1545(14)
O1 C1 1.3666(12)
O1 C5 1.3690(13)
C1 C2 1.3490(15)
C1 C7 1.4859(14)
C2 C3 1.4311(15)
C2 H2 0.9500
C3 C8 1.3936(15)
C3 C4 1.4311(14)
C4 C5 1.3479(15)
C4 H4 0.9500
C5 C6 1.4846(15)
C6 H6A 0.9800
C6 H6B 0.9800
C6 H6C 0.9800
C7 H7A 0.9800
C7 H7B 0.9800
C7 H7C 0.9800
C8 C10 1.4271(15)
C8 C9 1.4287(15)
loop_
_geom_torsion_atom_site_label_1
_geom_torsion_atom_site_label_2
_geom_torsion_atom_site_label_3
_geom_torsion_atom_site_label_4
_geom_torsion
C5 O1 C1 C2 -2.84(14)
C5 O1 C1 C7 177.58(8)
O1 C1 C2 C3 -0.40(16)
C7 C1 C2 C3 179.11(9)
C1 C2 C3 C8 -177.58(9)
C1 C2 C3 C4 2.97(14)
C8 C3 C4 C5 178.09(9)
C2 C3 C4 C5 -2.45(15)
C3 C4 C5 O1 -0.65(16)
C3 C4 C5 C6 179.12(10)
C1 O1 C5 C4 3.37(14)
C1 O1 C5 C6 -176.42(8)
C2 C3 C8 C10 178.13(9)
C4 C3 C8 C10 -2.46(15)
C2 C3 C8 C9 0.07(16)
C4 C3 C8 C9 179.49(9)
