#------------------------------------------------------------------------------
#$Date: 2019-11-23 22:43:50 +0200 (Sat, 23 Nov 2019) $
#$Revision: 235409 $
#$URL: file:///home/coder/svn-repositories/cod/cif/7/23/63/7236332.cif $
#------------------------------------------------------------------------------
#
# This file is available in the Crystallography Open Database (COD),
# http://www.crystallography.net/
#
# All data on this site have been placed in the public domain by the
# contributors.
#
data_7236332
loop_
_publ_author_name
'Abulikemu, Mutalifu'
'Ould-Chikh, Samy'
'Miao, Xiaohe'
'Alarousu, Erkki'
'Murali, Banavoth'
'Ngongang Ndjawa, Guy Olivier'
'Barb\'e, J\'er\'emy'
'El Labban, Abdulrahman'
'Amassian, Aram'
'Del Gobbo, Silvano'
_publ_section_title
;
 Optoelectronic and photovoltaic properties of the air-stable organohalide
 semiconductor (CH3NH3)3Bi2I9
;
_journal_issue                   32
_journal_name_full               'Journal of Materials Chemistry A'
_journal_page_first              12504
_journal_paper_doi               10.1039/C6TA04657F
_journal_volume                  4
_journal_year                    2016
_chemical_formula_moiety         '2(Bi1 I4.5), 3(C N)'
_chemical_formula_sum            'C3 H9 Bi2 I9 N3'
_chemical_formula_weight         1638.16
_chemical_name_common            MAIB
_chemical_name_systematic        'Trimethylammonium dibismuth nonaiodide '
_space_group_crystal_system      hexagonal
_space_group_IT_number           194
_space_group_name_Hall           '-P 6c 2c'
_space_group_name_H-M_alt        'P 63/m m c'
_atom_sites_solution_primary     direct
_audit_creation_date             2015-05-18
_audit_creation_method
;
Olex2 1.2
(compiled 2015.01.26 svn.r3150 for OlexSys, GUI svn.r4998)
;
_audit_update_record
;
2016-06-03 deposited with the CCDC.
2016-07-13 downloaded from the CCDC.
;
_cell_angle_alpha                90
_cell_angle_beta                 90
_cell_angle_gamma                120
_cell_formula_units_Z            2
_cell_length_a                   8.5821(3)
_cell_length_b                   8.5821(3)
_cell_length_c                   21.7678(8)
_cell_measurement_reflns_used    9973
_cell_measurement_temperature    293(2)
_cell_measurement_theta_max      29.2850
_cell_measurement_theta_min      3.9360
_cell_volume                     1388.46(9)
_computing_cell_refinement
;
CrysAlisPro, Agilent Technologies,
Version 1.171.37.31 (release 14-01-2014 CrysAlis171 .NET)
(compiled Jan 14 2014,18:38:05)
;
_computing_data_collection
;
CrysAlisPro, Agilent Technologies,
Version 1.171.37.31 (release 14-01-2014 CrysAlis171 .NET)
(compiled Jan 14 2014,18:38:05)
;
_computing_data_reduction
;
CrysAlisPro, Agilent Technologies,
Version 1.171.37.31 (release 14-01-2014 CrysAlis171 .NET)
(compiled Jan 14 2014,18:38:05)
;
_computing_molecular_graphics    'Olex2 (Dolomanov et al., 2009)'
_computing_publication_material  'Olex2 (Dolomanov et al., 2009)'
_computing_structure_refinement  'XL (Sheldrick, 2008)'
_computing_structure_solution    'XT (Sheldrick, 2015)'
_diffrn_ambient_temperature      293(2)
_diffrn_detector                 'CCD plate'
_diffrn_detector_area_resol_mean 10.3782
_diffrn_detector_type            Atlas
_diffrn_measured_fraction_theta_full 0.968
_diffrn_measured_fraction_theta_max 0.969
_diffrn_measurement_details
;
#__ type_ start__ end____ width___ exp.time_
  1 omega  -86.00  -61.00   1.0000   20.0000
omega____ theta____ kappa____ phi______ frames
    -      -10.5418  153.0000  -78.7271 25

#__ type_ start__ end____ width___ exp.time_
  2 omega  -33.00   27.00   1.0000   20.0000
omega____ theta____ kappa____ phi______ frames
    -      -10.5418   37.0000  -90.0000 60

#__ type_ start__ end____ width___ exp.time_
  3 omega  -83.00  -58.00   1.0000   20.0000
omega____ theta____ kappa____ phi______ frames
    -      -10.5418  150.0000  175.5344 25

#__ type_ start__ end____ width___ exp.time_
  4 omega  -81.00  -35.00   1.0000   20.0000
omega____ theta____ kappa____ phi______ frames
    -      -10.5418  147.0000   -7.8510 46

#__ type_ start__ end____ width___ exp.time_
  5 omega  -27.00   91.00   1.0000   20.0000
omega____ theta____ kappa____ phi______ frames
    -       10.6199   19.0000  -60.0000 118

#__ type_ start__ end____ width___ exp.time_
  6 omega  -14.00   85.00   1.0000   20.0000
omega____ theta____ kappa____ phi______ frames
    -       10.6199   37.0000   30.0000 99

#__ type_ start__ end____ width___ exp.time_
  7 omega  -58.00   43.00   1.0000   20.0000
omega____ theta____ kappa____ phi______ frames
    -       10.6199  -77.0000  -30.0000 101

#__ type_ start__ end____ width___ exp.time_
  8 omega  -20.00   52.00   1.0000   20.0000
omega____ theta____ kappa____ phi______ frames
    -       10.6199  -99.0000 -180.0000 72

#__ type_ start__ end____ width___ exp.time_
  9 omega  -20.00   61.00   1.0000   20.0000
omega____ theta____ kappa____ phi______ frames
    -       10.6199   77.0000  120.0000 81
;
_diffrn_measurement_device       'four-circle diffractometer'
_diffrn_measurement_device_type  'SuperNova, Dual, Cu at zero, Atlas'
_diffrn_measurement_method       '\w scans'
_diffrn_orient_matrix_UB_11      -0.0137844000
_diffrn_orient_matrix_UB_12      0.0739794000
_diffrn_orient_matrix_UB_13      0.0047700000
_diffrn_orient_matrix_UB_21      0.0340842000
_diffrn_orient_matrix_UB_22      0.0327542000
_diffrn_orient_matrix_UB_23      -0.0297965000
_diffrn_orient_matrix_UB_31      -0.0880975000
_diffrn_orient_matrix_UB_32      -0.0506211000
_diffrn_orient_matrix_UB_33      -0.0122765000
_diffrn_radiation_monochromator  mirror
_diffrn_radiation_probe          x-ray
_diffrn_radiation_type           MoK\a
_diffrn_radiation_wavelength     0.71073
_diffrn_reflns_av_R_equivalents  0.0898
_diffrn_reflns_av_unetI/netI     0.0216
_diffrn_reflns_Laue_measured_fraction_full 0.968
_diffrn_reflns_Laue_measured_fraction_max 0.969
_diffrn_reflns_limit_h_max       11
_diffrn_reflns_limit_h_min       -11
_diffrn_reflns_limit_k_max       11
_diffrn_reflns_limit_k_min       -11
_diffrn_reflns_limit_l_max       29
_diffrn_reflns_limit_l_min       -30
_diffrn_reflns_number            21998
_diffrn_reflns_point_group_measured_fraction_full 0.968
_diffrn_reflns_point_group_measured_fraction_max 0.969
_diffrn_reflns_theta_full        25.242
_diffrn_reflns_theta_max         29.513
_diffrn_reflns_theta_min         5.107
_diffrn_source                   'SuperNova (Mo) X-ray Source'
_exptl_absorpt_coefficient_mu    22.653
_exptl_absorpt_correction_T_max  1.00000
_exptl_absorpt_correction_T_min  0.25688
_exptl_absorpt_correction_type   multi-scan
_exptl_absorpt_process_details
;
CrysAlisPro, Agilent Technologies,
Version 1.171.37.31 (release 14-01-2014 CrysAlis171 .NET)
(compiled Jan 14 2014,18:38:05)
Empirical absorption correction using spherical harmonics,
 implemented in SCALE3 ABSPACK scaling algorithm.
;
_exptl_crystal_colour            Red
_exptl_crystal_density_diffrn    3.918
_exptl_crystal_description       brittle
_exptl_crystal_F_000             1364.0
_exptl_crystal_recrystallization_method 'Re-crystallisation from solvent'
_exptl_crystal_size_max          0.18
_exptl_crystal_size_mid          0.12
_exptl_crystal_size_min          0.10
_refine_diff_density_max         0.681
_refine_diff_density_min         -1.382
_refine_diff_density_rms         0.173
_refine_ls_extinction_method     none
_refine_ls_goodness_of_fit_ref   1.105
_refine_ls_hydrogen_treatment    undef
_refine_ls_matrix_type           full
_refine_ls_number_parameters     26
_refine_ls_number_reflns         771
_refine_ls_number_restraints     26
_refine_ls_restrained_S_all      1.086
_refine_ls_R_factor_all          0.0422
_refine_ls_R_factor_gt           0.0357
_refine_ls_shift/su_max          0.016
_refine_ls_shift/su_mean         0.002
_refine_ls_structure_factor_coef Fsqd
_refine_ls_weighting_details
'w=1/[\s^2^(Fo^2^)+(0.0426P)^2^+7.0806P] where P=(Fo^2^+2Fc^2^)/3'
_refine_ls_weighting_scheme      calc
_refine_ls_wR_factor_gt          0.0909
_refine_ls_wR_factor_ref         0.0959
_reflns_Friedel_coverage         0.000
_reflns_number_gt                682
_reflns_number_total             771
_reflns_threshold_expression     'I > 2\s(I)'
_iucr_refine_instructions_details
;

    ma3bi2i9.res created by SHELXL-2014/7

TITL ma3bi2i9_a.res in P6(3)/mmc
CELL 0.71073 8.5821 8.5821 21.7678 90 90 120
ZERR 2 0.0003 0.0003 0.0008 0 0 0
LATT 1
SYMM -Y,+X-Y,+Z
SYMM +Y-X,-X,+Z
SYMM -X,-Y,0.5+Z
SYMM +Y,-X+Y,0.5+Z
SYMM -Y+X,+X,0.5+Z
SYMM +Y,+X,-Z
SYMM -Y+X,-Y,-Z
SYMM -X,-X+Y,-Z
SYMM -Y,-X,0.5-Z
SYMM +Y-X,+Y,0.5-Z
SYMM +X,+X-Y,0.5-Z
SFAC Bi N I C H
UNIT 1 12 9 10 19
DFIX 1.47 0.01 C1 N1
DFIX 1.5 0.01 C2 N2
ISOR 0.0005 0.002 N1 N2 C1 C2
 
L.S. 44
PLAN  20
MORE -1
BOND $H
CONF
LIST 6
fmap 2
acta
MERG 2
OMIT -3 60
OMIT 0 6 1
OMIT -1 2 0
OMIT 0 0 4
OMIT 0 1 4
OMIT 0 3 1
OMIT 0 1 8
OMIT 0 2 1
OMIT -1 3 4
OMIT 0 1 3
OMIT 0 1 9
OMIT -1 2 8
OMIT 0 1 2
OMIT 0 0 6
OMIT 0 3 5
REM <olex2.extras>
REM <HklSrc "%.\\ma3bi2i9.hkl">
REM </olex2.extras>
 
WGHT    0.042600    7.080600
FVAR       0.13417
BI01  1    0.333333    0.666667    0.344949    10.16667    0.04416    0.04416 =
         0.03837    0.00000    0.00000    0.02208
I002  3   -0.002731    0.498635    0.250000    10.25000    0.03532    0.07471 =
         0.05906    0.00000    0.00000    0.01766
I003  3    0.667581    0.833791    0.418720    10.50000    0.06177    0.08954 =
         0.07247   -0.01301   -0.02602    0.03089
N1    2    0.333333    0.666667    0.606792    10.16667    0.20519    0.20519 =
         0.20512    0.00000    0.00000    0.10259
N2    2    0.000000    0.000000    0.274124    10.08333    0.23785    0.23785 =
         0.23785    0.00000    0.00000    0.11892
C1    4    0.333333    0.666667    0.539332    10.16667    0.30507    0.30507 =
         0.30499    0.00000    0.00000    0.15253
C2    4    0.000000    0.000000    0.205211    10.08333    0.63380    0.63380 =
         0.63380    0.00000    0.00000    0.31690
HKLF 4
 
REM  ma3bi2i9_a.res in P6(3)/mmc
REM R1 =  0.0357 for     682 Fo > 4sig(Fo)  and  0.0422 for all     771 data
REM     26 parameters refined using     26 restraints
 
END  
     
WGHT      0.0432      7.1262 

REM Highest difference peak  0.681,  deepest hole -1.382,  1-sigma level  0.173
Q1    1   0.2627  0.5254  0.3030  10.50000  0.05    0.68
Q2    1   0.2781  0.5563  0.3905  10.50000  0.05    0.63
Q3    1   0.2475  0.7525  0.3457  10.50000  0.05    0.59
Q4    1   0.1738  0.8262  0.6573  10.50000  0.05    0.58
Q5    1   0.4603  0.7940  0.3026  11.00000  0.05    0.58
Q6    1   0.1344  0.6557  0.2088  11.00000  0.05    0.55
Q7    1   0.3837  0.7673  0.5569  10.50000  0.05    0.54
Q8    1   0.4523  0.9046  0.3929  10.50000  0.05    0.47
Q9    1   0.3333  0.6667  0.3839  10.16667  0.05    0.47
Q10   1  -0.1499  0.3025  0.2500  10.50000  0.05    0.44
Q11   1   0.6919  0.8459  0.3745  10.50000  0.05    0.44
Q12   1  -0.0257  0.4872  0.2086  10.50000  0.05    0.43
Q13   1   0.2843  0.5685  0.5526  10.50000  0.05    0.42
Q14   1  -0.2310  0.2310  0.2500  10.25000  0.05    0.42
Q15   1   0.6841  0.6396  0.4232  11.00000  0.05    0.42
Q16   1   0.4099  0.8199  0.3466  10.50000  0.05    0.41
Q17   1   0.5015  0.8584  0.4043  11.00000  0.05    0.41
Q18   1   0.8634  0.9317  0.4157  10.50000  0.05    0.41
Q19   1   0.4507  0.6607  0.5613  11.00000  0.05    0.39
Q20   1   0.5989  0.9131  0.4254  11.00000  0.05    0.39

REM The information below was added by Olex2.
REM
REM R1 = 0.0357 for 682 Fo > 4sig(Fo) and 0.0422 for all 23672 data
REM n/a parameters refined using n/a restraints
REM Highest difference peak 0.68, deepest hole -1.38
REM Mean Shift 0.002, Max Shift -0.016.

REM +++ Tabular Listing of Refinement Information +++
REM R1_all = 0.0422
REM R1_gt = 0.0357
REM wR_ref = 0.0959
REM GOOF = 1.105
REM Shift_max = -0.016
REM Shift_mean = 0.002
REM Reflections_all = 23672
REM Reflections_gt = 682
REM Parameters = n/a
REM Hole = -1.38
REM Peak = 0.68
REM Flack = n/a

;
_cod_data_source_file            c6ta04657f2.cif
_cod_data_source_block           ma3bi2i9
_cod_original_cell_volume        1388.46(11)
_cod_database_code               7236332
_chemical_oxdiff_formula         C3N3H6BI2I9
_shelx_space_group_comment
;
The symmetry employed for this shelxl refinement is uniquely defined
by the following loop, which should always be used as a source of
symmetry information in preference to the above space-group names.
They are only intended as comments.
;
_reflns_odcompleteness_completeness 99.24
_reflns_odcompleteness_iscentric 1
_reflns_odcompleteness_theta     26.32
_olex2_refinement_description
;
1. Restrained distances
 C1-N1
 1.47 with sigma of 0.01
 C2-N2
 1.5 with sigma of 0.01
2. Uiso/Uaniso restraints and constraints
Uanis(N1) \\sim Ueq, Uanis(N2) \\sim Ueq, Uanis(C1) \\sim Ueq, Uanis(C2) \\sim
Ueq: with sigma of 0.0005 and sigma for terminal atoms of 0.002
3. Others
 Fixed Sof: N2(0.08333) C2(0.08333)
;
_shelx_shelxl_version_number     2014/7
_olex2_submission_special_instructions 'No special instructions were received'
_solvent_exptl_crystal_recrystallization_method
'gamma-butyrolactone, dichloromethane'
loop_
_space_group_symop_operation_xyz
'x, y, z'
'-y, x-y, z'
'-x+y, -x, z'
'-x, -y, z+1/2'
'y, -x+y, z+1/2'
'x-y, x, z+1/2'
'y, x, -z'
'x-y, -y, -z'
'-x, -x+y, -z'
'-y, -x, -z+1/2'
'-x+y, y, -z+1/2'
'x, x-y, -z+1/2'
'-x, -y, -z'
'y, -x+y, -z'
'x-y, x, -z'
'x, y, -z-1/2'
'-y, x-y, -z-1/2'
'-x+y, -x, -z-1/2'
'-y, -x, z'
'-x+y, y, z'
'x, x-y, z'
'y, x, z-1/2'
'x-y, -y, z-1/2'
'-x, -x+y, z-1/2'
loop_
_atom_site_label
_atom_site_type_symbol
_atom_site_fract_x
_atom_site_fract_y
_atom_site_fract_z
_atom_site_U_iso_or_equiv
_atom_site_adp_type
_atom_site_occupancy
_atom_site_site_symmetry_order
_atom_site_calc_flag
_atom_site_refinement_flags_posn
_atom_site_refinement_flags_adp
_atom_site_refinement_flags_occupancy
Bi01 Bi 0.3333 0.6667 0.34495(2) 0.0422(2) Uani 1 6 d S T P
I002 I -0.00273(12) 0.49863(6) 0.2500 0.0607(3) Uani 1 4 d S T P
I003 I 0.66758(10) 0.83379(5) 0.41872(4) 0.0777(3) Uani 1 2 d S T P
N1 N 0.3333 0.6667 0.607(3) 0.205(3) Uani 1 6 d DS TU P
N2 N 0.0000 0.0000 0.274(6) 0.2378(7) Uani 0.5 6 d DS TU P
C1 C 0.3333 0.6667 0.539(3) 0.305(3) Uani 1 6 d DS TU P
C2 C 0.0000 0.0000 0.205(6) 0.6338(7) Uani 0.5 6 d DS TU P
loop_
_atom_site_aniso_label
_atom_site_aniso_U_11
_atom_site_aniso_U_22
_atom_site_aniso_U_33
_atom_site_aniso_U_23
_atom_site_aniso_U_13
_atom_site_aniso_U_12
Bi01 0.0442(2) 0.0442(2) 0.0384(3) 0.000 0.000 0.02208(12)
I002 0.0353(4) 0.0747(5) 0.0591(5) 0.000 0.000 0.0177(2)
I003 0.0618(5) 0.0895(5) 0.0725(5) -0.01301(17) -0.0260(3) 0.0309(2)
N1 0.205(2) 0.205(2) 0.205(3) 0.000 0.000 0.1026(12)
N2 0.2378(6) 0.2378(6) 0.2378(9) 0.000 0.000 0.1189(3)
C1 0.305(2) 0.305(2) 0.305(3) 0.000 0.000 0.1525(12)
C2 0.6338(6) 0.6338(6) 0.6338(9) 0.000 0.000 0.3169(3)
loop_
_atom_type_symbol
_atom_type_description
_atom_type_scat_dispersion_real
_atom_type_scat_dispersion_imag
_atom_type_scat_source
Bi Bi -4.1077 10.2566 'International Tables Vol C Tables 4.2.6.8 and 6.1.1.4'
N N 0.0061 0.0033 'International Tables Vol C Tables 4.2.6.8 and 6.1.1.4'
I I -0.4742 1.8119 'International Tables Vol C Tables 4.2.6.8 and 6.1.1.4'
C C 0.0033 0.0016 'International Tables Vol C Tables 4.2.6.8 and 6.1.1.4'
H H 0.0000 0.0000 'International Tables Vol C Tables 4.2.6.8 and 6.1.1.4'
loop_
_geom_angle_atom_site_label_1
_geom_angle_atom_site_label_2
_geom_angle_atom_site_label_3
_geom_angle
_geom_angle_site_symmetry_1
_geom_angle_site_symmetry_3
I002 Bi01 I002 83.705(18) . 2_665
I002 Bi01 I002 83.705(18) 3_565 2_665
I002 Bi01 I002 83.705(18) . 3_565
I003 Bi01 I002 91.293(15) 3_565 .
I003 Bi01 I002 91.293(15) 3_565 2_665
I003 Bi01 I002 173.27(3) . .
I003 Bi01 I002 91.294(15) . 3_565
I003 Bi01 I002 91.293(15) 2_665 .
I003 Bi01 I002 91.292(15) 2_665 3_565
I003 Bi01 I002 173.27(3) 3_565 3_565
I003 Bi01 I002 173.27(3) 2_665 2_665
I003 Bi01 I002 91.293(15) . 2_665
I003 Bi01 I003 93.32(3) 2_665 3_565
I003 Bi01 I003 93.32(3) 2_665 .
I003 Bi01 I003 93.32(3) 3_565 .
Bi01 I002 Bi01 79.21(2) 16_556 .
N2 N2 C2 0.000(6) 16_556 .
C2 N2 N2 180.00(7) 16_556 16_556
C2 N2 C2 180.0 16_556 .
N2 C2 N2 0.000(8) 16_556 .
loop_
_geom_bond_atom_site_label_1
_geom_bond_atom_site_label_2
_geom_bond_distance
_geom_bond_site_symmetry_2
Bi01 I002 3.2420(8) .
Bi01 I002 3.2420(8) 3_565
Bi01 I002 3.2420(8) 2_665
Bi01 I003 2.9580(7) 2_665
Bi01 I003 2.9581(7) .
Bi01 I003 2.9580(7) 3_565
I002 Bi01 3.2419(8) 16_556
N1 C1 1.468(10) .
N2 N2 1.1(2) 16_556
N2 C2 0.4(2) 16_556
N2 C2 1.500(10) .
C2 N2 0.4(2) 16_556
loop_
_refln_index_h
_refln_index_k
_refln_index_l
_refln_F_squared_meas
_refln_F_squared_sigma
0 0 -4 424.96 13.74
0 0 4 456.9 13.6
0 0 -5 1.4 1.53
0 0 5 0.67 1.01
0 0 6 4098.53 48.62
0 0 -6 4328.13 50.82
0 0 -7 1.98 1.81
0 0 7 1.98 1.53
0 0 8 3.8 1.69
0 0 -8 5.24 2.06
0 0 -9 0.24 1.03
0 0 9 0.93 1.37
0 0 9 0.59 0.63
0 0 -10 1082.94 30.65
0 0 10 1134.57 32.34
0 0 -11 8.33 4.79
0 0 -11 7.2 3.62
0 0 11 18.37 3.98
0 0 11 9.67 4.55
0 0 11 2.19 2.91
0 0 -12 5500.78 75.95
0 0 12 5383.37 56.35
0 0 -12 6278.43 84.6
0 0 12 5353.23 74.97
0 0 12 6665.38 88.8
0 0 13 0.77 1.27
0 0 13 1.85 0.98
0 0 13 6.6 3.48
0 0 -13 3.97 3.01
0 0 -13 3.2 2.46
0 0 -14 130.18 12.45
0 0 14 177.48 14.45
0 0 -14 202.17 15.98
0 0 14 172.48 10.65
0 0 14 234.42 17.48
0 0 15 2.85 1.9
0 0 15 1.03 0.46
0 0 15 0.03 0.77
0 0 -15 1.55 1.17
0 0 -15 3.76 2.44
0 0 -16 155.98 13.98
0 0 -16 203.41 16.79
0 0 16 168.33 10.83
0 0 16 183.78 15.83
0 0 17 9.68 2.77
0 0 17 5.97 2.89
0 0 -17 13.82 4.59
0 0 -17 14.25 4.28
0 0 -17 5.09 3.03
0 0 17 14.8 5.13
0 0 -18 769.29 28.34
0 0 18 679.78 23.24
0 0 18 715.57 33.29
0 0 19 4.8 1.65
0 0 19 8.07 3.84
0 0 -19 4.48 1.99
0 0 -19 2.73 0.98
0 0 20 128.89 14.43
0 0 -20 125.38 11.65
0 0 -20 99.34 12.04
0 0 20 122.66 10.28
0 0 21 3.35 1.87
0 0 21 7.18 2.35
0 0 -21 2.1 1.99
0 0 -21 5.3 2.28
0 0 22 260.73 22.04
0 0 -22 260.52 17.35
0 0 23 3.01 2.44
0 0 -23 3.31 1.75
0 0 -23 1.85 0.83
0 0 -24 103.89 12.46
0 0 24 136.8 16.67
0 0 -24 121.76 12.21
0 0 25 1.06 1.84
0 0 -25 0.67 1.8
0 0 -25 5.62 2.8
0 0 -25 5.96 2.34
0 0 26 75.99 12.52
0 0 -26 67.08 9.07
0 0 -27 1.27 2.36
0 0 27 0.18 2.22
0 0 28 3.35 2.73
0 0 -28 3.75 3.16
0 0 -29 7.63 5.24
1 -1 -2 450.44 8.3
-1 0 2 441.97 8.77
-1 0 -2 449.38 8.62
0 1 3 511.9 7.66
0 1 3 550.61 7.32
1 0 -3 377.11 13.62
1 0 3 586.97 13.6
-1 0 3 618.38 12.41
0 -1 -3 627.22 13.92
0 -1 -3 508.57 6.52
0 1 3 501.51 13.06
-1 1 3 601.04 12.88
0 1 -3 544.02 12.06
1 0 3 501.09 12.6
0 -1 3 536.84 9.34
-1 1 -3 544.57 9.27
-1 0 -3 610 10.79
1 -1 3 558.93 10.28
1 0 3 584.51 11.46
1 -1 -3 587.04 10.18
1 0 -4 1.87 0.94
-1 0 -4 2.92 0.75
0 1 4 4.02 0.79
0 1 -4 3.13 0.95
-1 1 4 2.78 0.97
-1 1 -4 2.63 0.78
1 0 4 2.35 0.97
1 -1 4 2.77 0.7
0 -1 -4 2.41 0.87
1 0 4 2.79 1.12
1 0 4 5.51 1.08
0 -1 4 2.86 0.97
-1 0 -4 4.21 0.79
0 1 -4 2.81 0.82
0 1 4 2.9 1.2
0 -1 -4 3.39 0.59
-1 0 4 2.13 0.74
1 -1 -4 3.8 0.93
-1 0 -4 3.66 0.6
1 0 5 519.66 16.63
0 1 -5 454.42 11.81
0 -1 -5 523.78 10.18
0 1 5 451.95 10.19
1 0 -5 602.35 14.07
1 0 5 413.25 13.17
1 -1 5 532.1 14.13
-1 1 -5 503.81 12.79
0 1 5 376.93 14.01
-1 1 -5 522.11 7.23
0 1 -5 515.78 14.92
-1 0 -5 464.43 10.63
-1 1 5 565.97 14.87
-1 0 5 526.5 12.79
1 0 -5 373.51 15.95
-1 0 -5 575.89 8.57
1 0 5 526.12 11.18
0 -1 5 424.37 12.94
-1 0 -5 523.27 11.46
1 0 5 450.83 12.61
0 -1 -5 546.34 15.64
0 -1 -5 497.24 7.99
1 -1 5 509.18 12.18
1 -1 6 247.76 9.67
-1 1 -6 282.96 9.2
0 -1 6 190.3 9.92
-1 1 -6 258.72 6.01
0 -1 -6 256.31 11.65
-1 1 -6 239.88 10.16
1 0 -6 181.19 12.04
1 0 6 232.22 10.4
1 0 6 248.07 8.65
1 0 6 231.44 12.21
0 -1 -6 259.54 8.26
-1 0 -6 280.45 6.89
0 1 -6 228.87 11.2
-1 0 -6 256.86 8.76
-1 1 6 244.18 10.68
1 -1 -6 237.66 9.85
-1 1 -6 296.34 9.62
0 1 6 175.64 10.47
-1 0 6 252.16 9.84
1 0 6 183.48 9.32
1 0 -6 275.2 10.59
0 1 -6 207.23 9.12
1 -1 6 251.99 11.06
-1 0 -6 197.81 8.42
1 -1 7 91.6 6.52
0 1 7 110.2 6.86
0 -1 -7 91.06 7.57
-1 1 -7 104.99 5.94
1 0 7 84.8 8.04
0 -1 7 69.48 6.59
1 0 7 92.81 6
-1 0 7 89.66 6.51
1 0 -7 103.28 7.51
0 1 -7 77.71 7.13
0 1 7 63.9 6.75
-1 1 -7 102.2 4.4
-1 0 -7 94.42 5.76
1 -1 7 97.05 7.48
1 -1 -7 76.97 6.56
1 0 7 95.94 7.23
1 0 7 63.36 5.68
0 -1 -7 90.46 5.54
-1 1 7 91.83 7.14
1 0 -7 73.58 8.06
-1 1 -7 89.03 6.95
-1 0 -7 68.35 5.47
-1 1 -7 113.24 6.4
0 1 -7 72.93 5.96
0 1 -8 137.08 8.92
0 -1 -8 169.77 8.58
1 -1 -8 138.65 9.24
-1 0 8 149.42 9.01
0 -1 8 143.52 9.98
-1 1 -8 201.81 9.1
-1 1 -8 182.14 6.76
1 0 8 158.18 11.94
1 -1 8 178.97 11.3
1 0 -8 143.93 11.39
0 1 8 129.91 10.18
1 0 8 124.71 8.41
-1 0 -8 110.93 7.91
0 1 -8 157.37 10.87
-1 0 -8 176.07 8.41
-1 1 8 154.66 9.93
0 1 8 206.19 10.69
-1 1 -8 211.09 9.13
1 -1 8 157.89 9.35
1 0 -8 185.87 11.08
-1 1 -8 157.87 10.27
1 0 8 192.08 11.19
0 -1 -8 163.9 10.52
-1 1 -9 10.46 1.74
-1 0 -9 4.74 1.73
1 0 -9 8.43 3.1
0 1 9 7.29 2.52
1 0 9 6.09 2.62
-1 0 9 7.24 2.15
-1 1 -9 9.36 2.63
1 0 9 7.76 2.25
0 -1 -9 8.41 2.37
0 1 9 9.39 2.58
1 0 -9 7.91 2.46
1 -1 -9 5.61 2
0 -1 -9 7.02 1.92
-1 0 -9 9.76 2.11
1 -1 9 8.03 2.21
0 1 -9 8.68 2.65
-1 1 9 9.02 2.46
-1 1 -9 7.32 2.13
0 1 -9 5.99 1.87
1 0 9 14.72 3.05
1 -1 9 7.82 2.53
0 -1 9 7.72 2.57
-1 0 10 525.4 19.66
0 1 -10 585.56 24.65
-1 1 10 539.21 20.61
-1 1 -10 579.2 20.92
0 -1 10 632.81 23.29
1 0 10 547.34 18.99
-1 0 -10 653.12 18.17
1 0 10 786.41 25.35
0 -1 -10 660.02 20.02
1 0 10 573.61 25.86
1 0 -10 572.72 24.43
-1 1 -10 678.83 15.4
0 -1 -10 653.85 23.5
1 -1 10 663.34 25.46
-1 0 -10 479.6 18.06
0 1 10 568.86 23.04
0 1 10 826.05 26.25
1 -1 -10 484.69 18.9
1 -1 10 607.65 21.03
-1 1 -10 587.11 23.36
1 0 -10 691.8 25.81
0 1 -10 576.9 21.05
0 -1 -11 991.2 29.41
1 -1 11 846.31 30.64
1 0 11 1060.67 30.51
1 0 11 788.57 23.57
-1 0 -11 895.64 22.46
1 -1 11 834.68 26
1 0 -11 870.71 31.39
0 -1 -11 911.38 25.26
-1 1 -11 909.07 19.09
1 -1 -11 597.7 22.08
0 1 11 1120.69 34.47
-1 1 -11 773.21 25.84
0 -1 11 851.27 28.91
0 1 -11 786.74 30.03
-1 1 -11 750.12 28.16
0 1 11 781.52 28.26
1 0 -11 961.68 32.1
1 0 11 799.64 32.22
-1 1 11 692.04 24.54
-1 0 -11 705.64 23.46
0 1 -11 847.77 27.18
-1 0 11 657.61 23.12
0 -1 11 934.24 29.94
-1 0 12 48.39 6.58
1 -1 12 66.12 7.58
1 0 -12 72.05 9.43
1 0 -12 76.77 9.36
0 -1 12 70.92 8.64
0 1 -12 64.86 7.62
1 0 12 59.75 6.53
0 -1 -12 74.78 8.38
-1 0 -12 67.33 6.42
0 -1 -12 62.67 7.1
1 0 12 69.88 9.56
-1 1 -12 66.01 5.42
-1 0 -12 57.79 6.96
0 -1 12 74.18 8.53
1 -1 -12 46.04 6.31
-1 1 12 79.52 10.28
-1 1 -12 62.63 8.34
-1 1 -12 58.31 7.38
1 -1 12 60.1 8.56
0 1 12 75.52 9.24
0 1 12 81 9.38
1 0 12 89.03 9.15
-1 1 12 50.43 6.95
0 1 -12 56.61 8.37
1 -1 -12 78.11 10.3
1 -1 13 16.9 4.01
0 -1 13 19.02 4.55
0 -1 13 23.55 5.11
-1 1 -13 18.88 2.99
0 1 13 16.29 4.31
-1 1 13 12.31 3.58
0 1 13 23.73 5.39
-1 0 13 12.12 3.22
-1 1 -13 15.36 3.82
0 1 -13 14.66 4.71
1 0 13 24.62 5.12
1 -1 -13 11.48 3.43
1 0 -13 23.04 5.44
-1 1 -13 18.92 4.59
0 -1 -13 18.99 4.39
-1 0 -13 15.57 3.13
0 -1 -13 20.82 4.49
1 0 13 20.91 5.48
-1 0 -13 14.34 3.44
0 1 -13 15.85 3.84
1 0 -13 15.98 4.4
-1 0 13 25.64 5.79
1 0 13 15.18 3.28
1 -1 13 17.13 4.88
1 -1 -13 20.5 5.38
-1 1 13 21.55 5.59
-1 0 14 10.34 3.94
1 0 14 12.42 3.72
-1 1 14 7.99 3.47
1 -1 14 7.37 3.27
0 1 14 8.75 3.35
1 -1 14 10.94 3.16
1 0 14 10.78 3.22
1 0 -14 7.02 3.2
-1 1 -14 9.78 2.53
0 1 14 8.03 3.54
1 0 14 10.94 4.33
0 1 -14 9.8 3.31
-1 0 14 4.78 2.19
-1 0 -14 9.57 3.68
1 -1 -14 7.01 2.75
1 0 -14 9.8 3.46
0 -1 14 6.71 2.62
0 1 -14 12.38 4.34
-1 0 -14 10.38 3.1
-1 0 -14 6.84 2.73
-1 1 14 8.21 3.43
-1 1 -14 10.3 4.29
1 -1 -14 7.23 2.81
0 -1 -14 9.3 3.36
0 -1 14 6.85 2.71
-1 1 -14 6.98 2.98
-1 0 -15 448.92 21.33
1 -1 -15 681.25 32.9
-1 0 -15 584.07 27.9
-1 1 15 753.65 35.13
0 -1 15 665.33 29.83
-1 0 15 600.97 17.87
0 -1 15 624.01 27.73
1 -1 15 593.22 29.98
0 1 15 575.96 27.99
1 0 15 718.98 29.59
-1 0 -15 554.3 20.62
-1 0 15 492.91 23.88
0 -1 -15 651.8 26.5
-1 1 -15 555.52 26.71
1 0 -15 534.72 26.42
0 1 -15 600.97 26.54
-1 0 15 802.45 35.34
1 -1 15 614.34 26.68
0 -1 -15 670.9 32.39
-1 1 -15 587.1 18.65
1 -1 -15 386.25 20.25
0 1 -15 536.28 27.55
-1 1 15 458.62 23.44
-1 1 -15 520.11 24.85
1 0 15 525.07 21.45
1 0 -15 682.45 30.63
0 1 15 714.94 32.22
1 0 15 602.24 30.66
0 -1 -16 7.33 3.67
1 -1 16 5.86 2.97
0 1 16 5.42 3.05
0 1 -16 16.56 4.82
0 1 -16 8.39 3.22
0 1 16 10.99 3.69
-1 0 16 6.85 2.75
-1 0 -16 19.67 3.79
-1 0 -16 3.46 1.87
1 0 16 4.94 2.79
0 1 16 7.68 3.01
1 0 -16 8.27 3.49
-1 0 16 6.12 1.69
-1 1 -16 7.15 2.8
1 -1 -16 4.41 1.82
-1 1 16 10.29 3.45
-1 0 -16 5.43 2.07
1 -1 -16 11.21 4.24
-1 1 -16 7.4 3.31
-1 1 16 7.45 3.21
0 -1 16 6.31 2.4
-1 0 16 7.94 3.39
0 -1 16 6.94 2.53
0 -1 -16 6.03 2.23
1 0 -16 6.15 2.35
-1 1 -16 6.66 1.83
1 0 16 6.78 2.56
1 -1 16 10.31 4.09
1 0 16 9.79 3.16
0 1 -17 53.67 8.28
0 1 17 49.57 8.54
1 -1 17 53.22 8.3
-1 1 17 62.11 10.46
-1 1 -17 49.85 8.03
-1 0 -17 46.56 6.31
0 1 17 53.63 7.4
-1 0 -17 32.96 6.01
-1 0 -17 65.01 9.96
1 0 -17 45.48 8.18
-1 1 -17 44.6 8.01
1 0 17 47.08 6.7
-1 0 17 40.67 7.19
1 0 -17 57.33 9.13
-1 1 17 38.13 7.14
0 -1 17 61.77 9.58
-1 1 -17 54.34 6.18
-1 0 17 51.86 5.4
0 1 -17 48.27 8.65
0 1 17 58.66 9.39
-1 0 17 71.6 11.05
1 0 17 62.18 9.15
1 0 17 51.1 9.25
1 -1 -17 51.36 9.2
1 -1 -17 31.49 6.14
0 -1 17 50.06 8.09
0 -1 -17 47.16 7.34
1 -1 17 46.81 8.58
0 -1 -17 58.14 8.38
1 0 18 3.15 2.54
-1 0 -18 4.49 2.41
0 -1 -18 2.33 2.07
1 -1 18 3.76 2.63
0 -1 -18 4.29 2.44
-1 0 -18 2.81 1.75
0 1 18 4.99 2.96
1 0 -18 4.02 3.02
0 1 -18 3.85 2.7
-1 0 -18 5.34 2.67
0 1 -18 3.22 2.29
1 0 18 6.02 2.95
0 1 18 2.39 2.01
1 -1 -18 6.07 2.85
0 1 18 5.04 2.29
1 -1 18 6.03 3.45
0 -1 18 2.02 1.78
1 0 18 3.56 1.68
-1 1 -18 1.2 1.65
-1 1 18 3.95 2.52
1 0 -18 2.61 1.53
-1 1 -18 4.94 1.95
-1 0 18 3.98 1.63
-1 0 18 5.77 3.1
0 1 19 27.25 5.37
0 -1 -19 34.01 6.61
0 -1 -19 22.01 5.16
-1 0 19 24.69 3.93
1 -1 -19 16.53 4.46
1 -1 19 23.92 6.44
0 1 -19 21.7 5.94
0 1 19 25.12 6.28
1 0 19 23.98 6.56
-1 0 19 25.79 6.02
1 0 -19 20.11 5.64
1 0 19 20.35 4.35
-1 1 19 23.14 6.27
-1 0 -19 18.53 4.78
-1 0 -19 21.68 4.42
-1 1 -19 21.67 5.68
1 0 19 26.32 6.45
0 -1 19 22.78 5.68
-1 1 -19 22.77 4.15
-1 0 -19 38.82 7.74
1 -1 19 29.65 6.55
0 -1 -20 138.15 13.42
1 0 20 104.58 13.68
-1 1 -20 96.37 12.25
-1 1 20 97.44 9.67
-1 0 -20 68.74 9.22
0 -1 -20 101.75 11.27
-1 0 20 108.26 8.25
-1 1 -20 98.82 8.87
-1 0 -20 92.96 9.54
-1 0 20 94.07 12.12
0 1 20 95.8 10.21
0 1 -20 115.63 10.57
0 1 -20 90.8 12.67
1 0 -20 82.39 11.46
-1 0 -20 154.71 15.86
1 -1 20 113.82 14.23
0 1 20 102.93 13.54
1 0 20 97.56 10.35
0 -1 20 113.61 13.52
-1 1 20 88.61 11.96
-1 1 -20 143.5 12.08
-1 0 -21 71.66 8.61
1 0 -21 58.58 9.34
-1 1 21 67.87 8.09
-1 0 21 60.72 9.71
0 -1 -21 66.83 9.22
0 1 21 73.04 11.62
-1 1 -21 95.63 10.06
-1 0 -21 97.04 12.9
-1 0 -21 90.31 9.05
1 0 21 80.8 12.43
0 1 21 68.54 8.76
-1 0 -21 38.59 7.08
0 1 -21 63.29 10.1
-1 0 21 78.5 7.22
-1 1 21 64.87 10.29
0 -1 21 70 10.59
-1 1 -21 70.24 7.52
-1 1 -21 57.69 9.33
1 -1 21 70.46 11.28
0 -1 -21 87.92 10.82
0 1 -21 77.6 8.49
1 -1 -21 72.43 10.29
1 -1 22 80.46 12.2
0 -1 22 73.72 11.22
-1 1 -22 78.24 8.18
1 0 22 83.59 12.97
1 -1 -22 84.02 11.12
-1 0 -22 103.84 13.2
-1 1 -22 101.61 10.65
-1 0 22 71.76 10.99
0 1 22 80.45 9.63
-1 0 -22 73.31 8.75
0 1 22 83.24 12.78
-1 1 22 74.46 11.59
1 -1 -22 122.04 13.12
-1 0 -22 99.06 9.75
0 -1 -22 99.54 11.69
-1 1 22 72.16 8.44
-1 1 -22 65.06 10.22
0 -1 -22 74.15 9.83
1 0 -22 64.06 10.29
0 1 -22 70.67 11.17
0 1 -22 83.05 8.84
1 0 23 41.74 8.91
0 1 -23 39.88 6.2
0 -1 23 35.62 8.14
-1 1 -23 33.13 7.31
-1 0 -23 37.81 6.48
-1 1 23 40.45 8.42
0 1 -23 31.14 7.32
0 1 23 38.78 8.66
1 -1 -23 54.2 8.92
0 -1 -23 48.19 8.46
-1 0 23 36.75 7.97
0 -1 -23 38.02 7.22
1 -1 23 37.72 8.62
-1 1 -23 40.66 5.88
1 0 -23 32.35 7.26
-1 0 -23 57.4 10.21
1 -1 -23 38.52 7.65
1 -1 24 -0.44 1.36
-1 1 -24 2.66 2.22
0 -1 -24 0.82 0.92
0 1 24 1.43 2.53
1 0 24 4.08 1.62
1 -1 -24 2.61 2.05
-1 1 24 4.04 3.33
1 -1 -24 4.19 2.57
-1 0 -24 6.66 3.33
1 0 -24 3.13 1.89
0 -1 -24 2.53 2.53
-1 0 -24 0.15 0.4
0 1 -24 2.2 1.48
-1 1 -24 2.9 1.6
0 1 -24 -0.77 1.99
1 0 -24 2.35 1.9
0 -1 24 -0.67 0.81
-1 0 24 1.38 1.72
0 1 -25 31.72 5.82
1 -1 -25 47.08 8.2
1 0 25 34.34 8.8
1 -1 -25 32.86 7.17
-1 0 -25 28.36 5.64
-1 0 25 29.16 7.37
-1 1 -25 33.08 5.46
-1 1 -25 25.82 6.21
1 -1 25 32.73 8.17
-1 1 25 28.44 7.32
1 0 -25 38.94 7.4
-1 0 -25 48.97 9.39
0 -1 -25 42.86 8.12
0 -1 25 38.52 8.98
0 1 25 32.22 8.25
0 -1 -25 34.09 7.02
0 1 -25 25.38 6.67
1 0 -25 20.8 5.54
0 -1 -26 4.7 1.75
0 -1 26 0.84 1.57
0 -1 -26 5.66 3
-1 1 -26 6.84 4.48
-1 0 -26 5.85 2.7
0 1 -26 4.04 2.97
-1 0 -26 9.11 3
1 -1 26 12.98 5.54
-1 0 26 6.03 4.3
-1 1 -26 4.27 2.63
1 0 -26 5.37 2.87
1 0 -26 7.6 3.14
1 -1 -26 7.93 3
1 0 26 7.49 3.99
-1 1 26 5.91 2.78
1 -1 -26 4.77 2.58
0 1 26 8.51 3.87
1 -1 -27 70.43 10.06
1 -1 27 51.22 10.71
0 -1 -27 47.92 8.52
0 1 27 41.77 10.05
1 0 -27 34.91 7.99
0 1 -27 31.04 7.23
1 0 27 51.43 11.25
0 -1 -27 58.28 9.29
-1 1 -27 73.18 12.43
-1 1 -27 32.09 7.38
-1 0 27 44.81 9.91
0 -1 27 51.22 10.45
1 -1 -27 30.94 5.8
1 -1 -27 40.5 7.44
-1 0 -27 60.42 10.69
-1 1 27 39.86 9.37
-1 1 -28 -0.28 1.98
-1 0 -28 -7.81 4.31
0 1 -28 2.28 2.28
0 -1 -28 1.99 1.32
1 -1 28 -2.77 4.11
-1 0 28 -2.58 2.47
-1 1 28 -2.49 3.06
1 -1 -28 1.69 1.47
0 -1 28 -1.88 2.42
1 -1 -28 2.41 1.86
-1 1 -28 -1.74 2.16
-1 1 -29 2.97 2.09
0 -1 29 1.76 2.68
-1 0 29 -1.64 2.03
0 1 -29 2.72 3.32
-1 0 -29 0.04 2.36
1 0 -29 -0.7 2.32
-1 0 -30 5.87 3.74
0 1 -30 4.88 0.87
1 1 0 94.81 4.45
2 -1 0 99.34 4.24
1 1 0 84.17 4.02
1 1 0 83.37 2.86
-1 2 0 81.2 4.01
1 -2 0 92.56 3.62
-1 2 0 87.63 3.35
2 -1 0 106.15 4.67
-2 1 0 87.87 4.4
2 -1 0 92.27 3.85
1 1 0 87.9 4.08
1 -2 0 88.4 4.86
-1 -1 0 94.36 5.08
-1 -1 0 85.8 2.9
1 -2 1 2.14 0.68
1 1 -1 2.53 0.74
2 -1 -1 0.81 0.3
-1 -1 -1 0.59 0.47
1 -2 -1 2.08 0.61
-1 -1 1 2.14 0.71
-2 1 1 1.31 0.36
1 1 -1 3.14 0.87
1 1 1 5.54 0.98
1 1 -1 0.21 0.09
1 -2 1 2.08 0.76
1 1 -1 0.54 0.47
-1 2 1 0.01 0.17
1 1 1 -0.02 0.27
-1 -1 -1 1.81 0.53
2 -1 -1 0.6 0.43
1 1 1 0.71 0.37
2 -1 1 0.51 0.34
-1 2 -1 7.63 1.21
2 -1 1 1.03 0.46
-2 1 -1 0.62 0.42
-1 -1 -1 4.03 1.21
-1 2 1 0.61 0.36
-1 -1 -1 2.85 0.67
-2 1 1 2.18 0.66
-1 2 -1 0.59 0.41
-1 2 -1 1.69 0.54
1 -2 -1 1.4 0.61
2 -1 1 0.42 0.31
1 1 1 1.27 0.39
-1 -1 1 0.48 0.23
1 -2 2 191.51 5.31
1 -2 2 204.33 5.72
1 1 2 186.92 5.71
1 -2 2 187.26 7.52
1 -2 -2 214.7 7.26
-1 2 -2 177.77 5.18
1 1 2 170.98 5.18
1 1 2 155.42 7.9
2 -1 -2 191.5 4.57
-1 2 2 187.95 6.34
1 1 -2 199.14 5.5
1 1 -2 185.7 6.87
-1 2 -2 171.69 6.47
1 1 -2 180.36 7.58
1 -2 -2 181.58 6.65
2 -1 -2 197.66 7.06
2 -1 2 180.67 6.01
-1 -1 -2 197.61 7.77
-1 -1 2 178.12 5.14
-2 1 2 185.91 7.13
1 1 2 178.57 5.82
-1 2 -2 172.16 5.96
1 1 2 173.28 5.79
-1 2 2 191.92 7.01
-2 1 -2 181.57 6.56
-1 -1 -3 1.4 0.72
1 1 3 0.88 0.44
-2 1 -3 0.92 0.63
1 1 3 -0.02 0.57
1 -2 3 1.58 0.55
2 -1 3 0.95 0.63
-1 -1 3 0.18 0.26
1 1 -3 2.58 1.1
1 1 -3 0.59 0.42
1 -2 3 0.71 0.24
1 1 3 0.9 0.52
1 -2 -3 1.18 0.58
2 -1 -3 0.55 0.5
2 -1 3 1.26 0.55
-1 2 3 0.71 0.49
2 -1 -3 1.16 0.7
-2 1 3 1.12 0.72
-2 1 -3 1.52 0.59
1 -2 3 0.35 0.4
-2 1 -4 727.7 13
1 1 -4 737.25 11.4
2 -1 4 755.04 9.06
1 1 -4 700.02 18.38
-1 -1 -4 758.65 16.61
2 -1 -4 797.23 16.52
-2 1 4 746.6 16.98
-1 2 4 673.75 7.79
1 -2 -4 681.65 13
2 -1 4 668.41 12.02
-1 2 4 809.01 17.81
-1 2 4 685.46 11.51
1 1 4 691.62 12.65
1 1 4 719.28 12.89
-1 -1 4 765.44 15.32
1 -2 4 749.34 13.44
1 1 4 559.86 18.78
-2 1 -4 711.05 14.92
1 -2 4 697.66 16.04
-1 2 4 788.97 17.35
-1 2 -4 688.32 14.76
2 -1 4 751.24 12.37
2 -1 -4 785.59 17.38
-2 1 -4 733.72 10.09
1 1 4 709.72 13.7
-1 2 5 0.89 0.52
2 -1 5 0.36 0.31
-2 1 -5 0.53 0.35
1 1 5 1.31 1.09
2 -1 5 4.82 0.97
1 1 5 0.08 0.17
-2 1 -5 0.62 0.33
-2 1 5 1.62 1.06
-1 -1 -5 -0.16 0.69
1 1 -5 0.6 0.94
1 -2 -5 1.98 0.58
-2 1 -5 0.77 0.34
2 -1 5 5.12 0.89
1 1 -5 -0.32 0.52
-1 2 -5 0.78 0.55
-1 2 5 0.93 0.3
2 -1 -5 2.26 1.69
1 1 5 0.21 0.33
-1 -1 5 0.35 0.07
-1 2 5 2.36 1.12
2 -1 6 3299.22 41.93
-1 2 6 3307.05 28.45
-1 -1 -6 3249.67 38.51
2 -1 -6 3102.25 41.85
2 -1 6 2985.48 27.21
-2 1 -6 3457.04 31.41
1 -2 -6 3316.09 20.95
1 1 6 3172.65 32.14
-1 -1 6 3092.04 30.49
-2 1 -6 3811.21 44.27
2 -1 6 3222.07 26.27
1 1 -6 2861.99 35
2 -1 6 3275.23 26.73
1 1 -6 2969.51 45.23
-2 1 -6 3215.12 28.67
1 1 6 3001.38 31.14
-1 2 6 3312.69 19.23
-2 1 -6 2993.83 31.99
1 -2 -6 3166.84 29.23
-2 1 6 3230.84 42.58
-1 2 6 3365.65 42.87
-1 2 -6 3079.16 36.28
1 -2 6 3225.67 35.08
2 -1 7 1.68 0.63
1 1 7 0.96 0.58
-1 2 7 0.41 0.35
-2 1 7 2.05 0.92
-1 -1 -7 0.68 0.92
2 -1 -7 -0.03 0.19
-2 1 -7 1.72 0.67
1 1 7 1.01 0.53
2 -1 7 0.88 0.71
2 -1 7 0.53 0.12
1 -2 -7 1.85 0.48
1 1 7 1.13 1.22
1 1 -7 0.5 1.08
-2 1 -7 -0.03 0.69
-2 1 -7 0.25 0.33
-2 1 -7 0.58 0.1
2 -1 7 0.18 0.23
1 1 7 0.28 0.28
-1 2 -7 2.21 1.09
1 -2 -7 2.6 0.78
-1 -1 7 -0.24 0.28
-1 -1 -7 0.97 0.74
2 -1 -7 2.92 1.99
1 1 -7 0.53 0.49
1 -2 7 0.96 0.23
-2 1 8 7.45 1.99
1 -2 8 7.9 2.18
-2 1 -8 7.75 1.52
1 -2 -8 6.58 1.49
1 1 8 11.54 2.2
1 1 -8 10.12 2.39
-2 1 -8 12.23 1.97
-1 -1 -8 4.87 0.71
-2 1 -8 7.28 1.94
2 -1 8 9.11 1.57
-1 -1 8 5.97 1.68
2 -1 -8 8.89 2.29
-2 1 -8 7.01 2.11
-1 2 8 5.89 2.05
1 1 8 7.25 2.08
1 1 8 4.61 2.64
-1 2 -8 5.55 1.78
-1 -1 -8 6.87 1.91
-1 2 -8 7.21 2.01
2 -1 -8 4.91 1.98
2 -1 8 5.76 1.53
1 1 -8 7.45 2.58
2 -1 8 6.62 2.17
-2 1 8 7.59 2.37
1 -2 8 6.72 1.89
1 -2 -8 7.6 1.3
-1 -1 -8 6.5 1.7
-1 -1 -9 2.51 1.73
2 -1 9 2.32 1.03
1 1 -9 0.52 0.64
1 -2 9 0.31 1.15
-2 1 -9 1.73 0.87
1 -2 -9 0.81 0.58
-2 1 9 2.78 1.84
1 1 -9 2.31 1.66
-1 2 -9 1.15 0.77
-1 -1 9 2.08 1.08
-1 2 -9 1.07 0.5
-2 1 -9 0.74 0.68
2 -1 9 1.19 0.84
-1 -1 -9 1.41 1.38
2 -1 -9 6.58 2
-2 1 9 0.87 1.17
1 -2 9 0.3 0.83
-2 1 -9 0.83 1.15
-1 2 -9 0.09 0.74
1 1 9 1.67 1.78
2 -1 9 1.29 1.07
-1 2 9 1.43 1.4
2 -1 -9 -0.03 0.64
-2 1 -9 0.95 0.67
-1 2 -9 -0.26 0.55
1 1 9 1.17 0.26
1 -2 -9 2.49 1.06
2 -1 -10 400.49 18.76
1 1 10 663.34 20.92
-1 2 10 692.65 21.84
-2 1 10 538.15 19.91
-1 2 -10 545.38 20.6
-2 1 -10 497.16 20.38
-1 2 10 480.13 20.38
-1 -1 10 433.04 16.69
2 -1 10 508.51 16.81
2 -1 -10 623.08 21.56
1 1 -10 497.99 24.06
-1 2 -10 670.56 21.1
1 1 10 532.84 25.78
-1 2 -10 581.82 11.24
-2 1 -10 666.09 21.1
-1 -1 -10 592.75 18.34
1 -2 10 564.89 21.26
1 1 -10 585.13 21.31
1 -2 -10 509.02 14.29
2 -1 10 577.15 23.84
-1 -1 -10 540.29 19.03
-2 1 -10 541.66 13.91
-1 2 -10 639.86 14.24
1 -2 -10 573.82 13.91
1 -2 10 586.75 20.37
-2 1 -10 682.49 16.87
-1 2 11 0.17 1.22
-1 -1 -11 1.98 1.42
1 1 11 -1 1.58
2 -1 -11 0.13 1.25
1 1 11 0.05 0.87
-1 -1 -11 0.17 0.49
-1 -1 11 0.79 0.47
2 -1 11 0.09 1.01
2 -1 11 0.85 1.09
1 -2 -11 0.04 0.27
1 -2 -11 0.1 0.05
1 -2 11 -0.5 1.06
-1 2 -11 -0.03 0.36
-1 2 -11 -0.43 0.46
2 -1 -11 -0.6 1.5
-1 2 -11 0.03 0.42
1 1 11 -0.02 0.42
1 1 -11 0.68 1.24
-2 1 -11 0.09 0.36
1 1 -11 0.05 1.06
1 -2 11 0.46 0.75
-2 1 -11 0.92 0.36
-1 2 11 -0.04 0.52
-2 1 -11 2.03 1.3
-2 1 11 0.83 0.52
-1 -1 -12 16.41 3.56
1 1 12 25.21 4.93
-2 1 -12 23.47 3.49
-1 -1 12 15.17 3.39
1 1 -12 15.54 4.71
2 -1 12 16.43 3.41
1 1 12 20.22 4.52
-2 1 12 17.88 4.08
-1 2 -12 20.09 4.58
2 -1 12 20.22 4.97
1 1 12 21.63 5.24
-1 2 -12 22.65 2.64
-2 1 -12 20.81 4.58
2 -1 -12 22.15 4.74
1 -2 12 18.86 3.99
-1 2 12 22.24 4.63
1 -2 -12 15.61 2.73
1 -2 -12 18.93 3.04
1 -2 12 17.6 4.05
2 -1 -12 13.2 3.89
-1 2 12 15.95 3.98
1 1 -12 23.23 4.76
-2 1 -12 19.31 2.91
-1 2 13 1.18 1.48
1 -2 -13 -0.12 0.79
-1 -1 13 -0.83 1.18
-1 -1 -13 0.2 0.27
2 -1 13 -0.52 0.99
-2 1 13 0.12 0.46
-1 2 -13 0.35 1
-1 2 -13 0.1 0.32
-2 1 -13 -0.62 1.31
1 -2 -13 0.72 0.42
-2 1 -13 0 0.28
2 -1 -13 -0.2 1.3
1 -2 13 1.42 1.3
1 -2 13 -0.01 0.16
-1 2 13 0.5 0.59
1 1 -13 -0.6 0.48
1 1 13 1.73 1.87
1 1 13 -0.08 0.65
-2 1 -13 -0.41 0.92
2 -1 -13 0.75 1.15
2 -1 13 0.99 0.42
1 1 13 1.64 1.84
1 1 -13 2.53 1.85
-2 1 -14 84.54 9.45
-2 1 14 73.9 8.78
1 -2 14 87.96 9.5
2 -1 14 73.04 8.03
-1 -1 14 77.76 8.67
2 -1 14 78.65 10.87
-1 2 14 59.05 8.35
-2 1 -14 80.74 6.45
1 1 14 85.39 11.24
-1 2 -14 89.49 5.96
1 -2 -14 81.15 7.19
1 1 14 88.69 10.33
1 -2 -14 90.61 12.34
-1 2 14 106.49 11.67
-1 2 -14 70.75 9.38
2 -1 -14 97.22 10.91
-2 1 -14 104.59 8.03
1 1 -14 91.59 9.68
-1 -1 -14 72.63 8.02
1 -2 14 59.93 8.93
2 -1 -14 58.29 8.12
-2 1 14 120.88 14.57
-1 2 -14 100.52 9.2
1 -2 -14 63.04 5.93
1 1 -14 75.14 10.57
-1 -1 14 92.77 11.39
1 1 14 85.01 9.74
2 -1 -15 2.49 2.49
2 -1 -15 4.32 2.4
1 1 15 -0.19 1.04
-2 1 15 0.78 2.84
-1 -1 15 3.48 2.34
-1 2 -15 0.55 1.37
-1 2 -15 0.53 0.45
1 -2 15 1.21 2.74
1 -2 15 1.19 0.73
1 -2 -15 2.68 1.65
-1 -1 -15 1.21 2.13
2 -1 15 0.75 0.64
1 1 15 3.58 2.68
1 -2 -15 -0.46 1.94
-2 1 -15 0.07 1.65
-1 -1 -15 2.68 1.99
-1 -1 15 2.64 2.34
-2 1 15 4.99 2.8
-1 2 -15 2.08 2.45
-1 2 15 0.78 0.48
-1 -1 -15 -0.05 1
1 1 -15 0.86 1.34
2 -1 15 -0.15 0.58
1 1 15 3.04 2.82
1 -2 -15 4.53 2.37
-2 1 -15 1.51 1.55
-2 1 -15 1 1.15
-1 2 15 3.01 2.96
1 1 -15 1.3 2
-2 1 -16 386.25 15.11
-1 -1 -16 398.93 19.84
-1 -1 -16 454.74 26.64
1 1 16 442.33 23.14
1 1 16 473.54 27.72
1 -2 -16 281.49 13.71
2 -1 -16 469.75 27.85
-1 -1 16 416.53 21.92
1 -2 -16 506.22 30.65
1 1 16 538.82 26.83
-1 2 -16 588.25 23.99
-1 2 -16 374.82 23.77
1 1 -16 409.12 25.82
-2 1 16 321.08 19.77
-1 -1 -16 392.63 20.08
-1 2 16 554.52 29.09
1 1 -16 507.9 25.58
2 -1 16 451.64 21.69
-2 1 -16 451.49 17.85
1 -2 16 450.24 26
2 -1 -16 336.32 20.14
2 -1 16 420.38 27.58
-1 2 16 346.96 21.7
-1 -1 16 538.5 29.31
-2 1 -16 460.51 23.47
-2 1 16 602.48 33.51
1 -2 16 425.97 22.86
-1 2 -16 458.74 14.74
1 1 17 1.05 1.15
1 -2 -17 1.82 1.39
-1 2 -17 -0.01 0.79
-2 1 -17 0.65 0.98
1 -2 17 0 1.47
-2 1 17 -0.19 0.63
1 1 -17 -1.49 3.31
2 -1 17 0.85 1.14
2 -1 17 1.18 1.35
1 1 17 0.5 1.43
-1 2 -17 1.8 2.48
1 1 17 0.65 0.36
-1 -1 -17 3.25 2.14
2 -1 -17 -0.6 1.46
-1 -1 -17 0.88 0.75
1 -2 17 -0.78 2.37
-2 1 -17 -0.41 0.61
-1 2 17 -1.21 2.88
1 1 -17 0.11 0.97
-1 -1 17 0.65 1.12
1 -2 -17 -0.12 1.61
-1 2 -17 -1.22 0.8
2 -1 -17 0.14 1.03
-1 2 17 0.46 1.87
1 1 18 214.83 19.28
2 -1 18 233.01 16.52
-1 2 -18 281.38 17.51
-2 1 -18 180.79 10.99
1 -2 18 225.2 18.96
-1 2 18 171.05 16.01
2 -1 -18 143.47 13.94
-1 -1 18 192.87 15.59
1 -2 -18 222.64 18.55
-1 2 -18 200.75 18.54
-1 -1 -18 179.92 14.46
-1 -1 -18 191.75 14.6
1 1 18 210.36 16.26
1 1 18 240.76 18.7
1 -2 18 210 17.17
2 -1 18 199.14 19.65
1 1 -18 201.47 18.7
-2 1 -18 189.56 15.34
1 1 -18 241.92 18.3
-2 1 18 148.49 14.28
-1 2 -18 218.02 10.9
1 -2 -18 103.74 9
-2 1 19 -0.24 1.11
1 1 19 -0.27 2.11
1 1 -19 -0.11 0.51
-2 1 -19 1.21 1.15
1 1 19 -0.62 2.55
-1 -1 19 -1.12 2.14
-1 2 19 -0.49 1.33
2 -1 19 1.75 1.57
1 1 -19 -0.26 1.38
-1 2 -19 1.28 0.63
2 -1 -19 0.06 1.2
1 -2 19 1.33 1.69
-1 2 -19 -0.27 1.46
-1 2 -19 0.84 1.22
1 -2 -19 -0.84 1.52
-1 -1 -19 -1.05 1.2
1 -2 -19 0.9 0.23
1 -2 -19 1.1 0.97
-1 -1 -19 -0.9 1.41
2 -1 19 -1.33 1.31
-2 1 -19 -0.09 1.26
1 1 19 1.63 1.41
-1 2 20 128.73 14.68
1 1 20 139.14 13.53
1 -2 20 145.94 16.02
1 -2 -20 88.38 8.42
2 -1 20 141.49 17.01
-1 2 -20 137.44 15.73
-1 -1 -20 149.13 13.94
-2 1 -20 227.69 21.01
-1 -1 20 131.73 13.73
2 -1 20 158.51 14.77
-1 -1 -20 127.54 12.48
-2 1 -20 129.51 9.94
-2 1 -20 170.45 12.49
1 1 20 150.36 17.03
1 -2 -20 144.26 15.12
1 -2 -20 167.26 12.58
1 1 -20 134.36 15.38
-1 2 -20 142.32 9.14
-2 1 20 112.52 13.08
2 -1 -20 91.32 11.35
-2 1 -20 120.75 12.71
1 1 20 163.93 16.52
-1 -1 -21 0.22 1.46
-1 2 21 -0.41 2.58
2 -1 21 0.54 1.06
1 -2 -21 2.46 2.89
-1 2 -21 0.68 0.9
-2 1 -21 3.88 3.18
-1 2 -21 1.14 2.96
1 -2 -21 0.84 1.22
-2 1 -21 0.99 0.31
1 1 21 0.27 1.51
1 1 -21 0.68 2.27
-2 1 21 1.4 2.16
2 -1 -21 1.79 1.28
1 -2 21 0.57 1.1
-1 -1 -21 1.6 0.59
1 1 21 1.83 2.44
-2 1 -21 -0.91 1.11
-2 1 -21 0.39 1.09
1 -2 -21 -1.04 1.76
-1 -1 21 -1.51 2.17
1 1 -22 70.3 11.13
-2 1 -22 111.9 14.93
-1 -1 -22 65.61 9.72
1 1 22 65.73 11.78
-1 2 22 69.05 9.82
-1 2 -22 69.46 10.91
-2 1 -22 93.6 9.7
-1 -1 -22 60.86 8.7
-1 2 -22 70.6 6.73
1 -2 -22 77.91 8.99
2 -1 -22 41.32 7.84
-2 1 -22 60.93 7.05
-2 1 22 56.86 9.76
-2 1 -22 48.96 8.08
-1 2 22 60.44 10.86
2 -1 22 68.92 12.25
1 -2 -22 42.2 6.13
1 -2 22 75.36 11.7
1 -2 -22 67.02 10.5
-1 -1 22 65.91 10.25
2 -1 23 2.5 0.95
-1 2 23 3.07 2.87
-1 2 -23 0.16 0.74
-2 1 -23 -3.99 3.09
-1 -1 -23 1.07 1.93
-1 -1 23 -1.22 2.2
-1 2 -23 -0.18 1.59
-2 1 -23 -0.1 0.62
1 1 23 2.04 1.67
1 -2 -23 -0.41 0.92
-1 -1 -23 0.07 1.15
1 -2 23 1.49 1.6
1 -2 -23 -0.36 1.89
-2 1 -23 0.16 1.41
1 -2 -23 -0.92 1.59
1 1 -23 -0.44 1.86
-2 1 23 -1.01 1.72
1 -2 -24 22.11 4.86
1 -2 -24 37.46 7.73
1 1 24 37.37 9.69
-1 -1 24 37.68 8.26
2 -1 24 44 9.93
-1 2 -24 35.97 7.79
1 -2 -24 40.23 6.47
1 1 -24 28.91 7.72
1 -2 24 32.74 8.24
-2 1 -24 35.41 5.67
-1 2 24 32.32 7.94
-2 1 -24 63.84 11.21
-2 1 24 27.86 7.07
-1 -1 -24 31.16 6.65
-1 -1 -24 41.45 7.92
-2 1 -24 26.89 5.81
-1 -1 -24 24.83 4.21
1 -2 -25 -1.12 1.42
-1 -1 -25 0.49 1.65
2 -1 25 0.68 1.17
1 1 -25 1.1 0.38
1 1 25 1.95 2.91
-2 1 25 -0.73 0.68
-2 1 -25 2.27 1.54
-2 1 -25 1.18 2.3
-1 -1 25 -0.77 2.68
1 1 -25 0.47 2.76
1 -2 -25 -0.41 0.7
1 -2 -25 -3.79 2.78
-1 2 -25 -0.51 1.91
-1 -1 -25 2.42 2.15
1 -2 25 0.41 1.8
-1 2 25 -0.56 1.72
-1 -1 -26 64.57 10.08
1 1 26 63.62 11.81
-1 -1 26 54.26 9.87
2 -1 -26 62.44 10.61
-1 2 -26 48.4 9.4
-1 2 26 61.31 11.52
-1 -1 -26 54.15 8.48
1 1 -26 40.33 8.38
-2 1 -26 89.16 13.63
2 -1 26 52.8 11.24
1 -2 -26 76.12 9.48
1 -2 -26 54.11 10
-2 1 26 56.64 10.77
1 -2 26 65.38 11.52
1 -2 -27 -0.69 0.75
-2 1 27 -3.43 2.18
-1 2 27 0.34 1.61
-1 -1 -27 1.17 1.67
-1 -1 -27 -0.29 1.58
2 -1 -27 2.69 2
1 1 27 -1.62 1.91
-2 1 -27 -0.6 0.36
2 -1 27 2.11 3.28
1 -2 27 -0.82 2.67
2 -1 -27 -4.24 3
-1 2 -27 -2 2.88
-1 -1 27 2.62 2.63
1 1 -27 -4.08 2.97
-1 -1 28 19.2 6.07
2 -1 -28 15.01 4.62
-1 -1 -28 24.89 6.3
-1 2 -28 12.78 4.2
-2 1 28 12.55 4.53
2 -1 -28 12.42 3.56
-2 1 -28 31.83 8.34
1 -2 28 20.89 5.16
1 -2 -28 14.48 4.74
-1 2 -29 3.14 2.82
-1 -1 -29 -1.15 2.7
-1 -1 29 -0.31 2.52
1 -2 -29 0.38 0.31
1 -2 29 2.47 1.36
0 2 0 289.51 8.54
-2 0 0 282.26 7.74
-2 0 0 316.74 8.32
0 -2 0 295.65 9.05
-2 0 0 283.57 6.6
2 -2 0 318.77 9.66
-2 2 0 308.19 7.04
2 0 0 300.59 7.81
-2 2 0 293.29 8.29
0 -2 0 330.11 8.13
0 2 0 281.7 8.76
0 -2 -1 29.84 2.92
-2 2 -1 28.63 2.59
2 -2 -1 32.06 2.96
-2 0 -1 25.56 2.52
0 -2 -1 29.78 3.45
0 2 1 24.62 2.75
2 -2 1 30.13 2.15
-2 2 -1 25.8 1.89
-2 2 1 27.12 2.63
0 2 -1 24.64 2.64
0 2 1 28.94 2.55
2 0 1 26.37 2.42
2 -2 1 29.4 3.04
0 2 -1 24.42 2.51
-2 0 1 27.45 3.02
0 2 1 29.91 2.69
0 -2 -1 28.68 2.75
0 -2 1 28.31 1.95
0 2 1 26.24 2.64
-2 0 -1 25.72 1.73
-2 0 -1 27.68 1.86
-2 0 1 25.77 2.43
2 0 -1 22.11 3.03
0 -2 1 25.61 2.54
2 0 1 21.04 2.04
2 0 1 27.58 2.31
-2 0 -2 2095.18 23.39
-2 0 -2 2080.13 14.49
-2 2 2 2211.82 25.16
0 -2 -2 2195.95 28.77
-2 2 -2 2034.88 16.85
0 2 -2 2107.71 25.53
0 -2 2 2142.38 21.64
0 2 -2 2206.45 22.94
2 0 2 2185.14 17.95
-2 2 -2 2106.51 22.64
2 -2 2 2120.86 25.79
0 -2 -2 2212.9 22.65
2 0 2 2047.81 15.19
2 0 2 2185.09 23.02
0 2 2 2153.35 20.67
-2 2 -2 2128.46 20.59
2 -2 -2 2404.74 26.29
2 -2 -2 2144.27 13.66
-2 0 2 2098.31 31.44
2 0 2 2161.63 23.1
-2 0 -2 2269.54 27.84
-2 0 2 2108.64 23.54
2 -2 2 2178.17 17.47
0 -2 -2 2290.51 29.78
0 2 -2 2032.32 24
0 2 2 2262.36 25.56
0 2 2 2030.91 23.93
-2 0 -3 2869.72 31.75
-2 2 3 2675.48 30.35
-2 0 3 2534.91 27.64
-2 2 -3 2513.09 25.97
2 0 3 2352.73 16.68
2 0 3 2506.29 26.76
0 2 3 2633.69 31.69
-2 0 -3 2525.2 26.92
0 -2 -3 2533.26 22.85
0 2 3 2452.09 27.35
2 -2 3 2582.54 20
0 -2 -3 2734.72 34.19
0 2 -3 2625.77 24.38
2 0 3 2480.14 17.8
-2 2 -3 2362.3 21.96
2 -2 -3 2845.41 29.44
2 -2 3 2428.31 27.95
0 -2 -3 2690 35.78
0 2 -3 2524.52 29.92
0 -2 3 2458.9 22.64
2 0 3 2507.58 26.68
2 0 4 3554.69 34.36
0 2 4 3182.35 24.38
0 -2 4 3566.84 24.2
-2 0 4 3468.65 35.51
-2 2 -4 3312.33 31.74
2 0 4 3258.29 42.93
2 -2 4 3582.61 25.89
0 2 4 3607.95 41.3
2 0 4 3594.93 41.81
2 0 4 3460.87 33.7
0 2 -4 3312.54 36.68
0 2 4 3463.09 35.26
2 0 4 3351.78 22.71
0 -2 -4 3547.36 41.91
2 -2 4 3560.35 29.17
-2 2 -4 3273.87 27.67
0 2 -4 3402.26 27.33
0 -2 -4 3208.5 25.31
-2 0 -4 3658.52 35.94
2 -2 4 3266.89 33.29
2 -2 -4 3818.75 34.99
-2 0 -4 3575.95 22.35
-2 2 4 3542.47 37.94
2 -2 -5 3348.4 33.32
0 -2 -5 3191.24 41.99
0 -2 5 3080.48 28.07
2 0 5 3201.22 35.59
-2 2 5 3318.11 40.14
0 2 -5 3020.21 37.62
2 0 5 3248.14 32.95
2 -2 5 3032.2 32.67
2 -2 5 3231.7 29.5
0 2 -5 3014.64 25.87
2 -2 5 3355.28 28.22
2 0 5 3165.75 35.13
-2 0 -5 2890.51 18.83
2 -2 5 2964.38 17.72
-2 2 -5 3054.28 28.98
2 0 -5 3197.34 29.54
2 0 5 2946.73 42.77
0 2 5 2867.7 19.26
2 0 5 3376.45 44.22
-2 0 -5 3290.57 34.77
0 2 5 3097.52 41.87
-2 0 5 3142.81 37.68
-2 2 -6 232.86 8.77
2 0 6 229.97 5.34
-2 0 -6 213.21 5.28
-2 2 6 259.54 12.22
0 -2 -6 208.56 6.25
-2 2 -6 303.06 11.25
0 -2 -6 241.46 12.44
0 2 6 224.1 7.19
-2 0 6 254.58 11.78
2 0 6 254.37 10.97
0 2 -6 234.74 11.28
2 -2 6 235.4 4.68
2 0 -6 176.3 12.67
0 2 6 246.82 5.81
0 2 6 265.14 7.29
2 0 6 239.39 8.34
2 0 6 212.32 11.91
0 2 -6 235.49 7.52
2 0 6 250.2 9.35
2 0 6 265.38 13.43
-2 0 -6 258.26 10.14
0 2 6 214.64 12.12
2 -2 6 250.6 8.83
0 -2 6 227.21 9.09
0 -2 -6 258.27 7.74
2 0 -6 268.81 9.36
2 -2 -6 251.09 9.64
2 -2 6 242.15 9.57
2 -2 -7 1069.43 20.74
0 -2 -7 1051.88 16.64
2 -2 7 1098.82 20.14
-2 0 7 1028.85 25.18
-2 2 -7 1027.36 20.37
2 0 -7 1177.41 21.4
0 -2 -7 999.86 26.77
2 0 -7 849.34 29.26
-2 0 -7 1107.63 21.65
0 -2 -7 896.34 13.02
0 2 7 919.3 15.93
0 2 7 1038.14 15.74
2 0 7 811.68 23.98
0 2 7 844.08 25.12
0 2 -7 1017.09 24.93
2 0 7 1073.5 20.1
2 0 7 1067.93 20.1
2 -2 7 974.68 20.09
0 -2 7 929.82 21.57
-2 2 -7 1334.21 24.65
2 -2 -7 880.54 11.08
2 0 7 1083.73 29.56
2 -2 7 939.52 10.33
-2 2 7 1052.25 26.23
-2 0 -8 1476.57 25.81
0 2 8 1092.07 30.06
2 -2 8 1500.51 30.15
2 -2 8 1516.09 25.68
-2 2 8 1426.07 32.8
0 2 8 1495.05 20.84
2 0 8 1477.98 37.06
-2 2 -8 1418.91 26.4
0 -2 -8 1362.31 32.4
-2 2 -8 1862.03 30.57
0 2 -8 1390.89 31.34
2 -2 -8 1489.41 26.07
0 -2 8 1219 27.53
2 0 8 1528.2 26.29
2 0 -8 1652.89 28.4
-2 2 8 1491.56 31.44
2 0 8 1446.22 24.42
-2 0 -8 1333.83 15.84
2 0 8 1057 28.7
0 -2 -8 1497.47 21.55
0 2 8 1232.42 20.76
0 -2 -8 1305.17 16.44
2 0 -8 1288.11 37.65
-2 0 8 1424.2 31.86
-2 0 -9 2608.54 23.84
-2 2 -9 2687.76 40.45
-2 2 9 2582.04 47.03
2 -2 9 2873.98 45.07
2 0 9 2958.15 40.04
0 2 9 2908.98 32.26
2 0 9 2780.43 54.1
0 -2 9 2355.1 41.75
-2 0 9 2576.43 46.33
0 2 -9 2587.74 46.23
0 -2 -9 2462.16 23.97
0 2 9 2908.94 35.05
-2 0 9 2630.4 38.48
2 0 -9 2348.26 51
2 0 -9 3115.42 43.14
-2 2 -9 2587.57 20.49
0 -2 -9 2810.9 31.34
-2 2 9 2665.71 44.35
2 -2 -9 2645.79 36.25
0 -2 -9 2482.09 45.56
-2 0 -9 2801.42 37.29
2 0 9 2616.84 34.18
2 -2 9 2961.67 38.9
0 2 10 211.09 14.75
0 -2 -10 267.32 15.52
-2 2 -10 374.84 13.91
2 0 10 294 18.56
2 0 10 297.83 12.16
0 -2 -10 257.4 8.08
2 0 -10 273.64 18.02
2 -2 10 307.83 13.29
-2 2 10 278.28 15.09
-2 2 -10 383.35 15.02
-2 0 10 280.71 13.43
-2 0 -10 314.56 8.93
0 2 -10 277.8 15.89
2 0 10 316.61 14.15
-2 0 -10 300.04 12.6
-2 2 -10 290.35 14.27
0 -2 10 276.45 14.75
0 2 10 329.54 13.2
0 -2 -10 309.66 11.16
2 0 -10 333.47 15.34
2 -2 -10 290.3 12.43
2 -2 10 311.21 15.87
0 2 -10 269.3 12.62
2 0 10 202.14 13.13
-2 2 -10 295.97 7.23
2 0 11 8.99 2.22
0 2 -11 7.03 2.14
2 0 -11 10.55 2.98
2 0 -11 6.56 3.26
-2 2 -11 14.18 3.02
2 -2 -11 8.97 2.31
-2 2 -11 9.66 1.4
0 2 11 8.17 2.31
-2 0 -11 9.57 2.26
2 -2 11 9.69 2.51
0 -2 -11 8.47 2
0 -2 11 8.41 2.46
0 2 11 7.23 2.71
0 2 -11 8.86 3.11
-2 0 -11 10.64 1.75
0 -2 -11 5.75 1.23
2 0 11 8.08 2.46
-2 2 11 8.95 2.67
0 -2 -11 7.12 2.78
2 -2 11 10.97 3.11
2 0 11 5.73 2.29
-2 0 11 8.47 2.37
-2 2 -11 13.46 2.73
-2 2 -11 13.46 3.18
2 0 11 4.62 2.66
-2 2 12 27.33 5.2
2 0 12 30.11 4.78
2 -2 -12 36.18 6.22
0 -2 -12 28 5.43
2 0 -12 26.94 6.09
-2 0 12 28.83 4.8
0 -2 -12 25.04 2.85
2 0 12 25.07 4.83
0 -2 12 28.05 4.99
2 -2 12 40 6.69
-2 0 -12 30.81 4.28
-2 0 -12 34.82 3.34
0 2 12 33.39 5.15
2 0 12 27.26 6.35
2 -2 12 43.41 5.48
-2 2 -12 38.29 4.76
0 -2 -12 25.08 3.66
-2 2 -12 40.35 5.37
2 0 -12 28.91 5.28
2 -2 -12 27.36 4.07
-2 2 -12 26.82 4.98
0 2 12 24.39 5.15
0 -2 12 30.54 5.58
0 2 -12 29.46 5.79
0 2 -12 27.65 4.46
-2 2 -12 30.05 2.69
2 0 13 46.82 8.81
0 -2 13 53.5 7.21
2 -2 -13 42.83 5.53
-2 2 -13 72.29 6.79
0 2 -13 40.8 5.61
0 -2 -13 58.97 5.99
-2 2 13 58.95 9
2 0 -13 52.7 8.75
2 0 -13 57.5 7.92
2 0 13 54.25 7.65
0 2 13 55.43 8.16
-2 2 -13 47.11 7.41
-2 0 -13 47.32 5.58
0 2 -13 43.57 7.33
2 -2 13 78.61 9.61
-2 0 -13 48.56 7.35
-2 0 -13 60.51 4.69
0 -2 13 47.4 7.01
-2 0 13 42.21 6.09
0 -2 -13 40.24 3.86
-2 2 13 44.94 7.13
0 2 13 81.59 8.47
0 -2 -13 47.8 7.16
-2 2 -13 45.93 3.56
2 -2 -13 59.72 8.63
2 0 13 66.39 7.57
2 -2 13 54.29 6.64
-2 0 -14 769.06 23.19
2 0 14 781.31 28.78
-2 0 -14 993.79 20.34
-2 0 14 734.11 26.83
0 -2 14 917.04 31.74
-2 2 -14 796.31 31.51
-2 0 14 1154.46 44.07
0 2 14 1039.67 32.83
0 -2 -14 777.03 30.09
0 2 -14 681.71 24.96
0 -2 -14 629.22 15.8
2 -2 -14 620.96 21.32
2 0 14 1022.78 31.31
-2 0 -14 684.54 29.29
0 -2 14 883.83 32.78
0 2 -14 790.23 33.2
-2 2 -14 769.7 15.6
2 -2 -14 985.62 35.74
0 2 14 746.41 31.57
2 0 -14 800.99 33.71
2 -2 14 871.04 27.76
-2 2 14 1040.96 40.24
-2 2 14 694.28 28.04
2 -2 14 855.4 33.63
2 0 -14 900.93 34.42
-2 0 -14 771.29 29.2
0 -2 -14 986.43 40.42
2 0 14 776.33 36.74
2 0 15 42.42 7.15
0 2 -15 33.31 5.45
0 2 -15 31.19 7
2 -2 -15 38.37 7.6
0 -2 -15 30.4 3.72
-2 0 15 28.39 5.38
-2 0 -15 28.64 6.34
2 -2 -15 28.2 4.84
0 -2 -15 36.56 6.8
2 0 15 45.86 6.99
2 0 -15 39.45 7.24
-2 0 -15 32.64 5.08
-2 0 -15 26.78 6.01
2 0 -15 29.91 6.67
-2 2 -15 33.58 3.4
-2 0 -15 41.56 4.37
0 -2 15 36.58 6.95
2 -2 15 38.43 6.13
-2 2 15 43.49 8.22
-2 2 -15 34.42 6.82
0 -2 15 60.39 8.43
0 -2 -15 42.43 8.58
2 -2 15 33.61 7.16
0 2 15 41.93 7.04
2 0 15 42.49 8.81
0 2 15 36.82 7.35
-2 2 15 26.3 6.13
-2 0 15 45.31 8.67
0 2 -16 582.47 30.91
2 -2 -16 417.36 18.27
2 -2 -16 722.77 34.83
0 -2 -16 632.53 28.56
-2 2 -16 568.68 14.97
0 2 16 619.64 30.84
-2 2 -16 609.63 30.29
0 -2 16 714.73 29.62
0 2 16 803.3 33.45
2 0 16 611.03 26.5
-2 0 16 459.76 22.77
2 0 16 832.69 30.54
0 -2 16 630.34 29.75
-2 0 -16 562.05 21.13
0 2 -16 578.6 24.86
2 0 16 635.57 34.53
-2 0 -16 735.99 19.67
-2 2 16 471.1 25.04
2 0 -16 754.75 33.45
2 0 -16 644.97 31.99
-2 2 16 738.28 37.37
-2 0 -16 576.22 27.09
2 -2 16 631.14 32.31
2 -2 16 599.4 25.2
-2 2 -16 817.77 27
2 -2 17 476.09 28.98
2 -2 -17 315.81 16.37
2 0 17 652.52 27.97
-2 0 -17 513.85 26.2
-2 0 -17 578.26 18.13
0 2 -17 475.55 23.62
0 -2 17 522.53 25.87
0 2 17 525.02 29.08
2 0 -17 589.2 30.18
-2 0 -17 459.6 19.61
0 2 17 545.15 29.1
0 -2 -17 496.1 25.78
-2 2 17 345.87 22.04
-2 2 -17 512.38 27.94
0 2 -17 439.65 27.58
2 0 17 501.94 24.48
2 0 -17 490.29 27.47
2 0 17 535.73 32.53
0 -2 -17 457.13 19.35
-2 0 17 346.43 20.45
2 -2 17 467.49 22.83
-2 2 -17 442 13.78
-2 2 -17 616.18 24.1
-2 0 -18 14.59 3.52
-2 0 18 15.44 4.34
0 2 -18 14.54 4.87
0 2 18 16.08 5.26
0 -2 -18 13.24 3.29
2 -2 -18 10.48 2.85
2 0 18 16.36 4.4
-2 0 -18 18.86 3.41
2 0 18 19.16 4.56
0 -2 18 20.47 5.2
0 -2 -18 16.64 4.63
-2 2 18 15.03 4.65
2 -2 18 19.45 5.74
2 0 -18 17.56 4.89
2 -2 18 15.65 4.43
-2 2 -18 15.95 2.56
2 0 -18 17.2 5.13
-2 2 -18 21.01 4.46
-2 0 -18 17.43 5.03
-2 2 -18 17.42 5.26
0 -2 -18 8.99 1.94
0 2 18 18.28 5.3
0 2 -18 17.34 4.38
2 0 18 18.91 5.9
-2 0 18 15.56 2.51
0 -2 -19 1.6 0.79
-2 2 19 3.06 1.88
0 -2 19 4.61 2.82
0 -2 -19 0.64 0.19
0 2 19 1.49 0.36
2 0 19 -0.69 1.52
-2 2 -19 1.95 0.88
-2 2 -19 -0.14 1.15
-2 0 -19 2.22 1.97
2 0 -19 -0.79 2.05
-2 0 19 0.42 0.18
2 0 19 2.41 3.78
-2 0 19 1.92 1.98
0 2 -19 -1.02 1.93
0 2 19 8.55 3.28
-2 2 -19 2.1 1.09
-2 0 -19 2.76 0.98
2 -2 -19 2.24 1.06
0 -2 -19 0.94 0.56
-2 0 -19 0.77 0.38
2 -2 19 3.06 1.46
2 -2 19 2.92 3.02
0 2 -19 0.79 1.39
2 -2 20 52.3 10.49
2 0 -20 56.07 9.56
2 0 20 74.98 10.17
-2 2 -20 74.97 9.17
-2 2 -20 58.65 10.55
0 2 20 63.77 11.26
-2 0 -20 81.51 7.75
2 -2 -20 72.78 8.32
-2 0 -20 67.08 10.47
0 2 20 62.54 9.68
2 -2 -20 42.58 6.58
0 -2 20 56.04 9.14
-2 0 20 41.61 7.85
-2 2 20 46.54 8.9
0 -2 -20 54.64 9.19
0 -2 -20 36.32 4.88
-2 2 -20 50.51 5.08
2 0 20 64.18 11.53
0 2 -20 55.66 10.48
-2 0 -20 57.38 7.69
0 -2 -20 52.31 7.06
-2 0 20 57.84 4.85
-2 2 -21 415.93 26.45
-2 2 -21 380.27 14.5
-2 0 21 366.39 24.04
0 -2 -21 402.22 20.86
2 -2 -21 588.6 24.42
0 -2 -21 397.43 24.85
2 0 21 537.19 28.08
0 -2 21 439.38 26.09
-2 2 21 339.58 24.29
0 2 -21 414.46 28.76
2 0 21 467.02 32.31
-2 0 -21 485.41 27.95
2 -2 -21 276.77 17.17
-2 0 -21 378.49 19.81
2 0 -21 356.24 25.22
-2 2 -21 590.03 26.2
2 -2 21 430.35 29.75
0 2 21 425.49 29.07
0 -2 -21 256.52 13.39
0 2 -21 456.75 19.42
0 2 -22 8.75 2.76
0 -2 -22 8.3 2.74
-2 2 -22 10.33 4.17
2 0 -22 6.1 3.26
-2 0 -22 7.01 2.15
-2 2 22 6.23 3.75
0 -2 -22 8.66 2.84
-2 0 22 12.42 4.73
-2 2 -22 6.16 1.52
0 2 -22 8.94 3.98
0 2 22 5.86 2.25
2 -2 22 6.82 4.13
-2 0 -22 9.11 4.16
0 -2 22 9.57 3.49
0 -2 -22 2.64 1.26
2 0 22 8.31 3.95
2 -2 -22 8.99 2.84
2 -2 -22 4.84 1.62
2 -2 23 1.15 2.58
0 2 23 0.88 1.33
-2 2 23 4.87 3.03
2 0 23 3 1.85
0 -2 -23 2.69 1.66
0 -2 -23 2.78 1.31
0 -2 23 4.84 2.73
0 2 -23 0.7 0.67
0 -2 -23 3.19 1.53
-2 0 23 2.41 1.46
2 -2 -23 4.44 2.2
-2 0 -23 2.69 0.84
2 0 -23 1.07 0.61
2 -2 -23 2.91 2.17
-2 2 -23 4.69 1.72
0 2 -23 5.14 2.84
-2 2 -23 1.82 0.31
-2 0 -23 2.05 1.56
2 -2 -24 2.42 1.83
-2 2 24 4.18 1.68
2 -2 -24 5.91 2.88
-2 0 24 8.36 4.04
2 0 -24 4.29 3.17
-2 2 -24 7.16 3.24
2 -2 -24 8.49 2.92
0 2 24 5.73 4.42
0 -2 24 8.2 4.16
0 -2 -24 7.59 3.11
0 2 -24 5.94 2.98
2 -2 24 3.62 1.84
0 -2 -24 3.88 2.47
-2 0 -24 10.55 4.76
0 -2 -24 5.27 2.02
-2 0 -24 5.09 2.44
2 0 24 9.48 5.16
2 0 25 39.28 10.18
2 -2 -25 44.16 6.79
0 2 25 33.09 8.8
0 -2 -25 35.14 7.48
2 -2 -25 25.07 5.35
-2 0 -25 37.49 6.64
-2 0 25 33.07 7.37
0 2 -25 26.38 6.99
-2 0 -25 34.22 7.83
2 0 -25 27.89 7.07
-2 2 -25 31.9 7.02
-2 2 25 39.03 9.15
0 -2 25 34.32 7.77
2 -2 25 48.41 10.37
0 -2 -25 43.51 7.28
2 -2 -25 34.19 7.92
-2 2 26 89.3 14.52
2 -2 26 83.51 13.98
-2 2 -26 82.31 11.38
2 0 26 90.81 14.59
-2 0 26 91.17 13.66
-2 0 -26 106.87 14.16
0 -2 26 92.04 13.45
0 2 26 84.48 14.34
0 2 -26 83.95 12.94
2 -2 -26 58.54 8.21
0 -2 -26 90.03 12.61
2 -2 -26 83.72 12.64
0 -2 -26 106.07 11.7
2 0 -26 64.15 10.85
2 -2 27 4.39 2.85
0 -2 27 2.59 1.48
2 -2 -27 2.32 2.33
0 -2 -27 0.76 2.09
0 2 -27 0.7 1.68
0 -2 -27 6.64 2.66
-2 2 27 5.07 3.09
-2 2 -27 10.1 5.02
-2 0 -27 10.88 3.67
2 0 -27 -0.17 1.15
-2 0 27 11.92 5.37
2 -2 -27 0.02 1.6
-2 2 -27 1.12 0.98
-2 0 -28 24.27 6.36
-2 2 -28 14.39 4.56
0 -2 -28 20.27 5.99
0 -2 28 22.31 6.65
2 -2 -28 15.43 4.76
-2 0 28 18.86 6.41
-2 2 -28 33.86 9.38
2 -2 28 18.74 6.61
0 2 -28 20.27 5.87
0 -2 29 -0.75 1.35
-2 0 -29 -0.96 1.56
-2 0 29 0.48 2.64
2 -2 -29 1.26 0.59
-2 2 -29 4.39 3.18
3 -1 0 293.12 8.91
-3 2 0 282.83 9.94
-1 3 0 279.97 6.26
2 -3 0 278.06 10.83
-1 -2 0 274.76 9.13
-2 -1 0 270.39 7.53
3 -1 0 310.16 9.43
2 1 0 274.46 8.82
-3 1 0 275.51 9.62
-2 -1 0 278.73 8.5
-2 3 0 283.8 8.41
2 1 0 281.25 7.74
1 2 0 270.51 9.41
-3 1 0 330.04 10.65
3 -2 0 291.91 8.4
2 -3 0 283.44 8.99
2 -3 0 304.34 9.14
-3 1 0 283.8 8.21
-2 3 0 282.46 8.77
-1 3 0 277.82 10.29
1 2 0 271.45 8.05
1 -3 0 274.88 10.59
1 -3 0 303.2 10.88
1 2 0 268.95 9.57
-1 -2 0 266.85 7.62
-1 3 0 276.88 9.54
3 -2 0 313.26 10.37
2 1 0 290.21 12.24
1 -3 0 297.03 7.27
1 2 0 257.9 4.76
-2 -1 0 274.76 10.89
-1 -2 0 293.76 10.69
2 1 0 282.25 9.57
-3 2 0 297.34 8.42
-3 1 0 309.18 12.01
-2 -1 0 275.76 8.45
1 2 1 915.58 17.22
2 1 1 943.79 14.4
1 -3 -1 989.64 18.88
1 2 1 847.02 17.16
-2 -1 -1 958.96 14.21
-1 -2 -1 988.86 20.3
-2 3 1 966.87 16.11
2 1 -1 1030.68 22.08
2 -3 -1 979.01 20.31
1 -3 1 950.85 20.39
-3 1 1 947.46 18.39
2 -3 -1 1034.99 17.55
2 1 1 955.02 15.74
1 -3 1 975.75 18.01
1 -3 -1 1037.71 22.24
-1 3 1 976.66 18.37
3 -2 1 1010.12 17.44
3 -1 1 925.92 16.69
3 -1 1 1047.8 16.93
3 -1 -1 989.07 15.46
3 -1 1 1033.49 17.88
1 2 1 938.89 10.33
-2 3 -1 921.07 17.85
1 -3 -1 1079.11 15.91
-2 -1 1 931.15 13.98
2 1 1 961.54 15.86
-3 1 1 1124.77 26.25
2 1 1 958.63 18.69
2 1 -1 944.14 14.16
3 -2 1 1063.73 18.98
-3 2 1 985.73 13.19
-3 1 1 1078.35 16.48
1 2 -1 876.92 9.2
1 2 -1 929.22 17.98
-1 3 1 939.75 12.6
-2 -1 -1 944.44 14.64
-2 -1 1 920.49 16.59
-3 1 -1 1032.6 19.44
-1 -2 1 950.09 18.97
-2 3 -1 936.45 15.02
2 1 1 913.21 16.53
-1 3 -1 898.59 17.35
2 -3 1 910.23 19.95
2 -3 1 955.71 16.2
-1 -2 -1 909.64 16.06
-3 2 1 952.86 18.7
-1 -2 1 875.31 8.34
1 2 -1 937.88 10.97
-3 2 -1 1033.99 18.28
-3 2 -1 983.35 10.22
-2 3 1 951.42 16.86
-2 -1 -1 907.88 14.63
-3 2 -1 938.52 17.79
-1 3 -1 921.46 10.99
-2 3 -1 924.06 15.78
-2 -1 1 961.51 17.74
2 1 1 900.56 22.79
1 -3 -1 915.47 19.05
-1 3 1 947.4 17.82
2 -3 1 1030.03 16.52
3 -2 -1 999.68 14.18
-1 -2 -1 890.24 17.28
3 -2 -1 1087.95 19.46
1 2 -1 942.49 18.59
-3 1 -1 961.21 16.44
-3 1 -1 1079.22 18.61
-1 3 -1 923.92 18.32
1 2 1 924.04 17.09
-3 1 -1 935.69 17.78
2 1 -1 951.72 19.36
3 -1 -1 1057.68 18.45
-2 -1 -1 977.45 20.8
1 -3 1 987.13 12.17
2 -3 2 370.7 10.04
2 1 -2 391.21 12.85
-3 2 -2 333.99 5.41
-2 -1 2 360.45 11.12
3 -1 2 378.8 11.18
1 -3 -2 430.91 13.2
-3 2 2 375.59 12.24
-1 -2 -2 375.11 13.09
3 -2 2 396.3 11.7
-1 -2 -2 309.19 11.78
-2 -1 -2 375.71 13.2
-1 3 -2 359.4 11.68
1 -3 -2 337.01 11.35
2 -3 2 347.67 12.37
-1 3 2 349.79 11.34
-1 3 2 358.12 8.88
-2 3 -2 362.88 9.5
1 -3 2 383.97 7.7
-3 1 -2 409.65 10.94
-3 1 -2 369.3 11.36
-3 1 2 366.82 11.91
-2 -1 -2 351.82 7.87
1 2 -2 341.89 11.27
-2 3 2 373.69 11.2
-2 -1 2 368.42 9.32
-1 -2 2 357.63 6.1
-1 3 -2 351.73 10.82
-3 2 -2 370.37 11.46
1 2 -2 368.71 12.32
-3 2 -2 397.42 13.01
3 -1 -2 390.02 12.08
1 2 2 348.88 10.63
2 1 2 374.47 9.18
2 1 2 316.91 14.12
-1 3 -2 349.97 7.44
-3 2 2 373.39 7.08
3 -1 2 409.67 12.34
-2 3 2 372.9 10.61
2 1 2 379.21 9.71
-2 3 -2 356.14 10.95
-2 -1 -2 362.16 9.69
1 2 2 387.03 9.75
2 1 2 369.28 13.13
2 1 -2 360.58 9.26
3 -2 -2 466.35 10.75
-2 -1 2 375.71 12.11
1 2 -2 369.27 12.38
-2 -1 -2 351.2 8.87
3 -1 -2 432.65 11.9
2 -3 -2 383.76 12.64
1 -3 2 375.93 10.14
2 1 2 360.6 10.52
3 -1 -2 386.7 9.23
2 -3 2 400.02 10.39
3 -2 -2 410.14 12.32
-1 -2 2 363.58 11.58
1 -3 -2 386.87 14.59
1 2 2 371.4 7.98
-2 3 -2 342.77 9.57
-3 1 2 421.94 17.63
1 2 2 351.01 10.4
-1 3 2 365.01 10.85
-3 1 2 420.67 10.03
-3 1 -2 363.53 9.93
3 -1 2 389.73 10.02
2 1 -2 364.72 13.01
2 -3 -2 410.6 11.84
1 2 2 304.12 11.85
2 1 2 353.77 9.37
1 -3 2 356.01 12.75
2 -3 3 342.28 12.44
1 2 3 368.24 8.4
-3 2 3 457.8 13.67
3 -1 3 408.13 13.22
3 -1 -3 359.32 8.6
2 -3 -3 372.95 12.59
-2 3 -3 331.55 10.58
-1 3 3 367.36 10.4
2 1 3 355.77 8.28
2 1 -3 356.15 14.03
-3 2 -3 389.52 14.47
-1 3 3 334.37 9.83
1 2 3 333.82 9.73
2 1 -3 379.39 10.37
3 -2 -3 411.17 12.53
-2 -1 3 351.88 9.83
1 -3 -3 383.72 15.8
-3 1 -3 391.22 10.42
-1 3 -3 348.33 11.6
-3 2 3 364.9 12.49
1 2 3 338.9 10.23
-3 1 -3 355.67 11.41
-2 3 3 363.6 11.34
2 1 3 346.35 10.5
1 -3 3 363.51 8.05
-2 -1 3 396.29 13.89
-2 -1 -3 348.95 8.86
-2 3 -3 357.12 10.02
1 -3 -3 413.52 13.78
3 -1 3 367.34 11.81
2 1 3 346.07 9.39
-2 -1 3 298.12 11.73
2 1 3 377.7 14.74
-1 3 -3 336.11 10.84
-3 2 -3 387.67 11.56
1 -3 -3 312.39 10.92
1 -3 3 353.38 8.78
3 -2 3 373.52 11.81
1 -3 3 352.28 13.11
1 2 3 331.8 10.62
2 -3 3 386.6 10.4
-1 3 3 341.02 11.76
3 -1 -3 391.78 12.65
-1 -2 -3 278.86 12.41
3 -2 -3 434.46 8.83
-1 -2 -3 343.1 10.23
2 1 3 312.29 14.69
-2 -1 -3 362.24 12.99
2 1 3 382.9 10.51
3 -1 3 370.27 12.39
-3 2 3 442.51 9.08
-3 2 -3 359.57 11.44
3 -1 -3 413.33 13.26
1 2 -3 345.71 11.99
-1 -2 -3 382.75 13.62
1 2 3 264.23 12.12
-2 3 -3 350.58 9.85
3 -1 3 360.99 9.58
2 -3 -3 415.58 12.94
-3 1 3 365.06 12.4
-1 -2 3 351.79 7.56
-2 3 3 390.86 12.32
-3 1 3 381.26 18.45
1 2 -3 359.36 12.96
2 -3 3 366.58 10.22
-3 2 -3 355.14 7.85
1 -3 4 3.09 0.79
-2 3 -4 5.89 1.31
2 1 4 3.97 1.57
3 -1 4 3.37 0.96
2 -3 -4 3.15 1.07
1 -3 -4 2.27 1.22
2 1 4 3.11 0.75
-1 3 4 3.64 1.08
-1 -2 4 2.92 0.94
-2 3 -4 5 1.23
1 -3 -4 3.8 1.31
2 -3 4 4.46 1.19
-3 2 -4 2.68 0.91
-1 -2 -4 2.59 0.89
-3 2 4 3.56 1.35
1 2 4 2.89 1.59
-2 3 4 3.52 1.07
2 -3 4 5.54 1.32
3 -1 -4 2.87 1.16
-2 -1 4 3.34 1.23
1 -3 -4 5.87 1.78
-3 1 4 3.51 1.26
-1 3 -4 3.73 1.09
-3 2 4 2.89 1.1
3 -1 -4 3.87 1.3
3 -2 -4 3.23 0.68
-2 -1 4 3.37 1.04
-3 2 4 3.31 0.76
1 2 4 3.51 1.1
3 -2 4 3.26 1.1
-3 1 4 1.98 1.43
2 1 4 4.01 1.02
2 1 -4 6.83 2.19
-3 2 -4 2.57 1.09
-2 3 4 4.77 1.42
1 -3 4 4.49 0.85
-2 -1 -4 2.19 0.52
-1 3 4 3.14 0.94
2 1 4 2.73 1.54
1 2 4 4.63 1.25
1 2 -4 7.31 1.61
1 2 -4 13.55 2.66
3 -1 4 4.16 1.34
2 1 4 4.39 0.69
2 -3 -4 3.49 1.24
2 -3 4 4.52 1.17
-3 2 -4 2.59 0.67
-2 -1 4 4.98 1.6
2 1 -4 3.91 1.23
3 -2 4 2.86 0.55
-1 -2 -4 3.94 1.25
3 -1 4 3.12 0.85
-3 1 -4 3.6 1.19
2 1 4 3.16 1.06
-3 1 -4 4.26 1.1
-2 3 -4 3.26 1.09
2 1 4 4.7 1.26
3 -1 4 3.71 1.32
-1 3 -4 3.54 1.16
3 -2 -4 4.01 1.28
-1 -2 -4 2.93 1.29
1 2 4 2.76 0.6
-1 3 4 6.32 1.75
2 -3 4 4.26 1.38
-3 1 -5 355.47 10.22
2 1 5 366.79 11.87
-1 -2 5 362.54 11.28
3 -1 5 337.04 9.47
3 -2 -5 379.49 13.01
-3 1 -5 333.88 12.11
1 2 5 318.25 9.8
-1 -2 -5 338.02 9.31
-2 -1 -5 385.54 14.11
3 -1 -5 363.49 13.53
3 -2 5 347.21 11.35
-2 -1 -5 346.75 14
-1 3 5 356.98 14.12
2 -3 5 333.28 12.84
3 -1 -5 384.8 15.42
2 1 5 269.7 14.74
1 -3 5 379.1 10.24
2 -3 -5 370.55 12.61
2 -3 5 360.98 10.99
1 -3 -5 313.28 11.04
-2 3 5 294.43 4.57
1 -3 -5 306.78 5.57
3 -1 5 365.12 11.73
-2 3 -5 339.81 11.42
-2 -1 5 351.43 11.96
-3 2 -5 403.86 12.66
2 1 -5 378.15 8.62
-1 3 5 369.77 13.24
2 -3 5 367.01 6.57
-2 3 5 372.81 10.68
-3 1 5 353.69 13.69
3 -2 -5 370.18 6.27
-1 3 -5 349.45 12.85
-1 -2 -5 362.08 14.35
-3 2 -5 335.16 11.9
-1 3 5 341.22 9.27
1 2 -5 346.2 14.39
2 1 5 392 12.69
-2 3 5 360.29 13.35
3 -2 5 349.05 9.92
-1 3 5 319.77 7.36
1 2 -5 332.97 12.16
-2 -1 5 262.46 9.82
1 2 5 238.47 13.43
-1 3 -5 387.79 9.15
2 1 5 344.64 16.57
-3 2 -5 342.86 8.45
2 1 5 344.16 11.04
-3 1 5 393.09 21.54
2 -3 5 394.37 12.57
2 1 -5 339.44 15.8
1 -3 5 332.56 7.04
1 -3 -5 349.94 17.25
-1 3 5 384.7 13.94
2 -3 5 382.5 11.53
-1 -2 -5 248.51 13.88
1 2 5 343.39 11.79
-3 2 5 356.65 13.99
2 1 5 355.62 10.43
3 -1 5 359.22 13.72
3 -2 5 360.99 6.8
-2 -1 6 117.4 6.17
-1 3 6 140.62 5.86
-2 3 -6 149.81 8.03
-2 -1 -6 141.79 9.6
2 -3 6 169.82 8.37
1 2 6 112.18 9.8
-3 2 -6 180.12 8.72
1 2 -6 146.37 8.27
-2 3 6 153.89 9.56
2 -3 6 172.78 8.76
-1 3 -6 162.89 5.37
2 1 -6 140.31 10.85
2 1 6 110.9 9.67
3 -1 6 147 6.26
-1 -2 6 134.19 4.9
2 -3 -6 156.51 8.35
-1 -2 -6 151.67 6.48
3 -2 6 168.2 6.19
2 1 -6 176.65 6.92
1 2 6 138.29 6.66
-1 -2 -6 109.82 9.82
2 -3 6 163.8 7.9
2 1 6 143.2 11.37
1 -3 -6 151.53 11.93
1 -3 6 161.87 7.46
-1 3 -6 149.34 8.61
-3 1 -6 147.52 7.95
-1 3 6 135 4.94
-2 3 6 107.67 3.19
2 -3 6 146.57 8.78
-1 -2 -6 154.26 9.74
1 2 -6 160.39 5.83
1 -3 6 165.86 8.91
1 2 6 116.9 2.81
2 1 6 150.17 7.68
3 -2 6 157.84 6.33
3 -2 6 142.02 7.27
2 1 6 154.09 8.06
1 2 6 151.19 8.34
3 -2 -6 163.63 8.9
-2 -1 -6 164.59 9.5
-3 2 -6 148.68 6.13
-3 1 6 153.61 9.55
-2 -1 6 154.59 8.69
1 2 -6 149.52 9.98
-2 3 6 159.04 7.16
1 -3 -6 139.53 7.18
-1 3 6 155.36 10.03
3 -1 6 162.79 7.75
-3 1 -6 151.9 6.69
-3 2 6 153.74 9.67
-3 2 -6 143.16 8.25
2 1 6 147.06 7.18
2 1 6 169.49 9.13
3 -2 -6 150.23 3.83
3 -1 -6 140.86 10.08
-3 2 -7 32.13 3.24
-3 1 7 30.84 4.44
-2 3 7 32.93 3.45
2 -3 7 28.41 3.95
1 -3 7 35.5 4.33
1 2 7 26.46 4.98
-3 2 -7 43.66 4.61
3 -2 7 29.7 3.39
1 2 7 30.23 4.03
2 -3 7 34.39 3.89
-2 3 7 33.04 4.73
3 -1 -7 36.79 4.07
1 2 -7 29.98 2.84
2 1 -7 25.89 5
1 -3 7 33.82 3.65
2 1 7 30.83 4.1
-1 3 7 35.4 2.96
-1 3 -7 38.54 4.64
3 -1 7 30.59 2.88
-2 -1 -7 26.88 4.36
3 -1 7 32.44 3.41
-1 3 7 29.39 2.43
1 2 -7 31.04 3.8
-2 -1 -7 31.62 4.21
3 -2 7 34.18 2.91
3 -1 -7 26.91 4.49
3 -1 7 29.82 2.03
-1 -2 -7 34.87 3.57
2 1 -7 37.75 3.61
2 -3 -7 45.1 4.37
1 -3 -7 30.43 3.38
-1 -2 7 32.67 2.88
-3 1 -7 28.72 2.98
2 1 7 27.48 3.56
-3 1 -7 19.36 2.35
1 2 7 31.53 3.29
2 1 7 28.72 5.39
-1 -2 -7 31.83 4.57
3 -1 7 41.6 5.45
-1 -2 -7 26.74 5.1
-1 3 -7 32.42 2.16
1 -3 -7 26.17 5.14
2 1 7 29.4 3.52
-2 -1 7 27.11 2.71
2 -3 7 35.71 4.07
-2 3 -7 30.58 3.8
2 1 7 20.17 4.27
3 -2 7 34.38 3.02
-3 2 7 33.57 4.85
2 -3 7 34.86 3.96
-3 1 -7 32.91 3.8
1 2 -7 31.51 4.86
1 2 7 34.74 3.49
2 1 7 31.52 3.89
3 -2 -7 36.63 4.37
-2 -1 7 30.84 4.24
-1 3 7 31.34 4.67
-1 3 -8 189.3 11
-2 3 -8 201.78 11.41
3 -1 -8 154.41 11.73
-1 3 8 170.43 6.53
2 1 8 194.97 15.13
2 -3 8 212.53 10.58
3 -2 8 206.11 7.89
2 -3 -8 209.1 9.79
-1 -2 -8 152.25 12.77
-1 3 -8 188.57 4.64
-2 3 -8 189.78 10.06
-1 3 8 187.78 12.3
1 -3 8 201.91 9.79
1 -3 -8 162.04 13.47
-3 2 -8 218.12 10.6
3 -1 8 184.41 7.27
2 1 8 155.19 12.33
2 1 8 197.6 10.43
2 1 8 193.14 10.38
-3 2 8 194.84 12.3
-3 1 8 189.79 12.03
-3 1 -8 187.2 7.83
1 2 -8 178.46 8.05
-2 -1 8 185.24 11.14
3 -1 8 205.86 6.43
2 -3 8 220.62 10.51
-1 -2 -8 194.83 11.85
2 1 -8 217.55 10.01
2 1 -8 171.4 13.53
3 -2 8 179.95 8.64
3 -1 8 196.26 8.57
-2 3 8 210.32 8.94
-2 -1 -8 206.62 11.29
2 -3 8 204.19 10.51
3 -2 -8 208.66 10.92
3 -1 -8 216.65 10.57
-2 3 8 194.73 12.16
-1 3 8 197.67 7.48
3 -1 8 216.65 13.34
1 2 8 181.44 8.42
2 1 8 195.15 9.88
2 1 8 212.27 7.66
-1 -2 8 179.84 7.99
-1 -2 -8 192.61 8.91
1 2 8 164.78 13.26
-3 1 -8 131.79 6.91
-3 1 -8 209.81 9.82
-3 2 -8 199.16 9.07
1 2 -8 191.09 12.81
3 -2 8 191.77 6.82
1 2 8 215.39 9.16
1 -3 -8 182.56 8.31
1 -3 9 11.67 2.54
-3 2 9 8.55 2.68
2 -3 9 22.58 3.54
2 -3 9 12.37 2.93
2 1 9 12.82 2.72
-2 3 9 9.86 2.91
-1 3 9 8.98 2.62
-1 3 9 9.77 1.77
-3 1 -9 8.71 1.92
3 -2 9 9.98 2.8
2 1 9 13.08 2.35
-3 1 -9 12.85 2.49
2 1 9 9.2 2.84
2 1 -9 11.37 3.62
3 -1 -9 13.66 2.82
-3 1 9 10.59 2.78
3 -1 9 10.41 1.79
1 -3 9 10.95 2.65
-3 1 -9 12.41 2.09
3 -2 -9 12.41 2.91
-3 2 -9 13.75 2.72
-2 3 -9 11.68 2.66
1 -3 -9 10.53 2.08
1 2 9 17.07 2.68
1 2 -9 9.69 2.04
-3 2 -9 10.72 2.32
1 2 -9 12.79 3.38
-2 3 9 9.21 0.94
-1 -2 -9 15.03 2.87
-1 -2 -9 11.58 2.87
3 -2 -9 11.96 2.8
2 -3 -9 13.08 2.55
3 -1 -9 9.99 3.12
2 1 9 8.82 3.31
-1 3 -9 11.48 2.86
-3 2 -9 11.5 2.86
2 -3 9 11.38 2.6
1 -3 -9 6.19 2.7
1 2 9 10.73 2.13
-2 3 9 13.68 3.39
3 -2 9 18.58 2.52
-2 -1 9 11.17 2.85
2 1 9 10.64 2.48
3 -1 9 18.99 2.17
3 -1 9 12.55 3.38
1 2 9 9.94 3.21
-2 -1 -9 10.74 2.66
-1 -2 9 8.69 1.87
2 1 -9 11.91 2.7
2 1 9 11.32 2.66
3 -1 9 8.86 1.74
3 -2 9 10.56 1.62
3 -2 9 10.17 2.12
3 -1 10 314.12 10.47
2 1 10 273.24 19.98
2 1 10 295.75 13.91
-1 3 -10 290.23 15.08
-3 2 -10 304.34 13.91
2 -3 10 331 15.14
-2 -1 10 277.97 15.79
-2 3 -10 294.21 14.09
1 2 10 318.39 11.36
2 -3 10 339.53 15.03
-2 -1 -10 306.12 14.67
1 2 10 263.93 11.49
3 -2 -10 351.31 15.99
-3 2 10 307.71 17.35
-1 3 10 274.43 16.01
2 1 10 361.81 13.62
3 -1 10 358.66 19.35
-3 2 -10 379.53 14.61
-1 3 10 327.46 8.7
2 1 10 269.99 16.82
3 -1 10 301.07 11.24
1 -3 -10 285.36 10.89
1 -3 -10 217.04 16.74
3 -2 10 301.14 16.27
2 1 10 302.73 13.9
-2 3 10 283.72 16.47
-3 1 -10 313.72 12.34
-2 3 10 290.87 16.29
3 -2 10 346.03 12.08
1 2 10 283.92 18.26
3 -2 10 297.53 8.93
1 2 10 306.47 12.41
-1 -2 -10 295.28 15.72
-3 1 10 293.91 16.93
1 -3 -10 323.06 9.47
2 1 -10 265.74 18.53
1 -3 10 345.9 16.41
-1 -2 10 255.95 11.71
3 -1 -10 346.61 14.86
-3 1 -10 326.76 11.36
2 -3 -10 330.68 7.31
2 1 -10 331.54 15.53
1 2 -10 300.77 17.73
1 2 -10 243.89 11.65
3 -2 -10 293.57 13.85
-3 1 -10 238.18 11.33
2 -3 -10 297.14 12.33
1 -3 10 335.14 15.27
3 -1 -10 228.91 15.16
-2 -1 11 524.38 23.18
3 -2 11 626.64 24.86
-1 3 -11 754.53 25.65
3 -2 -11 683.81 23.77
2 -3 11 623.43 22.55
-3 2 -11 717.88 20.73
-2 -1 11 543.33 18.29
2 -3 11 639.57 21.64
-2 3 -11 544.97 20.53
2 1 11 524.05 24.11
2 1 11 512.36 28.53
3 -1 11 539.94 15.58
-3 2 11 534.59 23.93
1 -3 11 606.09 22.19
1 -3 -11 555.96 27.21
3 -1 11 578.44 15.85
-1 3 11 506.77 22.6
1 2 -11 564.68 25.32
1 2 11 554.74 26.68
2 1 -11 633.76 23.61
2 -3 -11 628.74 11.29
3 -2 11 561.35 13.26
-2 3 11 509.89 23.41
-1 3 -11 586.42 22.44
3 -2 11 619.68 17.6
1 -3 -11 621.1 14.03
1 2 11 597.85 18.45
-1 -2 -11 551.42 22.21
2 -3 -11 555.93 17.28
-1 3 11 630.53 19.19
1 2 11 671.08 18.61
-3 1 -11 575.16 17.21
3 -1 -11 689.89 22.73
-3 1 -11 453.5 16.04
3 -2 -11 512.83 19.13
1 2 -11 472.28 17.42
-1 -2 11 447.53 16.74
3 -1 -11 446.42 22.26
2 1 11 742.46 22.2
-3 1 11 536.54 23.79
-3 2 -11 576.28 14.27
2 1 11 544.59 20.52
-3 1 -11 608.21 16.34
1 -3 -11 514.7 15.04
2 1 11 571.18 19.5
2 1 -11 507.23 26.73
1 -3 11 668.4 24.01
-3 2 -11 564.54 20.95
-2 3 11 555.87 23.15
-2 -1 -11 562.83 20.45
-1 3 11 617.15 13.27
3 -1 11 628.07 26.94
1 -3 -12 60.39 9.05
-2 3 12 63.35 8.19
-3 2 12 55.66 7.95
-1 3 -12 74.36 4.59
-3 1 -12 62.13 5.75
3 -1 12 68.86 5.94
1 2 12 66.86 9.46
-3 2 -12 80.97 7.14
-1 3 -12 57.27 2.81
-1 3 -12 89.81 8.92
-3 2 -12 66.25 5.06
2 1 12 63.07 10.2
1 2 12 65.66 6.42
3 -1 12 73.8 9.66
-1 3 12 54.03 7.8
-3 1 -12 53.81 5.94
2 -3 -12 57.02 5.83
3 -2 12 66.43 8.51
-3 2 -12 67.65 7.83
3 -1 -12 50.02 7.84
1 -3 -12 57.12 5.25
-1 3 12 66 4.74
-2 -1 -12 61.56 6.99
1 -3 -12 69.34 4.96
2 1 12 79.85 8.12
-2 3 12 84.58 8.64
-1 -2 -12 61.76 9.66
-1 3 -12 64.26 7.85
2 1 12 61.25 8.46
-2 -1 -12 56.75 6.63
3 -2 -12 78.88 8.42
-1 -2 -12 62.88 7.69
-2 3 -12 86.83 6.53
1 2 12 74.37 6.99
-1 3 12 70.79 7.11
2 1 12 59.38 6.58
1 -3 12 66.26 7.99
-2 3 -12 65.99 7.5
3 -2 12 66.52 6.12
2 -3 -12 69.31 4.11
-3 1 -12 68.46 5.59
1 2 -12 66.13 9.06
-2 -1 12 60.08 6.49
-2 3 -12 86.67 8.34
1 -3 12 73.71 8.36
2 1 -12 55.07 8.92
2 1 -12 68.85 8.1
2 -3 12 68.16 7.95
3 -1 -12 79.77 8.14
2 1 12 58.93 7.2
1 2 -12 55.67 6.2
2 -3 12 73.51 7.67
3 -2 -12 53.15 6.42
-1 -2 12 47.07 5.72
-3 1 12 55.15 7.89
3 -1 12 59.11 5.28
-1 3 13 36.03 3.91
-3 1 -13 40.52 4.49
-2 -1 -13 29.62 5.93
-3 1 13 53.16 9.62
2 1 -13 42.85 6.63
-1 -2 -13 31.37 5.62
-3 1 -13 37.82 4.64
1 -3 -13 38.25 3.99
2 -3 -13 35.05 4.58
3 -2 -13 30.96 5
-3 2 -13 32.59 6.02
3 -1 13 31.27 4.16
1 2 -13 37.59 7.16
3 -2 13 35.59 6.41
1 -3 -13 30.08 3.87
-3 2 13 28.82 5.94
-1 -2 -13 22.52 2
3 -2 13 38.45 4.99
2 1 13 31.33 5.65
2 1 13 36.08 7.88
-3 2 -13 38.87 3.94
-1 3 -13 51.92 6.99
3 -1 -13 30.69 6.31
-2 -1 -13 36.81 5.7
-3 1 13 30.58 6.03
2 -3 13 44.85 7.01
-1 -2 -13 44.27 8.24
-2 3 -13 36.44 6.13
3 -2 13 42.12 6.57
2 1 -13 30.52 6.86
-2 -1 -13 32.31 5.23
3 -1 13 41.09 7.81
2 1 13 38.08 6.77
-1 3 13 28.92 6.01
-1 3 -13 33.58 5.98
-1 3 -13 45.29 3.78
-1 -2 13 30.6 4.86
-2 3 -13 50.25 6.79
1 -3 13 36.81 6.3
3 -1 -13 45.39 6.48
3 -2 -13 43.43 6.57
1 2 -13 38.19 5.53
-1 3 -13 34.03 2.42
1 -3 -13 32.9 6.89
1 2 13 37.93 7.69
3 -1 13 42.57 6.78
-2 3 -13 42.84 4.71
2 -3 13 43.29 6.01
2 -3 -13 39.79 3.43
-1 3 13 47.79 6.33
-2 3 13 38.51 6.82
-3 2 13 50.5 9.13
3 -1 13 38.13 4.81
1 -3 -13 43.66 8.43
-3 1 -13 28.94 4.5
1 -3 13 45.22 6.74
-2 3 13 43.06 6.63
-3 1 -13 35 6.88
2 1 13 41.42 6.47
2 -3 -13 38.63 7.32
-3 2 -13 49.25 5.9
1 2 13 34.23 4.85
-1 -2 13 38.88 7
1 2 13 43.43 5.69
-2 -1 13 34.66 5.12
-2 -1 -14 20.51 4.91
3 -1 14 25.03 6.02
-2 3 -14 23.66 5.25
2 -3 14 25.39 5.55
-3 1 14 20.4 5.42
1 -3 14 25.43 5.45
-1 -2 -14 15.79 1.8
2 1 14 31.42 7.46
-3 1 -14 17.26 3.47
2 -3 -14 24.57 2.95
1 -3 14 25.25 5.09
3 -2 14 28.58 5.85
-2 -1 14 27.59 6.6
-2 -1 14 18.98 3.93
-1 3 14 18.31 4.92
-2 3 14 29.3 5.89
-1 -2 -14 26.48 4.69
-3 1 -14 15.71 4.53
2 -3 -14 39.27 7.56
1 -3 -14 19.4 3.42
3 -1 14 25.75 5.5
-1 3 -14 31.37 5.57
-1 -2 14 24.35 4.54
-1 -2 -14 28.02 6.49
-2 3 14 21.65 5.46
-2 -1 -14 12.76 1.41
1 -3 -14 24.55 5.73
1 -3 -14 29.54 3.85
1 2 14 30.93 5.41
2 1 14 27.34 5.96
-3 2 -14 23.34 3.03
1 2 -14 25.09 6.21
3 -2 14 34.6 6.92
-3 2 14 36.55 7.85
3 -2 -14 27.33 5.6
-3 1 -14 27.26 3.74
-2 -1 -14 16.71 1.83
1 2 -14 21.92 4.17
-3 1 14 32.91 7.85
-3 2 -14 24.67 5.43
2 1 14 28.58 5.47
-3 1 -14 29.12 4.2
-1 3 14 32.42 5.56
-2 3 -14 33.75 4.16
-2 -1 -14 26.1 4.89
-1 3 -14 24.55 2.49
1 2 14 25.31 4.62
-2 3 -14 32.23 5.33
1 -3 -14 24.21 6.38
2 -3 14 28.48 5.07
-2 -1 -14 27.22 5.03
3 -1 -14 29.03 5.57
2 1 -14 21.55 5.57
-1 -2 -14 21.65 5.05
3 -1 14 21.92 3.6
3 -2 14 24.65 4.23
2 -3 -14 21.27 3.82
1 2 14 23.31 5.97
2 1 -14 23.58 4.84
3 -2 -14 20.63 4.15
3 -1 -14 16.04 4.42
-1 -2 14 29.94 6.17
-3 2 14 20.58 5.2
-1 3 14 24.08 3.32
-1 3 -14 21.29 5.08
-3 1 -15 344.47 22.3
2 1 15 409.31 23.21
-3 2 -15 403.05 13.38
-1 -2 -15 394.89 17.59
-1 3 -15 395.1 22.51
2 1 15 485.04 23.53
1 2 15 383.66 18.68
2 1 -15 496.72 24.23
1 2 15 460.93 26.11
1 2 15 441.13 26.62
-3 1 -15 414.42 16.32
-2 -1 15 344.56 18.09
-2 -1 -15 402.61 19.6
-2 3 15 324.82 20.74
1 -3 15 449.39 22.91
1 2 15 507.74 23.96
-2 3 -15 532.36 23.34
2 -3 -15 329.93 14.97
2 -3 15 452.36 21.51
-2 3 -15 533.09 17.5
3 -1 -15 501.12 24.64
1 2 -15 426.15 20.4
-3 1 -15 465.38 16.45
1 -3 -15 304.4 13.13
3 -2 15 429.7 23.11
2 -3 -15 407.44 12.8
-3 1 15 297.38 20.8
3 -1 15 370.21 16.86
3 -2 -15 473.65 24.26
3 -1 15 425.43 26.83
-2 -1 -15 376 18.85
2 -3 15 425.5 23.73
2 1 -15 417.16 27.05
-1 -2 -15 343.83 19.7
1 2 -15 371.8 24.69
-1 -2 15 419.74 25.15
1 -3 15 403.7 23.68
1 -3 -15 438.88 14.73
-3 2 15 314.77 21.46
-3 2 -15 456.81 24.05
-1 3 -15 422.9 10.62
2 1 15 448.17 28.49
1 -3 -15 439.21 25.97
-1 3 -15 552.16 24.55
-1 -2 15 388.2 19.39
-3 1 -15 325.31 16.36
-2 3 -15 373.37 21.27
3 -2 15 415.69 17.96
3 -2 15 437.87 25.68
3 -2 -15 294.14 16.13
-2 3 15 520.21 26.62
-2 -1 -15 339.27 8.94
-1 3 15 290.9 19.85
-1 3 15 530.96 24.22
3 -1 -15 331.02 20.89
2 1 -16 30.33 7.03
-1 -2 -16 20.49 2.35
1 2 -16 34.13 7.59
2 -3 16 33.48 7.12
2 -3 16 38.54 6.47
3 -2 16 32.3 7.61
2 1 16 33.74 7.84
-3 1 -16 33.75 7.26
1 -3 16 32.44 6.17
2 1 16 41.32 6.69
3 -2 -16 20.35 4.13
-1 3 -16 42.34 6.8
-1 3 -16 32.2 3.01
-3 1 -16 25.05 4.48
-1 3 -16 33.3 6.71
3 -1 -16 27.25 6.26
2 1 -16 37.82 6.71
1 -3 16 34.71 6.67
-2 -1 16 28.28 5.19
2 -3 -16 23.71 4.1
3 -2 16 33.28 5.16
-3 2 -16 31.66 3.77
-3 2 -16 34.28 6.39
-3 1 -16 32.53 4.58
-1 -2 -16 27.25 5.56
-1 -2 16 31.98 5.57
-2 -1 -16 30.03 2.87
-1 3 16 38.15 6.72
1 -3 -16 23.45 3.76
1 2 16 45.73 8.67
-2 3 -16 44.92 6.72
-3 1 16 25.42 6.13
2 1 16 31.94 6.5
-2 -1 -16 31.26 5.72
1 -3 -16 38.27 7.99
1 2 16 36.15 6.73
2 -3 -16 33.23 3.86
3 -1 16 31.21 7.62
-2 -1 -16 29.31 5.33
-1 3 16 23.3 5.71
1 2 16 36.24 7.27
1 2 16 27.97 5.12
-1 -2 -16 32.41 5.12
3 -2 -16 37.98 7.25
3 -1 -16 42.04 7.56
3 -1 16 27.68 4.75
-3 2 16 22.6 5.91
-3 1 -16 36.77 4.67
1 2 -16 35.21 6.12
-2 3 16 26.15 6.01
-2 -1 -16 17.71 2.06
-2 3 -16 27.17 6.01
2 -3 -17 38.87 5.32
1 2 -17 60.34 8.02
1 -3 -17 35.2 4.61
-2 3 -17 52.82 8.7
-2 3 -17 37.21 2.31
3 -2 -17 37.77 5.87
-3 1 -17 55.85 6.21
2 1 17 58.98 9.05
-3 2 -17 47.12 4.8
-2 -1 -17 44.33 7.06
-3 1 17 34.3 7.38
-3 2 17 43.89 7.53
-2 -1 17 45.38 7.15
-1 -2 -17 50.21 6.74
-2 3 17 35.46 7.03
-1 -2 -17 28.49 2.91
1 2 17 37.87 6.39
-3 1 -17 41.05 6.18
-3 2 -17 61.09 8.96
2 -3 17 57.8 8.21
2 1 17 59.91 10.65
3 -2 17 58.57 10.24
3 -1 -17 43.44 7.89
2 1 17 70.21 9.22
1 2 17 58.58 10.1
1 2 17 56.48 8.71
1 2 17 58.5 9.28
2 -3 17 54.58 9.4
-1 3 17 44.33 8.16
2 1 -17 65.05 10.66
3 -1 -17 61.09 9.55
-1 3 -17 52.2 9.03
-2 -1 -17 42.61 6.58
-1 -2 -17 41.82 7.13
-1 -2 17 52.09 7.49
3 -1 17 58.95 10.76
1 -3 -17 51.31 9.21
2 -3 -17 49.54 5
-2 -1 -17 53.76 4.09
-2 3 -17 72.23 8.83
-2 -1 -17 28.19 2.8
3 -2 17 50.38 6.79
1 -3 17 58.53 9.28
-3 2 17 35.69 7.62
-3 1 -17 55.48 9.59
1 2 -17 46.96 9.23
3 -1 17 50.11 6.72
-3 1 -17 62.34 6.3
2 1 -17 67.9 9.42
-1 3 -17 56.52 4.08
2 1 18 3.18 2.96
-3 1 -18 0.29 0.65
-2 3 -18 -0.14 0.91
-2 -1 18 -0.2 1.82
1 2 18 -0.69 0.86
-3 1 -18 -0.53 1.23
1 -3 -18 -3.15 2.81
-2 3 -18 0.98 1.65
3 -1 18 -0.46 0.84
-3 2 -18 1.66 1.95
-1 3 18 0.66 1.08
2 -3 -18 4.44 1.87
-3 1 18 1.21 1.33
-3 2 -18 1.01 1.02
-1 -2 -18 2.07 1.38
-3 2 -18 1.18 0.38
1 -3 -18 -0.4 0.98
2 1 18 0.56 0.9
-1 3 -18 0.12 0.33
-1 -2 -18 0.31 0.29
-1 -2 -18 0.99 2.3
2 1 -18 0.99 0.67
-2 -1 -18 0.14 0.27
-2 3 18 -0.01 1.38
1 -3 18 0.8 0.6
-2 -1 -18 1.63 1.09
3 -1 -18 0.5 1.37
-2 -1 -18 0.34 0.05
-1 -2 18 -0.57 1.38
-3 2 18 5.02 2.53
1 2 -18 0.18 1.28
1 2 -18 2.63 1.86
3 -1 18 0.09 3.38
1 2 18 1.89 2.5
-2 3 -18 0.67 0.2
-3 1 -18 -0.32 0.97
2 1 -18 -0.32 1.61
-3 1 -18 5.47 2.77
2 -3 18 0.19 2.2
-2 -1 -18 0.28 0.88
3 -2 -18 0.13 0.67
3 -2 18 0.41 1.25
3 -2 18 1.09 1.21
-3 2 18 2.1 2.24
2 -3 -18 -0.64 0.88
-1 3 -18 2.44 1.33
1 2 18 1.09 1.61
1 -3 19 38.32 7.86
3 -2 19 30.46 5.51
1 -3 -19 27.65 4.27
2 1 -19 42.84 7.58
2 1 -19 35.67 8.15
-2 -1 -19 19.69 2.57
-3 2 19 22.89 6.02
-3 2 -19 31.06 3.99
2 1 19 42.18 9.57
-3 1 19 21.99 5.42
3 -2 19 33.15 7.98
-2 3 -19 33.96 7.71
2 -3 -19 19.11 3.88
-2 3 19 25.67 6.37
1 2 19 38.06 8.67
2 1 19 40.8 7.3
-1 -2 -19 33.86 5.96
3 -2 -19 21.56 4.76
-3 2 -19 43.48 6.26
-2 -1 -19 25.85 5.8
-1 -2 19 35.38 6.34
-1 -2 -19 18.79 2.51
-1 3 -19 33.38 7.89
3 -1 19 33.08 8.83
-3 2 19 19.62 5.92
-2 3 -19 26.79 2.32
-1 3 -19 33.25 3.29
1 -3 -19 32.96 7.78
-3 1 -19 33.97 7.88
1 2 19 39.8 8.01
1 -3 -19 17.71 3.46
-3 2 -19 38.94 7.6
-2 -1 -19 30.22 5.95
-3 1 -19 22.42 4.61
1 2 -19 35 7.98
3 -1 19 36.57 6.35
2 -3 19 38.66 8.53
1 2 19 28.46 5.95
-2 -1 -19 33.53 3.54
3 -1 -19 39.24 7.47
-1 -2 -19 32.59 6.6
-2 -1 19 25.58 5.53
1 2 -19 42.26 7.12
-3 1 19 23.5 6.57
-1 3 19 31.93 7.39
-3 1 -19 25.42 4.63
-2 -1 -20 97.57 10.78
-2 -1 20 91.63 11.06
3 -1 20 119.66 11.79
-3 2 20 60.95 11.09
-1 -2 20 110.94 12.09
-1 3 20 87.54 12.51
-1 -2 -20 89.83 9.82
-2 3 -20 85.03 4.36
3 -2 -20 78.49 9.37
-3 2 -20 131.61 11.53
-3 1 20 68.56 11.83
1 -3 -20 114.57 14.45
3 -2 20 95.45 15.11
-2 3 -20 94.57 13.46
-2 3 20 84.26 12.21
-3 2 -20 92.99 7.19
-2 -1 -20 105.53 6.74
-3 2 -20 108.52 12.46
1 -3 -20 94.25 8.39
2 -3 -20 59.97 7.39
3 -1 -20 84.6 11.39
-3 1 -20 141.87 16.1
-2 -1 -20 89.25 10.74
2 -3 20 108.77 14.48
2 1 20 126.37 16.55
3 -2 20 96.41 10.55
1 2 20 67.97 9.73
1 -3 20 119.06 14.1
2 1 20 132.54 13.72
-3 2 -20 193.32 20.63
1 2 -20 107.82 11.85
3 -1 20 108.34 15.72
-1 -2 -20 47.24 4.39
-3 1 20 71.85 10.19
-1 3 -20 94.64 13.43
1 2 -20 108.65 14.79
-2 -1 -20 62.74 4.92
-1 -2 -20 98.59 11.67
-3 1 -20 93.17 8.68
1 -3 -20 55.41 6.44
-1 3 -20 106.32 6.2
1 2 20 138.22 17.02
2 1 -20 108.58 14.44
-3 1 -20 72.05 8.74
-3 2 20 69.23 10.42
-1 -2 -20 131.43 7.88
3 -2 -21 34.56 6.34
-3 1 -21 63.4 11.12
-1 -2 21 45.46 8.1
3 -2 21 49.89 10.67
-3 2 21 27.55 7.46
1 -3 -21 40.02 5.66
-3 2 -21 56.96 7.71
1 -3 -21 25.37 4.34
-2 3 -21 52.2 10.29
2 -3 -21 52.28 10.27
-3 2 -21 81.23 13.47
-2 -1 -21 28.2 3.39
3 -1 -21 36.34 7.73
2 -3 -21 29.18 5.04
-3 2 21 33.01 7.51
-1 3 -21 42.97 3.91
2 1 -21 43.44 8.95
-1 -2 -21 21.12 2.95
1 2 21 53.66 10.4
2 -3 -21 46.72 5.69
-1 3 21 44.45 9.05
-2 3 21 46.38 9.34
2 1 21 52.55 11.14
3 -1 21 50.26 7.62
-2 -1 -21 47.86 8.16
-3 1 -21 42.66 5.9
1 -3 21 47.76 8.87
-3 2 -21 45.81 7.87
-3 2 -21 45.84 5.15
-2 3 -21 38.24 3.01
-2 -1 -21 38.43 7.02
-1 -2 -21 40.36 7.6
-3 1 21 29.89 7.89
1 -3 -21 49.73 9.71
3 -2 21 48.08 7.85
2 1 21 63.13 9.88
-1 3 -21 44.35 9.38
-3 1 21 33.98 7.11
-1 -2 -21 41.14 6.76
1 2 -21 52.49 10.35
2 -3 21 50.07 9.76
3 -1 21 48.93 10.88
-2 -1 21 41.06 7.79
1 -3 -22 12.06 3.17
3 -2 -22 19.34 4.55
-1 3 -22 26.9 7.15
-2 -1 22 23.14 5.71
1 -3 -22 23.37 4.49
2 1 -22 26.57 6.93
-1 3 22 26.7 7.38
2 -3 -22 28.72 8.11
-3 2 22 14.76 5.99
2 -3 -22 27.6 4.29
-2 3 -22 26.93 7.28
2 -3 22 29.38 7.92
2 -3 -22 17.31 3.88
-2 3 22 24.04 6.77
1 2 -22 27.56 7.54
-3 1 22 17.26 5.49
-3 1 -22 24.36 4.65
-3 2 -22 44.96 9.86
1 -3 -22 26.36 6.7
3 -1 22 24.33 7.07
-3 2 -22 27.76 6.13
-3 2 22 15.25 4.93
-2 -1 -22 24.21 6.14
1 -3 22 25.75 6.65
-2 -1 -22 22.46 5.17
3 -2 22 34.14 8.67
-3 1 22 19.06 6.04
-3 1 -22 35.4 8.44
-1 -2 -22 25.59 6.01
2 1 22 34.4 9.02
-1 -2 22 27.83 6.37
-3 2 -22 26.78 3.96
1 2 22 33.64 8.72
-1 -2 -22 22.38 5.44
3 -1 -22 17.85 5.43
-1 -2 23 19.96 5.66
3 -1 -23 9.57 3.86
-3 2 -23 33.05 8.51
-1 3 -23 18.67 5.98
3 -1 23 29.23 8.39
-3 1 -23 28.97 7.65
3 -2 23 20.92 6.76
-1 3 23 21 6.74
1 2 -23 21.3 5.74
1 -3 23 25.85 7.3
2 -3 23 18.11 5.76
-2 3 -23 19.53 6.09
1 2 23 26.9 8.02
-1 -2 -23 17.5 4.86
1 -3 -23 17.72 5.36
3 -2 -23 17.7 4.79
-2 -1 -23 21.79 5.76
2 -3 -23 18.99 6.27
-3 1 -23 22.88 4.51
1 -3 -23 11.63 2.98
2 1 -23 20.2 6.64
-2 -1 -23 16.55 4.88
-2 -1 23 20.41 5.62
2 -3 -23 11.49 3.36
-3 2 23 17.55 5.27
-3 2 -23 15.33 4.53
-1 -2 -23 12.61 4.24
2 -3 -23 21.45 4.02
-2 3 23 19.28 6.17
1 -3 -23 21.95 4.35
-3 2 23 15.81 6.57
2 1 23 20.34 6.84
-3 1 23 17.17 6.57
-1 -2 24 0.64 2.27
-1 3 -24 8.64 4.82
3 -2 -24 2.47 1.72
2 -3 -24 1.46 0.97
-1 -2 -24 3.09 2.12
-3 2 24 2.74 3.08
-3 2 24 0.33 1.11
-2 3 -24 0.4 2.43
-2 -1 24 -1.64 2.47
1 -3 -24 -0.98 1.45
-3 2 -24 -2.71 2.95
2 1 -24 -0.42 2.04
2 -3 -24 0.74 1.7
2 1 24 -0.04 2.23
-2 -1 -24 1.27 1.53
3 -1 -24 -0.57 1.21
-1 -2 -24 0.27 1.39
2 -3 24 1.02 2.13
3 -2 24 3.45 3.24
1 2 -24 2.18 2.23
1 -3 24 1.42 2.68
3 -2 -24 0.24 1.63
-1 3 24 -1.01 2.89
-2 3 24 0.11 1.63
-3 2 -24 -0.63 1.5
-3 1 -24 1.51 2.97
-3 1 24 2.5 2.15
-3 1 -24 0.12 0.82
-2 -1 -24 0.37 1.32
1 -3 -24 2.23 3.02
3 -1 24 -2.04 2.6
1 2 24 2.52 2.76
1 -3 -24 1.46 1.23
2 -3 -24 0.86 0.8
1 2 25 14.07 5.71
3 -2 25 12.23 5.39
3 -1 25 19.67 6.81
2 1 25 15.41 5.88
-2 -1 25 11.06 3.81
-3 2 -25 29.63 8.33
-3 2 25 10.89 4.96
-1 -2 -25 9.65 3.95
-1 -2 25 18.04 5.71
-2 -1 -25 16.53 5.1
-1 3 25 14.64 5.26
1 -3 -25 11.36 3.1
-3 2 -25 12.1 3.94
2 -3 -25 9.1 2.81
-1 3 -25 12.79 5.53
1 -3 25 20.72 6.36
-2 -1 -25 16.27 4.93
2 -3 -25 15.39 5.29
-2 3 25 15.09 5.52
-2 3 -25 16.54 5.12
2 1 -25 16.93 5.24
1 2 -25 16.86 4.93
3 -2 -25 13.16 3.81
1 -3 -25 12.22 4.67
-1 -2 -25 10.53 3.94
2 -3 25 18.46 6.05
-3 1 -25 17.61 5.76
-3 1 25 8.01 3.79
1 2 -26 4.75 3.92
3 -2 -26 1.9 0.89
-2 3 26 0.14 1.28
-3 2 -26 2.25 1.9
2 -3 -26 0.31 0.5
-3 2 -26 8.36 4.74
-1 3 -26 4.16 3.33
-3 1 26 0.95 1.86
-1 -2 -26 0.27 1.89
3 -1 26 -1.7 4.38
-1 3 26 2.76 1.22
1 2 26 1.12 2.26
2 1 -26 2.47 3.45
-1 -2 26 -4.29 3.5
1 -3 26 4.71 3.17
3 -2 26 0.63 3.25
1 -3 -26 4.63 3.62
-1 -2 -26 1 0.45
-2 3 -26 2.75 2.03
-3 2 26 -1.28 1.99
2 -3 26 5.82 4.22
2 1 26 -2.52 4.23
-2 -1 -26 3.06 2.69
-3 1 -26 4.89 2.96
-2 -1 26 2.02 1.35
-2 -1 -26 6.57 3.63
3 -2 -27 29.29 6.56
3 -1 -27 31.62 6.64
-2 -1 -27 34.18 7.69
-1 3 -27 32.21 7.93
1 -3 -27 39.85 9.27
-2 3 -27 39.24 8.67
-1 -2 27 36.47 8.12
-1 -2 -27 33.47 6.95
-2 -1 27 35.54 8.23
-2 -1 -27 38.68 7.58
-3 2 -27 30.95 6.77
-3 2 -27 73.01 12.85
-3 1 -27 53.07 10.74
3 -2 27 42.37 10.15
2 -3 -27 34.61 8.11
-1 -2 -27 36.83 8.06
1 -3 27 38.92 8.67
2 -3 27 41.35 9.88
-2 -1 27 36.67 10.12
-2 -1 -28 1.22 0.85
2 -3 -28 3.26 3.1
3 -1 -28 4.63 1.98
1 -3 28 -0.39 1.47
1 -3 -28 0.27 1.89
2 -3 28 1.92 1.75
-2 -1 28 4.64 3.38
-1 -2 -28 1.23 1.36
-1 3 -28 1.94 3.35
-1 -2 -28 -1.77 2.96
3 -2 -28 7.45 4.34
3 -2 -28 5.63 3.39
-2 3 -28 3.52 2.64
-1 -2 28 1.73 2.21
-2 3 -29 -5.61 4.19
1 -3 29 5.87 1.12
1 -3 -29 0.99 2
3 -1 -29 3.78 3.38
2 -3 -29 -6.26 3.54
-2 -1 -29 -0.21 1.93
3 -3 0 133.17 7.88
-3 3 0 123.05 6.58
0 3 0 121.46 6.92
3 0 0 122.35 6.24
0 -3 0 129.41 7.25
0 3 0 125.41 7.22
-3 0 0 124.75 6.43
-3 0 0 122.14 5.22
0 3 0 132.34 7.82
-3 3 0 125.78 5.51
3 0 0 136.04 6.75
3 0 0 131.93 6.66
-3 0 0 135.24 6.48
0 -3 0 131.62 6.87
0 3 0 135.11 7.38
-3 0 1 0.7 0.55
3 -3 -1 1.73 0.99
3 0 1 1.05 0.73
-3 3 1 0.89 0.69
-3 3 1 0.45 0.33
0 -3 -1 0.96 0.86
-3 3 -1 0.96 0.54
3 -3 1 0.94 0.95
3 0 -1 1.2 0.63
0 3 -1 1.04 0.55
0 3 -1 1.91 0.94
0 3 1 1.09 0.3
0 3 -1 1.53 1.1
-3 0 -1 2.07 0.61
3 0 1 0.92 0.58
0 3 -1 1.49 0.78
-3 3 -1 0.84 0.63
3 0 -1 1.09 0.55
0 3 1 0.78 0.86
0 3 1 0.25 0.36
3 0 1 1.12 0.77
-3 0 1 0.83 0.16
0 -3 1 0.84 0.29
0 -3 1 1.36 0.9
-3 0 1 0.18 0.14
0 3 1 1.51 0.78
3 0 -1 0.13 0.1
3 0 1 0.65 0.3
0 3 1 1.43 0.77
0 -3 -1 0.36 0.34
-3 0 -1 1.66 0.78
-3 0 -1 1.19 0.56
0 3 2 133.8 6.58
3 -3 -2 137.06 4.77
0 -3 2 133.49 6.79
-3 0 -2 129.8 6.72
0 3 2 131.94 7.31
-3 0 -2 125.7 3.95
3 -3 -2 153.92 8.32
3 0 2 142.03 5.86
-3 0 2 136.97 8.69
-3 3 -2 135.93 5.32
0 3 2 128.49 7.38
3 -3 2 149.19 7.51
-3 0 2 133.6 6.94
0 -3 -2 136.36 8.29
3 0 2 137.77 6.98
3 -3 2 139.93 8.18
-3 3 -2 137.7 6.47
0 -3 2 135.78 5.15
3 0 -2 133.18 6.9
0 3 -2 126.54 7.17
3 0 -2 89.67 7.83
3 -3 2 140.49 5.65
0 -3 -2 137.61 7.37
-3 0 -2 127.94 4.39
3 0 2 89.29 5.04
-3 3 -2 136.2 6.94
0 3 -2 143.91 7.63
-3 3 2 133.19 7.37
0 3 -2 127.71 7.57
3 0 2 147.92 7.26
0 3 2 137.34 6.86
0 -3 -2 137.71 8.49
-3 3 -3 2.63 0.75
0 3 -3 1.94 0.73
3 0 3 2.28 0.62
-3 3 3 4.72 1.37
0 3 -3 3.82 1.41
0 -3 3 2.12 0.45
3 0 -3 2.43 1.49
-3 0 -3 3.23 0.69
0 3 3 2.88 1.09
3 0 3 3.06 0.84
-3 3 3 1.55 0.47
0 -3 -3 1.95 0.83
3 -3 3 5.49 1.66
0 3 3 3.59 0.96
3 -3 3 2.82 1.05
-3 0 3 2.44 1.33
0 -3 3 2.92 0.91
3 0 3 1.35 0.67
-3 3 -3 2.18 0.95
3 0 3 3.15 1.14
0 3 3 2.2 1.01
3 -3 -3 2.37 0.54
3 0 -3 5.27 1.37
0 -3 -3 2.02 1.19
0 3 -3 1.51 0.49
0 -3 -3 0.59 0.71
3 -3 3 3.11 0.79
3 0 3 1.93 0.8
-3 3 -3 3.74 1.09
-3 0 3 2.14 0.93
-3 0 -3 2.51 1.04
3 -3 -3 2.37 1.14
0 -3 -4 481.41 17.44
0 3 4 487.42 15.23
3 0 4 554.67 15.39
3 0 4 481.6 14.49
0 3 -4 483.11 15.76
0 3 4 419.47 10.19
0 3 4 490.93 15.72
3 -3 -4 554.81 16.14
3 -3 4 530.42 14.91
3 0 4 472.71 9.46
0 -3 4 480.38 12.23
3 0 4 494.84 9.36
-3 3 4 497.62 15.6
0 3 -4 511.32 13.48
0 -3 -4 503.92 19.44
-3 0 4 469.85 14.58
3 -3 4 511.13 10.72
3 0 -4 340.33 17.27
-3 0 -4 478.11 14.08
0 -3 -4 483.78 12.94
3 0 4 511.93 14.52
-3 0 -4 500.81 16.2
-3 3 -4 460.68 11.89
-3 0 4 496.39 20.18
-3 3 -4 480.67 13.85
3 0 -4 521.82 14.96
3 -3 4 471.24 15.13
0 -3 -5 10.7 1.5
-3 0 5 12.86 2.54
3 0 5 12.59 2.37
-3 3 5 12.42 2.64
-3 3 -5 10.61 1.9
-3 0 -5 11.75 2.34
-3 3 -5 15.16 2.82
3 -3 5 11.93 2.45
0 3 -5 12.47 2.7
3 0 5 12.83 2.44
0 -3 -5 11.65 3.11
3 0 5 13.42 1.51
-3 0 5 9.88 2.85
3 -3 -5 12.11 2.33
3 -3 5 13.32 1.82
0 3 5 11.6 2.39
-3 3 -5 11.33 2.2
0 3 5 13.48 2.87
3 0 -5 11.13 3.49
0 3 -5 12.74 2.06
3 0 5 15.69 3.28
3 0 5 11.62 1.48
3 0 5 12.85 2.43
0 -3 -5 15.46 2.27
0 -3 -5 9.79 3
3 0 5 13.38 2.46
0 3 5 10.82 1.69
3 0 -5 13.81 2.58
3 -3 5 12.86 2.44
0 3 5 13.35 1.67
-3 0 -6 1958.39 33.24
0 3 -6 1765.4 32.83
3 0 6 1918.2 30.77
0 -3 -6 1769.29 23.76
-3 3 -6 1754.47 25.1
3 -3 6 1937.19 27.01
-3 0 6 1734.93 43.56
3 0 -6 2026.48 32.84
3 0 6 1842.42 30.96
3 -3 6 1905.44 23.08
-3 3 -6 1715.88 28.48
-3 3 6 1856.91 33.98
0 3 -6 1937.87 25.49
0 3 6 1733.57 31.62
0 -3 -6 1832.42 42.4
0 -3 -6 1768.85 36.75
0 3 6 1818.88 35.24
3 0 -6 1427.12 39.19
3 0 6 2124.8 33.3
0 -3 6 1795.31 22.19
0 3 6 1651.32 21.69
3 0 6 1681.76 17.38
3 0 6 1959.76 39.03
-3 0 6 1807.81 32.07
0 -3 -6 1585.98 18.33
3 -3 6 1634.39 28.36
-3 3 -6 2222.08 35.61
0 3 6 1699.07 18.09
3 -3 6 2072.59 31.89
3 -3 -6 2123.15 32.94
3 0 6 1828.81 30.89
3 0 6 1761.03 20.1
3 0 7 13.56 2.79
0 3 -7 7.31 2.02
-3 3 7 8.89 2.54
0 -3 -7 8.45 1.58
3 -3 7 7.57 1.68
3 0 7 8.72 1.96
3 0 -7 8.6 1.84
-3 3 -7 6.95 1.62
3 -3 -7 10.38 2.32
3 0 -7 9.48 3.53
0 3 7 8.27 2.31
0 -3 7 7.11 1.58
0 3 -7 8.36 1.6
3 -3 7 7.01 1.86
-3 0 -7 9.02 2.24
3 0 7 8.77 1.53
0 3 7 8.08 1.17
3 -3 7 10.3 1.81
3 0 7 7.24 2.1
0 3 7 4.7 2.08
3 0 7 7.88 1.14
-3 3 -7 10.4 2.46
-3 0 -7 8.53 1.34
0 -3 -7 8.39 2.92
3 0 7 4.83 0.94
-3 0 7 8.86 3.03
3 0 7 8.25 2.34
0 3 7 7.67 1.51
3 -3 7 8.63 1.09
-3 3 7 8.47 1.93
-3 0 7 8.47 2.16
0 -3 -7 9.51 3.46
3 -3 7 10.69 2.42
3 0 7 8.42 2.08
3 0 8 4.56 1.1
-3 3 8 4.46 0.63
3 -3 8 8.46 1.99
0 -3 8 6.48 1.87
0 3 -8 8.44 2.55
3 0 8 7.41 1.1
0 -3 -8 5.38 1.31
0 3 8 3.93 1.75
3 -3 8 4.44 1.48
3 0 8 8.03 2.05
-3 0 -8 7.6 2.19
3 -3 8 6.67 0.88
0 3 -8 8.37 1.64
3 0 8 6.58 2.29
3 -3 8 7.04 1.74
3 -3 -8 7.44 2.08
3 0 8 6.23 2.26
3 0 8 7.68 2.2
-3 0 -8 5.61 1.03
-3 0 8 6.94 2.16
-3 3 -8 5.9 1.59
-3 3 -8 8.83 2.55
3 0 8 5.33 1.69
3 0 -8 10.21 3.52
-3 3 8 6.21 2.37
0 3 8 7.22 1.11
3 0 -8 7.55 1.82
0 3 8 5.43 1.26
0 -3 -8 6.27 2.49
-3 0 -9 1.72 0.59
-3 3 9 3.17 1.71
3 -3 9 2.65 1.19
0 3 -9 2.47 1.83
3 0 9 1.25 0.34
0 -3 -9 2.4 0.81
3 0 9 2.54 1.03
3 0 9 3.82 1.31
0 -3 -9 1.34 1.5
3 -3 9 2.36 0.53
3 -3 9 3.21 1.35
3 0 -9 2.47 0.92
-3 0 -9 5.33 2.03
0 -3 9 1.52 0.8
3 0 -9 2.42 1.91
0 3 -9 3.92 1.14
0 3 9 4.09 2.02
3 0 9 2.46 1.37
0 3 9 2.72 1.07
-3 0 9 2.65 1.45
3 -3 -9 3.49 1.6
-3 3 -9 3.73 1.62
3 0 9 3.62 1.57
3 0 9 3.11 1.25
3 -3 -10 426.93 16.09
0 -3 -10 376.87 19.93
3 0 10 427.58 23.12
0 -3 10 423.24 17.76
3 0 10 373.31 17.72
3 -3 10 443.84 15.33
0 -3 -10 303.82 9.95
0 -3 -10 447.72 26.07
0 3 10 357.81 12.14
3 0 10 381.96 12.7
3 0 10 394.81 14.87
-3 0 -10 325.54 7.85
3 0 -10 402.64 23.26
3 -3 10 454.16 19.18
3 0 -10 476.57 17.1
0 3 10 319.34 18.82
-3 0 10 365.97 18.66
-3 0 -10 427.83 16.61
-3 3 -10 403 15.58
3 -3 10 466.14 18.58
3 0 10 470.76 19.87
3 0 10 295.98 17.8
0 3 -10 393.91 18.65
-3 3 10 395.49 19.75
0 3 -10 421.47 12.35
0 3 -11 16.23 2.45
3 0 11 12.79 2.5
3 -3 11 19.39 3.33
0 -3 11 18.54 3.86
-3 3 -11 15.14 3.22
0 3 -11 16.53 4.06
0 -3 -11 14.99 4.02
0 -3 -11 14.86 5.07
0 3 11 11.55 2.3
3 0 11 18.67 4.87
3 -3 -11 14.92 3.23
0 3 11 10.48 3.59
-3 0 -11 15.15 3.66
-3 0 -11 20.29 3.66
3 0 11 15.65 3.93
3 0 -11 17.94 3.58
0 -3 -11 10.55 1.86
-3 3 11 14.02 3.92
3 -3 11 17.66 3.92
0 3 11 17.01 2.54
0 -3 -11 18.41 2.88
3 -3 -11 11.73 1.17
3 0 -11 17.38 4.89
3 -3 11 18.69 3.73
3 0 11 13.83 2.82
3 0 11 15.66 3.74
3 0 11 13.62 3.84
-3 0 11 12.64 3.53
-3 0 -11 13.31 1.63
-3 0 12 6.82 3.24
0 -3 -12 2.88 1.61
-3 0 -12 2.44 1.42
3 -3 -12 3.68 0.8
3 0 12 7.71 3.05
0 -3 -12 3.9 2.59
3 -3 12 4.75 1.89
3 0 12 6.18 3
0 3 12 4.88 2.39
0 -3 -12 3.06 0.94
-3 3 12 2.51 1.82
0 3 -12 4.86 1.27
3 -3 -12 3.83 1.64
3 -3 12 4.79 2.12
-3 3 -12 3.83 1.85
3 0 -12 4.16 2.04
0 -3 12 3.6 1.81
3 0 12 13.79 2.75
3 -3 -12 6 2.53
3 0 12 5.77 2.36
3 0 -12 4.21 1.81
3 0 12 5.66 1.85
0 3 -12 3.81 2.07
0 -3 12 5.15 2.26
0 3 12 5.82 1.83
-3 0 -12 3.05 0.85
-3 0 -12 4.19 1.82
0 3 12 6.11 1.53
3 -3 12 7.97 2.22
0 -3 -13 15.69 5.15
0 3 13 7.42 2.75
0 3 13 14.73 2.65
-3 0 13 9.67 3.17
3 -3 -13 13.6 1.76
3 0 13 17.94 3.37
3 0 -13 16.99 3.89
0 3 -13 13.92 2.41
3 -3 13 15.67 3.97
3 -3 13 16.21 3.45
-3 0 -13 15.04 3.31
0 -3 -13 10.25 1.81
3 -3 -13 16.29 4.37
-3 3 -13 18.36 4.08
-3 0 13 22.46 6.35
3 0 13 15.2 3.15
3 0 13 14.01 4.03
3 -3 -13 12.92 3.02
0 3 13 14.57 3.15
0 -3 13 18.05 4.39
3 -3 13 17.48 4.3
-3 3 13 21.16 5.29
0 3 -13 12.22 3.82
0 -3 -13 10.95 3.71
-3 3 13 11.51 3.69
0 -3 13 15.62 3.5
-3 0 -13 12.09 3.45
-3 0 -13 10.19 1.59
3 0 -13 16.14 4.86
3 0 13 12.24 3.79
-3 3 -13 14.77 3.84
3 0 13 12.35 4.58
3 -3 -14 50.91 6.27
-3 0 -14 56.63 7.9
3 -3 14 66.61 7.18
-3 3 -14 83.14 8.51
-3 3 14 47.09 7.94
3 -3 -14 55.42 3.95
3 -3 14 69.09 9.09
3 0 14 50.13 5.96
0 -3 -14 45.3 4.04
3 0 14 63.33 10.79
0 -3 14 74.66 8.65
0 3 -14 57.75 8.53
0 -3 -14 49.82 8.23
0 -3 -14 71.03 11.77
-3 0 14 46.06 7.84
-3 3 14 84.27 11.47
0 3 14 73.05 7.73
3 0 14 74.62 7.49
0 3 14 61.47 5.86
3 -3 -14 69.89 9.11
0 -3 14 68.19 9.08
3 0 -14 62.11 9.57
3 0 -14 73.96 8.94
3 -3 14 68.53 8.52
-3 3 -14 63.36 8.01
-3 0 -14 39.57 5.79
-3 0 14 85.42 12.71
-3 0 -14 51.66 3.86
0 3 14 56.13 8.82
3 0 15 0.56 0.31
3 -3 -15 -0.16 0.82
-3 0 -15 1.59 1.98
3 0 -15 2.17 1.94
0 -3 -15 1.63 0.68
-3 0 15 2.17 0.63
-3 3 -15 3.02 1.84
0 3 -15 2.72 2.44
0 3 15 2.95 2.13
0 3 15 2.2 1.1
0 -3 -15 2.68 1.18
0 3 15 2.78 1.61
-3 3 15 1.59 1.9
-3 0 -15 0.99 0.44
0 -3 15 2.26 1.01
3 0 -15 1.24 2.02
3 -3 -15 3.01 1.68
3 -3 15 2.61 1.76
3 -3 15 1.48 1.18
-3 3 -15 1.45 1.51
3 -3 15 -0.38 1.09
3 0 15 0.86 1.87
-3 0 -15 1.26 1.12
-3 0 -16 298.75 16.24
0 3 16 367.23 20.38
3 0 -16 332.91 21.31
3 -3 16 332.79 17.83
0 3 16 302.01 14.75
-3 0 16 245.49 19.5
0 3 16 297.23 21.95
0 -3 -16 282.32 20.4
-3 0 -16 265.49 18.07
0 3 -16 293.81 21.33
-3 3 16 231.49 19.08
3 -3 16 333.42 22.48
3 -3 -16 305.26 10.87
3 -3 -16 233.49 14.22
-3 0 -16 288.15 10.39
0 -3 -16 215.41 9.55
0 -3 16 393.76 21.43
-3 3 -16 422.7 20.53
0 -3 -16 334.93 14.82
3 0 16 303.33 25.49
-3 3 -16 301 19.95
3 0 16 386.09 18.69
3 0 -16 324.43 23.47
0 -3 -17 6.2 1.92
3 -3 -17 4.79 1.22
-3 0 -17 5.06 2.94
0 -3 -17 5.7 1.5
3 -3 17 8.89 3.16
0 -3 -17 7.82 2.26
-3 0 -17 6.78 1.71
3 0 17 7.59 4.49
0 -3 17 8.19 2.64
-3 3 17 3.99 2.52
3 0 17 10.1 3.17
3 -3 17 8.86 3.52
-3 3 -17 10.91 3.72
3 -3 -17 8.76 3.01
0 3 17 3.2 1.53
-3 0 -17 4.89 2.16
3 0 -17 5.05 2.49
0 3 17 9.5 3.52
0 3 17 8.34 2.35
3 0 -17 6.27 2.58
-3 3 -17 11.55 3.4
-3 0 17 8.83 3.7
0 3 -17 10.54 3.92
3 0 -18 101.34 13.33
3 -3 -18 94.43 6.75
3 0 -18 110.32 13.2
-3 0 18 66.58 10.98
0 -3 -18 57.85 5.24
-3 3 -18 133.51 12.15
3 -3 -18 61.87 7.54
-3 3 18 65.29 10.72
-3 0 -18 87.86 6.26
-3 0 -18 80.84 10.65
-3 0 -18 85.99 9.14
0 -3 18 116.34 12.04
-3 3 -18 94.74 12.29
0 3 -18 93.76 12.85
0 3 18 97.77 12.84
0 -3 -18 95.1 8.52
3 -3 18 95.26 12.95
3 0 18 113.54 16.67
0 3 18 85.77 8.48
0 -3 -18 93.61 12.04
3 0 18 133.51 11.89
3 -3 18 96.7 10.26
-3 3 19 6.14 2.98
-3 3 19 9.66 4.35
-3 0 19 8.26 4.3
-3 0 -19 8.75 3.83
3 0 -19 6.47 3.14
-3 0 19 6.95 1.19
0 3 19 7.33 1.99
3 -3 19 5.87 3.14
-3 3 -19 9.75 3.15
3 -3 19 9.38 3.18
0 -3 -19 6.91 3.86
0 -3 19 11.84 4.04
3 -3 -19 8.29 2.03
-3 3 -19 8.54 3.14
-3 0 -19 6.71 1.58
3 0 19 11.61 3.51
-3 0 -19 8.54 3.24
3 -3 -19 8.1 2.89
0 -3 -19 9.68 3.03
3 0 19 12.25 5.42
0 3 -19 8.52 3.95
0 -3 -19 3.64 0.45
0 3 19 7.36 3.84
3 0 20 112.1 16.29
3 0 -20 90.03 12.7
0 3 20 72.43 8.41
0 -3 -20 50.3 5.16
0 -3 20 124.25 13.39
0 -3 -20 90.85 8.89
3 0 20 122.21 12.07
-3 3 20 51.79 10.01
3 -3 -20 60.9 7.9
3 -3 20 97.25 14.31
-3 0 -20 82.08 9.38
-3 0 -20 83.11 6.55
3 -3 -20 117.1 8.24
0 3 20 105.3 14.2
-3 0 -20 92.53 12.12
-3 0 20 59.57 10.99
0 -3 -20 94.99 12.68
-3 3 20 65.52 10.38
0 3 -20 86.67 13.2
-3 3 -20 97.61 13.22
3 0 21 3.12 2.02
-3 3 21 3.74 3.79
3 -3 -21 0.77 1.57
-3 0 21 3.65 3.55
-3 3 21 1.58 2.32
3 -3 21 3.24 3.54
3 0 -21 2.93 1.66
0 -3 -21 -0.14 0.87
0 -3 -21 0.28 0.68
0 3 -21 0.37 0.29
-3 0 -21 6.32 3.47
3 0 21 -0.04 2.51
0 -3 21 -0.01 0.86
-3 0 -21 -0.07 0.65
0 -3 -21 1.41 1.93
-3 3 -21 1.46 2.3
0 3 21 1.74 1.87
0 3 21 -0.21 1.46
-3 0 -22 53.24 7.64
-3 0 -22 45.71 8.97
0 -3 -22 41.74 6.36
-3 3 22 35.6 8.71
0 -3 22 52.68 9.33
3 -3 -22 33.37 6.02
0 -3 -22 52.72 9.42
3 0 -22 46.15 8.61
-3 0 22 39.28 9.21
-3 3 22 40.81 8.61
3 0 22 60.39 12.16
-3 3 -22 53.77 9.78
0 3 -22 52.77 10.78
3 -3 22 57.4 11.56
0 3 22 57.34 11.21
0 -3 -22 25.26 3.82
-3 3 -23 -0.4 1.88
3 0 -23 1.21 1.78
-3 0 -23 -0.01 0.96
0 -3 23 1.67 1.12
-3 3 23 0.19 1.97
3 -3 -23 1.85 1.87
0 -3 -23 5.5 2.21
3 -3 23 1.11 1.55
-3 0 23 2.73 2.23
3 0 23 0.73 1.89
0 3 23 0.93 1.72
-3 0 -23 1.36 0.78
0 3 -23 6.15 3.9
0 -3 -23 0.26 1.97
3 -3 24 17.33 6.61
3 -3 -24 10.4 3.88
-3 3 -24 16.24 5.49
0 -3 24 24.61 6.47
0 -3 -24 12.67 4.56
3 0 24 21.29 6.64
-3 3 24 13.18 5.5
-3 0 24 11.18 5.2
3 0 -24 15.98 5.38
-3 0 -24 13.4 5.34
0 3 24 16.66 5.85
0 -3 -24 14.57 3.73
-3 0 -24 13.71 3.65
0 3 -24 17.97 5.69
0 -3 25 5.6 3.51
3 0 -25 4.29 3.59
-3 3 25 1.27 3.34
0 -3 -25 9.16 3.14
0 3 -25 3.08 2.81
3 -3 -25 1.07 1.48
0 -3 -25 3.36 0.48
-3 0 -25 3.16 1.8
3 -3 25 3.16 2.42
3 0 25 -0.15 2.03
-3 0 25 0.51 1.03
0 3 25 4.57 1.75
-3 3 -25 4.82 3.89
-3 0 -25 0.9 0.79
0 -3 -26 42.76 9.33
0 -3 26 51.75 9.91
-3 3 -26 39.83 8.23
3 -3 -26 28.59 5.81
3 -3 26 48.48 10.52
0 -3 -26 43.92 7.06
3 0 -26 35.97 8.43
0 3 -26 47.46 10.69
3 -3 -26 43.68 9.52
-3 0 26 34.76 9.26
-3 0 -26 53.12 10.19
0 -3 -27 2.36 1.12
3 -3 27 -1.49 1.46
-3 3 -27 3.52 1.82
0 -3 27 -0.55 0.23
3 -3 -27 -1.08 2.95
3 -3 -27 0.09 1.33
0 3 -27 -0.71 2.89
-3 0 -27 0.11 1.91
0 -3 -28 16.46 5.99
3 -3 -28 11.99 5.16
-3 3 -28 11.41 3.91
-2 4 0 9181.28 61.75
-2 4 0 8955.66 66.07
2 -4 0 8666.39 69.94
-4 2 0 8875.3 63.92
-2 -2 0 9236.68 58.44
-2 -2 0 8802.22 57.92
-2 -2 0 9371.19 72.11
-4 2 0 9647.81 53.16
2 2 0 8410.78 79.3
2 2 0 8860.31 61.25
2 -4 0 9999 79.61
2 2 0 9399.79 64.37
4 -2 0 9256.64 55.12
-2 4 0 8642.85 47.02
2 -4 0 9249.85 61.1
-2 -2 0 8886.92 42.95
2 2 0 9005.83 42.39
2 2 1 10.78 3.2
4 -2 1 8.19 2.42
-2 -2 1 55.25 6.34
-4 2 1 47.08 5.91
2 -4 1 41.81 4.91
-2 4 -1 21.77 3.37
2 2 -1 21.93 3.89
-4 2 1 5.09 1.76
2 -4 -1 21.13 5.54
2 -4 1 26.23 4.81
2 2 1 7.31 1.79
-2 -2 -1 12.35 3.23
4 -2 -1 15.09 3.25
-2 -2 -1 9.43 2.65
4 -2 -1 10.22 2.85
-2 4 -1 15.58 3.79
-4 2 -1 64.53 6.3
4 -2 1 18.62 3.42
-2 4 1 3.58 1.63
2 -4 -1 12.43 4.02
2 2 1 15.77 5.43
-4 2 -1 4.44 2.21
4 -2 1 36.16 6.11
-2 -2 1 22.05 2.8
-2 -2 1 7.63 2.63
2 2 1 17.11 4.82
-4 2 -1 31.96 3.78
2 2 1 12.57 3.17
2 2 -1 7.55 2.54
-2 4 1 9.76 2.62
2 -4 -1 5.16 2.03
-2 4 -1 24.45 5.2
2 -4 1 51.09 6.6
2 2 -1 10.5 2.05
-2 -2 1 7.4 2.7
2 2 -1 6.74 3.49
-2 -2 -1 14.01 2.17
2 -4 1 27.69 4.43
-2 -2 -1 18.04 4.2
-4 2 1 15.92 3.48
-4 2 -1 7.27 2.57
2 2 2 128.18 7.09
-2 4 -2 132.38 7.32
2 2 2 112.89 10.18
2 2 -2 97.38 4.93
-2 -2 -2 133.5 6.88
2 2 -2 140.25 5.71
-2 -2 2 132.67 5.16
2 2 -2 137.23 8.78
-4 2 2 163.82 7.33
2 2 2 136.14 5.66
2 2 -2 136.27 9
2 -4 2 129.92 8.94
-2 4 -2 139.8 6.12
2 2 -2 138.47 9.32
-2 4 -2 135.98 8.26
-4 2 -2 150.15 7.97
-4 2 -2 141.88 7.58
2 2 2 137.05 7.15
2 -4 2 153.16 6.72
2 -4 -2 151.98 7.95
-4 2 2 136.17 8.28
-2 -2 2 141.1 8.19
4 -2 -2 160.6 8.66
2 -4 2 155.71 8.31
2 -4 -2 132.65 8.87
2 -4 2 142.71 7.67
-2 4 2 140.16 6.65
4 -2 2 151.45 7.79
-2 4 2 131.53 7.77
-2 -2 2 136.18 7.75
-4 2 -2 137.42 8.07
4 -2 2 138.23 7.65
2 2 2 131.46 7.38
2 2 2 100.39 8.32
-2 -2 -2 140.85 9.14
4 -2 -2 144.42 6.79
-4 2 2 207.96 11.76
-2 4 2 143.68 8.06
-2 4 3 0.54 0.64
2 2 3 0.7 0.64
2 -4 3 0.7 0.71
-2 4 -3 0.52 0.52
-2 4 3 1.35 1.01
2 -4 3 2.78 1.15
2 2 3 -0.38 0.23
2 -4 3 2.87 0.91
2 2 3 -0.39 0.12
2 2 -3 0.94 0.71
2 2 3 3.69 1.12
-2 -2 3 0.28 0.44
2 -4 -3 2.18 0.8
4 -2 3 1.24 0.85
-2 4 3 2.52 1.11
2 2 -3 0.5 0.39
-4 2 3 0.58 0.58
2 -4 3 3.98 1.61
-2 -2 3 2.06 1.06
-2 4 -3 1.05 1.02
-2 -2 -3 1.64 0.97
-4 2 -3 1.26 0.86
-4 2 -3 0.56 0.71
-4 2 3 2.23 1.09
-2 -2 3 0.77 0.59
2 2 3 0.83 0.69
-2 4 -3 1.48 1.03
2 -4 -3 3.64 1.63
4 -2 -3 2.07 0.67
2 2 3 3.91 1.1
2 2 -3 1.81 1.23
-2 -2 -3 0.95 1.06
-2 -2 -3 9.65 2.45
2 2 -3 1.07 0.61
4 -2 -3 2.75 1.22
2 -4 -3 0.3 0.64
-4 2 -3 8.86 1.78
-4 2 3 1.32 1.42
4 -2 3 0.95 0.83
-2 -2 -4 269.72 13.14
-2 -2 -4 246.31 9.37
-4 2 4 263.87 12.38
4 -2 -4 275.79 11.98
2 2 4 263.47 9.61
2 2 4 191.48 13.31
-2 4 4 257.79 10.5
-2 -2 -4 252.09 9.34
2 2 -4 248.11 12.61
2 -4 -4 251.2 11.78
4 -2 4 251.65 11.23
-2 4 -4 255.21 10.47
-2 -2 -4 245.02 11.81
4 -2 4 274.8 10.7
-2 4 -4 242.19 10.87
2 2 -4 284.85 11.49
2 -4 4 258.36 10.71
-4 2 4 300.9 9.4
2 -4 4 257.73 8.27
-2 -2 4 265.48 12.26
-2 4 4 256.24 11.79
-4 2 4 387.49 18.46
-4 2 -4 267.22 12.02
2 2 4 274.51 9.77
2 2 4 239.15 10.01
2 2 4 191.45 14.02
2 2 -4 261.02 13.18
-4 2 -4 282.7 11.03
2 2 4 245.55 9.88
-4 2 -4 261.13 6.16
4 -2 4 261.65 12.01
-2 -2 4 287.36 13.28
-2 -2 4 246.01 8.42
-2 4 4 254.58 10.02
2 -4 4 237.44 12.22
-2 4 -4 243.59 8.96
4 -2 -4 274.99 8.17
-4 2 -4 245.79 11.1
2 -4 4 269.99 9.11
2 -4 -4 295.62 13.63
2 -4 5 0.42 0.97
-2 -2 5 1.8 0.91
2 2 5 1.35 0.33
2 2 5 1.88 1.45
-2 -2 -5 -1.27 1.25
2 2 -5 0.96 1.09
-2 -2 5 1.77 1.19
-2 4 5 3.75 1.18
-4 2 5 0.67 0.62
2 2 5 1.71 1.23
-2 4 5 1.15 0.63
2 -4 -5 2.42 1.46
-4 2 -5 -0.08 0.46
4 -2 -5 2.06 0.58
2 2 -5 2.16 0.96
-2 4 -5 1.32 0.94
4 -2 5 0.65 0.35
-2 -2 -5 7.04 1.89
-4 2 5 0.36 0.75
2 -4 5 10.05 2.09
2 -4 5 1.55 0.56
4 -2 5 0.45 0.13
2 2 5 0.79 0.58
2 -4 -5 0.64 0.36
-4 2 -5 2.23 0.76
2 -4 5 0.83 0.64
2 -4 5 0.06 0.52
4 -2 -5 1.22 1.13
2 2 5 1.34 0.33
-2 4 5 0.71 0.79
-2 -2 -5 0.63 0.72
2 2 -5 2.03 0.7
-4 2 5 0.3 0.63
2 2 5 0.03 0.53
-4 2 -5 1.01 1
2 2 5 2.67 1.04
-4 2 -5 0.78 0.22
-2 -2 -6 1289.15 21.46
2 2 6 1113.41 36.06
-2 4 6 1403.12 22.98
4 -2 6 1388.69 23.93
2 -4 6 1563.63 30.16
2 2 6 1353.25 24.15
-4 2 -6 1294.47 26.9
-4 2 -6 1400.46 25.05
2 2 -6 1320.88 30.88
-2 4 6 1231.61 13.77
2 -4 -6 1379.24 28
-4 2 6 1360.43 30.55
4 -2 -6 1516.77 29.94
2 2 6 1534.49 27.61
2 2 6 1022.14 34.43
-4 2 -6 1298.87 15.71
2 2 6 1334.91 22.32
4 -2 6 1420.55 24.79
-2 4 6 1513.22 31.84
2 2 6 1291.37 24.45
2 -4 6 1463.93 23.92
-2 -2 6 1292.94 23.81
2 2 -6 1345.55 33.68
-2 -2 -6 1282.44 31.49
2 -4 6 1226.13 29.1
-2 4 6 1355.65 28.11
-2 -2 -6 1456.38 32.13
-2 4 -6 1319.92 26.84
4 -2 -6 1432.79 17.29
2 -4 6 1238.8 13.3
2 -4 6 1487.94 27.15
-2 4 7 0.62 0.24
-4 2 -7 0.4 0.55
2 2 7 -1 1.94
4 -2 -7 0.47 0.23
-2 4 7 0.36 0.49
4 -2 7 8.25 1.81
-4 2 -7 2.04 1.48
4 -2 -7 3 1.54
-4 2 7 0.41 0.68
2 2 7 1.34 0.95
2 -4 7 2.46 1.15
-2 -2 -7 -1.11 0.95
2 2 -7 -0.33 0.79
-2 4 -7 3.8 1.5
-4 2 -7 0.97 0.51
2 -4 7 2.65 1.26
-2 -2 -7 0.94 1.18
-2 -2 7 0.35 0.48
4 -2 7 1.35 0.48
2 -4 7 0.72 0.58
2 2 -7 -0.5 0.35
2 2 7 0.91 0.61
-2 4 7 7.11 1.03
2 2 -7 10.73 3.03
2 -4 7 1.19 0.35
4 -2 7 4.34 1.22
2 -4 -7 0.12 0.41
2 2 7 -0.31 1.2
-2 -2 -7 7.26 1.83
2 2 7 1.77 0.9
-4 2 8 1.85 1.42
2 2 8 -0.08 0.09
-2 4 8 3.35 1.74
2 -4 8 2.34 1.22
4 -2 8 1.14 0.97
2 2 8 0.69 0.26
2 -4 8 1.07 0.81
2 -4 -8 1.11 1.03
-2 4 8 0.42 0.52
2 2 -8 1.88 1.04
2 2 8 2.31 1.28
4 -2 -8 1.73 1.23
-2 -2 8 0.61 0.82
2 -4 8 3.49 1.45
-4 2 -8 0.45 0.52
4 -2 -8 1.27 0.87
2 2 8 1.52 0.88
-2 -2 -8 0.47 0.55
-4 2 -8 1.06 0.66
4 -2 8 0.74 0.26
-2 4 -8 0.9 1.16
-2 4 8 0.95 0.46
2 2 -8 2.41 1.73
-4 2 -9 0.49 0.33
2 2 9 1.9 1.27
-4 2 9 1.34 1.19
2 -4 9 -0.14 0.52
-4 2 9 0.66 0.67
-2 -2 -9 1.95 1.39
-2 4 9 0.61 0.76
2 2 9 4.46 1.86
-2 4 -9 0.65 0.52
2 2 -9 -0.07 0.78
-2 4 9 0.43 0.35
-2 4 -9 0.57 0.89
4 -2 -9 0.39 0.53
2 2 9 -0.25 0.35
2 2 9 -1.27 0.99
-2 -2 -9 0.66 0.82
2 2 9 -0.16 0.77
2 2 9 -0.27 1.13
4 -2 9 1.09 0.43
4 -2 9 0.17 0.13
4 -2 9 0.7 1.11
4 -2 -9 1.17 1.19
2 2 -9 -0.54 0.62
2 -4 9 1.61 1.41
4 -2 9 0.67 0.44
-4 2 -9 -0.01 0.85
-2 -2 9 0.71 0.61
-2 4 9 0.2 0.56
-4 2 -9 -0.05 0.69
2 -4 9 0.05 0.45
2 -4 -9 -0.63 0.9
-2 4 10 680.59 17.09
4 -2 -10 710.23 22.33
2 2 10 624.83 29.78
-2 -2 10 566.67 21.86
-2 4 -10 876.75 28.15
-2 -2 -10 631.09 23.66
2 2 -10 669.93 19.33
4 -2 10 645.48 15.94
2 2 10 610.04 21.16
2 -4 10 719.69 23.53
4 -2 10 717.03 14.02
2 -4 -10 643.26 19.45
-2 4 10 605.47 23.89
-4 2 -10 734.56 19.88
-2 -2 -10 530.84 25.03
2 2 10 589.54 18.28
2 -4 10 748.4 23.39
2 2 10 676.66 23.07
4 -2 -10 638.61 22.52
2 -4 10 660.65 20.77
-4 2 -10 587.12 19.06
-4 2 10 984.41 41.28
-2 -2 -10 723.76 20.92
2 2 10 627.92 30.38
2 2 -10 618.9 27.43
-4 2 -10 874.16 28.84
2 2 10 695.29 20.5
4 -2 10 589.23 16.24
-2 4 -10 606.63 21.48
-4 2 10 601.88 24.77
4 -2 10 672.21 26.01
2 2 -11 1.3 3.14
-4 2 -11 -1.44 0.52
-2 -2 11 1.98 2.54
2 2 11 2.69 2.72
-2 4 11 6.64 3.5
-2 4 -11 6.79 3.82
-4 2 -11 -1.41 1.07
-2 4 11 6.11 4.03
4 -2 -11 7.29 3.47
-2 -2 -11 3.14 2.63
2 2 -11 0.46 1.46
2 -4 11 3.4 2.27
4 -2 11 1.06 0.57
4 -2 11 -0.12 0.89
2 2 11 6.97 4.84
-4 2 -11 3.17 2.34
-2 4 -11 0.41 0.41
2 -4 -11 3.23 3
4 -2 11 2.86 1.34
2 -4 11 3.63 1.76
4 -2 -11 10.25 2.52
4 -2 11 1.83 0.98
-4 2 11 0.05 0.83
2 2 11 8.06 5.61
2 2 11 11.06 3.27
2 -4 11 10.98 3.35
2 2 11 1.02 1.04
-2 -2 -11 14.5 4.57
-2 -2 -11 6.26 3.34
2 2 11 1.11 1.57
-2 -2 11 3.47 2.22
2 -4 -11 17.91 4.51
-4 2 11 2.76 3.18
2 2 11 10.33 4.08
-2 -2 -12 2201.11 54.4
-4 2 12 2325.89 52.98
2 -4 12 2903.53 48.59
-4 2 -12 3498.29 59.71
-2 4 12 2237.62 50.7
-4 2 -12 2640.69 45.94
4 -2 -12 2910.22 49.17
2 -4 12 3074.28 52.63
2 -4 12 2782.2 48.59
2 2 12 2625.91 48.26
-2 4 -12 3609.68 61.02
-4 2 -12 3133.07 43.74
2 -4 12 3038.68 51.18
4 -2 -12 2329.09 45.62
2 -4 -12 2441.6 39.3
2 2 -12 2469.34 59.85
4 -2 12 2774.23 58.43
-2 -2 12 3056.56 65.03
4 -2 12 2440.81 32.32
4 -2 12 2813.37 32.66
2 2 12 2300.32 40.02
-2 -2 12 2302.71 49.88
2 -4 -12 3392.21 68.21
2 2 12 2773.44 65.33
-4 2 12 3560.79 83.51
2 2 12 2990.68 40.84
-2 -2 -12 2481.78 49.77
-2 4 -12 2434.01 46.56
-4 2 -12 2266.13 55.84
-2 4 12 2462.09 53.16
-2 -2 -12 2900.06 44.82
-2 4 12 2791.1 44.16
2 2 12 2846.14 69.56
2 2 12 2685.43 44.69
4 -2 12 3135.87 55.99
2 2 -12 2835.57 45.58
-4 2 13 3.3 3.41
-4 2 -13 7.32 3.06
2 -4 -13 1.86 2.1
2 2 13 -0.07 0.75
-2 4 -13 0.57 0.52
4 -2 -13 0.37 0.54
-4 2 -13 -0.01 0.64
2 2 13 1.35 3.01
2 2 -13 0.56 1.48
4 -2 13 0.72 0.85
2 -4 13 0.98 1.2
-2 4 13 5.49 3.95
2 2 13 2.41 1.84
-2 -2 -13 11.17 3.72
-2 -2 13 5.74 2.8
4 -2 -13 3.36 2.75
-2 -2 -13 2.31 2.5
2 -4 13 -0.42 0.91
-4 2 -13 1.01 1.37
-4 2 -13 4.64 3.48
-4 2 13 0.83 1.26
-2 -2 -13 3.18 2.44
4 -2 13 2.24 2.54
2 2 13 0.2 0.4
2 -4 13 10.72 3.24
2 -4 -13 -1.21 1.69
4 -2 13 0.11 0.1
-2 4 13 -0.02 0.7
4 -2 13 1.65 2.49
2 2 -13 -0.06 1.21
-2 4 13 5.67 3.68
-2 4 -13 2.77 2.7
-2 -2 13 1.15 2.65
4 -2 14 70.44 5.83
-4 2 -14 118.42 11.7
4 -2 -14 90.22 9.54
-2 4 14 72.81 9.89
2 2 14 83.25 8.46
4 -2 -14 62.5 7.85
-2 -2 14 68.65 9.6
-2 4 14 68.83 9.57
4 -2 14 90.64 6.81
2 2 14 88.26 12.39
-2 4 14 94.8 9.44
-2 4 -14 106.44 6.99
-4 2 -14 88.74 7.77
-4 2 -14 82.03 8.49
2 -4 -14 69.22 7.04
-4 2 14 94.01 11.52
2 2 -14 87.88 8.74
-2 -2 -14 85.36 8.48
4 -2 14 92.42 11.46
-4 2 -14 59.11 10.04
-2 4 -14 76.08 9.23
-2 -2 14 76.7 7.54
-4 2 -14 79.56 6.83
2 2 14 85.98 11.49
2 -4 14 84.97 9.02
-2 4 -14 114.88 11.3
2 2 14 91.59 8.65
2 -4 14 83.97 9.43
-2 -2 -14 72.22 8.93
2 2 -14 79.47 11.49
2 -4 14 100.89 10.15
-4 2 -15 1.04 1.22
-4 2 15 0.06 0.86
2 -4 -15 -2.25 1.82
2 -4 15 0.73 0.87
2 2 15 -0.61 0.96
4 -2 -15 0.5 0.98
-2 4 -15 -0.25 1.11
4 -2 15 0.08 0.49
2 2 15 -0.99 1.38
2 -4 15 -0.84 2.02
-2 4 -15 -0.29 0.59
-2 4 -15 -0.07 1.6
2 -4 15 -0.25 0.47
-2 4 15 1.21 1.4
-2 -2 15 -0.53 1.03
2 -4 -15 -0.94 0.62
4 -2 -15 -0.57 1.27
-4 2 -15 -0.37 0.71
2 2 -15 -0.89 0.9
-2 4 15 -0.11 0.07
-2 -2 -15 -0.89 1.81
-4 2 -15 -0.78 1.44
4 -2 15 -0.25 1.4
-2 -2 -15 1.58 1.16
2 2 15 -0.09 0.87
2 2 -15 -1.31 2.06
-4 2 -15 -1.79 2.32
-2 -2 16 85.21 8.81
2 -4 -16 70.24 7.39
-4 2 16 72.71 10.91
2 2 16 119.72 11.6
2 2 16 84.74 9.37
-2 -2 -16 83.18 10.03
-2 4 16 77.04 10.84
2 2 -16 91.36 13.19
4 -2 16 112.12 13.92
4 -2 16 103.04 8.25
2 2 -16 114.07 10.7
-2 4 -16 89.46 10.74
-4 2 -16 105.02 10.1
-4 2 -16 89.28 12.92
-2 4 16 103.45 5.73
-2 -2 -16 103.19 9.96
-4 2 -16 100.04 7.91
2 -4 -16 101.18 14.27
2 2 16 106.72 14.27
-2 4 -16 127.32 7.79
2 -4 16 103.62 11.84
4 -2 -16 69.88 8.73
-2 -2 17 -0.69 1.09
-2 -2 -17 1.6 1.7
-4 2 -17 1.13 2.07
-2 4 17 -0.13 0.29
-2 4 17 -0.49 0.65
4 -2 17 4.37 1.4
2 2 17 -0.58 1.81
-4 2 17 0.05 3.6
2 2 17 -0.42 2.58
2 -4 -17 -0.15 1.39
-4 2 -17 -2.03 2.56
2 -4 17 3.14 0.53
-2 4 -17 -0.64 1.01
4 -2 17 -0.43 1.19
2 2 17 1.25 1.81
-4 2 -17 -4.47 2.78
-2 -2 -17 -2.42 1.78
2 2 -17 -0.62 3.76
2 -4 -17 -1.34 0.91
2 2 -17 -0.96 1.22
4 -2 -17 -0.67 2.05
2 -4 -17 -2.56 3.34
-2 4 18 306.93 11.51
2 -4 -18 314.77 11.82
-2 -2 -18 283.12 17.19
-2 4 18 228.53 19.67
4 -2 -18 210.56 15.64
-4 2 -18 382.97 27.42
2 -4 -18 315.83 25.91
-4 2 -18 298.89 18.15
2 -4 18 323.59 23.52
-2 -2 18 242.04 16.21
2 -4 -18 201.78 13.08
2 2 -18 357.35 20.27
-4 2 18 228.7 20.7
2 2 -18 282.6 24.14
-2 -2 -18 253.24 18.34
2 2 18 363.18 27.9
4 -2 18 323.24 25.94
2 2 18 350.88 22.47
4 -2 18 309.2 15.9
-4 2 -18 294.36 14.04
-2 4 -18 275.75 20.55
4 -2 19 -0.07 1.44
-4 2 19 -1.56 1.9
-2 4 -19 0.74 1.15
2 -4 -19 0.74 1.23
-2 -2 19 1.1 0.8
-4 2 -19 -0.87 1.97
2 2 19 0.7 2.74
-4 2 -19 -1.41 0.28
-2 4 19 0.28 0.39
2 2 -19 -2.82 2.08
2 2 19 -1.73 3.32
4 -2 -19 -0.99 0.9
-2 4 19 -0.98 0.94
4 -2 19 -3.47 3.95
2 -4 -19 -2.92 3.36
-4 2 -19 -0.39 1.58
-4 2 -19 -0.48 0.87
-2 -2 -19 2.09 1.52
2 2 -19 -0.1 1.83
2 -4 19 1.48 0.52
-2 -2 -19 -1.64 2.79
-2 -2 20 57.45 8.31
-2 4 -20 51.12 9.64
2 -4 -20 71.95 12.67
4 -2 20 66.61 8
-4 2 -20 76.54 8.47
2 -4 -20 38.33 5.92
-4 2 -20 61.17 6.49
4 -2 20 66.86 12.62
2 2 20 83.23 13.73
-2 -2 -20 54.4 8.11
2 2 -20 76.94 9.91
2 2 -20 61.94 11.28
-4 2 -20 101.93 14.66
-4 2 -20 63.86 8.51
-2 -2 -20 56.51 8.96
2 2 20 94.49 11.89
2 -4 20 69.23 11.24
-4 2 20 36.77 8.64
4 -2 -20 42.4 7.45
-2 4 20 49.06 9.45
2 2 21 0.95 1.87
-4 2 21 1.8 2.88
2 2 -21 1.92 2.29
2 -4 21 -1.89 2.33
4 -2 -21 -0.13 1.13
-2 -2 21 -2.61 2.85
-2 -2 -21 0.88 0.24
-2 4 21 -0.47 2.35
4 -2 21 3.44 3.58
-4 2 -21 -1.06 2.42
-2 -2 -21 0.33 0.79
2 -4 -21 -0.84 1.69
-4 2 -21 -0.93 1.33
-4 2 -21 0.31 0.11
2 -4 -21 -1.52 1.13
-2 4 -21 2.29 3.01
2 -4 22 143.74 16.77
2 -4 -22 121.88 8.45
-2 4 -22 126.92 16.07
-4 2 -22 188.85 20.72
2 2 22 164.7 20.24
4 -2 -22 107 12.1
2 -4 -22 130.47 16.9
-2 -2 -22 107.49 12.07
2 2 -22 146.6 17.85
-4 2 -22 124.6 9.63
2 -4 -22 72.22 8.47
4 -2 22 133.54 19.45
-2 -2 -22 124.89 14.07
-2 -2 22 118.81 12.94
-2 4 22 114.32 15.37
-4 2 22 76.41 13.42
-4 2 -22 114.4 11.25
4 -2 -23 -0.63 1.24
2 -4 -23 0.78 1.53
2 -4 23 0.34 1.43
-2 -2 -23 -0.46 2.06
-2 4 23 0.67 0.85
-4 2 23 1.98 2.77
-2 -2 23 0.17 1.69
2 2 23 1.16 1.54
-4 2 -23 -2.64 3.51
-2 -2 -23 0.69 1.28
4 -2 23 -1.1 0.32
2 -4 -23 -2.28 2.5
2 2 -23 -2.43 1.91
-2 4 -23 1.84 1.32
-2 -2 24 55.11 11.69
2 -4 24 65.94 11.55
-2 4 24 49.89 10.84
-2 4 24 54.52 11.11
2 2 24 82.27 14.59
4 -2 24 70.2 13.73
-4 2 -24 100.42 15.39
-2 -2 24 58.56 9.73
-2 -2 -24 56.33 9.56
-2 4 -24 65.84 11.93
2 2 -24 51.16 10.53
4 -2 -24 37.08 7.25
2 -4 -24 59.88 11.76
-4 2 24 36.87 9.3
-2 -2 -24 48.6 8.37
2 -4 25 -3.61 3
-2 4 25 0.33 0.55
2 -4 -25 3.06 1.22
-2 4 25 -2 3.34
2 2 -25 1.14 2.88
4 -2 25 0.25 1.62
4 -2 -25 0.83 0.98
2 2 25 1.14 4.07
-2 4 -25 -0.95 1.35
-2 -2 25 0.74 1.4
-2 -2 25 -0.24 2.23
-4 2 25 1.45 3.13
-4 2 -25 -2.71 1.97
-2 -2 -25 -2.05 2.13
-2 -2 -25 -1.15 1.3
-2 4 -26 39.17 8.98
-2 -2 -26 37.26 7.49
-2 -2 26 38.47 10.5
-2 -2 26 48.04 8.98
-4 2 -26 63.1 12.09
-2 -2 -26 40.94 8.16
2 -4 26 46.47 9.3
2 -4 -26 38.29 9.2
4 -2 -26 35.06 6.91
-2 -2 -27 -0.99 2.02
-2 -2 -27 -5.33 2.74
2 -4 -27 -0.16 1.98
4 -2 -27 -0.43 1.88
-2 -2 27 -1.99 4.13
2 -4 27 -3.31 2.23
-2 4 -27 -3.17 1.96
-2 4 -28 2.17 1
2 -4 28 3.6 5.08
4 -2 -28 -0.25 1.68
-2 -2 -28 0.88 2.07
1 3 0 237.4 7.36
1 -4 0 234.31 11.06
3 1 0 226.04 9.66
1 3 0 226.9 10.46
4 -1 0 244.88 9.68
-3 -1 0 221.74 8.62
-4 1 0 206.49 11.19
-3 -1 0 229.87 8.73
-4 1 0 263.38 10.16
1 -4 0 233.18 10.03
-1 4 0 217.86 10.76
3 -4 0 245.84 10.07
-3 4 0 225.48 9.09
-4 3 0 230.61 8.79
-1 -3 0 229.04 9.96
-1 4 0 239.98 11.19
-3 -1 0 217.57 8.57
-1 4 0 213.41 5.38
-4 3 0 228.25 10.35
3 1 0 235.68 8.86
-3 -1 0 202.66 13.46
1 -4 0 223.45 11.42
1 3 0 236.22 11.64
3 1 0 221.51 10.43
1 3 0 243.15 11.09
-1 -3 0 222.93 10.82
-3 4 0 222.15 8.89
-1 4 0 218.88 10.23
4 -3 0 250.45 11.18
3 -4 0 234.5 11.79
-4 1 0 221.55 10.05
4 -1 0 243.46 9.92
-1 -3 0 214.69 8.41
-4 3 0 234 7.15
1 3 0 213.83 9.99
4 -3 0 222.77 8.42
-1 -3 1 600.04 11.04
4 -1 -1 723.32 17.77
1 3 1 574.08 7.52
3 -4 1 751.67 17.43
-4 1 1 661.36 17.56
4 -3 -1 687.87 13.63
-3 -1 1 581.65 21.84
-4 3 -1 648.03 17.4
1 3 -1 641.99 17.63
3 -4 1 695.74 16.12
-3 -1 1 691.11 16.9
-4 1 1 785.97 16.78
-3 -1 1 638.06 14.47
1 3 1 655.58 17.39
-3 4 1 655.66 16.02
4 -1 1 710.74 16.94
1 -4 1 643.22 19.62
1 3 1 720.7 17.65
-3 -1 -1 656.75 13.25
1 -4 -1 647.8 19.15
-1 4 -1 625 17.02
3 -4 1 678.5 20.21
-1 4 1 647.22 17.81
4 -1 1 714.79 16.15
4 -1 -1 712.29 15.86
-3 4 -1 655.39 15.04
3 1 1 673.01 22.49
-1 4 1 663.28 18.77
3 -4 -1 684.07 20.19
-4 3 -1 721.71 17.48
4 -3 1 743.82 19.16
-1 4 -1 652.04 18.47
-4 1 -1 667.28 17.25
-4 3 1 684.68 13.33
-4 1 -1 629.77 9.47
-4 3 -1 667.45 10.89
-3 -1 1 634.98 15.31
3 1 1 688.14 15.28
1 -4 -1 722.83 19.13
-4 1 1 590.83 21.37
-3 -1 -1 655.27 14.01
-1 4 -1 631.32 9.3
-1 -3 1 662.03 18.12
3 -4 -1 736.45 18.19
-3 -1 -1 639.73 14.72
1 -4 -1 676.13 20
-1 -3 1 679.63 18
-1 4 -1 754.61 20.34
4 -1 -1 747.2 15.39
1 -4 1 674.68 17.37
1 -4 1 682.34 11.35
-3 4 -1 668.31 15.42
1 3 1 601.97 16.67
-4 1 -1 669.99 15.44
3 1 1 670.33 16.59
1 3 1 682.24 14.95
-1 4 1 688.32 18.08
4 -3 -1 783.51 19.82
1 3 -1 689.39 19.54
-3 4 1 659.74 15.99
3 1 -1 660.6 14.8
-1 -3 -1 577.01 16.23
-1 -3 -1 678.28 19.48
3 1 -1 634.41 19.07
-1 4 1 651.76 10.38
-3 4 -1 668.91 17.26
3 1 1 673.15 16.58
4 -3 1 686.93 16.39
1 3 -1 653.89 18.4
-4 1 -1 640.98 17.31
-4 3 1 658.64 18.08
4 -1 2 316.29 14.45
4 -1 -2 326.3 12.49
1 3 -2 302.12 12.94
4 -3 -2 288.46 8.14
-1 -3 -2 300.31 13.41
4 -1 2 320.34 11.7
3 -4 -2 357.12 13.04
3 -4 2 300.2 13.44
1 -4 2 315.84 7.14
3 1 2 310.89 11.3
4 -3 -2 369.5 13.76
-4 1 2 329.7 10.88
1 -4 2 293.01 13.59
1 3 2 307.63 11.9
-1 -3 2 337.58 13.2
3 1 -2 289.24 13.71
-1 4 -2 300.74 12.44
-1 4 2 303.29 12.88
1 3 -2 325.4 13.19
-4 3 -2 336.97 13.33
3 1 2 318.27 13.63
-3 -1 -2 295.32 8.12
-3 4 2 309.85 11.32
-1 4 2 296 11.36
3 -4 -2 337.95 14.33
1 -4 -2 347.71 13.73
-4 1 -2 257.1 4.8
4 -3 2 341.35 13.32
-3 4 -2 310.48 10.61
-1 -3 2 288.08 11.71
3 1 2 293.79 15.39
1 3 2 332.14 11.17
1 3 -2 295.05 12.12
-1 -3 -2 246.32 12.04
3 1 2 315.12 10.29
4 -1 2 342.11 10.98
-3 -1 2 300.44 11.32
-3 -1 2 290.09 9.99
4 -1 2 340.66 12.38
-3 4 2 313.4 11.45
-1 4 -2 300.15 11.78
3 1 2 320.22 10.52
3 -4 2 340.53 11.81
-4 1 -2 330.9 11.43
4 -1 -2 334.4 12.67
3 1 -2 306.34 10.38
-3 4 -2 292.02 9.98
1 3 2 318.38 11.9
1 3 2 295.41 11.79
-4 1 2 280.07 15.92
4 -1 -2 352.63 11.91
-3 -1 2 321.83 12.73
4 -1 -2 337.27 10.67
-3 -1 -2 299.2 13.63
1 -4 -2 316.36 14.37
-1 4 2 291.07 7.84
1 -4 2 309.12 10.94
1 -4 -2 282.64 12.48
-3 -1 -2 296.34 10.47
-1 4 2 297.74 12.26
-1 4 -2 368.46 14.22
-4 3 -2 307.34 11.99
-4 3 -2 315.32 7.01
-3 -1 -2 300.09 9.14
-4 1 2 315.24 12.54
-4 3 2 310.37 7.74
-4 3 2 315.6 12.74
-4 1 -2 327.8 9.57
1 3 2 299.75 6.76
-4 1 -2 305.47 11.95
-3 4 -2 324.89 11.96
3 -4 2 323.7 10.76
-3 -1 2 270.4 14.55
3 1 2 321.73 10.63
-4 1 3 338.01 13.41
1 3 3 347.61 8.98
-4 3 3 342.9 13.74
-4 1 -3 330.75 12.61
-3 -1 3 344.74 14.34
-3 4 3 342.6 12.46
-3 4 -3 324 10.94
-3 -1 3 283.75 14.41
-1 4 -3 323.49 12.55
-4 3 -3 346.08 15.08
3 -4 -3 362.1 14.89
4 -1 -3 351.54 13.3
4 -3 3 361.02 13.69
-4 1 3 366.93 11.44
1 -4 -3 388.06 15.57
-1 4 -3 327.68 13.14
1 3 -3 338.96 13.45
-3 4 -3 333.25 10.66
3 -4 3 373.4 12.41
1 -4 -3 303.17 12.51
3 -4 3 321.71 13.9
-1 -3 -3 253.96 13.38
3 1 -3 298.4 14.94
-1 4 3 335.42 13.22
-4 1 -3 345 12.33
-1 4 3 331.54 11.68
-4 3 -3 345.99 9.73
1 3 3 309.87 12.33
-4 3 -3 318.49 12.36
4 -1 3 343.99 12.74
-4 1 -3 391.92 13.04
-3 -1 3 335.36 12.92
4 -3 -3 384.12 14.12
-4 3 -3 334.82 7.08
1 -4 3 331.46 10.67
3 1 3 352.72 15.54
3 1 3 311.86 16.72
-4 1 3 292.97 17.48
4 -1 -3 366.17 13.87
4 -1 3 376.31 13.66
4 -1 3 367.06 15.31
-1 -3 3 317.83 12.19
1 3 3 326.67 10.08
4 -1 -3 385.36 13.93
1 -4 3 345.32 7.72
-3 4 -3 335.2 12.14
-1 4 -3 385.64 13.68
-3 -1 -3 345.85 14.86
-3 -1 -3 316.54 11.21
3 -4 -3 389.05 14.31
-4 3 3 345.18 7.19
1 3 -3 307.59 13.34
-1 -3 -3 330.53 11.87
4 -1 -3 337.59 10.39
3 1 3 325.72 10.21
1 3 3 318.85 12.2
1 -4 -3 326.04 15.56
3 1 -3 337.17 11.25
3 1 3 340.35 9.99
-4 3 -3 370.8 13.61
3 1 3 336.6 12.18
3 -4 3 366.95 11.42
4 -1 3 351.8 10.82
1 3 3 326.42 13.53
-3 -1 -3 324.33 9.38
3 1 3 354.87 11.6
-1 -3 -3 327.7 14.41
-1 4 3 321.24 9.46
-3 4 3 343.23 12.69
-3 -1 3 327.92 11.07
-1 -3 4 11.12 2.21
1 3 4 10 1.96
-4 1 4 7.86 2.94
-1 -3 -4 9.52 2.34
-1 4 -4 11.98 2.35
-4 3 4 12.39 2.7
3 1 -4 10.61 2.18
-3 4 4 14.82 2.48
3 -4 -4 13.82 2.86
-3 -1 -4 10.13 2.55
4 -1 -4 11.53 2.53
3 -4 4 7.77 1.99
4 -1 -4 12.32 2.63
3 1 4 10.39 1.79
-4 3 -4 10.69 2.96
1 3 -4 9.25 2.33
3 1 4 11.17 2.98
-4 3 4 13.8 2.77
-3 -1 4 13.25 2.4
4 -1 4 11.68 2.46
1 3 4 11.41 1.68
-3 -1 4 9.8 2.54
1 -4 4 11.56 1.89
4 -1 4 15.33 3.01
1 -4 -4 12.68 3.06
1 -4 -4 8.79 2.11
-1 4 -4 11.28 2.63
3 1 4 9.77 3.04
-1 -3 -4 7.29 2.43
4 -1 4 12.05 1.96
-3 4 -4 11.02 2.25
-1 4 4 9.24 2.26
-4 3 -4 12.56 2.61
-4 1 -4 9.83 2.37
4 -3 4 10.99 2.34
3 -4 4 11.8 2.09
1 -4 4 10.38 1.39
-3 -1 4 11.66 2.83
1 3 -4 10.16 2.58
4 -3 -4 12.67 2.74
3 1 4 11.4 1.63
1 -4 -4 11.13 3.2
-4 1 -4 9.88 2.1
-3 4 -4 9.76 1.87
3 1 4 11.11 1.49
-3 4 -4 9.19 1.91
4 -1 -4 11.8 2.58
1 3 4 12.37 2.49
-4 1 4 11.45 2.63
3 1 4 12.55 2.49
4 -1 -4 13.59 2.05
1 3 4 10.71 2.32
4 -1 4 9.45 2.29
-1 4 -4 9.47 2.19
-4 3 -4 10.68 1.7
3 -4 -4 13.26 2.9
3 1 -4 9.35 2.73
-1 4 4 13.11 2.13
-3 -1 -4 10.74 1.8
-1 -3 4 10.26 1.27
-3 4 4 12.03 2.45
3 -4 4 11.4 2.17
-4 3 -4 9.97 2.34
-3 4 4 11.49 2.53
1 3 4 9.94 2.49
-1 4 4 8.86 1.8
3 1 4 11.82 2.24
-4 1 5 223.49 11.74
-4 3 5 221.27 11.93
4 -1 -5 240.98 11.87
3 1 5 227.13 7.15
4 -1 -5 249.38 12.38
4 -1 5 232.66 11.51
3 1 -5 236.36 10.5
4 -1 -5 227.87 12.69
1 3 5 202.27 12.32
-3 4 -5 210.18 9.73
-4 3 -5 218.06 7.73
1 -4 -5 207.05 13.82
-3 -1 -5 228.23 12.31
3 1 5 203.22 5.47
1 -4 -5 195.91 10.1
-1 4 -5 214.5 11.23
1 3 5 212.08 10.74
4 -1 5 246.09 11.79
1 3 5 193.4 6.57
3 -4 5 236.7 10.43
3 1 5 218.71 8.58
-3 -1 5 172.43 10.54
4 -1 5 217.66 8.29
3 -4 -5 248.64 12.18
3 -4 5 236.87 9.57
1 3 5 215.43 10.35
-3 4 5 247.01 10.35
1 -4 -5 266.64 14.71
-4 3 -5 270.97 11.99
-1 4 5 211.62 8.42
-1 4 5 219.77 10.02
3 1 5 233.77 14.6
-1 -3 -5 209.51 8
-3 -1 5 246.82 14.11
1 3 -5 223.69 11.02
-4 1 -5 252.41 10
3 1 5 215.07 10.16
-3 4 5 225.43 11.11
-1 4 5 226.79 11.79
1 -4 5 202 7.38
4 -1 5 251.24 12.58
4 -3 5 228.4 10.84
3 -4 5 200.67 11.25
1 3 -5 220.61 12.31
-4 3 -5 211.24 10.45
-1 -3 -5 215 12.55
3 1 5 190.14 13.73
1 3 5 205.58 8.87
4 -3 -5 252.44 12.02
-1 -3 5 212.21 7.37
3 1 5 249.37 10.82
-4 1 5 217.49 17.11
-1 4 -5 240.35 9.68
-3 -1 5 216.45 10.02
-1 -3 -5 148.6 11.68
-3 4 -5 206.03 9.49
-4 1 -5 224.58 11.03
1 -4 5 231.99 7.42
3 -4 -5 267.78 13.1
3 1 -5 193.92 13.42
4 -3 5 225.5 6.09
4 -1 -6 112.12 8.59
4 -1 6 113.26 8.97
4 -1 6 84.82 2.73
-4 3 6 101.62 8.41
-1 4 -6 111.98 6.19
-4 1 -6 109.42 6.38
1 -4 -6 95.94 3.97
4 -3 6 106.72 4.33
-1 -3 6 100.98 6.1
1 3 6 97.61 7.72
-3 4 -6 99.65 6.91
4 -1 6 102.16 8.19
-4 1 -6 103.3 7.73
3 -4 6 89.7 7.63
3 -4 6 110 6.69
4 -1 -6 100.27 8.89
3 -4 -6 116.64 8.42
4 -1 6 104.78 5.93
1 -4 6 98.43 4.91
3 1 6 106.77 7.32
1 3 6 96.57 6.19
3 -4 6 117.91 7.77
4 -1 -6 111.83 8.37
-1 4 6 94.59 4.92
3 1 6 87.13 3.18
-1 4 6 105.44 8.51
-1 4 6 95.16 5.43
1 -4 -6 89.47 6.8
-3 -1 6 75.22 6.55
-1 4 -6 96.56 7.89
3 1 6 81.14 9.21
3 1 6 101.79 6.07
4 -3 6 106.73 7.41
4 -3 6 99.4 5.93
1 3 -6 103.77 8.75
-1 -3 -6 73.33 8.62
3 1 -6 89.69 9.61
1 3 6 82.49 8.39
-3 -1 6 98.58 7.22
-1 -3 -6 105.12 9.02
-3 -1 -6 101.75 8.28
1 3 6 88.58 3.93
-3 4 6 104.27 8
1 3 -6 104.36 7.49
1 -4 6 110 5.69
4 -3 -6 120.33 8.62
-4 3 -6 100.19 5.46
-4 3 -6 93.4 7.15
3 1 6 122.59 8.06
-1 -3 -6 95.97 5.47
3 1 6 106.56 4.76
-4 1 6 96.78 8.04
4 -1 6 111.2 7.83
3 -4 6 109.7 7.45
3 1 6 111.24 10.6
-1 4 6 102.21 7.5
-4 3 -6 117.46 8.07
-3 4 6 105.7 6.82
-1 4 6 99.5 8.19
-4 1 6 99.78 11.66
1 -4 -6 93.21 9.68
3 1 -6 105.67 5.38
-4 3 6 123.79 5.29
4 -1 7 39.46 2.34
-1 -3 -7 38.69 3.55
3 1 7 44.51 7.05
-1 4 7 41.19 5.15
-3 -1 -7 47.37 5.71
1 -4 7 43.21 3.89
1 -4 -7 40.49 6.63
3 1 -7 44.51 3.82
-1 -3 7 43.79 4.59
4 -1 -7 46.54 5.59
1 3 -7 43.12 5.9
3 1 7 45.85 5.36
3 -4 7 40.57 5.11
4 -1 7 44.25 4.83
-4 1 -7 42.19 3.86
-3 -1 7 32.52 4.04
3 1 7 45.57 5.22
-4 3 -7 40.52 3.69
-1 4 -7 27.89 4.39
-4 3 7 43.44 5.72
3 1 7 43.44 3.09
-3 4 -7 40.63 4.59
1 -4 -7 34.44 4.2
4 -1 7 42.02 3.66
3 1 7 27.34 1.61
3 -4 -7 45.37 5.44
-4 3 -7 39.4 4.93
1 3 7 38.94 2.28
4 -3 7 43.68 4.78
3 -4 7 46.27 4.99
3 1 -7 35.18 6.25
3 1 7 42.04 4.74
1 -4 -7 36.41 2.52
3 1 7 51.69 5.56
4 -1 7 48.61 6.54
4 -1 7 44.77 5.58
-3 4 7 46.77 4.56
-4 1 7 43.22 5.59
-3 -1 7 40.75 5.09
-1 4 7 43.21 5.68
3 -4 7 51.15 4.79
-1 4 7 42.33 3.57
-1 4 -7 50.56 3.84
4 -1 -7 36.08 5.71
4 -3 -7 24.61 4.09
3 -4 7 40.12 2.19
3 -4 7 46.45 5
1 3 7 42.98 5.24
-3 4 7 45.13 5.68
1 3 7 39.59 3.96
4 -3 7 47.29 3.81
-1 4 7 40.26 3.27
1 3 -7 42.96 4.8
3 1 7 32.58 6
3 1 7 42.61 4.07
-1 -3 -7 45.12 6.07
-4 3 7 52.66 3.28
4 -3 7 53.38 3.31
1 -4 7 48.41 5.6
1 3 7 33.33 5.55
-1 4 7 44.13 5.75
1 3 8 80.89 9.24
4 -3 8 123.23 5.54
-3 -1 8 136.65 12.31
3 1 8 114.59 8.44
-4 3 8 106.34 9.46
-3 4 8 108.94 9.17
1 3 8 99.78 3.22
4 -1 8 116.08 7.78
4 -1 -8 136.77 10.1
4 -1 8 105.41 5.79
-3 4 -8 155.52 11.03
3 1 -8 128.04 7.21
1 -4 -8 96.43 7.11
3 1 8 132.67 9.51
1 -4 8 117.92 7.2
3 -4 8 134.45 8.86
4 -3 -8 125.22 9.31
3 1 8 113.86 5.29
-1 -3 8 86.92 4.1
4 -1 8 105.31 9.31
-4 1 -8 115.5 6.4
3 -4 -8 122.76 8.69
-4 1 8 104.19 9.22
3 1 -8 94.94 11.02
3 1 8 117.89 12.15
1 -4 8 133.36 9.65
-1 4 8 108.53 5.68
4 -3 8 123.43 5.96
3 -4 8 126.48 7.8
4 -3 8 100.61 7.3
-3 -1 8 109.52 7.31
-3 4 8 124.6 7.89
-1 -3 -8 111.99 9.92
4 -3 -8 120.66 8.83
3 1 8 85.88 10
-1 4 8 116.81 9.99
1 -4 8 128.07 7.43
1 3 -8 109.78 7.89
-3 4 -8 103.26 7.56
3 1 8 122.84 5.18
3 1 8 110.08 8.03
-4 3 8 152.07 12.3
3 1 8 114.9 8.74
1 -4 -8 96.46 10.64
4 -1 -8 83.75 9.07
-1 4 -8 111.77 9.09
1 3 -8 134.41 6.15
-3 -1 -8 122.44 9.57
4 -1 8 110.46 4.67
4 -1 -8 113.8 7.75
4 -1 8 125.55 11.05
-4 3 8 119.81 4.94
-1 4 -8 129.21 5.84
3 1 8 107.6 6.95
-4 3 -8 110.85 6.56
1 3 8 107.19 6.66
1 3 -8 112.06 9.93
-1 4 8 114.89 9.7
-3 -1 8 100.81 8.52
1 3 8 110.3 8.82
-1 4 8 96.61 5.18
3 -4 8 104.34 8.49
3 -4 -9 6.37 2.31
-1 4 9 5.17 1.29
-3 -1 9 4.14 1.43
4 -3 9 4.07 1.23
-4 3 9 3.85 1.95
3 -4 9 5.41 1.94
-3 4 9 7.95 1.99
4 -3 9 3.77 1
-1 4 -9 5.79 1.16
-3 -1 9 7.34 1.63
1 -4 9 4.41 2.07
-4 1 9 6.38 2.41
-3 4 9 6.65 2.26
-1 4 -9 9.33 2.62
3 -4 9 4.41 1.33
-3 4 -9 4.19 1.67
-4 1 -9 4.58 1.87
4 -1 9 5.08 1.62
-4 3 -9 7.51 1.87
4 -3 9 4.63 1.72
-1 4 9 6.5 2.81
4 -1 9 4.37 1.25
4 -1 9 3.81 1.66
1 -4 9 6.89 2.22
3 1 9 4.95 2.8
-3 -1 -9 6.12 2.23
1 3 -9 3.85 0.87
-3 4 -9 7.89 2.38
1 -4 -9 3.81 1.35
-3 -1 9 3.55 1.49
3 1 -9 4.76 1.55
-4 1 -9 4.16 1.83
3 -4 9 4.75 1.54
1 -4 9 4.65 1.58
-1 4 9 4.83 1.27
-1 -3 9 3.49 0.96
1 3 -9 5.74 1.73
4 -1 9 4.47 2.21
-1 -3 -9 3.16 1.34
3 1 9 5.81 2
1 3 9 4.6 1.43
-3 -1 -9 5.01 2.12
-1 -3 -9 2 1.43
1 3 9 10.12 2.78
1 3 9 3.36 2.25
3 1 9 3.09 1
4 -3 9 5.72 1.27
3 1 9 4.4 1.13
3 1 -9 3.49 1.79
4 -3 9 5.38 1.63
1 -4 -9 6.26 3.25
-4 3 9 6.67 2.73
1 3 -9 6.51 2.57
-4 1 -9 3.99 1.06
1 -4 -9 2.17 1.54
4 -1 -9 5.12 1.67
3 1 9 5.98 1.95
4 -1 -9 2.39 1.22
1 -4 9 4.77 1.49
4 -3 -9 3.62 1.63
3 1 9 5 1.75
4 -3 -9 5.34 2.1
3 1 9 4.69 1.59
-4 1 9 3.26 2.36
3 1 9 2.1 1.14
4 -1 10 332.93 18.43
-3 -1 -10 391.82 18.02
-1 4 10 321.26 10.41
3 -4 10 429.13 16.05
-4 1 10 346.9 18.58
-3 -1 -10 417.11 17.15
1 -4 10 467.91 20.38
1 3 10 396.97 19.44
4 -3 10 432.48 12.69
-3 -1 10 340.99 17.45
-4 3 10 562.1 26.11
1 -4 10 400.07 15.87
3 1 10 397.72 17.53
3 1 -10 439.28 15.74
3 1 10 294.21 19.44
1 -4 -10 473.78 25.73
4 -3 -10 395.76 16.94
-4 1 -10 386.21 15.86
1 3 10 332.74 12.7
-1 4 -10 538.59 23.22
-4 3 -10 382.05 14.36
4 -3 10 344.28 14.14
-1 -3 10 349.74 11.39
-4 1 -10 499.27 23.7
3 -4 10 446.8 17.5
-3 4 -10 527.81 21.56
3 1 -10 327.11 22.06
3 1 10 442.08 19.56
4 -1 10 351.88 10.69
4 -3 10 438.39 13.74
4 -1 -10 412.59 16
-3 -1 10 467.11 25.03
-1 4 10 376.83 11.36
3 1 10 390.85 16.65
3 -4 -10 406.73 16.94
-1 4 -10 396.89 8.93
1 3 10 297.45 19.36
1 -4 10 453.4 19.53
4 -1 10 424.33 22.31
-4 1 -10 348.14 11.55
3 1 10 406.32 25.26
3 1 10 502.55 15.08
4 -3 10 383.55 9.93
1 -4 -10 300.78 12.94
4 -3 -10 426.29 18.42
1 3 -10 372.46 15.27
3 1 10 388.65 16.61
4 -1 10 374.68 14.2
-1 4 10 354.36 19.2
-1 -3 -10 340.33 18.65
3 1 10 343.27 14.18
1 -4 -10 293.47 19.64
1 3 10 368.9 17.8
-4 3 10 364.95 19.39
-4 1 10 573.91 31.95
4 -1 -10 298.39 18.33
-1 -3 -10 397.33 24.17
-3 4 10 363.02 18.74
-3 -1 10 387.52 12.13
3 -4 10 439.82 17.74
4 -3 10 458.42 19.42
-1 4 -10 359.8 17.41
1 3 -10 380.44 20.01
4 -1 10 463.39 20.14
-3 4 -10 359.43 15.41
-1 4 11 415.22 12.82
4 -3 11 551.25 23.38
-4 1 11 443.82 21.89
1 -4 11 590.37 23.51
3 1 11 441.11 17.28
-3 -1 11 421.14 20.6
1 3 11 453.8 20.89
3 1 11 482.53 19.35
3 1 11 490.35 29.04
-4 3 11 447.85 22.3
-4 3 -11 524.68 18.5
-3 4 11 462.98 22.34
3 1 11 494.44 20.14
3 -4 11 564.56 20.07
4 -1 11 463.27 12.53
4 -3 11 440.16 16.37
4 -3 11 482.52 11.25
-1 4 -11 729.94 27.64
3 1 -11 595.46 20.52
1 3 -11 504.93 18.37
-3 4 -11 685.03 25.34
4 -3 11 550.15 16.17
-3 -1 11 548.26 28.47
1 -4 -11 400.4 14.91
1 3 11 428.48 23.97
-4 3 -11 656.17 24.23
-1 -3 -11 437.73 21.71
1 -4 11 538.62 19.93
1 -4 11 576.54 22.9
-3 -1 -11 546.52 20.7
-4 1 -11 426.23 12.82
3 -4 11 576.96 19.64
-4 1 -11 693.57 28.52
4 -1 11 467.76 16.2
-4 1 -11 498.87 22.5
-4 1 11 699.93 36.21
-1 -3 11 447.68 14.52
-1 4 -11 468.95 20.58
4 -1 11 537.46 26.16
3 -4 11 531.23 20.86
3 1 -11 412.17 25.45
-1 -3 -11 526.38 28.97
1 3 11 429.62 15.02
-3 4 11 610.64 21.93
4 -3 -11 463.74 18.97
-1 -3 11 586.99 25.88
-4 1 -11 515.6 18.84
-3 -1 -11 511.81 20.91
-1 4 11 439.58 22.46
4 -3 11 588.87 23.05
-4 3 11 768.51 32.7
3 1 11 428.99 23.77
-1 4 -11 472.3 8.96
3 1 11 615.69 18.48
3 1 11 487.47 18.81
1 -4 -11 359.12 22.48
1 -4 -11 625.71 31.28
1 3 -11 483.94 23.66
3 1 11 584.74 23.77
4 -1 -11 540.27 19.46
4 -1 11 608.13 24.26
4 -3 -11 568.7 22.09
-3 4 -11 474.86 18.75
3 -4 11 568.41 21.37
4 -1 11 479.9 9.87
3 -4 -11 635.41 25.91
4 -1 -11 406.29 21.82
3 -4 -11 507.95 18.81
4 -1 12 49.54 8.31
-4 1 -12 48.05 5.92
3 1 12 50.43 7.39
-4 3 12 45.84 7.48
1 -4 -12 30.29 4.06
3 1 12 36.02 6.91
-1 -3 12 51.89 8.11
-4 3 12 67.68 10.04
4 -1 12 45.05 3.54
-4 3 -12 47.25 5.96
3 -4 12 54.21 6.51
-1 4 -12 65.11 8.29
1 3 -12 44.79 7.5
4 -3 -12 43.75 6
-3 4 -12 61.7 7.66
1 3 12 40.95 7.62
4 -3 12 50.04 7.35
-1 4 12 35.77 6.4
-1 -3 -12 43.64 8.65
4 -1 12 51.42 7.34
4 -1 12 41.75 4.99
4 -1 -12 35.63 6.82
-1 -3 12 38.25 4.5
3 -4 12 51.08 6.04
-4 1 -12 37.21 3.88
-4 3 -12 55.6 7.14
3 -4 12 43.3 6.31
3 -4 12 45.93 6.35
1 -4 12 56.98 7.49
3 -4 -12 41.93 5.75
-4 1 12 73.18 12.06
1 -4 12 48.31 6.42
3 1 -12 48.68 6.38
3 1 12 47.81 5.74
-3 4 12 41.72 6.94
-1 4 -12 36.78 2.3
1 3 12 35.01 4.47
1 3 -12 44.35 5.49
1 -4 -12 46.83 9.01
-1 -3 -12 36.84 6.45
4 -3 12 41.85 3.36
3 1 -12 40.89 8.11
-1 -3 -12 47.86 5.37
3 -4 -12 58.41 8.19
-3 4 -12 46.39 6.11
3 1 12 46.82 9.34
1 -4 12 57.99 7.62
-4 1 -12 60.28 8.49
3 1 12 41.83 5.66
-3 -1 12 38.78 6.56
-3 -1 -12 44.56 6.44
-4 1 -12 47.49 7.11
1 -4 -12 29.53 6.75
4 -3 12 57.98 7.49
3 1 12 37.59 6.2
4 -3 -12 44.72 6.5
-3 4 12 57.75 7.31
-3 -1 12 43.91 7.97
4 -3 12 47.58 4.96
-1 4 -12 47.95 6.89
-3 -1 -12 41.95 5.92
-4 1 12 36.94 6.79
4 -1 -12 48.08 6.12
-1 -3 -13 12.14 2.67
1 3 -13 10.53 3.54
1 3 13 10.95 2.72
-1 -3 -13 11.58 4.38
4 -1 -13 8.58 3.17
-4 1 -13 11.66 2.83
1 3 13 7.63 2.96
-1 4 13 8.33 3.3
4 -3 -13 12.46 3.79
-1 4 -13 16.07 4.11
-4 3 13 8.6 3.2
-3 -1 13 9.96 3.39
3 1 13 11.81 3.67
3 -4 13 13.88 3.57
-1 -3 13 11.03 3.81
4 -1 13 10.59 1.81
1 -4 13 13.94 4.11
3 1 13 10.47 3.46
3 1 13 13.74 5.26
3 1 13 13.95 3.15
-1 4 -13 10.56 3.54
-3 4 -13 16.89 4.08
-3 4 -13 10.28 3.05
-3 -1 -13 9.75 3.07
3 -4 13 14.48 3.36
-3 -1 -13 12.1 3.52
3 -4 13 13.2 3.21
4 -3 13 13.77 2.75
3 -4 -13 9.72 2.74
1 -4 -13 16 5.61
-4 3 -13 12.65 3
3 -4 -13 13.7 4.29
-1 4 13 11.01 2.74
1 -4 -13 9.85 2.27
-1 -3 13 8.4 2.37
3 1 13 11.05 4.12
-3 -1 13 15.18 4.76
4 -1 -13 14.01 3.38
4 -1 13 12.49 4.71
-4 3 -13 12.17 3.12
4 -1 13 12.91 2.58
1 -4 13 10.18 3.35
-1 -3 -13 7.95 2.68
4 -3 13 14.99 4.05
3 1 -13 14.91 5.04
3 1 -13 11.63 3.25
4 -3 13 11.99 4.19
1 3 -13 12.67 2.98
-4 3 -13 15.29 3.69
1 -4 -13 12.66 4.11
-3 4 13 13.82 3.78
1 3 13 11.81 2.51
-4 1 -13 18.92 4.68
3 1 13 11.93 2.96
-3 4 13 14.66 4.16
-4 3 13 16.97 5.33
-4 1 13 6.97 2.69
3 -4 13 10.88 3.06
4 -1 13 12 3.72
4 -3 -13 10.48 2.86
-4 1 -13 10.86 2.13
-4 1 13 17.66 5.73
-1 -3 -14 9.92 2.85
1 3 -14 6.24 2.95
-3 4 14 8.2 3.46
4 -3 -14 5.63 1.91
1 3 14 7.01 1.85
-3 4 14 4.64 0.77
-4 1 -14 4.55 2.02
-4 1 14 4.06 2.84
-1 4 -14 6.03 2.57
3 1 14 5.15 1.48
4 -1 -14 5.15 2.3
1 3 14 6.53 2.09
4 -1 14 9.52 4.21
-4 1 -14 4.96 1.44
-1 4 14 6.27 2.07
4 -1 14 7.9 1.78
1 3 14 5.3 2.67
-3 -1 -14 7.81 2.87
3 1 14 7.29 3.23
3 -4 -14 6.6 2.56
-3 4 -14 11.65 3.07
3 -4 14 9.52 2.84
4 -1 14 6.02 2.05
4 -3 14 6.85 2.13
-4 3 -14 8.71 2.5
-4 3 -14 6.64 2.56
-1 -3 -14 2.87 1.3
4 -3 14 9.2 3.46
1 -4 -14 4.69 1.68
3 1 14 2.63 1.89
3 1 14 4.11 1.39
1 -4 14 4.89 1.63
-1 4 14 3.17 1.46
3 -4 14 5.56 2.49
4 -1 -14 7.06 2.95
3 1 14 7.69 2.84
1 -4 -14 6.16 2.7
3 1 -14 6.91 2.4
-3 4 -14 6.54 2.78
-3 -1 14 8.02 2.99
1 3 -14 6.49 2.12
-4 1 -14 7 2.41
-1 -3 14 5.76 1.82
3 1 -14 7.12 3.93
-4 3 -14 10.91 3.08
-3 -1 -14 8.1 3.28
3 -4 14 5.56 1.84
3 1 14 5.65 1.93
-1 4 -14 9.92 1.6
-4 3 14 5.1 2.11
4 -3 15 341.18 15.5
-1 -3 15 289.87 15.37
-4 1 15 258.66 19.95
-3 -1 15 268.34 19.73
-3 4 15 287.17 7.35
-3 -1 -15 313.84 18.26
3 1 15 261.01 17.59
4 -3 -15 267.33 15.88
-3 -1 -15 333.97 18.62
-1 4 -15 302.67 19.75
-3 4 -15 463.68 22.65
-4 3 -15 427.62 20.34
4 -1 15 360.28 25.75
-1 4 15 244.95 19.2
4 -1 -15 368.47 20.06
-4 1 -15 282.54 19.78
1 -4 15 327.95 20.79
-4 1 -15 319.95 12.41
3 -4 15 345.28 19.83
3 1 15 354.04 28.35
1 3 15 329.5 23.44
3 1 -15 378.05 21.44
4 -1 -15 275.92 19.61
-3 4 -15 325.52 19.1
-4 1 -15 317.56 15.79
-3 4 15 258.07 19.36
-4 3 -15 336.46 20.05
1 3 15 345.85 16.11
-4 3 -15 417.66 19.64
3 -4 15 338.99 20.6
3 1 15 402.93 19.56
1 3 -15 324.42 16.06
-1 -3 -15 354.92 16.13
3 1 -15 352.29 25.9
-1 4 15 369.33 18.17
1 -4 -15 295.32 22.57
1 3 -15 306.91 21.82
3 1 15 311.25 16.94
-1 -3 -15 265.11 18.96
3 -4 -15 276.38 15.21
-4 3 15 262.69 20.09
3 -4 15 362.59 18.75
4 -3 15 360.62 22.87
4 -1 15 284.59 13.73
1 -4 -15 238.36 12.11
1 3 15 377.01 17.66
4 -1 15 346.61 13.23
4 -3 16 5.48 1.91
-1 4 16 2.02 0.9
-4 3 -16 6.27 2.47
-4 1 -16 3.03 1.44
-1 -3 -16 3.48 2.38
4 -1 -16 4.14 2.58
4 -1 16 4.09 2.58
-4 1 16 4.02 2.55
1 -4 -16 2.6 1.55
4 -1 16 3.29 1.59
1 3 16 2.39 0.93
4 -1 -16 3.05 1.63
-3 4 16 2.05 0.6
4 -3 16 3.1 2.28
3 -4 -16 5.77 2.31
1 3 16 4.98 3.04
-4 3 16 1.74 1.74
-3 4 16 1.89 0.87
-1 -3 16 1.82 0.63
-4 3 -16 4.03 1.55
-1 4 -16 3.9 2
3 1 16 4.28 3
3 1 -16 2.69 2.2
4 -3 -16 2.85 1.52
-3 -1 -16 3.3 1.53
3 1 16 2.33 1.57
-1 4 16 0.7 0.64
-4 3 -16 3.55 2.22
1 3 16 2.47 1.71
1 -4 -16 2.68 1.3
3 -4 16 2.88 2.65
-4 1 -16 1.28 0.54
-3 4 -16 2.7 0.81
1 -4 16 5.94 2.96
3 1 -16 0.22 1.25
-3 -1 -16 2.7 1.35
-3 4 -16 4.52 1.87
3 -4 16 4.13 2.71
-4 1 -16 4.41 1.97
-3 -1 16 2.74 1.78
1 3 -16 3.59 2.64
-1 -3 -16 3.91 1.61
3 1 -17 36.77 6.9
4 -1 17 27.89 4.4
4 -3 17 27.52 4.91
3 -4 17 23.88 5.86
-4 3 -17 37.33 6.21
-4 1 17 19.1 5.51
-4 1 -17 21.36 4.16
1 3 17 23.44 4.69
-3 4 17 20.04 5.98
1 3 17 30.87 5.97
-4 3 -17 35.46 5.73
-4 1 -17 19.24 5.66
4 -3 -17 31.13 3.66
4 -1 17 33.32 8.39
-4 3 17 23.11 6.26
-4 3 -17 27.99 5.98
-4 1 -17 28.03 3.75
-1 4 -17 29.63 6.48
3 1 17 29.49 8.32
1 -4 -17 17.27 3.4
-3 4 -17 26.13 5.63
4 -1 -17 29.95 6.38
4 -3 -17 15 3.9
-1 4 17 20.73 5.88
1 3 17 28.92 7.42
-1 -3 17 24.71 4.82
3 1 17 36.8 6.21
3 -4 -17 19.34 4.15
-1 -3 -17 28.15 4.76
-1 4 17 29.81 3.84
1 3 -17 24.09 6.59
3 -4 17 28.59 5.52
-3 -1 17 23.91 6.25
4 -1 -17 24.49 5.9
-3 -1 -17 26.05 5.32
-1 -3 -17 20.64 5.44
1 -4 -17 21.92 6.48
-3 -1 -17 27.26 5.68
3 1 -17 30.68 7.68
1 -4 17 33.69 6.96
4 -3 17 27.9 6.72
3 1 18 1.2 2.12
1 -4 -18 1.66 2.55
4 -1 18 1.02 1.3
-1 4 -18 1.46 2.52
-3 -1 18 1.77 1.62
-3 4 18 -0.36 1.13
4 -1 18 2.49 1.35
1 3 18 -0.89 1.56
4 -3 -18 1.49 1.71
1 -4 -18 2.34 1.26
-4 3 18 0.55 1.73
-4 3 -18 3.07 2.1
1 -4 18 -0.09 0.66
4 -3 18 4.56 2.76
-4 1 -18 1 0.09
4 -1 -18 -0.82 1.43
4 -3 -18 4.31 1.59
1 3 18 2.9 1.46
-1 -3 18 1.46 1.2
-1 4 18 1.42 0.53
-4 1 18 -0.6 2.26
3 -4 18 3.37 2.25
3 -4 -18 1.93 0.79
-4 3 -18 2.23 1.84
4 -3 18 1.45 0.87
-4 1 -18 1.08 0.65
-1 -3 -18 1.23 1.07
-3 -1 -18 1.93 1.65
3 -4 -18 0.98 0.11
1 3 18 1.27 1.25
3 1 18 2.18 1.8
-3 -1 -18 3.95 2.28
-1 -3 -18 2.75 1.56
-4 1 -18 2.55 1.82
3 1 -18 7.9 4.61
3 1 -18 1.84 1.54
1 3 -18 1.53 1.64
-3 4 -18 2.71 2.44
-1 4 18 4.03 1.85
-1 -3 19 19.32 4.65
3 1 -19 20.02 4.92
1 -4 19 17.54 4.81
-4 3 19 13.95 5.65
1 -4 -19 12.64 2.77
4 -1 19 14.2 5.97
-4 3 -19 15.65 4.38
-3 -1 19 12.84 4.83
4 -1 19 11.59 3.24
-1 4 19 17.17 3.26
3 1 19 21.98 5.05
1 3 19 13.9 3.81
-1 4 19 11.26 3.84
3 1 19 15.83 5.66
4 -3 19 15.34 3.67
1 -4 -19 8.27 2.31
-4 1 19 11.85 4.84
-4 3 -19 20.96 4.6
4 -3 -19 15.93 2.73
1 3 19 17.16 5.68
-4 1 -19 12.43 2.51
-4 1 -19 15.64 3.82
3 -4 -19 8.85 2.95
3 1 -19 14.7 5.41
1 -4 -19 16.76 5.54
4 -3 -19 7.31 3.24
4 -1 -19 11.29 3.93
-3 -1 -19 12.34 3.84
3 -4 19 12.12 5.04
4 -3 19 11.64 5.2
-1 -3 -19 16.46 5.23
-3 -1 -19 14.43 4.05
3 -4 -19 14.21 2.18
-4 1 -19 11.28 4.59
1 3 -19 15.05 5.56
-3 4 19 12.07 4.73
-3 4 -19 15.55 5.39
-1 -3 -19 16.91 3.85
-1 4 -19 14.87 5.12
3 1 -20 75.94 10.49
-1 -3 -20 57.56 7.46
-1 4 20 49.53 9.73
4 -3 20 57.6 11.27
-4 1 20 40.76 9.14
-4 3 20 41.78 9.54
-3 -1 20 40.52 8.87
-3 4 20 38.11 8.85
1 -4 -20 58.56 6.1
4 -3 20 59.24 7.99
-3 -1 -20 44.52 7.97
1 -4 20 66.16 10.02
1 -4 -20 67.95 11.62
4 -1 20 64.88 13.35
-4 3 -20 68.54 8.84
-3 -1 -20 54.83 8.57
3 1 20 88.23 10.41
1 -4 -20 29.31 4.49
4 -3 -20 39.6 6.79
-4 3 -20 134.71 18.29
3 -4 20 59.15 10.86
-4 1 -20 56.06 10.26
-1 4 -20 54.12 10
3 1 -20 58.31 10.65
3 -4 -20 32.12 5.57
3 1 20 69.82 13.11
1 3 20 48.11 7.24
-1 -3 -20 56.57 9.67
-4 3 -20 62.53 9.94
1 3 -20 54.49 10.84
-3 4 -20 61.03 10.58
3 -4 -20 53.25 4.32
4 -1 -20 43.52 8.23
-4 1 -20 54.97 7.11
1 3 20 65.71 12.01
4 -3 -20 80.38 6.47
-1 -3 20 63.62 8.86
4 -3 21 32.34 8.05
-4 3 -21 64.3 12.37
4 -1 21 35.46 9.83
-3 -1 -21 29.38 6.59
-1 4 -21 26.35 6.88
-4 1 21 23.47 7.73
4 -3 -21 19.84 4.68
-3 4 -21 40.54 8.94
-3 -1 21 21.84 6.63
-1 4 21 36.63 8.19
1 3 21 29.51 8.15
3 -4 -21 19.12 4.47
3 -4 21 34.17 8.58
1 -4 21 40.39 8.26
-1 -3 21 37.47 6.89
-4 1 -21 30.55 5.34
-1 -3 -21 28.23 5.51
1 -4 -21 28.61 4.4
1 -4 -21 17.01 3.34
4 -1 -21 27.41 6.25
3 1 -21 36.11 8.48
4 -3 -21 43.96 4.85
-1 -3 -21 28.24 6.75
-3 -1 -21 30.68 6.23
-4 1 -21 29.84 7.84
1 -4 -21 33.27 8.44
-3 4 21 20.31 6.31
-4 3 21 23.23 7.11
1 3 -21 34.71 9.17
-4 3 -21 32.77 7
3 1 21 37.73 9.47
1 3 -22 42.2 9.53
-1 4 22 42.15 9.15
-3 4 -22 49.11 10.01
-1 -3 22 49.6 8.22
4 -1 22 51.87 12.14
-4 1 22 33.22 9.08
-3 -1 22 35.85 8.94
-3 4 22 26.57 7.52
-1 -3 -22 47.79 9.09
3 -4 -22 22.98 5.07
3 1 22 54.39 12.18
1 -4 22 49.55 8.54
-3 -1 -22 45.93 7.89
4 -1 -22 36.46 7.67
4 -3 22 35.9 9.32
-1 4 -22 36.98 8.92
-4 3 22 31.4 8.47
-3 -1 -22 42.26 8.1
-4 1 -22 46.97 9.61
1 3 22 54.84 10.97
3 -4 22 44.42 10.37
3 1 -22 48.53 9.9
-1 -3 -22 39.44 6.47
-4 3 -22 47.43 8.37
4 -3 -22 29.96 6
1 -4 -22 46.18 9.92
-4 3 -22 98.89 15.39
1 -4 -22 47.37 5.81
-4 1 -22 44.97 6.77
3 -4 23 23.65 7.79
4 -1 -23 18.87 5.73
-4 1 23 12.06 5.75
4 -3 23 22.73 8.63
-4 3 23 9.51 4.37
-3 -1 23 21.57 7.29
-3 4 23 13.01 5.09
-1 -3 -23 21.47 5.1
1 -4 23 28.78 7.31
-3 4 -23 21.04 5.85
1 3 23 27.88 8.26
-3 -1 -23 18.8 5.44
1 -4 -23 29.94 7.79
3 1 23 31.44 9.27
-1 4 23 21.06 6.76
-1 4 -23 22.22 6.89
3 -4 -23 12.48 3.84
4 -1 23 31.71 9.37
-4 3 -23 29.15 7.31
-1 -3 23 25 6.09
-4 1 -23 21.11 4.77
-3 -1 -23 20.21 5.48
4 -3 -23 17.16 4.53
-1 -3 -23 19.84 5.72
3 1 -23 19.09 6.35
-4 1 -23 28.84 7.37
3 -4 -23 24.19 7.94
1 3 -23 17.37 6.39
-4 3 -23 58.32 11.75
1 -4 -23 20.77 3.95
-4 3 -24 -1.56 3.98
4 -1 -24 -2.76 2.4
4 -3 24 -0.75 3.13
-3 4 24 4.19 4.53
3 1 24 -1.77 3.67
-4 1 24 -0.74 3.37
-4 3 24 2.5 3.56
-3 -1 24 0.39 2.29
-4 3 -24 1.05 0.91
-1 -3 24 -1.53 2.35
1 -4 -24 -3.1 2.98
3 -4 -24 -1.13 0.2
3 -4 -24 1.66 1.13
-1 4 24 -2.91 3.07
-3 -1 -24 -0.72 2.19
4 -1 24 1.22 0.95
1 3 24 -1.55 1.08
4 -3 -24 0.87 0.15
-1 -3 -24 -1.21 2.53
1 -4 24 -1.54 2.57
3 -4 24 2.62 1.87
-1 4 -24 0.53 2.01
-3 -1 -24 3.39 2.75
3 1 -24 -0.68 1.73
-3 4 -24 0.83 0.49
-4 1 -24 -7.64 4.21
-1 -3 -24 1.58 1.1
1 3 -24 4.64 3.43
4 -3 -25 10.91 3.43
-3 4 25 11.61 5.65
4 -3 25 13.5 6.17
-4 1 25 13.71 6.5
3 -4 -25 8.14 2.95
-4 3 25 11.46 6.03
4 -1 -25 15.49 4.53
3 -4 25 17.59 5.83
4 -1 25 15.24 6.88
-1 -3 25 18.36 4.8
3 1 -25 16.19 5
-3 -1 25 16.87 6.97
1 3 25 22.12 7.01
-1 4 25 16.16 6
-3 -1 -25 15.53 5.44
-4 3 -25 14.77 4.97
3 1 25 21.44 7.58
-4 3 -25 43.21 10.7
-1 -3 -25 10.22 5.52
-4 1 -25 15.49 5.43
-3 4 -25 12.03 3.62
-3 -1 -25 15.79 5.23
1 -4 -25 18.15 6.88
1 3 -25 12.51 5
1 -4 25 20.28 6.03
-1 4 -25 14.36 6.07
-1 -3 -25 14.56 4.13
3 -4 -25 14.06 4.78
-3 -1 26 1.71 1.44
3 -4 26 -0.41 0.81
1 -4 26 0.24 2.02
-1 4 -26 2.82 2.34
4 -3 -26 4.14 2.85
4 -1 -26 2.52 0.45
3 -4 -26 5.03 4.38
-3 -1 -26 4 2.58
-3 4 -26 2.48 2.12
-3 -1 -26 2.77 1.21
-1 -3 -26 2.3 2.43
1 -4 -26 0.44 0.79
-4 1 -26 0.52 0.96
4 -3 26 3.73 3.02
-1 -3 -26 3.63 2.6
3 -4 -27 22.12 7.1
1 -4 -27 22.47 6.64
4 -3 -27 14.7 4.26
4 -1 -27 19.86 5.77
3 -4 27 30.34 8.46
-3 -1 -27 28.81 7.27
-3 4 -27 28.23 7.59
-1 -3 -27 19.69 5.47
-3 4 -28 2.62 1.66
4 -3 -28 1.81 3.04
-4 0 0 113.15 6.53
4 0 0 127.61 7.64
-4 4 0 108.15 7.14
4 -4 0 119.77 8.88
0 -4 0 116.36 7.71
0 4 0 109.05 7.85
0 4 0 117.6 7.88
4 0 0 85.87 7.13
0 4 0 107.24 7.63
-4 0 0 120.64 10.66
-4 0 0 108.13 7.05
0 -4 0 105.81 7.64
0 4 0 125.37 9.02
4 0 0 112.82 7.04
4 0 0 116.07 7.29
-4 4 0 111.07 5.98
-4 0 0 106.06 5.52
-4 4 -1 10.69 2.38
4 0 -1 11.91 2.55
-4 0 -1 8.87 1.52
4 0 1 10.04 2.43
-4 4 1 12.08 2.55
0 4 -1 9.91 2.89
-4 0 -1 9.85 2.22
-4 0 -1 8.24 1.48
0 -4 -1 14.78 3.57
0 4 -1 10.85 2.43
0 -4 1 9.71 2.15
0 4 1 10.75 2.36
4 0 1 10.48 2.28
0 4 -1 9.63 2.47
0 4 1 10.88 2.5
0 4 1 10.95 2.77
-4 0 1 9.4 2.02
4 0 -1 9.96 2.3
4 -4 -1 10.29 2.67
4 0 1 9.38 2.01
-4 0 1 12.89 3.93
4 0 1 16.31 3.18
4 -4 1 11.93 3.03
-4 4 -1 8.8 1.63
4 0 -1 11.53 3.21
-4 0 1 9.36 2.22
-4 4 1 9.25 1.85
-4 0 -1 8.18 2.41
0 -4 1 13.29 2.79
-4 0 1 13.89 2.79
4 0 -1 10.65 2.38
0 -4 -1 8.88 2.49
0 4 1 2.6 1.2
0 4 -1 11.14 2.67
0 -4 2 703.96 18.55
0 4 2 686.59 20.07
0 -4 2 762.12 16.03
4 0 -2 743.39 18.8
-4 0 2 802.08 22.5
0 -4 -2 692.92 22.04
0 4 2 622.98 9.58
-4 0 2 770.99 26.75
-4 0 -2 678.6 11.23
-4 0 2 716.94 18.52
0 4 -2 839.5 23.24
-4 0 -2 673.6 17.7
0 4 2 724.36 18.01
0 4 -2 793.25 21.35
0 4 2 709.64 20.15
4 0 2 633.4 15.44
4 0 -2 726.4 17.61
-4 4 -2 742.86 17.62
4 0 2 745.76 16.01
-4 4 2 731.53 19.55
-4 4 -2 703.82 18.37
4 0 2 755.68 18.9
4 -4 2 764.94 22.04
4 -4 -2 814.32 22.6
-4 4 2 743.41 17.4
0 -4 -2 711.7 21.68
0 4 -2 681.21 20.3
-4 0 -2 699.92 12.08
4 0 -2 496.75 20
0 4 -2 662.43 19.25
-4 4 -2 720.04 14.33
4 -4 -2 702.35 12.84
4 0 2 807.8 19.89
0 4 3 745.04 17.64
4 0 -3 805.9 20
4 -4 -3 733.49 11.42
4 0 3 813.73 20.15
0 4 3 711.74 13.14
0 -4 -3 756.25 25.08
0 4 -3 727.58 21.4
-4 4 -3 764.8 17.73
0 4 3 758.66 18.71
4 -4 3 796.13 22.71
-4 0 -3 762.31 12.1
-4 0 -3 661.09 8.86
-4 4 -3 740.6 14.4
-4 4 3 818.79 12.77
-4 0 3 790.68 27.08
-4 4 -3 724.43 18.69
0 4 -3 733.09 20.34
0 4 -3 819.52 21.09
4 0 -3 555.23 22.67
0 4 3 759.82 21.23
-4 4 3 766.35 20.71
4 0 3 770.72 15.21
0 -4 3 711.51 17.87
0 4 -3 921.48 25.58
-4 0 3 761.3 19.71
0 4 3 752.35 21.2
4 0 3 724.93 13.22
0 -4 3 756.73 14.04
-4 0 3 853.59 25.37
-4 0 -3 761.57 19.59
4 -4 -3 861.4 23.29
4 0 3 848.18 20.88
0 -4 -3 735.8 22.9
-4 0 4 1351.81 27.46
0 -4 4 1304.36 23.52
-4 4 -4 1415.3 24.07
0 4 4 1338.99 28.66
-4 4 4 1407.13 29.35
4 0 -4 1432.48 27.47
0 4 -4 1368.54 30.15
0 4 4 1408.03 27.69
0 -4 4 1257.97 16.47
4 -4 4 1491.73 21.4
0 -4 -4 1380.93 26.69
0 4 -4 1677.67 35.81
4 -4 4 1384.6 30.09
0 4 4 1215.18 21.41
4 0 4 1554.08 33
4 0 4 1631.17 29.37
-4 4 -4 1388.18 20.31
4 0 4 1399.5 19.63
0 -4 -4 1410.77 36.95
0 -4 -4 1299.62 31.55
-4 0 4 1343.12 34.19
-4 0 -4 1361.61 26.89
4 -4 -4 1613.94 32.06
4 0 4 1435.18 27.31
4 0 -4 1074.01 33.13
-4 4 -4 1331.72 25.68
-4 0 4 1519.28 37.02
0 4 4 1306.39 28.41
0 4 -4 1476.62 27.77
0 -4 5 1293.42 14.04
4 0 -5 1464.05 29.13
0 4 -5 1289.78 30
4 0 5 1556.47 32.72
0 -4 5 1261.5 22.77
0 -4 -5 1288.97 37.48
-4 4 5 1346.37 29.6
-4 4 -5 1333.09 23.37
4 0 5 1438.87 28.11
4 -4 5 1328.32 29.31
4 -4 5 1520.7 21.71
4 -4 -5 1520.6 31.12
4 0 -5 1127.18 35.36
0 4 5 1160.91 19.54
-4 4 -5 1321.5 26.34
4 0 5 1333.95 18.44
0 4 5 1392.81 29.88
0 -4 -5 1363 25.82
0 4 -5 1385.64 26.22
0 4 5 1304.88 29.07
4 0 5 1421.76 18.35
0 -4 -5 1273.57 32.89
4 0 5 1608.77 30.51
-4 0 5 1308.19 28
-4 0 -5 1316.36 27.17
-4 0 5 1497.54 39.29
4 0 5 1340.91 28.31
4 0 5 1401.92 35.3
0 -4 -6 167.57 8.88
-4 0 6 152.06 10.07
-4 4 -6 156.22 9.36
-4 4 6 153.86 10.49
4 0 6 174.54 10.52
-4 4 6 198.65 10.62
4 0 -6 178.73 10.65
4 0 6 171.27 6.43
0 4 6 148.5 6.58
0 -4 -6 70.49 9.52
4 0 6 154.84 6.09
4 -4 -6 198.44 11.69
0 4 -6 166.73 8.98
-4 4 -6 155.51 8.2
0 -4 6 148.24 5.81
0 4 6 150.1 7.44
4 0 6 195.68 11.13
4 -4 6 158.99 10.19
4 0 6 165.8 10.11
-4 0 -6 162.48 11
-4 4 -6 207.27 12.19
4 0 6 189.97 11.3
4 -4 -6 191.49 11.99
0 -4 -6 145.15 11.59
0 -4 -6 148.33 6.35
0 4 6 164.68 11.09
0 4 6 150.73 10.32
0 -4 6 161.01 6.04
4 0 -6 136.46 12.5
0 4 -6 153.76 10.79
4 -4 6 169.32 7.42
4 0 6 184.18 13.35
0 4 -7 476.9 19.35
-4 4 7 471.19 19.13
-4 4 -7 448.61 14.36
0 -4 -7 426.71 10.72
4 0 -7 525.54 18.76
4 -4 -7 568.7 21.54
4 0 7 490.82 11.45
0 4 7 459.41 19.5
0 -4 -7 480.09 14.67
4 -4 7 440.85 16.92
4 0 7 438.88 10.1
-4 0 -7 521.19 19.8
0 -4 7 479.82 12.22
0 4 7 432.5 12.66
0 4 7 425.17 10.5
4 -4 -7 541.89 19.54
-4 4 7 529.3 17.59
4 0 7 565.29 19.49
4 -4 7 518.88 13.35
4 0 7 493.32 18.47
4 0 7 508.47 18.43
0 4 -7 511.2 15.32
0 -4 -7 434.24 20.51
4 0 -7 419.76 22.22
4 0 7 536.45 23.81
-4 4 -7 427.69 16.21
4 0 7 519.58 18.5
0 4 7 472.37 18.9
-4 0 7 435.09 17.87
4 -4 7 558.09 19.06
-4 4 -7 642.34 22.05
-4 0 8 645.39 22.61
-4 4 -8 599.94 17.26
4 0 -8 665.72 17.52
4 0 8 644.87 22.14
0 -4 -8 555.86 12.53
0 4 8 557.43 14.48
4 0 8 695.75 28.4
4 -4 8 554.17 19.27
0 -4 8 604.48 15.81
-4 4 -8 856.3 26.53
4 -4 8 800.73 23.88
4 -4 -8 681.27 22.43
0 4 8 628.95 12.22
-4 4 8 608.21 22.83
4 0 8 758.63 23.5
0 4 8 590.68 22.95
4 -4 8 722.91 16.55
-4 4 8 791.71 23.57
4 0 8 671.65 21.18
-4 0 -8 642.33 22.15
4 0 8 692.21 22.37
-4 4 8 700.39 20.85
4 0 8 621.05 11.61
0 4 -8 661.1 17.26
0 -4 -8 556.66 24.08
4 0 -8 569.24 26.96
4 0 8 661.16 14.13
0 4 8 638.26 22.76
4 -4 8 666.58 11.46
0 -4 -8 643.85 16.7
-4 0 8 632.82 30.04
0 4 -8 613.95 22.92
-4 0 9 1216.35 43.26
4 0 9 1314.71 41.11
4 0 9 1158.69 30.89
-4 0 9 1075.97 30.88
4 0 9 1213.95 28.41
4 0 -9 1227.23 25
-4 4 9 1127.16 32.49
4 0 9 1417.13 33.87
4 -4 9 1255.74 22.88
-4 4 -9 1102.79 24.32
0 -4 -9 1078 34.91
4 -4 9 1048.88 27.06
4 0 9 1023.76 14.49
-4 4 -9 1548.89 36.44
4 -4 9 1360.04 27.5
-4 4 9 1488.2 34.38
0 4 9 1097.16 33.39
0 -4 9 1313.05 34.28
0 -4 9 1093 23.99
0 -4 -9 1198.83 44.63
4 0 9 1233.1 31.41
0 4 -9 1118.83 31.78
0 4 9 1035.44 20.24
4 -4 9 1392.99 32.36
-4 0 -9 1288.74 32.46
4 -4 9 1071.63 12.9
4 0 -9 1136.82 39.49
4 -4 -9 1248.58 31.11
4 0 9 1183.56 20.58
0 -4 -9 1167.67 22.15
0 4 9 1146.88 32.1
0 4 -9 1295.71 23.99
0 4 9 1103.24 15.73
0 4 -10 102.74 10
-4 4 -10 135.17 11.01
4 0 -10 102 12.12
4 -4 -10 118.52 9.89
4 0 10 128.58 10.82
0 4 10 97.11 10.34
4 0 10 98.85 9.55
0 -4 10 125.27 11.06
-4 0 -10 109.64 9.71
-4 0 10 94.74 9.55
4 0 10 120.72 12.89
0 -4 -10 84.51 10.28
0 4 -10 135.78 12.07
4 -4 10 94.79 8.21
0 -4 -10 101.03 6.45
4 -4 10 120.4 8.38
4 0 10 93.54 4.26
0 4 10 92.42 6.22
4 -4 -10 120.13 10.45
0 -4 10 120.48 11.21
0 -4 -10 103.98 13.64
4 -4 10 124.94 7.6
-4 0 -10 106.95 9.5
-4 4 10 106.9 10.51
4 0 10 110.58 8.61
4 -4 10 121.97 9.8
4 0 -10 118.35 8.17
-4 4 10 137.5 11.45
0 4 -10 117.16 7.15
4 -4 10 83.14 3.15
0 4 10 108.71 5.02
0 4 10 103.88 10.19
4 0 10 101.95 6.48
-4 0 10 112.13 13.6
0 -4 10 114.51 8.16
-4 4 -10 109.08 8.08
0 4 -11 14.55 3.88
0 4 11 11.26 3.45
-4 0 11 16.88 5.32
0 -4 11 18.49 4.44
0 -4 11 16.92 4.44
4 -4 -11 14.76 3.44
0 -4 -11 12.69 2.24
-4 0 11 18.09 4.33
4 0 11 12.89 3.54
-4 4 11 17.93 4.38
0 4 -11 19.33 4.63
4 -4 11 12.66 3.07
4 -4 -11 15.39 3.83
0 4 11 11.67 2.28
0 -4 11 20.5 3.56
0 4 11 14.12 3.88
-4 4 -11 19.31 4.39
4 -4 11 16.16 2.81
4 0 11 18.22 4.11
0 -4 -11 10.48 4.69
4 0 11 20.03 5.18
-4 4 -11 14.71 3.09
-4 0 -11 17.49 3.97
4 -4 11 16.37 3.67
4 0 11 19.91 3.67
0 4 -11 14.86 2.49
-4 4 11 17.06 3.95
-4 0 -11 17 3.79
4 0 11 9.92 1.43
0 -4 -11 9.37 3.1
4 -4 11 20.51 3.51
4 0 -11 10.68 3.81
4 0 -11 16.36 3.17
4 0 11 21.16 3.17
4 0 12 13.53 2.83
0 -4 12 15.69 4.05
0 -4 12 14.97 3.12
0 4 -12 13.2 3.6
-4 4 -12 11.21 2.83
-4 0 12 11.67 3.69
-4 4 12 11.67 3.55
0 4 12 12.31 3.95
4 0 -12 15.76 3.35
0 4 -12 12.1 2.28
0 4 -12 17.12 4.37
4 -4 12 15.73 3.75
4 -4 -12 13.78 3.89
4 0 12 9.94 3.33
0 -4 12 14.97 4.06
0 -4 -12 10.15 1.97
-4 4 -12 15.48 3.94
4 -4 12 15.79 3.29
0 -4 -12 13.59 5.03
0 4 12 9.65 2.21
4 0 12 11.77 2.67
-4 0 -12 14.41 3.73
4 0 12 15.41 4.72
-4 0 -12 13.95 3.54
4 -4 12 19.66 4.46
0 -4 -12 9.6 3.61
-4 0 12 11.57 4.48
0 4 12 10.1 3.51
-4 4 12 13.8 3.85
4 0 -12 11.95 4.5
4 0 12 10.62 1.72
4 0 12 13.22 3.74
4 -4 -12 12.78 3.38
4 -4 12 13.42 2.69
0 4 -13 22.48 5.34
-4 4 -13 24.22 4.53
0 4 13 19.71 3.69
0 -4 13 23.56 4.25
4 0 -13 25.63 4.47
0 -4 -13 19.85 2.88
4 -4 13 26.09 4.28
4 -4 -13 34.89 5.65
-4 4 -13 38.25 6.08
4 0 13 24.01 6.19
-4 0 -13 39.72 5.97
0 -4 13 24.28 5.38
4 -4 13 26.16 4.16
0 -4 -13 16.18 4.72
0 4 13 15.72 4.65
0 -4 -13 22.19 6.5
4 -4 13 21.79 4.7
-4 0 -13 29.22 5.68
0 4 -13 24.42 3.31
-4 4 13 15.22 4.22
4 0 -13 24.86 6.28
4 0 13 17.17 3.55
-4 0 13 19.34 5.05
4 -4 13 28.27 5.36
4 0 13 19.3 2.55
0 -4 14 513.63 21.17
-4 4 14 368.98 22.88
0 4 14 430.44 17.03
4 -4 -14 362.4 18.43
-4 4 -14 567.5 24.55
-4 4 -14 546.2 21.47
4 0 14 467.48 30.54
4 0 -14 506.49 22.26
4 -4 14 512.16 19.28
0 -4 -14 311.5 11.4
0 -4 -14 311.7 21.99
4 0 14 368.29 12.8
-4 0 -14 414.88 19.82
4 0 -14 424.98 26.49
4 -4 14 490.79 19.49
-4 0 -14 431.51 21.9
0 4 -14 418.92 23.61
4 0 14 394.47 17.36
0 4 -14 433.04 13.76
-4 0 14 350.23 22.05
4 -4 14 437.2 23.03
-4 4 -14 419.19 20.05
0 4 14 307.56 21.24
-4 0 -15 3.32 0.74
4 0 15 8.68 1.86
-4 0 15 7.21 3.6
-4 4 15 12.48 4.46
-4 4 -15 15.74 3.64
4 0 15 7.2 2.44
4 -4 15 11.6 3.06
0 -4 -15 6.59 1.67
-4 4 -15 14.32 3.83
4 -4 15 11.23 3.78
4 -4 15 11.08 3.22
4 0 15 12.78 4.4
4 -4 -15 9.53 3.35
0 4 -15 10.43 3.7
0 -4 15 9.94 2.95
-4 4 -15 8.77 3.11
0 4 -15 13.38 2.59
-4 0 -15 12.26 3.94
0 4 15 6.95 2.06
0 4 15 8.3 3.56
0 -4 -15 5.24 2.43
4 0 -15 11.37 4.42
-4 0 -15 15.71 4.48
4 0 -15 12.35 3.73
-4 0 16 244.35 20.01
-4 4 -16 420.55 22.08
4 -4 16 331.21 21.89
-4 4 16 249.41 20.31
4 -4 16 352.93 17.72
4 0 -16 366.85 21.39
0 -4 -16 181.01 8.84
0 4 -16 302.17 11.6
0 -4 16 390.22 19.85
4 -4 -16 246.43 15.78
4 0 -16 335.13 23.78
4 0 16 270.52 15.14
-4 4 -16 418.36 19.43
4 0 16 323.32 27.23
-4 0 -16 303.01 17.52
-4 4 -16 306.03 19.07
0 -4 -16 252.29 20.78
0 4 -16 288.87 20.96
0 4 16 256.46 20.61
-4 0 -16 284.93 18.98
4 0 16 316.44 13.82
-4 4 -17 242.68 17.93
4 0 17 259.88 25.4
4 0 -17 283.7 20.04
-4 4 17 189.18 18.39
-4 0 17 259.94 9.48
4 0 17 271.17 13.55
0 4 17 220.13 19.74
0 -4 17 307.36 18.35
4 0 -17 255.4 20.95
4 -4 17 269.81 20.76
-4 0 17 195.62 18.59
0 -4 -17 215.18 19.33
-4 0 -17 233.66 15.78
4 -4 -17 182.45 13.79
-4 0 -17 222.47 17.52
-4 4 -17 320.02 17.13
0 4 -17 236.37 19.6
0 4 -17 225.92 10.03
4 -4 17 250.38 15.64
0 4 -18 9.52 3.85
-4 4 -18 10.76 3.24
4 0 -18 10.97 3.64
-4 0 18 10.51 4.52
0 4 -18 10.29 2.13
0 -4 -18 6.66 1.71
4 0 18 10.55 5.19
4 -4 18 9.94 3.3
4 -4 18 10.31 4.07
-4 0 18 10.13 1.46
0 4 18 8.63 4.06
0 -4 18 9.93 3.28
4 -4 -18 6.81 2.5
4 0 18 12.43 3.12
-4 4 -18 13.27 4.33
-4 0 -18 12.75 3.45
-4 4 18 7.8 3.64
4 0 -18 14.13 5.09
0 -4 -18 10.11 4.32
-4 0 -18 8.25 3.45
-4 0 19 0.76 1.47
-4 4 19 2.37 1.74
4 0 19 1.78 2.12
-4 4 -19 4.01 1.9
0 -4 -19 1.84 1.89
4 -4 19 6.13 1.86
0 -4 -19 1.53 0.83
4 -4 19 5.26 3.87
0 -4 19 0.75 1.17
0 4 19 2.38 2.61
4 -4 -19 -0.06 1.55
4 -4 -19 0.35 0.18
0 4 -19 2.18 2.87
-4 0 -19 2.45 0.78
4 0 -19 -0.71 1.59
-4 0 -19 0.34 1
-4 4 -19 4.9 3.47
-4 0 -20 18.53 5.44
-4 4 20 14.87 5.64
-4 4 -20 23.04 6.39
4 0 -20 29.59 7.18
4 -4 -20 14.33 3.96
0 4 20 24.53 7.04
0 -4 20 29.28 5.83
4 -4 20 32.29 8.42
-4 0 -20 23.32 5.2
4 0 20 30.98 9.03
0 -4 -20 22.52 6.57
-4 0 20 22.62 7.07
0 -4 -20 27.29 4.77
0 4 -20 29.26 7.66
0 -4 -21 210.35 13.42
-4 0 21 142.17 18
-4 4 21 148.6 18.31
0 4 -21 202.98 21.34
0 -4 21 273.18 19.58
4 -4 21 221.1 22.23
4 0 -21 222.51 21.07
0 4 21 237.95 22.7
0 -4 -21 204.88 20.24
-4 4 -21 226.86 20.22
4 0 21 252.79 26.98
-4 0 -21 188.16 14.99
4 -4 -21 123.89 12.38
-4 0 -21 201.3 18.63
0 -4 -22 3.25 1.98
0 -4 22 -1.15 2.45
-4 0 22 -1.89 3.4
0 4 -22 2.6 2.09
-4 4 22 5.25 3.9
-4 4 -22 2.95 1.79
4 -4 -22 2.83 1.66
0 4 22 3.77 3.16
4 0 22 0.07 0.85
-4 0 -22 3.32 1.65
0 -4 -22 -0.39 2.16
4 0 -22 1.91 0.41
-4 0 -22 3.14 2.05
4 -4 22 7.11 3.82
0 -4 -23 0 0.69
4 -4 -23 2.46 1.92
0 -4 23 0.69 1.66
4 -4 23 0.63 1.52
-4 0 -23 3.41 3.11
0 4 23 -1.12 2.48
4 0 -23 1.03 0.39
4 0 23 4.25 3.58
-4 0 23 -0.6 0.33
-4 0 -23 0.92 0.67
0 4 -23 2.38 2.86
-4 4 23 0.48 1.34
0 -4 -23 0.7 2.14
-4 4 -23 -0.35 2.15
4 -4 -24 -1.52 1.82
-4 4 24 4.72 3.82
-4 0 -24 3.85 0.36
4 0 24 6 4.13
0 -4 24 1.02 1.29
4 -4 24 2.68 4.18
0 -4 -24 2.33 1.55
0 -4 -24 2.4 1.7
0 4 -24 3.24 2.8
0 4 24 5.97 1.27
-4 0 24 1.12 2.18
4 0 -24 4.37 2.2
-4 4 -24 3.42 3.67
-4 0 -24 5.28 3.33
-4 0 -25 18.28 6
-4 0 25 18.69 7.57
-4 4 -25 16.67 4.58
4 -4 25 22.64 7.97
4 -4 -25 15.33 4.41
0 4 -25 22.17 7.35
0 -4 -25 15.11 5.98
4 -4 26 46.97 10.92
4 -4 -26 32.56 6.6
-4 0 -26 45.04 9.34
0 -4 -26 48.48 10.58
3 2 0 142.96 6.79
3 -5 0 140.85 8.56
5 -3 0 135.46 7.4
2 3 0 140.93 9.17
3 2 0 133.48 8.89
2 -5 0 150.67 10.04
-2 -3 0 136.89 9.75
3 -5 0 95.72 8.46
-5 2 0 136.26 7.14
2 -5 0 121.42 9.39
-3 -2 0 135.64 7.77
-2 5 0 141.07 9.65
-2 5 0 136.35 9.37
2 3 0 132.49 7.03
-2 -3 0 143.8 8.51
-3 5 0 115.88 8.33
-2 5 0 133.26 5.88
2 3 0 121.21 11.29
5 -3 0 156.7 9.28
2 3 0 137.08 8.8
-3 5 0 134.81 8.22
5 -2 0 162.47 9.14
3 -5 0 162.66 8.73
2 -5 0 137.21 8.66
5 -2 0 160.36 9.16
-2 5 0 134.56 8.74
3 2 0 144.14 9.28
-5 3 0 144.58 7.12
3 2 0 135.26 10.93
-3 -2 0 140.66 8.12
-3 -2 0 137.21 9.88
-5 2 0 165.56 12.43
2 -5 0 161.08 7.78
-3 -2 0 133.81 6.67
-3 5 0 133.48 7.03
2 3 0 130.99 4.84
-5 2 0 153.36 9.47
-5 3 0 132.11 8.83
2 -5 -1 397.54 14.73
5 -2 1 380.87 13.2
3 2 -1 391.04 17.99
-2 -3 1 343.94 7.81
3 -5 1 414.47 13.53
3 2 -1 369.73 10.94
2 -5 1 425.64 11.91
2 3 -1 346.52 8.08
2 -5 -1 426.62 13.43
2 3 1 381.13 14.57
3 2 1 346.28 15.56
-3 -2 -1 374.96 16.47
-3 5 1 371.45 13.92
3 2 -1 347.76 13.16
-3 -2 1 373.75 13.4
-5 2 -1 414.06 18.24
2 -5 1 347.9 16.1
2 -5 -1 333.61 15.37
3 -5 -1 370.71 16.73
-2 -3 -1 369.76 13.09
-2 5 -1 369.9 15.29
-2 5 -1 412.44 16.73
-3 -2 -1 359.36 11.83
-2 5 1 412.19 15.67
-3 5 -1 392.36 15.24
3 2 1 368.09 13.61
2 3 -1 361.15 18.69
-5 3 -1 387.55 12.58
-3 5 1 420.13 15.71
5 -3 1 426.49 15.45
2 3 -1 367.59 14.66
5 -3 -1 434.01 15.75
-3 5 -1 365.13 13.37
5 -2 1 399.29 13.96
3 -5 1 387.99 13.82
2 3 -1 354.3 9.25
2 -5 -1 394.02 15.56
-2 5 1 371.44 15.65
3 2 1 379.52 14.31
5 -2 1 437.33 15.77
5 -2 -1 422.51 15.15
3 -5 1 386.81 17.08
-2 5 1 371.54 14.58
5 -2 -1 423.01 14.01
-2 5 -1 385.87 14.59
3 -5 -1 426.98 14.52
-5 2 1 373.81 15.08
-2 -3 -1 392.36 16.55
-5 3 1 531.48 17.12
-5 3 1 369.28 10.67
-5 2 -1 390.14 12.71
2 3 1 364.98 8.44
2 -5 1 373.69 14.77
2 -5 -1 347.77 16.38
-5 2 1 456.47 21.93
3 2 1 363.1 13.6
-2 -3 1 360.24 15.33
3 2 1 347.27 18.16
5 -3 1 368.93 12.71
2 3 -1 371.26 15.18
-3 -2 1 354.46 10.58
-2 5 -1 356.07 9.51
2 3 1 361.13 14.3
5 -3 -1 356.19 11.34
-3 -2 -1 354.9 11.15
2 -5 1 373.55 14.35
-3 5 -1 364 11.65
-5 2 -1 384.39 15.07
-5 3 -1 359.37 14.53
-5 3 -1 356.91 7.36
-3 -2 -1 368.93 12.51
3 2 -1 369.79 15.42
2 3 1 331.38 12.8
-5 3 1 358.94 14.74
-2 5 1 365.37 10.15
-3 5 1 365.09 12.05
3 2 1 382.85 11.22
3 -5 2 132.33 7.55
2 -5 2 124.59 6.18
-2 5 -2 110.99 8.44
5 -2 2 113.63 7.56
2 -5 -2 126.56 9.26
2 3 -2 112.74 10.04
2 3 2 117.82 7.96
-5 2 -2 112.52 7.21
2 3 -2 93.43 3.1
-5 3 2 112.48 8.44
2 -5 2 94.95 8.52
3 2 2 102.29 9.15
3 -5 2 97.91 8.52
5 -3 2 111.32 7.46
2 -5 -2 105.81 8.8
-3 -2 2 107.66 5.89
-3 -2 -2 104.89 6.1
3 2 2 99.16 10.06
-3 -2 2 116.66 8.07
3 -5 -2 115.38 9.48
3 2 2 114.14 7.64
-5 3 2 104.27 5.25
-2 5 -2 113.52 5.56
-3 5 -2 122.03 8.37
-5 3 -2 119.15 7.45
-2 5 2 117.42 8.05
3 2 2 110.96 7.4
5 -2 2 132.97 7.91
5 -3 2 126.03 8.41
3 2 -2 122.07 9.69
2 3 2 89.85 7.64
-3 5 2 116.68 8.08
-3 5 2 110.61 7.78
-5 3 -2 95.57 3.2
5 -3 -2 133.32 8.8
3 2 -2 112.23 9.55
5 -2 -2 123.5 8.29
-3 5 2 109.74 6.8
-2 5 2 107.77 8.57
3 2 -2 104.94 6.53
2 -5 2 116.17 7.95
3 2 -2 112.41 8.81
-5 3 2 170.01 10.49
-5 2 2 116.24 8.52
5 -2 -2 122.63 7.21
3 2 -2 115.21 6.3
-5 2 2 132.77 12.57
-3 -2 -2 117.01 9.47
-2 -3 2 100.79 7.94
-2 -3 -2 111.38 8.88
-2 5 2 110.33 5.83
3 -5 -2 125.01 8.31
3 2 2 120.04 7.66
-3 5 -2 104.45 6.31
2 -5 2 104.31 7.38
-5 2 -2 107.04 8.26
-2 5 2 111.13 8.1
2 -5 -2 97.64 9.21
3 -5 2 116.44 8.89
2 3 -2 103.44 8.36
2 3 2 104.22 7.52
-3 -2 -2 112.95 6.78
3 -5 2 112.52 7.48
-2 5 -2 123.65 9.44
-2 -3 2 101.12 4.07
-5 3 -2 103.96 7.85
-5 2 -2 110.21 8.02
-3 5 -2 107.51 7.2
2 3 2 116.86 5.05
-2 5 -2 104.74 7.51
3 2 2 118.15 6.4
5 -2 2 134.82 9.24
2 3 -3 163.71 11.42
3 -5 3 162.83 9.46
-5 2 3 191.68 16.01
5 -2 3 164.42 9.55
3 2 3 166.81 7.82
-3 -2 -3 166.68 8.61
-3 5 -3 159.74 7.96
5 -2 3 173.04 11.35
2 3 3 168.8 8.31
-3 5 3 164.91 9.92
5 -2 -3 177.33 8.37
3 -5 3 146.63 10.51
2 -5 -3 141.78 9.98
-3 5 -3 163.18 9.76
-3 5 3 164.33 8.65
5 -3 -3 192.55 10.91
3 -5 -3 160.29 11.06
3 -5 -3 188.43 10.72
-2 -3 -3 159.15 10.9
5 -3 3 181.63 10.16
5 -2 3 194.32 11.77
-2 5 3 162.15 9.28
5 -2 3 173.86 9.04
2 -5 3 146.93 10.69
-3 5 3 167.29 9.41
5 -3 3 164.17 9.52
-2 5 -3 157.08 6.84
-2 5 -3 157.8 9.91
3 -5 3 185.8 8.99
-2 5 -3 161.17 9.47
2 3 3 127.76 9.65
5 -2 -3 180.47 10.15
-3 5 -3 164.06 8.82
-2 -3 -3 156.65 9.21
3 2 3 170.94 8.72
-3 -2 3 160.09 7.33
-5 3 -3 167.04 9.46
2 3 3 157.71 9.37
2 3 -3 160.54 10.76
2 -5 3 181.46 7.46
-5 2 -3 166.82 9.13
3 2 -3 160.57 11.69
-2 5 3 166.64 10.18
3 2 3 135.04 12.08
3 2 3 157.93 9.05
-2 5 3 163.32 7.58
2 -5 -3 137.83 11.61
2 3 3 148.87 8.71
2 3 3 158.03 9.03
-5 2 3 162.83 10.37
2 -5 3 173.66 9.8
3 2 3 157.78 8.68
3 2 -3 151.32 6.97
-3 -2 -3 165.96 11.36
2 -5 3 149.41 8.06
3 -5 3 173.97 9.23
-3 -2 -3 163.83 8.16
3 2 -3 171.76 8.07
3 2 -3 167.6 11.29
-5 2 -3 154.96 9.52
-5 3 -3 156.67 9.69
-5 2 -3 136.35 8.86
-2 -3 3 154.51 5.25
2 3 3 162.98 6.57
3 2 3 144.62 11.8
-5 3 3 232.47 13.15
-5 3 3 164.46 10.47
3 -5 -4 2.6 1.28
2 3 4 2.56 1.38
3 2 4 0.75 0.5
3 2 -4 2.9 1.73
-2 -3 4 1.67 0.54
-3 5 -4 1.07 0.66
-3 -2 4 2.29 1
3 -5 4 2.2 0.94
5 -3 -4 2.87 1.5
-3 -2 -4 2.33 1.19
-5 2 4 4.48 1.71
-5 3 4 3.24 1.76
2 3 -4 6.28 2.03
-2 5 -4 1.92 0.91
-5 2 -4 0.93 0.3
3 -5 -4 3.27 1.46
-5 2 -4 1.41 0.43
3 2 -4 1.57 0.99
3 2 4 0.18 0.87
-5 2 -4 3.88 1.84
-5 2 -4 5.74 1.8
2 -5 4 0.96 0.37
-5 3 -4 1.06 0.45
5 -3 4 5.05 1.74
3 2 4 2.68 0.97
3 2 4 7.53 1.67
-2 -3 4 1.88 1
3 -5 4 2.23 1.55
5 -3 4 4.23 1.64
-5 3 -4 2.02 1.29
2 -5 -4 2.38 1.29
-5 2 -4 2.39 1.33
-2 5 -4 0.88 0.84
2 3 4 5.17 1.53
-3 5 -4 1.25 0.39
5 -2 -4 2.29 1.16
2 3 4 3.64 1.5
-2 5 4 2.14 0.93
5 -2 4 2.73 1.08
5 -2 4 1.79 1.08
-3 5 4 2.15 1.37
-2 5 4 3.37 1.38
3 2 4 2.55 1.05
2 3 4 1.87 1.18
3 2 -4 3.31 1.87
2 3 4 3.33 1.08
2 -5 4 3.46 1.46
-2 5 4 3.32 1.48
2 -5 -4 0.82 1.4
-2 -3 -4 1.79 0.8
3 2 4 0.8 0.35
2 -5 4 1.31 0.71
2 3 -4 1.38 0.92
-2 -3 -4 3 1.29
3 -5 4 1.94 0.8
5 -2 4 1.2 1.12
-2 -3 -4 0.49 0.38
-3 -2 -4 2.01 1.27
2 -5 4 3.47 1.16
-3 5 4 3.1 0.99
-5 3 -4 1.42 0.77
3 -5 4 0.9 0.73
-3 5 4 7.1 1.78
5 -2 -4 2.99 1.07
-3 -2 -4 2.41 1.77
-3 5 -4 2.81 1.1
2 3 4 1.37 0.59
-5 2 4 2.24 1.67
-3 -2 5 205.51 9.4
5 -3 5 231.5 11.46
5 -3 5 213.32 11.23
-3 5 5 207.47 10.73
2 -5 5 230.93 8.8
3 -5 5 228.19 10.95
-2 5 5 205.83 9.99
-3 -2 -5 202.35 9.56
5 -2 5 219.46 12.24
-5 3 5 258.88 9.76
-2 -3 5 230.83 13.29
5 -3 5 196.83 11.9
2 -5 5 189.37 12.54
-5 3 -5 213.25 7.05
3 2 -5 198.04 13.43
3 -5 5 188.06 12.17
2 3 5 206.03 7.34
2 3 5 217.41 10.68
3 2 5 216.51 10.38
3 -5 -5 220.68 13.12
-5 2 -5 226.36 12.04
5 -2 5 216.67 10.06
-2 -3 -5 195.52 12.13
-2 5 -5 202.15 10.79
-3 5 -5 210.04 10.36
-2 5 5 207.11 9.85
-3 5 5 227.89 10.86
2 -5 -5 187.06 11.73
3 2 -5 197.77 5.59
-5 3 5 216.17 12.81
3 -5 -5 232.46 13.91
2 -5 -5 175.07 14.35
5 -2 -5 226.62 12.36
5 -3 -5 242.35 12.92
-2 -3 5 218.3 12.75
-2 -3 5 208.93 7.54
5 -3 -5 257.98 9.62
3 2 5 188.77 15.09
-3 5 5 220.49 12.43
-2 5 5 221.13 12.58
-3 5 -5 218 11.5
-5 3 -5 214.61 12.56
3 -5 5 210.28 8.41
5 -2 -5 224.68 8.82
5 -2 5 228.49 12.36
-2 5 -5 199.14 11.47
-3 -2 -5 225.84 13.59
2 3 5 224.66 9.57
2 -5 5 226.71 11.79
2 -5 5 202.55 7.93
2 3 5 197.67 9.93
2 3 5 143.51 11.56
-5 2 5 211.95 12.65
2 3 5 202.99 11.11
3 2 5 167.28 14.06
-5 2 -5 243.75 11.49
-2 -3 -5 212.89 9.38
-3 5 -5 207.7 9.78
-5 2 -5 204.64 11.48
3 2 -5 200.04 13.88
-5 3 -5 212.35 11.62
3 2 5 226.92 10.34
2 3 -5 237.56 11.99
2 3 -5 211.36 13.27
3 2 5 219.57 9.34
3 -5 5 242.15 10.54
3 2 5 203.27 10.33
-2 -3 -5 211.74 13.31
3 2 -6 105.62 4.57
-5 3 6 101.69 9.07
3 -5 6 90.24 4.66
2 -5 6 87.95 4.75
2 -5 -6 111.77 10.32
-3 -2 6 107.2 9.78
3 -5 6 107.35 7.22
-3 5 -6 94.86 7.58
5 -2 -6 110.4 9.04
3 2 6 68.98 9.44
-5 3 -6 92.78 4.78
2 -5 -6 84.77 3.34
-2 5 -6 93.8 8.03
-3 5 6 96.55 7.76
5 -2 6 90.23 8.23
-3 -2 -6 96.07 6.64
5 -2 -6 105.34 5.98
3 -5 6 88.97 8.44
-5 3 -6 91.38 7.74
2 3 6 83.24 4.19
5 -2 6 105.33 8.03
2 -5 -6 85.13 7.86
5 -3 6 98.05 7.25
3 -5 -6 113.61 9.84
3 2 6 93.04 6.94
2 3 -6 117.14 7.7
5 -3 6 99.84 7.52
2 3 6 98.33 7.22
5 -2 6 97.4 6.86
2 -5 6 105.76 8.14
-3 5 6 99.99 7.13
3 -5 -6 102.74 9.33
-5 2 -6 97.47 8.29
2 -5 6 116.06 9.26
-5 3 6 121.27 6.49
-3 -2 6 98.31 8.82
-2 5 6 93.43 6.46
2 3 6 102.42 7.03
3 -5 6 104.45 7.58
3 2 6 84.92 10.55
-5 2 -6 107.04 7.58
-2 -3 6 87.95 5.46
-2 -3 -6 86.85 6.06
-5 3 -6 103.15 9.28
5 -3 -6 110.35 5.79
2 3 6 67.65 8.22
3 2 6 98.2 6.12
-3 5 6 96.95 8.64
3 2 -6 90.45 9.43
2 3 6 94.4 6.96
-3 -2 -6 99.21 9.1
-2 -3 -6 97.42 9.27
3 2 6 105.59 7.47
-5 2 -6 93.03 7.88
2 -5 -6 70.99 9.55
5 -3 -6 109.8 8.78
-2 -3 6 98.15 8.92
-2 -3 6 112.99 9.64
-2 5 6 93.52 7.18
2 3 6 92.44 7.6
5 -2 -6 100.18 8.53
3 2 -6 85.94 9.41
2 -5 6 99.84 6.08
-5 2 6 97.07 8.75
-3 -2 6 96.37 6.81
-2 5 6 96.34 8.58
2 3 -6 90.71 9.07
3 2 6 91.52 7.24
3 2 6 91.37 3.75
-2 -3 7 93.95 9.08
-5 3 -7 79.17 4.59
-3 5 7 85.26 8.53
-5 2 7 85.43 8.51
-5 3 7 82.92 8.46
-2 -3 7 75.49 5.69
3 2 7 82.06 6.66
-3 5 7 77.9 7.33
3 -5 7 74.41 7.77
-2 5 -7 77.59 7.47
-3 5 -7 77.72 7.07
-5 3 -7 81.23 8.86
3 2 7 56.83 2.18
-3 -2 -7 79.78 8.28
5 -2 7 73.79 7.96
2 3 -7 97.9 6.49
-3 -2 -7 81.78 6.34
-3 5 7 70.49 3.07
3 2 7 61.44 2.63
3 2 7 87.68 5.83
2 -5 7 78.73 4.08
2 -5 7 94.76 8.04
5 -3 7 89.6 7.14
-3 5 -7 110.76 9.86
2 -5 -7 74.8 7.28
5 -2 -7 89.56 5.39
3 2 7 54.72 8.63
2 3 7 56.38 7.85
2 3 7 59.4 2.91
2 -5 7 95.88 8.43
-2 -3 7 96.03 9.41
2 3 7 83.29 6.78
3 -5 -7 79.18 7.95
-5 2 -7 110.94 11.37
5 -2 7 87.59 7.17
3 -5 7 90.11 7.92
-3 -2 7 88.54 8.82
3 -5 -7 100.51 9.55
-5 2 -7 82.86 7.94
3 2 -7 79.76 9.03
5 -3 -7 89.48 4.81
2 3 7 74.76 6.13
3 2 -7 87.17 4.71
2 -5 7 90.08 6.14
-5 2 -7 85.71 6.69
5 -3 -7 89.23 8.01
-3 5 7 81.93 6.26
-5 3 7 103.98 5.9
5 -2 -7 89.58 8.28
2 3 7 88.91 7.18
3 -5 7 94.65 7.43
-3 -2 7 90.23 9.34
-3 -2 7 77.21 6.51
2 3 -7 85.62 9.05
-5 2 7 114.2 14.63
-5 3 7 133.58 12.82
5 -3 7 82.62 6.38
-2 -3 -7 81.97 8.79
-2 -3 -7 75.98 5.55
3 -5 7 73.01 3.38
-2 5 7 71.02 4.15
3 2 7 85.15 8.28
2 -5 -7 66.52 9.64
3 2 7 76.61 6.61
-2 5 7 83.73 8.39
2 3 7 84.88 7.42
-2 5 7 82.55 5.93
-2 5 7 81.99 7.2
2 -5 -7 62.37 2.73
3 2 -7 74.11 9.16
-5 2 -7 76.23 7.29
-5 3 -7 83.54 7.53
3 2 7 90.5 7.39
5 -2 7 81.64 6.25
3 -5 7 79.71 6.48
5 -2 -7 96.71 8.85
3 2 7 74.32 10.4
2 -5 -7 93.86 9.89
5 -2 8 21.03 4.04
5 -3 8 18.44 3.91
3 2 -8 16.5 4.48
-5 2 8 26.48 4.84
2 3 8 15.14 3.26
-2 -3 -8 13.02 3.64
-5 3 8 19.67 2.52
-2 5 8 15.46 3.87
-2 -3 8 17.76 3.89
-5 2 -8 15.75 2.9
-5 3 8 15.19 3.72
-2 5 8 15.66 2.57
-2 -3 8 13.96 2.62
-2 -3 -8 17.19 2.76
5 -2 -8 17.11 3.82
-2 -3 -8 14.26 3.51
5 -2 -8 16.47 3.66
3 2 8 16.16 4.93
3 2 8 14.03 4.35
-3 -2 8 20.51 4.56
-2 5 -8 15.03 3.35
3 -5 8 15.9 3.6
5 -2 8 18.02 2.91
-3 5 -8 13.99 3.03
3 2 8 17.74 3.43
5 -3 -8 19.67 4.07
2 -5 8 19.16 3.88
-2 -3 8 20.48 4.54
5 -2 8 14.93 3.78
-2 5 -8 19.72 4.18
-5 3 -8 21.93 3.93
-5 3 -8 16.52 2.25
5 -3 8 15.59 2.83
3 -5 8 18.18 3.6
2 3 8 16.67 3.07
-3 5 -8 22.6 4.52
2 -5 -8 13.86 3.08
-5 2 -8 26.71 5.5
3 -5 -8 14.96 3.5
3 -5 -8 20.86 4.38
5 -3 -8 20.22 4.04
5 -2 -8 17.71 2.36
2 -5 8 19.04 3.72
5 -3 -8 18.4 1.97
2 3 8 14.34 3.53
-3 5 8 16.16 3.59
3 -5 8 21.36 3.57
-3 -2 -8 16.8 3.86
2 3 -8 15.89 3.87
2 3 8 16.2 2.92
-3 5 8 17.83 2.85
5 -3 8 16.41 2.76
3 2 8 17.93 2.64
3 2 -8 16.86 4.1
3 2 8 18.71 4.01
5 -2 8 16.71 3.05
-3 -2 8 16.69 3.12
-5 3 -8 15.16 3.91
2 -5 -8 18.83 4.48
-2 5 8 13.17 3.07
-3 5 8 11.05 1.21
3 2 8 15.52 2.92
-5 3 8 24.97 5.98
2 -5 -8 9.39 3.59
-5 2 -8 15.98 3.79
3 2 8 17.65 3.18
2 3 8 19.47 3.62
3 2 -8 16.78 2.43
2 -5 8 21.44 3.11
-5 2 8 20.79 6.1
-2 5 8 13.54 1.82
2 3 8 14.38 4.13
3 2 -9 15.81 4.48
2 -5 -9 23.91 5.43
-5 3 9 18.99 2.48
-2 -3 -9 15.12 3.82
2 3 9 15.23 4.27
5 -3 9 18.21 4.02
-5 2 9 17.18 4.06
-5 3 9 15.03 3.76
-2 -3 9 15.61 2.97
-2 5 9 16.91 3.65
5 -3 -9 18.85 4.14
-3 5 -9 27.96 5.13
-2 5 -9 16.38 3.67
-3 -2 9 22.92 5.17
3 -5 -9 17.42 4.28
5 -3 9 18.36 3.33
-2 5 -9 30.54 5.56
5 -2 -9 16.41 3.8
5 -2 9 16.43 2.72
5 -3 -9 17.42 1.82
2 -5 9 21.78 4.3
-2 -3 9 19.67 4.41
5 -3 -9 16.14 3.38
3 2 9 19.25 2.88
5 -2 9 14.89 4.12
3 -5 9 18.64 3.59
5 -2 -9 19.92 3.64
3 2 9 13.06 4.2
-3 -2 9 14.61 3.19
3 2 9 10.68 3.94
2 3 9 16.88 3.61
2 -5 -9 15.75 3.6
2 -5 9 22.26 4.03
3 -5 9 19.28 3.8
3 -5 -9 16.87 3.64
-2 5 9 14.76 1.91
3 2 9 18.36 3.28
-5 3 -9 16.19 4.67
5 -3 -9 20.09 4.03
-2 5 9 17.6 2.62
-5 2 -9 17.29 3.07
-3 5 9 18.43 3.07
5 -2 -9 16.2 3.81
-5 3 9 24.3 6.23
-5 2 -9 22.61 5.09
-2 -3 9 21.68 4.65
-2 -3 -9 14.31 3.92
-3 5 -9 18.2 3.55
3 2 -9 18.88 4.35
3 2 9 17.26 3.71
-3 -2 -9 12.8 3.33
3 2 -9 16.65 2.65
5 -2 9 14.63 2.94
3 2 9 16.52 3.3
2 3 -9 15.72 4.34
-5 2 -9 16.6 3.85
2 -5 -9 9.11 3.91
2 3 9 15.33 2.96
3 2 9 21.71 4.07
-5 3 -9 19.03 2.68
2 -5 9 19.29 3.19
5 -3 9 14.24 1.46
5 -2 9 22.75 4.41
5 -3 9 18.15 2.8
-5 2 9 25.99 7.25
-2 5 9 18.82 4.24
2 3 9 19.07 4.27
-3 5 9 14.35 3.56
-3 5 -10 255.45 14
3 2 10 258.87 22.04
5 -3 10 279.07 10.95
3 2 -10 329.33 19.83
5 -2 -10 287.89 14.56
-5 3 10 252.08 16.55
2 3 10 281.68 16.39
-3 5 10 263.78 15.91
-2 -3 10 330.72 20.04
-2 -3 10 233.58 13.52
5 -2 10 287.03 18.47
2 3 10 259.26 19.32
5 -3 -10 271.4 15.32
-2 5 -10 390.13 20.27
-5 2 10 424.37 29.83
5 -2 10 227.56 16.33
2 3 10 277.27 21.92
-5 3 -10 369.47 20.36
5 -3 10 255.92 12.15
5 -2 10 254.77 10.76
-5 3 -10 290.43 11.89
-3 5 -10 366.98 19.67
2 -5 10 331.92 17.42
-3 5 10 278.22 12.41
-2 5 10 282.19 17.79
2 -5 10 302.12 15.71
-5 3 -10 257.37 18.32
3 -5 10 314.16 16.1
2 -5 -10 242.7 13.98
3 -5 -10 274.57 14.92
3 2 10 281.29 11.38
-2 -3 10 322.1 19.02
-5 2 -10 255.79 12.13
2 -5 -10 352.11 21.73
5 -3 10 263.97 7.3
2 -5 10 281.97 13.3
3 -5 10 317.86 14.88
-3 -2 -10 277.04 16.78
-2 5 10 223.03 7.92
3 2 10 261.78 13.4
-5 2 -10 362.45 21.01
2 3 10 256.69 12.31
-5 2 -10 262.28 16.64
5 -3 10 344.86 18.18
-3 -2 -10 306.58 14.77
-3 -2 10 238.59 14.2
-2 5 -10 251.04 14.57
-2 -3 -10 257.54 16.6
5 -2 10 273.11 12.35
-5 3 10 427.83 26.95
3 -5 10 317.81 14.73
3 -5 -10 346.39 20.12
3 2 10 231.68 18.83
3 2 10 263.26 15.24
3 2 -10 265.31 19.63
-3 -2 10 331.27 20.73
-5 2 10 253.96 16.6
3 2 10 255.11 13.38
2 -5 -10 167.98 16.98
3 2 -10 287.55 12.89
2 3 -10 266.71 18.2
2 3 10 263.57 14.95
5 -3 -10 263.56 7.01
3 2 10 316.04 16.85
5 -2 -10 267.83 15.8
5 -2 10 346.11 18.01
-2 5 10 263.52 15.69
5 -2 10 209.32 5.75
5 -3 -10 301.11 15.65
-2 -3 -10 228.51 17.17
-2 5 10 291.43 11.31
-3 -2 11 426.17 24.55
3 2 -11 385.51 15.86
3 2 11 362.23 26.98
-2 -3 11 442.62 23.95
-5 2 11 312.49 19.31
-5 3 11 311.25 19.3
-3 -2 11 290.93 16.51
5 -2 11 341.71 13.75
-5 3 -11 384.07 15.11
-2 -3 11 313.21 16.87
-5 2 -11 342.12 19.7
-3 5 11 324.29 18.66
5 -3 11 337.14 11.76
5 -3 -11 388.77 18.28
-5 2 11 512.54 33.77
5 -3 11 312.2 13.63
5 -2 11 320.51 12.3
-2 -3 -11 326 19.33
-2 5 -11 496.94 23.55
-3 5 -11 483.69 23.07
3 -5 11 408.47 18.85
-2 5 11 276.24 9.48
2 -5 -11 304.53 15.87
3 2 11 405.35 20.07
3 -5 -11 330.97 16.52
-5 3 -11 478.85 23.04
-5 2 -11 463.42 23.92
2 3 11 309.58 13.79
3 -5 -11 446.42 23.85
-5 2 -11 306.82 13.38
2 -5 -11 420.63 24.68
5 -3 11 379.46 10.1
5 -2 -11 389.76 17.45
5 -2 -11 323.71 17.69
5 -3 -11 324.55 7.73
2 3 11 347.27 23.43
2 -5 11 408.18 18.96
3 2 11 383.24 12.18
3 -5 11 403.26 17.51
2 -5 11 373.73 16.29
5 -2 11 387.35 22.39
-5 3 -11 338.24 22.18
3 2 11 330.94 15.45
-3 5 11 387.51 14.82
5 -3 11 424.6 20.76
-2 -3 -11 276.49 19.52
-3 -2 -11 345.94 19.16
5 -3 11 362.05 20.49
-5 3 11 507.11 30.65
3 2 11 350.51 17.79
2 -5 -11 257.81 21.32
-3 -2 -11 372.7 16.94
2 3 11 333.09 18.36
3 2 -11 323.55 22.35
2 -5 11 415.08 19.79
-2 5 11 329.66 18.33
2 3 -11 343.9 21.45
-3 5 -11 330.04 16.55
5 -3 -11 340.38 17.52
3 2 11 314.59 15.67
3 -5 11 406.57 17.42
2 3 11 326.21 17.28
-2 5 11 368.44 13.17
-2 5 -11 328.64 17.31
3 2 12 21.42 4.49
2 -5 12 22.02 4.16
5 -3 -12 26.79 4.69
-3 -2 12 19.21 4.52
5 -3 12 28.12 5.84
-3 5 12 19.16 4.58
-2 -3 12 20.51 4.55
-2 5 12 16.05 4.3
-5 2 -12 23.06 5.45
5 -2 -12 25.13 4.51
5 -2 12 18.06 2.86
5 -3 12 20.01 3.38
3 -5 12 24.37 4.49
-3 5 -12 34.85 6.23
3 -5 -12 20.94 4.28
3 -5 12 29.96 5.06
3 2 12 20.58 4.04
5 -3 -12 21.2 4.55
2 -5 -12 21.63 4.16
5 -3 12 25.7 2.87
2 -5 12 26.37 5
3 2 -12 22.51 6.22
2 -5 12 29.3 5.15
3 2 -12 26.25 4.17
3 -5 12 28.65 4.71
5 -2 12 32.82 6.73
2 3 12 19.53 3.66
-5 3 -12 32.34 5.96
-5 3 -12 25.04 4.19
2 3 12 25.85 6.49
5 -2 -12 13.38 3.95
3 2 12 22.99 6.78
-2 5 -12 18.9 4.22
-2 -3 -12 17.75 5.22
5 -2 -12 20.7 4.3
-3 -2 -12 18.71 5.04
-3 -2 -12 22.38 5.19
5 -3 12 22.14 2.87
5 -2 12 20.57 3.23
-3 -2 -12 27.09 4.65
-5 2 12 17.99 4.92
-5 3 -12 22.24 6.11
3 -5 12 26.22 4.5
-5 2 -12 31.37 6.2
-2 -3 -12 19.24 4.55
3 2 12 19.09 4.02
2 -5 -12 17.43 5.46
3 2 12 25.4 3.53
2 -5 12 23.97 4.04
3 2 12 26.06 5.36
3 2 12 17.49 3.94
2 3 -12 22.08 5.51
2 3 12 20.71 4.6
5 -3 -12 21.45 1.96
-5 2 -12 22.62 3.66
-3 5 -12 24.37 4.59
-5 3 12 19.51 4.9
-3 -2 -13 -0.45 0.75
-5 2 -13 -0.2 1.34
-2 5 -13 1.53 1.21
-5 3 -13 1.6 1.46
-3 5 -13 0.08 0.45
-5 2 13 -1.78 1.99
2 -5 13 1.19 0.83
-3 5 13 0.78 0.47
3 -5 13 0.74 0.7
-2 -3 13 2.78 1.79
-2 5 13 1.61 1.58
5 -3 13 0.2 0.37
5 -2 -13 0.55 1.03
-5 2 -13 -0.63 1.8
3 2 13 0.39 0.68
-3 -2 13 1.19 1.41
3 2 13 -0.63 1.61
-5 3 13 2.64 2.29
3 2 13 -0.55 2.68
5 -2 13 0.31 0.29
2 3 13 0.68 1.24
2 3 -13 1.15 2.07
3 -5 13 1.83 1.2
3 2 -13 0.59 0.76
-5 2 -13 3.51 1.86
2 -5 -13 0.75 0.69
5 -3 13 0.63 0.86
2 3 13 0.37 0.37
5 -3 13 1.81 0.9
2 3 13 -0.36 0.7
2 -5 -13 0.66 1.93
5 -3 13 0.27 1.08
5 -2 -13 -0.06 1.21
2 3 13 0.39 0.27
3 -5 -13 4.16 1.71
-3 -2 -13 0.83 1.1
-2 -3 -13 0.96 1.43
5 -2 -13 0.36 1.19
3 -5 13 1.7 0.78
3 2 13 -0.8 1.07
-5 3 -13 3.04 1.52
2 -5 13 0.22 1.07
-5 3 -13 3.33 1.25
5 -3 -13 -0.46 0.95
3 2 13 -0.62 1.36
2 -5 13 -1.32 1.76
-2 5 13 0.59 1.07
5 -2 13 -0.86 1.33
-5 3 -13 -0.02 1.09
3 -5 13 0.1 0.71
3 2 -13 0.26 1.19
5 -3 14 4.66 2.61
3 -5 14 3.39 1.27
-5 3 -14 5.52 2.48
3 2 14 6.36 2.46
2 3 -14 3.94 0.66
-3 5 -14 6.16 2.92
2 -5 14 9.34 3.36
-5 2 14 7.4 2.91
-5 3 14 4.34 2.99
-3 -2 14 0.74 0.38
-3 5 14 3.83 2.09
-2 -3 14 2.16 1.26
-2 5 14 3.22 1.67
3 2 14 3.47 1.93
-5 2 -14 5.54 2.04
5 -2 -14 1.57 0.59
2 -5 14 4.15 2.02
5 -2 -14 3.82 1.95
2 -5 -14 1.45 1.47
3 -5 14 4.21 1.65
5 -2 14 4.74 1.17
5 -3 14 4.55 1.31
2 3 14 4.39 1.6
-5 3 -14 4.94 1.84
5 -2 14 4.7 1.39
-3 -2 -14 6.6 2.67
-2 5 14 5.48 2.87
3 -5 -14 3.67 1.86
-3 -2 -14 5.42 2.27
5 -3 -14 5.58 1.64
3 2 14 4.28 3.13
3 2 -14 2.92 1.29
-5 2 -14 11.25 3.68
3 2 -14 6.51 3.08
3 -5 14 4.69 2.3
2 3 -14 4.69 2.22
-2 -3 -14 4.79 2.33
5 -3 14 4.23 1.32
3 2 14 2.59 1.48
2 -5 -14 3.78 2.36
-5 2 -14 1.58 1.5
-5 3 -14 2.67 0.79
2 3 14 5.64 3.38
3 -5 14 6.07 2.08
2 3 14 4.15 2.57
2 -5 14 3.77 1.93
5 -2 14 4.44 2.49
-5 3 -14 5.47 2.55
-2 5 -14 11.89 3.56
3 2 15 143.6 12.98
-5 3 15 151.38 15.51
-3 -2 15 151.57 14.79
-3 5 15 155.77 15.25
-2 -3 15 160.35 14.9
-2 5 15 146.68 14.72
-5 3 -15 179.07 18.43
5 -2 15 194.76 8.33
5 -2 -15 136.84 12.78
2 -5 15 194.27 13.95
5 -2 15 199.07 18.87
-2 -3 -15 209.39 13.51
2 -5 -15 111.4 9.79
-5 3 -15 231.75 14.18
-5 2 15 157.15 15.96
2 -5 15 228.48 16.56
3 -5 15 224.47 15.35
-2 5 15 164.13 15.83
-5 3 -15 258.98 17.69
-3 -2 -15 168.35 14.58
5 -3 15 202.01 10.35
2 3 15 210.97 20.16
3 2 15 209.6 21.7
2 -5 15 208.39 15.58
5 -3 15 196.1 17.64
-3 5 -15 174.42 13.99
5 -3 -15 151.11 12.81
-5 2 -15 274.87 19.84
2 3 -15 188.29 14.41
2 3 15 198.72 12.41
-3 -2 -15 199.73 14.07
-5 3 -15 195.34 14.17
3 2 15 223.39 14.2
5 -2 15 155.78 9.66
5 -3 15 163.94 8.62
2 -5 -15 165.2 18.33
3 2 -15 172.96 18.6
2 3 -15 173.68 17.43
3 -5 15 192.01 15.15
3 -5 15 212.48 14.83
3 -5 -15 166.58 12.46
-5 2 -15 156.83 15.95
3 2 -15 233.43 14.75
-2 -3 -15 155.34 14.68
-2 5 -15 168.36 14.46
2 -5 -16 1.68 1.38
-2 5 -16 0.97 1.42
-2 -3 -16 5.25 2.09
3 -5 16 1.5 0.85
5 -2 16 2.29 1.15
-5 3 -16 0.67 0.53
5 -3 -16 1.69 1.43
-5 3 16 0.34 1.27
5 -2 -16 -0.64 1.39
-3 -2 16 2.09 1.56
-3 5 16 -0.36 1.72
-2 5 16 -0.61 1.48
3 2 16 6.63 2.7
3 2 -16 3.05 1.72
2 -5 16 -0.58 1.43
5 -2 16 1.25 0.37
-2 5 -16 1.47 0.77
-5 3 -16 2.17 2.17
-3 5 -16 1.2 0.9
-5 3 -16 1.66 1.28
5 -3 16 2.16 1.37
2 3 16 0.61 0.66
2 3 16 3.31 2.4
3 2 16 0.35 2.48
3 2 -16 0.06 1.37
5 -2 16 2.79 1.63
5 -3 16 1.14 2.29
3 -5 16 3.65 2.28
-5 2 16 0.36 0.55
-3 -2 -16 2.04 1.26
-2 -3 16 0.74 1.81
2 3 16 2.77 1.41
2 3 -16 -0.05 0.9
-2 5 16 -1.23 2.08
-2 -3 -16 2.29 0.66
-5 2 -16 -1.14 2.95
2 -5 -16 0.26 1.57
2 -5 16 2.26 1.73
3 2 16 -0.79 1.25
2 -5 16 3.25 1.4
2 3 -16 1.34 0.42
-5 3 -16 4.22 1.87
-3 -2 -16 3.47 1.99
3 -5 -16 1.53 1.2
5 -2 17 23.25 6.47
-3 5 -17 20.04 5.02
2 3 17 20.97 4.89
3 -5 17 26.84 5.55
-5 3 -17 26.52 5.69
-5 2 17 19.41 5.98
-5 3 17 17 5.25
-3 -2 17 19.85 5.62
3 2 17 14.42 4.56
-3 5 17 17.49 5.72
2 3 -17 23.09 6.92
-2 -3 17 22.07 6.08
-2 5 17 14.82 5.11
5 -2 17 25.65 3.51
2 -5 -17 14.91 3.85
5 -3 17 25.23 4
2 3 -17 25.33 5.43
3 2 17 31.61 6.18
2 -5 17 23.23 5.75
-2 5 17 20.33 5.59
5 -2 -17 13.39 4.38
-5 3 -17 31.26 5.38
3 -5 -17 19.56 4.53
-2 -3 -17 19.23 4.33
2 -5 17 27.05 5.93
3 2 17 30.04 8.32
-2 5 -17 23.89 6
2 3 17 30.14 8.41
5 -3 17 24.14 6.37
3 2 -17 28.87 5.4
5 -3 -17 16.92 4.46
-5 2 -17 20.07 5.95
-5 3 -17 27.03 5.8
3 -5 17 28.26 6.57
-2 -3 -17 21.11 5.64
-2 5 -17 27.8 3.33
-5 3 -17 29.08 7.56
-3 -2 -17 18.59 5.02
2 3 17 26.27 5.34
2 -5 -17 21.96 6.71
3 2 -17 25.61 7.19
-3 -2 -17 20.3 4.9
-3 5 -18 1.88 0.19
-2 5 -18 3.17 2.23
2 -5 18 3.27 1.7
3 -5 18 8.12 3.3
-5 2 18 1.81 1.23
-5 3 18 2.09 2.74
-3 5 18 2.95 2.54
3 -5 18 1.33 2.05
-2 -3 18 5.15 3.14
-2 5 18 2.71 1.12
-2 -3 -18 2.96 1.98
3 2 18 8.62 4.73
2 -5 -18 1.79 1.11
-5 2 -18 1.59 2.54
3 -5 -18 3.24 1.69
-5 3 -18 4.43 1.96
-2 5 18 5.47 3.21
2 3 18 6.15 2.92
2 -5 18 8.84 3.77
3 2 -18 0.77 1.67
5 -2 -18 1.59 1.83
2 3 -18 0.65 1.55
-3 -2 -18 2.87 1.78
5 -3 18 2.33 1.45
-5 3 -18 4.54 2.41
-5 3 -18 0.97 0.9
-3 -2 -18 4.98 3.02
-2 -3 -18 2.45 0.51
-5 3 -18 2.45 0.91
2 -5 -18 -1.59 2.89
5 -2 18 5.87 2.88
3 -5 -18 3.07 2.01
2 3 18 3.07 2.12
5 -3 18 2.39 2.79
3 2 -18 1.95 3.11
5 -3 -18 2.84 2.26
-3 -2 18 3.42 3.28
3 2 18 4.95 2.57
2 3 -18 1.68 0.86
-2 -3 -19 2.51 1.51
-3 5 -19 4.45 2.16
-2 5 -19 1.4 1.24
2 -5 19 4.93 2.58
-3 -2 -19 1.93 0.68
3 -5 19 2.62 1.94
-5 3 19 0.92 1.25
-3 -2 19 3 2.35
-3 5 19 3.24 2.62
-2 -3 19 3.58 2.78
-3 -2 -19 -1.1 1.69
5 -2 -19 2.74 2.13
2 -5 19 1.68 2.06
5 -3 -19 -0.68 1.68
-5 2 19 1.42 1.42
5 -3 19 7.89 5.23
-5 3 -19 0.38 1.57
-2 5 19 2.33 1.56
2 -5 -19 2.63 1.4
-2 5 19 2.44 2.37
3 -5 -19 1.72 1.84
3 2 19 0.15 1.45
2 3 19 5.3 1.89
-2 -3 -19 3.94 2.4
3 -5 19 -0.17 2.03
5 -2 19 0.95 2.99
-5 3 -19 3.07 2.17
-5 3 -19 2.54 2.97
2 3 -19 -1.84 3
-5 2 -19 1.92 2.72
2 -5 -19 1.43 1.18
3 -5 -19 -1 3.36
3 2 -19 1.22 1.81
3 -5 20 18.18 4.95
-3 -2 -20 13.52 4.57
-5 2 20 13.5 5.08
-5 3 20 12.45 5.32
-2 5 20 10.09 4.46
-3 5 -20 17.1 5.6
-2 5 -20 18.49 5.81
5 -3 -20 11.46 3.64
2 -5 20 19.4 5.65
5 -2 -20 11.16 3.8
3 -5 20 21.23 6.04
5 -2 20 18.19 7.12
2 -5 -20 8.5 3.05
-2 -3 -20 16.75 4.87
3 -5 -20 11.15 3.59
2 3 20 26.37 8.01
3 2 20 23.47 7.95
-3 -2 20 11 4.63
-5 3 -20 30.27 8.67
5 -3 20 21.55 7.52
-3 5 20 8.41 3.51
-5 3 -20 15.51 3.83
-5 2 -20 16.29 5.69
2 -5 -20 21.97 7.39
3 -5 -20 15.61 5.7
-2 -3 20 18.33 6.34
3 2 -20 17.73 6.29
2 3 -20 13.46 5.23
2 -5 20 21.44 6.04
-2 -3 -20 15.85 4.02
-3 -2 -20 15.37 4.6
-2 5 20 12.55 4.76
-2 5 21 34.65 8.34
5 -2 -21 29.64 6.05
-3 -2 21 29.38 7.84
-3 5 21 20.28 6.68
-3 -2 -21 36.26 7
-2 -3 21 31.05 8.12
-2 5 21 26.68 7.63
3 2 21 54.5 11.45
-5 2 -21 38.52 8.95
-2 -3 -21 37.54 8.02
2 3 21 50.29 11.09
2 -5 -21 25.92 4.94
2 -5 21 47.87 9.36
3 -5 21 37.92 7.57
-3 -2 -21 33.89 7.24
2 -5 21 50.51 9.07
-5 3 -21 38.53 6.46
5 -3 21 36.95 9.63
3 -5 -21 22.36 4.74
5 -3 -21 24.05 5.76
-3 5 -21 37.37 8.19
-5 2 21 28.97 8.44
-2 -3 -21 37.95 6.67
5 -2 21 45.49 10.89
-5 3 -21 63.53 11.68
-5 3 21 25.83 7.7
2 -5 -21 35.32 8.75
3 -5 -21 49.46 11.39
3 2 -21 45.87 9.78
2 3 -21 35.89 9.68
3 -5 21 47.13 9.89
-2 5 -21 37.39 8.06
3 2 22 54.55 12.41
-5 3 -22 70.65 12.97
-5 2 22 28.67 8.67
-5 3 22 25.87 7.84
-3 -2 22 32.5 8.63
-3 5 22 25.17 7.25
-2 -3 22 41.55 9.57
-2 5 22 36.4 8.88
5 -2 22 42 10.7
2 -5 22 45.36 8.89
3 -5 22 51.66 9.14
3 2 -22 45.88 10.2
5 -3 22 42.59 10.7
-2 5 22 39.65 8.88
3 -5 -22 23.94 5.29
3 -5 22 43.43 10.02
2 3 22 52.62 11.36
5 -2 -22 20.97 5.45
-2 -3 -22 44.77 9.09
2 -5 22 47.58 9.35
-3 -2 -22 39.78 8.24
-5 2 -22 45.02 10.09
2 -5 -22 35.21 8.84
3 -5 -22 39.52 10.13
5 -3 -22 28.41 6.05
-2 5 -22 38.31 8.84
2 3 -22 37.52 9.19
-3 5 -22 38.05 8.37
-3 -2 -22 35.55 7.22
-2 -3 -22 33.55 6.46
-5 2 23 11.54 6.14
-5 3 23 6.61 3.57
-3 5 23 7.06 3.82
-2 5 23 10.12 4.44
-2 -3 23 21.57 6.76
-2 5 23 17.03 6.23
-3 -2 23 6.57 3.85
5 -3 -23 8.88 3.48
2 -5 23 15.71 5.67
3 -5 23 12.39 4.49
2 3 -23 10.81 4.97
3 2 23 23.67 8.03
3 -5 23 16.55 6.19
5 -3 23 10.95 6.21
5 -2 -23 9 3.27
2 -5 23 18.83 5.98
5 -2 23 14.15 6.8
-3 -2 -23 15.95 4.94
-5 3 -23 30.28 8.61
-2 -3 -23 13.81 4.78
-5 2 -23 14.56 5.75
2 -5 -23 14.57 5.95
3 2 -23 15.85 6.58
3 -5 -23 16.98 6.33
2 3 23 25.25 8.13
-3 5 -23 14.36 5.42
-2 5 -23 12.28 5.4
3 -5 -23 6.82 2.69
-3 -2 -23 14.85 4.7
-2 -3 -23 11.37 4.07
2 3 -24 0.49 1.68
2 3 24 3.43 3.94
-5 2 24 0.94 3.34
-5 3 24 1.85 0.3
-3 -2 24 2.53 2.15
-2 -3 24 -1.07 2.49
-2 5 24 1.91 2.76
-2 -3 -24 -1.63 3.33
2 -5 24 -3.76 4.56
3 -5 24 3.12 1.92
5 -3 -24 -0.54 1.77
-2 5 24 0.62 1.46
5 -3 24 1.43 1.83
-3 -2 -24 1.08 1.89
2 -5 24 1.5 1.75
3 -5 24 -0.63 2.68
5 -2 24 0.98 1.95
5 -2 -24 0.01 0.93
-5 2 -24 -5.79 4.63
-3 5 24 -0.61 1.45
3 2 24 -1.31 3.03
-5 3 -24 -1.81 3.68
2 -5 -24 2.63 1.1
3 2 -24 2.7 3.38
3 -5 -24 4.93 3.09
-3 5 -24 -3.01 4.08
-2 5 -24 -0.98 3
-3 -2 -24 3.04 1.6
-2 -3 -24 -1.64 2.06
-2 -3 -25 18.96 4.99
-3 -2 -25 24.63 6.93
-2 -3 25 16.66 5.51
2 -5 25 23.16 6.52
3 -5 25 19.61 6.77
-3 -2 25 10.98 4.41
2 -5 25 27.29 7.65
-2 -3 -25 19.37 5.82
3 -5 25 20.28 6.33
5 -2 -25 14.52 4.22
3 -5 -25 20.02 7.63
-3 -2 -25 12.45 4.51
2 -5 -25 18.73 6.73
5 -3 -25 13.95 4.51
-3 5 -25 19.04 7.23
-2 5 -25 20.11 7.26
-2 -3 -26 4.75 0.95
-3 -2 26 0.72 2.9
-2 -3 26 11.73 5.44
-2 -3 -26 8.73 3.75
2 -5 26 7.7 3.8
3 -5 26 1.8 2.1
5 -2 -26 2.26 2.08
3 -5 26 5.99 3.47
-3 -2 -26 2.61 1.98
-3 5 -26 5.49 1.29
-2 5 -26 10.68 4.92
5 -3 -26 0.21 2.09
-3 -2 -26 7.09 3.62
-2 -3 27 21.8 8.35
-2 -3 -27 12.37 3.3
3 -5 27 15.13 5.55
-3 -2 -27 19.23 5.84
-2 -3 -27 14.86 5.44
-3 5 -27 14.66 4.3
3 -5 27 23.69 7.22
-3 -2 -27 18.44 5.64
5 -1 0 39.07 4.82
5 -4 0 40.03 5.07
-5 4 0 40.67 4.06
-4 -1 0 36.7 6.47
5 -4 0 36.55 3.78
1 4 0 35.15 4.68
-4 -1 0 35.05 3.77
1 4 0 41.67 4.96
-1 5 0 35.59 4.9
-1 5 0 41.79 5.12
4 -5 0 36.8 5.32
1 4 0 34.03 4.63
-5 1 0 39.96 4.8
5 -4 0 43.45 5.33
-5 1 0 36.85 3.12
-1 -4 0 44.86 4.3
-4 -1 0 34.89 3.73
-1 -4 0 33.96 4.67
-1 5 0 38.65 4.93
4 1 0 36.67 4.08
1 -5 0 34.07 4.67
4 1 0 30.89 4.59
-4 5 0 34.37 3.88
1 -5 0 36.54 5.26
-5 1 0 47.47 4.82
-1 -4 0 33.08 4.39
5 -1 0 39.03 4.34
-5 4 0 37.46 3.32
5 -1 0 38.2 4.29
-1 5 0 32.18 2
-4 -1 0 34.07 3.92
-5 1 0 19.77 3.61
-4 5 0 33.89 3.99
-5 4 0 34.96 4.46
4 1 0 35.33 4.2
1 -5 0 39.03 4.7
-4 -1 1 1.4 0.8
-4 5 -1 1.92 1.24
4 1 -1 -0.43 1
-5 4 -1 0.59 0.94
4 1 -1 0.77 0.78
-1 5 1 0.54 0.39
-5 1 1 0.29 0.59
5 -4 1 0.33 1.01
-5 1 1 1.22 0.91
5 -1 1 1.48 0.96
5 -4 1 0.08 0.69
1 -5 1 0.14 0.44
5 -1 -1 0.1 0.42
5 -4 -1 -0.33 1.33
-5 4 1 2 0.94
-1 5 1 -0.24 1.15
-5 1 -1 1.73 1.49
-4 -1 -1 2.97 1.47
-1 -4 -1 0.78 0.49
4 1 1 1.17 0.66
1 -5 -1 0.66 0.59
5 -4 -1 0.69 0.39
1 -5 -1 0.17 0.44
1 4 1 2.37 1.1
-1 5 -1 0.79 0.74
1 4 -1 0.5 0.76
-5 1 -1 0.94 0.42
-4 5 -1 1.06 0.72
-4 -1 1 0.58 0.76
1 4 1 0.57 0.2
-4 -1 1 0.1 0.43
-5 1 -1 0.69 0.72
1 4 -1 0.1 0.15
5 -4 1 -0.37 0.55
5 -1 -1 0.56 0.37
-1 5 -1 1.06 0.07
4 -5 1 0.2 0.77
1 4 1 -0.32 0.11
-4 -1 -1 0.06 0.1
-1 5 1 1.75 0.35
-1 5 -1 0.8 0.94
4 -5 -1 0.31 0.32
-1 5 1 1.32 0.76
-5 4 -1 0.12 0.51
-4 5 -1 0.95 0.64
1 4 1 0.68 0.75
4 1 1 1.75 0.9
-4 5 1 0.84 1.03
-4 -1 -1 -0.07 0.45
1 -5 -1 -0.11 0.61
-5 1 -1 0.19 0.35
-4 5 1 0.2 0.53
-5 4 -1 0.54 0.73
5 -4 -1 0.4 0.7
5 -1 1 0.51 0.66
-5 4 1 0.33 0.41
-4 -1 1 0.24 0.85
5 -1 1 2.17 1.61
-1 -4 1 0.21 0.32
-1 -4 1 1.09 1.03
-1 -4 -1 -0.31 0.33
-1 -4 -1 1.15 0.54
1 4 1 0.37 0.55
1 4 -1 0.37 0.52
-5 4 1 0.27 0.2
5 -1 1 0.72 0.91
1 -5 1 1.61 1
5 -1 -1 -0.1 0.19
-5 4 -1 1.04 0.46
4 1 -1 0.36 0.52
5 -1 -1 3.61 1.53
-4 -1 -1 0.06 0.27
4 1 1 1.62 1.04
-5 1 -1 0 0.79
-4 -1 2 58.76 5.86
5 -4 2 67.15 6.6
-1 -4 -2 46.08 5.74
5 -1 2 61.6 5.91
1 4 -2 52.74 6.04
5 -1 -2 61.2 5.35
-4 5 2 57.93 5.46
1 4 2 55.61 4.9
4 1 2 58.55 6.74
-4 -1 2 54.91 5.03
5 -4 -2 56.12 4.06
5 -1 -2 59.95 6.02
-5 1 -2 64.33 5.92
5 -1 -2 61.22 5.89
1 4 -2 63.62 6.91
1 -5 -2 48.48 5.89
1 4 2 57.28 5.97
1 4 2 55.93 5.18
4 -5 2 56.5 6.6
-5 4 -2 63.54 6.3
-4 -1 -2 54.46 3.84
-5 4 2 62.07 3.92
-1 5 2 56.45 5.7
-1 -4 -2 51.7 6.16
4 -5 -2 60.78 6.99
5 -4 2 60.06 6.52
-1 -4 2 57.92 6.07
-1 5 2 53.54 6.1
-4 5 -2 59.37 5.71
-5 1 -2 72.39 9.25
-1 5 -2 55.08 5.91
5 -4 -2 69.02 6.77
5 -1 2 53.05 6.8
-4 5 -2 55.8 5.16
1 -5 2 55.45 5.28
-1 5 -2 67.69 7.01
-4 -1 2 52.44 5.2
-5 1 -2 58.52 5.25
-4 -1 -2 53.53 4.23
-5 4 -2 58.44 6.06
-5 1 2 57.44 7.37
-5 1 -2 56.29 5.78
1 4 2 56.78 6.07
4 1 -2 52.96 4.98
1 -5 -2 50.8 6.29
4 1 -2 43.33 6.13
-1 -4 2 56.81 5.83
5 -1 2 61.65 5.16
4 1 2 57.41 5.62
1 -5 2 53.92 5.31
-5 1 -2 52.15 2.67
1 4 2 58.43 6.96
1 -5 2 46.41 2.84
-4 5 -2 57.67 4.89
-5 1 2 38.07 4.95
5 -4 -2 60.92 6.35
4 1 2 51.37 5.13
-5 4 -2 56.98 3.58
5 -1 -2 58.34 5.23
-4 -1 2 51.04 7.31
-4 -1 -2 50.87 4.91
-1 -4 -2 50.7 5.38
-1 5 -2 51.82 5.92
1 4 -2 49.55 5.65
-5 4 -2 53.89 5.65
1 4 2 46.7 2.26
1 -5 -2 60.26 6.65
-5 1 -2 56.79 3.89
-5 4 2 57.28 6.04
-4 5 2 60.57 5.63
4 1 2 65.91 5.57
-1 5 2 54.45 6.04
5 -1 2 62.28 6.18
-1 5 2 53.79 3.23
-5 1 -3 1.7 1.09
4 1 3 0.75 0.7
-5 1 3 0.88 0.97
-1 -4 -3 2.04 1.38
4 1 3 0.5 0.83
-5 1 3 2.34 1.4
4 1 3 1.38 0.84
5 -1 3 1.72 1.32
-5 4 3 3.01 1.79
-4 5 3 2 1.08
-1 5 3 1.44 0.64
-1 5 -3 0.61 0.52
5 -1 -3 1.42 1.23
1 -5 3 1.3 0.45
5 -4 -3 1.43 0.98
4 1 -3 2.71 1.25
5 -1 3 1.83 1.1
-5 4 -3 1.54 0.63
-5 4 -3 0.28 0.49
-4 5 -3 1.33 0.84
-4 -1 3 3.18 1.55
-4 5 -3 1.12 0.97
1 4 -3 1.83 1.09
1 4 -3 2.15 1.28
-5 1 -3 1.56 0.44
5 -1 -3 1.76 1.19
1 -5 -3 2.83 1.66
-4 5 -3 1.91 1.26
-1 5 3 1.09 1
-4 -1 3 2.79 1.03
-1 -4 -3 0.43 0.74
1 4 3 0.97 0.19
-1 5 3 4.47 1.61
5 -4 3 1.33 1.23
-1 5 -3 1.58 1.35
4 -5 3 2.52 1.48
-1 5 -3 0.66 0.87
1 4 3 6.58 2.06
1 4 3 2.2 1.38
5 -4 3 1.83 1.2
-1 -4 3 0.9 0.57
-5 4 -3 0.94 0.82
-1 5 3 2.56 1.73
1 4 3 1.94 1.05
1 -5 3 1.07 0.56
1 -5 -3 1.71 1.43
5 -4 -3 3.13 1.55
5 -1 3 2.45 1.19
-5 1 -3 2.22 1.19
-4 5 3 1.46 0.89
-4 -1 3 0.96 0.77
4 1 3 1.13 0.69
4 -5 -3 1.84 1.48
1 -5 -3 1.23 1.6
-1 -4 3 1.86 0.91
5 -1 3 0.94 0.14
5 -1 -3 1.65 1.29
-1 -4 -3 1.8 1.83
4 -5 3 4.25 1.48
5 -1 -3 3.69 1.38
1 4 3 4.18 2.13
-5 4 -3 0.42 0.74
-1 5 -3 0.74 1.15
-4 -1 -3 3.24 1.19
4 1 3 1.87 0.63
-4 -1 -3 2.6 1.59
-5 4 3 3.56 0.95
-4 5 3 1.51 0.8
1 4 3 2.24 0.69
-5 4 -3 3.22 1.63
4 1 -3 0.63 1.12
-5 1 -4 304.79 14.06
1 -5 4 299.15 7.3
-4 5 4 298.18 13.58
-1 -4 -4 302.37 13.11
-5 4 -4 347.13 17.39
5 -1 4 308.01 13.9
-1 5 4 274.88 9.55
5 -1 -4 331.73 14.75
5 -1 -4 303.2 11.61
5 -4 -4 342.37 15.84
4 1 -4 309.06 12.81
-4 -1 4 294.91 12.5
-1 5 -4 286.79 14.33
4 -5 -4 244.18 5.86
1 4 -4 292.47 15.04
1 4 -4 351.19 17.47
-5 4 4 308.14 14.85
1 -5 -4 288.24 14.09
-4 5 -4 293.65 12.44
-4 5 4 321.69 13.6
-1 5 -4 370.87 17.6
4 -5 4 288.82 15.04
4 1 -4 328.9 19.16
-4 5 -4 309.18 13.03
1 4 4 279.04 10.56
-1 -4 4 326.98 15.64
1 4 4 279.82 13.64
5 -4 4 313.18 14.67
-5 4 -4 307.03 10.72
-1 5 4 282.63 14.57
4 -5 -4 337.07 16.51
-1 5 4 288.14 11.67
5 -1 -4 325.46 15.1
5 -1 4 313.13 11.2
-1 5 -4 276.26 13.35
4 1 4 309.48 11.28
1 4 4 294.36 14.1
-5 4 -4 356.49 15.4
1 -5 -4 193.05 13.25
4 1 4 315.62 17.36
-4 -1 -4 298.09 9.89
4 1 4 288.84 9.14
5 -1 -4 309.19 14.2
5 -1 4 329.31 16.23
1 4 4 312.42 13.87
4 1 4 306.1 13.31
4 1 4 323.18 13.06
-4 -1 -4 281.11 15.16
-1 -4 4 266.8 12.36
1 -5 4 271.67 11
-1 -4 -4 280.94 15.37
5 -4 -4 360.34 16.07
-5 1 -4 319.44 13.57
1 -5 -4 249.8 15.37
1 4 4 316.65 16.51
-4 5 -4 294.55 11.24
-1 5 -4 322.67 14.23
-1 -4 -4 219.2 14.61
4 -5 4 329.33 12.09
-1 5 4 294.68 14.46
-4 -1 4 240.72 15.36
5 -1 4 335.78 14.93
4 1 -4 229.56 15.96
1 4 4 306.92 9.39
-5 1 4 293.02 19.1
-4 -1 -4 275.74 12.45
4 1 4 277.04 10.14
-5 4 -4 279.44 13.06
5 -1 4 367.24 15.65
-4 5 4 311.83 13.87
5 -4 4 360.9 15.76
-5 1 4 300.29 14.32
1 4 5 7.52 2
4 1 5 8.06 2.17
5 -1 5 8.5 2.45
1 4 5 4.97 2.12
5 -4 5 9.23 2.63
-1 -4 -5 7.67 2.17
-4 -1 5 12.04 2.76
-5 1 5 5.77 2.21
-5 4 5 6.96 2.66
4 1 5 5.61 1.48
-4 5 5 6.11 2.17
-4 5 5 6.71 2.06
5 -1 -5 6.24 2.06
5 -4 -5 8.64 2.62
4 -5 -5 10.16 3.04
4 1 5 6.3 1.5
5 -1 5 9.18 2.43
-1 5 5 6.21 2.28
1 4 -5 8.16 2.77
5 -4 -5 7.23 2.67
4 1 5 7.43 2.84
-1 5 -5 9.08 2.89
-4 5 -5 6.1 1.71
-1 5 -5 8.32 2.66
4 -5 -5 6.69 2.65
5 -1 5 4.83 1.58
1 -5 -5 6.58 2.43
-1 5 -5 10.7 3.26
4 -5 5 4.38 2.03
-4 -1 5 4.35 2.19
5 -1 5 8.09 1.9
5 -4 5 9.41 2.83
1 4 5 6.21 1.35
-4 5 -5 7.09 2.1
-5 4 -5 7.56 2.39
-5 4 -5 8.62 1.87
-1 -4 5 8.02 2.55
1 4 5 5.54 2.2
1 -5 5 7.56 2.51
-1 5 5 5.41 1.57
-1 -4 -5 3.48 2.08
-5 4 -5 11.6 4.3
1 4 5 4.97 1.77
-5 4 5 6.87 2.16
-1 5 5 6.46 1.61
4 1 5 6.93 1.4
-4 5 5 8.39 2.19
5 -1 -5 7.72 2.77
5 -1 -5 12.09 3.72
4 1 -5 4.1 1.77
-4 -1 -5 11.18 4.37
1 -5 5 5.42 1.42
5 -1 5 9.13 2.43
4 1 5 7.76 2.98
-1 -4 -5 10.09 4.27
4 -5 5 7.58 1.96
1 -5 -5 12.28 4.47
4 1 5 5.45 1.79
-5 1 -5 6.3 2.23
-4 5 -5 6.36 2.04
-5 4 -5 6.34 2.22
4 1 -5 4.87 3.52
1 -5 5 7.92 1.3
-5 1 -5 8.71 3.01
4 1 -5 7.89 2.15
5 -1 -5 5.8 1.8
-1 -4 5 4.31 0.78
-4 -1 6 885.62 27.9
-5 4 6 1109.3 30.16
-4 -1 6 1077.82 25.96
-4 5 6 1119.34 28.24
-5 4 6 1533.8 34.62
1 -5 6 1198.29 17.3
-1 -4 6 984.06 14.94
4 1 6 1174.01 31.34
5 -1 6 1295.76 31.25
1 -5 -6 1039.71 15.51
1 4 6 1062.84 22.66
5 -1 6 1157.56 29.12
-1 -4 -6 1026.56 19.45
5 -1 -6 1261.29 30.44
4 1 -6 1215.08 27.19
4 -5 -6 1373.48 33.82
-5 1 -6 1222.9 28.82
-5 4 -6 1092.56 20.47
-4 5 -6 1154.92 25.56
-5 1 -6 1100.47 27.66
-4 -1 -6 1155.35 25.2
4 1 -6 839.21 33.36
-1 -4 6 1283.77 32.88
4 -5 6 1038.53 28.77
1 -5 -6 1020.89 25.94
-1 5 -6 1448.04 36.7
4 1 6 990.59 35.39
5 -4 6 1160.2 28.11
4 1 6 1073.31 17
1 4 6 959.14 17.01
-4 5 -6 1470.32 35.55
5 -1 6 1134.56 21.07
1 4 6 1044.56 26.8
4 -5 -6 1257.2 31.7
-1 5 6 1030 20.19
-5 4 -6 1412.11 31.5
5 -4 -6 1281.54 31.03
4 1 6 1033.77 14.59
4 -5 -6 1256.35 32.25
-5 4 -6 1414.35 40.01
1 4 6 1215.43 33.79
5 -4 6 1382.23 31.88
4 1 6 1244.91 38.69
5 -1 6 1290.56 31.84
5 -1 -6 1177.45 30.76
-5 4 6 1279.46 30.06
-5 1 6 1093.12 29.46
4 1 6 1130.51 26.45
5 -1 -6 1156.64 22.57
-4 5 6 1207.86 26.11
4 1 -6 1384.51 41.17
-4 -1 -6 1128.49 31.61
1 -5 6 1026.91 19.77
-1 -4 -6 1085.73 32.25
5 -1 -6 1086.02 30.83
5 -4 -6 1382.39 33.96
1 -5 -6 1009.01 33.41
-1 5 -6 1254.87 25.83
1 4 6 1108.18 28.55
1 -5 6 1185.49 29.68
4 -5 6 1194.65 23.56
-1 5 -6 1083.98 29.16
-1 5 6 1133.05 30.21
1 4 6 1069.29 29.89
-5 4 -6 1068.73 26.53
-4 5 -6 1074.78 25.03
4 1 6 1155.78 21.65
4 1 6 1301.55 28.63
-1 5 6 1075.01 23.81
5 -1 6 1443.7 32.47
1 4 -6 1105.19 30.97
5 -1 7 5.41 2.33
4 -5 7 5.1 1.76
4 1 7 6.21 2.09
-5 4 -7 3.53 1.23
-5 1 -7 1.66 0.44
5 -4 7 5.34 1.12
-5 1 7 6.7 2.31
-4 -1 7 4.19 1.66
1 4 7 4.54 1.61
1 4 -7 5.08 1.96
-5 4 7 3.71 1.41
-4 5 7 3.38 1.73
-4 -1 7 5.44 2.6
-1 5 7 3.47 1.02
4 1 7 3.41 0.94
5 -4 -7 5.07 2.06
5 -1 -7 3.92 2.15
-4 -1 7 3.81 1.93
-1 5 7 4.57 1.35
-4 -1 -7 5.65 2.63
-1 -4 7 4.38 2.08
5 -1 7 6.04 2.29
1 -5 -7 3.77 1.03
-1 5 -7 5.56 2.14
5 -1 7 2.03 1.04
-1 -4 -7 6.48 1.83
-5 4 -7 3.2 1.33
4 1 7 5.65 3.15
-4 5 -7 4.76 1.8
4 -5 7 3.43 1.56
-1 5 -7 5.98 2.5
1 -5 -7 3.18 1.87
1 4 -7 -0.73 1.22
5 -4 7 4.72 1.89
1 -5 7 3.49 1.45
4 1 7 4.77 1.4
-1 -4 7 3.13 1.49
5 -4 -7 5.16 2.41
5 -1 7 3.23 1.19
-4 5 -7 7.47 2.51
1 4 7 4.35 0.94
4 -5 -7 6.78 2.92
4 1 7 4.09 0.86
-1 -4 -7 3.65 2.28
4 -5 -7 4.31 1.62
1 4 7 1.79 1.39
5 -4 7 4.72 0.88
-4 5 -7 2.28 1.31
4 -5 7 5.02 1.62
-5 1 -7 5.14 2.23
5 -1 -7 6.33 2.73
-5 4 7 4.81 1.47
5 -4 7 2.86 0.56
-5 4 7 4 2.07
5 -1 7 2.85 0.72
5 -1 -7 7.43 2.98
4 1 7 6.24 1.97
1 4 7 5.41 2.01
-4 5 7 5.28 1.56
1 -5 -7 7.89 3.51
-1 -4 7 3.09 0.95
-5 1 7 2.54 1.09
1 -5 7 4.57 2.03
-1 5 -7 7.66 2.23
1 4 7 3.51 1.64
1 -5 -7 5.17 2.47
-1 5 7 4.58 2.08
-5 1 -7 3.17 1.48
4 1 7 4.58 2
1 -5 7 4.9 1.3
-5 1 -7 5.81 2.7
4 1 -7 8.17 2.99
1 4 7 3.28 1.28
-5 4 -7 5.19 2.09
1 -5 7 3.6 0.98
4 1 -7 5.23 1.32
-1 5 7 4.82 1.36
4 1 7 4.07 1.62
1 4 -8 3.35 1.56
-4 -1 -8 2.22 1.32
4 -5 8 1.81 1.11
5 -4 8 2.13 1.56
-4 -1 -8 3.24 1.86
4 1 8 1.86 0.62
5 -1 8 1.1 0.4
-4 -1 8 3.2 1.77
-4 5 8 3.22 1.5
-4 -1 8 2.21 1.85
-1 5 8 3.31 1.6
5 -1 -8 2.5 1.47
5 -4 -8 3.42 1.86
-1 -4 8 2.85 1.99
-4 -1 8 2.05 1.24
-1 5 -8 3.09 1.81
4 1 8 2.28 0.76
-5 4 -8 3.29 1.12
-1 5 8 2.6 0.81
5 -1 8 3.05 1.66
4 -5 8 5.04 2.12
-4 5 -8 1.72 1.09
-1 5 -8 5.23 2.11
1 -5 -8 1.9 0.76
-1 -4 -8 1.43 0.89
1 -5 8 3.13 1.85
4 1 8 -0.27 0.78
5 -4 8 0.53 0.7
1 -5 -8 0.46 0.43
1 -5 8 2.96 1.16
-5 1 -8 1.28 1.78
5 -4 8 3.05 1.14
-1 5 -8 3.89 1.22
4 1 8 2.7 1.11
-1 -4 8 5.45 2.52
5 -1 8 2.35 1.08
1 4 8 1.81 1.17
4 1 8 1.67 0.54
-4 5 -8 2.72 1.7
1 -5 8 3.77 1.55
5 -4 -8 3.1 2.11
-5 4 8 3.68 2.05
5 -1 8 1.56 1.49
-1 -4 8 2.33 1.16
4 -5 8 2.35 1.08
-1 5 8 2.08 1.09
4 1 -8 3.53 1.24
-5 1 8 3.51 2.08
-5 1 -8 4.67 2.28
5 -4 -8 4.57 2.13
-1 5 8 3.17 0.93
1 4 8 2.59 1.48
5 -1 8 3.02 1.49
4 1 8 0.2 0.77
4 1 8 5.62 2.22
-5 1 -8 1.76 1.07
-5 4 8 1.1 1.61
5 -4 8 2.71 0.99
-4 5 8 2.57 1.19
4 1 8 3.55 1.68
5 -1 -8 1.23 0.33
1 4 8 2.31 0.66
4 1 8 0.47 0.77
4 -5 -8 2.55 1.47
1 -5 -8 1.44 1.15
5 -1 -8 2.31 1.49
4 -5 8 1.17 0.49
-5 4 -8 2.37 1.04
1 4 8 3.68 2.42
-1 -4 -8 2.11 1.66
1 4 -8 8.29 2.68
-5 1 8 2.37 2.66
-5 4 -8 2.47 1.62
1 4 8 3.18 1.33
5 -1 8 5.92 2.02
-1 5 8 3.84 1.86
4 1 -8 2.73 1.79
-1 -4 -8 1 1.4
1 -5 8 1.19 0.82
1 -5 -8 2.48 1.98
4 -5 -8 3.99 2.07
5 -4 -9 3.62 2.37
4 -5 9 1.32 0.88
5 -4 9 3.23 2.31
-4 -1 -9 1.14 1.05
-5 1 9 0.61 2.17
4 1 9 1.81 1.46
5 -1 9 3.25 1.27
4 -5 -9 3.11 1.67
5 -1 -9 1.13 1.37
1 4 -9 1.96 1.51
1 4 -9 1.2 0.77
-5 1 9 1.87 1.07
4 1 9 1.08 1.07
-4 -1 9 0.96 0.25
-4 -1 9 2.01 1.8
-5 4 9 1.82 1.84
-1 5 9 1.5 1.58
-4 5 9 2.15 1.45
4 1 9 2.09 1.25
-1 -4 9 3.31 1.78
-1 -4 9 0.31 0.38
5 -4 9 1.43 0.8
-1 5 9 1.89 1.57
-1 5 -9 2.65 1.8
5 -4 -9 1.21 2.37
4 -5 9 1.48 0.31
1 -5 9 2.1 1.23
-4 5 -9 1.73 1.16
4 1 9 6.95 1.26
4 -5 9 1.05 1.11
5 -1 9 0.36 0.35
1 -5 9 1.84 0.86
-1 5 -9 1.99 1.15
-4 -1 9 1.48 0.78
4 1 9 1.74 0.66
5 -4 9 2.99 1.67
5 -1 9 1.61 0.59
4 1 9 0.47 1.51
1 -5 -9 1.51 1.3
4 1 -9 1.25 0.92
-5 1 -9 1.74 0.94
5 -1 9 1.56 0.78
5 -1 -9 0.07 1.06
-1 -4 9 0.67 0.43
1 4 9 1.25 0.47
-4 5 -9 2.02 2.17
1 -5 9 1.84 0.65
-5 1 -9 2.28 1.37
4 -5 9 2.43 1.54
-5 4 -9 2.38 1.3
-4 -1 -9 1.73 1.39
-5 1 -9 3.31 2.21
-1 5 -9 1.54 0.9
5 -1 -9 0.13 1.12
-1 5 9 1.32 1.15
5 -4 9 0.91 0.54
1 4 9 1.87 1.68
4 1 9 2.18 0.95
1 -5 -9 8.05 3.55
5 -4 -9 1.04 1.55
-1 5 9 1.77 0.79
-1 -4 -9 3.07 1.81
4 1 9 0.28 0.45
-4 5 9 2.23 1.24
4 -5 -9 5.11 1.76
1 4 -9 3.38 1.72
5 -1 9 0.53 0.63
5 -1 -9 0.32 0.82
-5 4 9 1.63 1.63
-1 -4 -9 2.28 1.68
1 4 9 1.58 1.48
1 4 9 3.51 1.93
1 4 9 1.96 1.03
-1 5 9 1.45 0.88
4 1 -9 -0.41 1.9
1 -5 9 2.41 1.07
4 1 9 -0.68 0.52
-5 4 -9 1.18 0.75
1 -5 -9 1.41 1.03
5 -1 9 1.34 1.16
5 -1 -10 227.47 12.34
-5 1 10 197.1 14.47
4 1 10 222.28 14.24
-5 4 10 198.71 14.77
-4 5 10 205.82 14.55
-1 -4 10 211.39 12.57
-1 -4 10 256.55 17.12
-1 5 10 208.53 14.05
4 1 10 204.86 6.79
4 -5 10 186.56 12.78
-1 5 -10 303.46 18.54
5 -4 10 197.17 11.88
1 -5 10 255.6 16.03
5 -1 10 202.25 8.5
1 -5 -10 174.53 10.79
-5 1 -10 216.04 10.13
-1 5 10 210.34 8.65
-4 5 -10 306.76 17.82
-4 -1 10 187.27 13.21
4 1 10 154.27 15.26
1 -5 10 223.79 11.53
-5 4 -10 301.7 16.07
4 -5 10 261.76 14.02
-1 5 10 186.24 8.27
-1 -4 10 264.64 17.09
-1 5 10 219.29 15.51
5 -4 -10 248.32 15.06
4 -5 -10 255.83 16.42
5 -4 -10 242.49 14.72
1 4 10 175.39 15.03
4 1 -10 252.3 11.71
1 -5 -10 262.15 21.18
4 1 10 235.03 20.22
-1 -4 -10 215.06 18.8
5 -1 10 253.03 18.57
4 1 10 203.01 12.73
-4 5 10 237.04 12.52
4 -5 10 251.38 12.29
1 4 10 189.2 10.01
-4 5 -10 200.97 11.82
-5 1 -10 216.95 14.57
4 1 10 225.53 9.22
-4 -1 -10 218.83 14.63
1 4 -10 259.06 8.82
1 4 -10 212.06 12.09
5 -4 10 221.32 8.1
5 -1 -10 180.65 14.98
5 -1 10 212.75 6.82
-5 4 10 325.18 20.58
5 -1 10 219.62 12.33
-1 -4 -10 196.58 15.21
4 1 10 211.5 13.29
1 -5 -10 160.05 15.22
-1 5 -10 230.11 9
4 1 10 269.65 15.69
4 1 -10 165.5 16.69
-5 4 -10 208.27 10.65
4 1 10 215.36 10.91
5 -4 10 250.42 9.02
4 -5 10 260.57 14.47
-5 1 10 287.49 23.69
1 -5 10 227.8 10.85
4 -5 -10 232.96 14.43
-4 -1 -10 237.2 13.9
1 4 10 211.25 14.44
1 4 -10 212.44 15.4
5 -1 10 275.74 16.26
-4 -1 10 242.97 12.45
5 -4 10 269.9 15.88
-4 -1 10 269.48 20.16
-1 5 10 204.87 15.15
-1 5 -10 209.59 14.25
1 -5 10 251.16 15.37
1 4 10 206.35 5.44
-5 1 -10 286.66 20.03
-1 5 11 7.52 1.77
-4 -1 -11 7.45 3.03
-5 1 11 11.55 5.32
-5 4 -11 8.05 2.62
4 1 -11 6.24 3.3
1 4 -11 9.85 3.68
-1 -4 11 8.65 2.88
4 1 11 8.86 4.58
-5 1 11 6.16 2.86
-5 4 11 9.43 1.45
-5 4 11 6.91 2.82
-1 5 11 6.27 2.56
-4 5 -11 6.39 2.3
4 1 11 8.2 2.84
-1 5 -11 8.01 2.81
4 -5 11 5.55 2.3
1 -5 11 8.39 2.72
4 1 11 7.72 2.85
-4 5 11 6.3 2.48
5 -4 11 6.51 2.13
1 4 11 5.5 2
5 -1 11 7.81 1.59
-1 5 11 5.62 1.52
5 -4 11 7.78 1.57
4 -5 11 9.15 2.29
-5 1 -11 6.42 2.21
1 -5 -11 6.77 2.07
-4 -1 11 10.36 3.27
-4 5 -11 8.38 2.71
4 1 11 7.11 1.29
4 1 -11 8.93 2.45
1 -5 11 7.61 2.13
4 -5 11 9.69 2.43
4 -5 -11 7.99 2.56
5 -1 -11 6.8 2.15
-4 -1 11 7.3 2.63
4 1 11 6.61 1.74
1 -5 -11 9.58 4.32
5 -4 -11 7.61 2.59
4 1 11 6.66 1.98
-1 -4 -11 6.09 2.94
-5 1 -11 7.42 1.73
1 4 -11 10.55 2.88
1 4 11 6.34 2.27
5 -1 11 8.49 1.5
5 -1 -11 4.54 2.55
5 -4 11 6.87 1.36
-1 -4 -11 6.67 2.77
5 -1 11 6.61 1.92
1 4 11 6.46 1.82
1 -5 -11 6.04 2.76
-1 5 -11 7.98 1.48
-5 1 -11 10.24 3.49
-4 -1 -11 7.16 2.77
1 -5 11 10.68 2.81
4 1 11 10.73 3.35
-5 4 -11 7.54 2.04
4 -5 11 9.13 2.52
5 -1 11 6.61 2.86
1 4 -12 2.84 1.9
-5 4 -12 3.29 1.54
-1 -4 12 2.8 1.62
5 -1 -12 2.7 1.89
-5 4 12 3.25 1.84
-4 -1 12 2.85 1.66
1 -5 12 2.14 1.47
5 -1 12 2.92 1.04
4 1 -12 3.19 1.26
5 -4 12 3.81 1.35
-5 4 -12 3.88 2.04
4 -5 12 3.42 1.37
-5 4 12 2.17 0.66
5 -4 12 2.44 1.42
-5 1 -12 3.99 2.21
-1 -4 -12 4.19 3.39
4 1 12 2.66 0.95
-1 -4 12 2.21 0.89
1 -5 -12 0.88 0.69
-5 1 -12 1.72 0.84
4 -5 -12 2.34 1.56
-4 5 -12 3.94 2.05
-4 5 12 2.51 1.98
1 4 12 1.46 0.32
4 -5 12 1.59 0.81
4 1 -12 3.3 2.41
-1 5 12 3.32 1.75
5 -1 -12 2.48 1.59
-5 1 12 4.21 2.21
-4 5 -12 0.99 0.55
1 -5 12 2.61 1.61
5 -1 12 6.82 3.3
-4 -1 -12 6.51 2.06
5 -4 12 2.77 1.4
-4 -1 -12 1.22 0.67
5 -4 -12 2.16 1.39
1 4 -12 5.58 2.1
-1 5 12 4.51 1.4
1 4 12 2.14 0.69
-1 -4 -12 2.46 1.62
5 -1 12 2.74 1.24
5 -4 12 1.95 0.66
4 1 12 4.04 1.87
1 -5 -12 1.92 1.81
4 1 12 10.57 2.52
-1 5 -12 4.33 1.05
5 -1 12 2.46 0.81
4 1 12 1.1 1.47
-5 1 -12 3.22 2.22
4 1 12 4.86 2.16
4 1 12 4.15 1.43
4 -5 12 2.17 1.35
-1 5 -12 2.16 1.06
1 4 12 1.3 0.74
5 -1 13 8.22 1.94
-5 4 -13 7.99 2.39
1 4 -13 7.67 3.31
-1 -4 13 6.06 2.45
-1 -4 -13 7.35 3.43
-1 5 -13 7.3 2.91
5 -4 -13 8.04 2.74
-4 5 -13 6.44 2.35
4 1 13 6.61 2.22
4 -5 13 5.13 1.95
-5 1 13 7.06 3.23
1 -5 13 9.83 3.35
-5 4 13 3.85 2.22
-4 -1 13 4.39 2.42
-4 5 13 5.13 2.04
5 -1 13 6.99 3.45
5 -4 13 7.36 1.89
5 -4 13 5.15 1.95
4 -5 13 9.37 2.68
-5 4 13 8.02 1.32
4 1 13 11.4 5.52
-5 4 -13 7.61 2.67
1 -5 -13 4.52 1.39
-1 5 13 2.53 1.09
-5 4 -13 11.6 3.47
5 -4 13 8.24 2.17
-5 1 -13 4.13 2.06
-1 5 13 7.11 2.79
4 -5 -13 4.05 2.06
5 -1 -13 6.49 2.2
1 4 13 6.27 2.51
4 1 -13 9.38 2.92
1 -5 13 9.37 2.91
-5 1 -13 6.04 1.7
5 -4 13 7 1.34
4 -5 13 7.45 2.67
5 -4 13 7.5 2.74
-5 1 -13 7.07 2.34
-4 -1 -13 5.51 1.81
4 -5 13 6.2 2.3
1 4 -13 7.85 2.41
1 4 13 3.92 1.18
5 -1 -13 8.06 3.46
-1 -4 13 5.14 1.53
5 -1 13 5.9 1.88
1 -5 -13 4.37 2.7
4 1 13 6.38 2.42
-1 5 -13 5.49 0.99
4 1 -13 10.15 4.19
-4 -1 -13 4.85 1.87
4 1 13 7.09 1.88
1 4 14 27.16 4.47
4 -5 14 37.37 6.38
-5 1 14 31.59 6.63
-5 4 14 34.05 6.95
-4 -1 14 30.98 6.44
1 4 -14 39.43 7.59
-4 -1 -14 33.31 5.96
5 -4 14 44.92 4.96
4 1 -14 39.33 6.16
1 -5 -14 22.71 3.97
4 1 14 46.39 9.98
4 -5 14 49.16 6.63
5 -4 14 46.63 5.55
1 -5 14 39.79 6.43
-5 4 -14 52.07 7.26
5 -1 14 49.1 9.74
-1 -4 14 50.5 8.44
1 4 -14 29.38 4.47
4 -5 -14 37.76 6.09
-5 4 -14 52.28 7.46
1 -5 14 53.96 8.32
-1 -4 14 39.68 4.66
5 -4 -14 37.65 6.26
1 4 14 36.99 7.76
5 -1 -14 48.29 6.66
4 -5 14 45.88 5.97
-5 1 -14 30.88 3.63
-4 5 14 39.72 7.43
-5 1 -14 38.81 7
-5 1 -14 39.15 5.95
-4 5 -14 37.69 5.87
1 4 14 38.27 4.99
-5 4 14 39.4 2.99
5 -1 -14 32.35 6.71
-4 -1 -14 35.46 6.15
5 -1 14 36.54 5.13
-1 -4 -14 34.05 6.84
-5 4 -14 43.33 6.22
1 -5 -14 27.81 6.78
4 1 14 52.48 5.62
1 -5 14 43.39 6.01
4 1 -14 36.93 8.21
-1 5 -14 42.68 7.28
4 1 14 29.64 5.08
5 -4 14 46.38 7.69
-1 5 14 35.81 7.39
4 1 15 3.74 2.34
1 4 -15 2.37 0.42
4 1 15 0.25 0.23
-1 5 -15 2.04 1.29
5 -4 15 2 1.15
5 -4 15 1.56 1.07
1 -5 15 3.86 2.49
4 -5 15 1.46 1.43
-5 1 15 2.36 2.28
-5 4 15 0.51 1.12
-4 -1 15 1.8 1.89
-4 5 15 1.87 2.11
1 4 15 0.28 1.66
4 -5 15 2.56 2.06
-5 4 -15 0.97 1.41
-1 -4 15 -0.39 1.5
1 -5 -15 -0.15 0.34
-1 5 -15 0.6 0.37
5 -1 15 1.05 0.39
4 -5 15 4.05 1.81
5 -4 -15 0.66 0.92
-5 4 -15 -0.31 1.14
-1 5 15 -0.25 1.12
-1 -4 15 0.37 0.79
4 -5 -15 -0.72 0.68
1 4 15 0.77 0.59
5 -1 -15 3.84 2.03
5 -1 15 2.57 1.27
4 1 -15 0.89 1.02
-4 -1 -15 0.59 1.37
1 -5 15 1.05 0.87
4 1 15 2.09 3.72
-5 1 -15 2.08 0.89
5 -1 15 2.25 3.07
5 -4 15 2.7 1.91
-5 1 -15 1.53 1.16
-4 5 -15 2.02 1.65
5 -1 -15 -2.13 2.43
-1 -4 -15 0.08 1.52
1 -5 -15 5.56 2.82
4 1 -15 1.05 2.04
-5 1 -15 -2.49 2.32
-4 -1 -15 -0.03 0.11
-5 4 -15 -0.53 1.87
-5 1 16 146.06 15.61
-5 4 16 151.58 16.14
-4 5 16 150.79 15.77
-5 4 -16 195.22 15.09
1 4 -16 175.64 17.24
-5 4 -16 256.32 16.95
5 -1 16 160.65 6.47
4 -5 16 214.17 15.06
1 -5 -16 98.38 8.51
5 -4 16 208.96 12.57
5 -1 -16 166.98 15.9
-5 4 -16 245.8 16.58
-4 5 -16 253.62 14.65
5 -4 16 214.17 12.34
-1 5 -16 169.17 15.76
1 -5 16 221.92 17.72
4 -5 16 216.04 14.54
-1 5 16 147.32 15.78
5 -1 -16 212.68 15.49
-5 1 -16 116.22 6.96
1 -5 16 235.02 17.22
5 -4 -16 146.96 12.94
4 1 16 205.46 23.26
4 1 -16 218.62 16.78
5 -1 16 212.95 21.49
5 -4 16 197.24 17.66
-4 -1 16 143.9 15.14
-4 -1 -16 200.94 15.66
5 -1 16 155.77 11.08
4 -5 -16 154.73 13.26
-5 1 -16 165.7 15.67
-4 5 -16 177.87 14.48
-5 1 -16 182.83 13.42
-4 -1 -16 167.55 14.34
1 4 16 203.8 13.11
-1 -4 -16 148.36 15.41
4 1 -16 208.46 20.75
1 -5 -16 144.36 16.83
4 -5 16 202.81 16.75
4 1 16 253.01 13.47
-1 -4 16 164.02 10.97
1 4 16 190.78 18.96
4 1 16 132.26 11.85
-5 4 17 4.5 2.5
-5 1 -17 4.46 2.29
-4 5 -17 4.67 2.01
4 1 17 7.19 2.48
-1 5 -17 5 2.75
1 -5 17 5.64 2.94
4 1 17 2.92 2.14
-5 1 17 3 2.85
-4 -1 17 3.58 1.61
-5 4 -17 5.1 1.98
-4 5 -17 6.43 2.38
-1 5 17 2.42 2.01
5 -4 17 4.79 1.9
1 -5 -17 0.99 0.91
5 -4 17 4.58 1.77
-5 4 -17 3.7 1.03
4 1 -17 6.28 3.46
4 -5 17 3.58 1.72
1 -5 17 5.74 2.37
-1 -4 17 3.62 1.67
4 -5 17 5.66 3.11
1 4 17 0.33 1.47
4 -5 -17 2.69 1.34
-5 1 -17 3.05 1.08
5 -4 17 2.17 0.17
-4 5 17 2.4 0.29
-4 -1 -17 2.72 1.88
5 -1 -17 1.66 1.03
-5 4 -17 6.02 3.24
-1 -4 -17 1.24 1.92
1 -5 -17 1.6 2.14
5 -1 17 2.15 1.17
4 1 -17 7.99 4.41
-5 1 -17 2.95 2.09
4 1 17 2.54 1.63
5 -1 17 8.69 4.2
5 -4 -17 5.5 2.69
-4 -1 -17 5.3 2.83
1 4 -17 5.2 2.97
-4 5 18 48.93 9.27
4 1 18 43.28 7.69
4 1 18 92.08 16.03
-5 1 18 51.38 9.77
-5 4 18 51.89 10.01
-4 -1 18 51.9 9.58
1 -5 -18 62.29 11.3
-5 1 -18 55.61 9.67
5 -4 18 72.81 7.97
-4 5 -18 88.5 8.53
-1 -4 18 66.97 7.86
1 -5 -18 31.53 4.8
-4 -1 -18 68.37 9.78
5 -4 18 80.63 8.28
1 -5 18 77.85 11.23
4 -5 18 84.06 9.75
4 -5 18 75.74 11.09
4 -5 -18 52.32 7.82
-1 5 18 49.82 9.55
1 4 18 71.87 11.89
1 -5 18 87.66 10.53
5 -4 -18 50.15 7.81
5 -1 18 79.77 14.16
5 -4 18 66.35 11.35
-5 1 -18 68.61 8.59
5 -1 -18 61.81 9.64
-1 -4 -18 51 9.29
-5 4 -18 74.37 10.22
1 4 -18 65.48 11.06
4 1 -18 83.74 10.95
-4 5 -18 66.01 9.55
-1 5 -18 59.77 10
-4 -1 -18 61.31 8.79
-5 4 -18 99.76 10.85
4 1 -18 74.34 12.63
-1 5 -19 2.15 1.57
1 -5 19 5.05 1.98
4 -5 19 5.98 2.77
-5 1 19 3.12 2.9
-5 4 19 2.19 2.02
-4 -1 19 1.31 2.79
-4 5 19 7.07 3.48
5 -1 19 6.49 3.65
1 -5 -19 1.25 0.75
-5 1 -19 3.09 1.96
-5 4 -19 5.49 1.97
-5 4 -19 11.09 5.14
-1 5 19 -0.3 2.25
1 -5 19 7.37 3.46
4 1 19 4.21 3.51
4 -5 -19 1.02 1.32
5 -4 -19 4.6 2.56
1 -5 -19 2.86 2.4
-4 5 -19 8.77 2.68
5 -1 -19 2.45 1.31
-4 -1 -19 4.12 2.39
1 4 19 3.47 2.16
-1 -4 -19 1.19 1.32
4 1 -19 3.55 2.61
-5 1 -19 3 0.35
-5 4 -19 4.32 2.58
5 -4 19 2.8 2.22
-1 -4 19 2.1 1.09
-4 -1 -19 5.26 3.09
1 4 -19 6.67 4.26
4 -5 19 3.43 2.12
-4 5 -19 3.25 2.4
1 -5 20 80.02 10.76
-4 5 -20 75.58 8.37
-5 1 -20 45.63 9.22
-4 5 20 39.92 9.24
-5 1 20 36.62 8.72
-5 4 20 39.33 9.2
-4 -1 20 40.39 9.03
4 1 20 67.58 14.08
-1 -4 20 57.27 7.87
4 -5 20 56.68 10.53
1 -5 20 67.87 10.91
4 -5 20 63.68 9.07
1 4 20 60.91 11.42
-1 -4 -20 45.97 9.33
5 -4 -20 35.79 6.45
-1 5 20 38.23 8.76
4 -5 -20 31.88 6.13
-5 4 -20 60.84 9.83
-5 1 -20 54.22 7.74
-4 -1 -20 48.77 8.61
-4 -1 -20 50.1 8.23
5 -1 -20 49.85 9.24
4 1 -20 60.01 11.52
1 -5 -20 49.56 10.42
5 -1 20 58.63 13.46
1 4 -20 53.4 10.64
-4 5 -20 49.81 9
-1 5 -20 44.58 9.02
5 -4 20 59.65 10.92
4 1 21 0.15 3.31
4 -5 21 -0.7 0.34
-5 1 21 -0.92 0.61
-5 4 21 0.38 2.13
-4 -1 21 -1.96 2.78
-4 5 21 -0.48 1.59
-1 5 -21 3.05 2.91
-1 5 21 0.86 0.95
1 -5 21 -0.42 2.06
-1 -4 21 1.01 1.92
4 -5 -21 -0.45 1.01
1 -5 21 -0.36 1.16
5 -1 21 -0.19 1.74
5 -4 -21 -0.59 1.22
4 -5 21 2.85 2.88
-5 4 -21 2.83 1.97
-5 1 -21 -0.61 0.88
-4 -1 -21 0.48 1.71
5 -1 -21 0.86 1.99
-1 -4 -21 -0.78 2.21
4 1 -21 -1.14 2.69
-5 4 -21 1.35 2.04
-5 1 -21 -2.14 1.96
1 4 21 1.05 2.64
5 -4 21 1.01 1.25
1 -5 -21 -1.64 2.56
-4 -1 -21 1.3 1.97
1 4 -21 2.09 2.73
-4 5 -21 1.65 1.56
4 -5 22 31.8 7.16
-5 4 22 17.8 6.15
-4 -1 22 23.86 7.38
-4 5 22 16.85 5.75
-5 1 22 19.73 6.22
4 -5 22 32.45 8.35
1 -5 22 35.97 8.58
5 -4 -22 21.71 5.22
-1 5 -22 27.58 7.38
1 4 22 38.76 9.37
4 -5 -22 15.63 4.57
1 -5 22 42.66 7.94
5 -4 22 33.49 9.05
5 -1 22 31.32 9.91
4 1 22 42.38 10.59
5 -1 -22 20.15 5.55
-5 1 -22 29.88 5.68
-5 4 -22 69.64 12.97
5 -1 -22 26.79 6.78
-4 -1 -22 29.45 6.22
-1 -4 -22 29.72 7.61
4 1 -22 36.13 8.89
1 -5 -22 28.6 8.58
-5 4 -22 35.94 7.75
-5 1 -22 31.88 7.9
-1 5 22 32.14 8.38
1 4 -22 30.57 8.49
-4 5 -22 32.56 7.67
-4 -1 -22 27.39 6.89
4 -5 23 3.55 3.05
-5 4 -23 -1.98 3.98
-5 1 23 -0.22 3.61
-5 4 23 0.21 1.83
-4 -1 23 1.39 1.23
1 -5 23 1.41 3.02
-4 -1 -23 0.31 1.08
1 4 23 2.74 0.74
5 -1 23 1.78 2.9
4 1 -23 1.4 1.9
-1 5 23 -6.2 4.44
5 -1 -23 0.08 1.39
4 -5 -23 1.52 1.96
1 -5 23 2.16 0.79
4 1 23 -3.11 3.41
4 -5 23 3.05 3.57
5 -4 -23 0.02 1.61
5 -4 23 3.95 3.92
5 -1 -23 0.14 1.25
-1 5 -23 2.18 1.18
-1 -4 -23 2.37 3.23
1 -5 -23 1.33 1.08
-4 5 23 1.09 1.26
-5 1 -23 -3.78 3.6
1 4 -23 7.1 4.74
-4 5 -23 2.25 1.96
-4 -1 -23 -1.96 2.35
-5 1 24 10.12 4.85
-4 5 24 5.99 3.45
-5 1 -24 9.35 4.46
-4 -1 -24 13.86 4.05
4 -5 24 17.98 5.15
1 -5 24 21.16 6.76
4 -5 -24 8.51 3.7
5 -4 -24 8.88 3.51
5 -1 -24 5.88 0.99
-4 -1 -24 16.36 5.21
4 -5 24 13.14 5.46
-1 -4 -24 18.94 5.94
1 -5 -24 14.92 4.32
4 -5 -24 14.6 6.67
-4 5 -24 9.13 3.6
1 4 -24 8.22 3.5
-4 -1 24 14.91 6.71
5 -4 24 13.76 6.36
-1 5 -24 13.36 6.06
4 -5 25 -1.61 2.78
4 -5 25 -3.87 3.89
-4 -1 25 5.63 3.89
-1 -4 -25 0.49 1.34
4 -5 -25 1.92 1.45
1 -5 25 -3.63 3.41
5 -4 -25 0.88 0.99
-4 -1 -25 0.51 1.88
1 -5 -25 -0.86 1.63
-4 5 -25 1.81 2.43
-4 -1 -25 -4.56 3.03
4 -5 26 26.09 8.65
5 -4 -26 14.74 4.25
-4 5 -26 23.17 6.74
-1 -4 27 -5.36 4.4
0 5 0 107.42 8.74
5 -5 0 124.84 9.23
-5 0 0 113.39 7.02
-5 0 0 131.45 8.53
0 5 0 107.73 9.08
0 5 0 118.81 9.06
5 -5 0 123.01 10.23
5 0 0 123.01 8.24
-5 0 0 107.41 6.24
5 0 0 119.85 8.24
5 0 0 121.58 8.72
0 -5 0 106.89 8.79
-5 0 0 120.46 12.46
5 0 0 110.23 8.36
0 5 0 126.76 10.59
-5 5 0 116.05 6.83
-5 0 0 122.63 8.56
-5 5 0 107.43 8.09
0 -5 0 103.06 8.78
5 0 1 391.95 15.46
-5 0 1 352.33 13.98
5 -5 1 417.5 16.87
5 0 -1 362.34 14.96
5 -5 -1 406.38 17.01
-5 0 1 386.4 14.45
-5 0 -1 396.12 14.73
-5 0 -1 353.99 10.71
0 -5 -1 353.43 15.18
0 5 -1 338.52 16.13
0 5 1 333.1 15.86
0 5 -1 404.64 17.33
0 5 1 365.08 15.27
-5 0 1 362.03 14.92
5 -5 1 375.72 17.52
5 -5 -1 394.19 18.4
-5 5 -1 391.42 16.59
-5 5 -1 347.42 14.56
-5 0 -1 347.93 10.33
0 -5 -1 335.32 15.96
-5 0 1 335.43 11.7
5 0 1 355.15 13.1
0 5 1 324.52 15.25
5 0 -1 367.72 14.9
5 0 1 355.87 13.15
5 0 1 363.74 14.52
-5 5 -1 345.46 11.52
5 0 -1 372.4 14.55
0 -5 1 341.3 15.08
5 0 -1 298.61 15.07
-5 0 -1 308.63 13.45
0 5 1 380.67 18.18
0 -5 -1 318.74 16.2
-5 0 -1 398.04 22.81
-5 0 1 353.77 20.95
-5 5 1 343.66 12.3
0 5 -1 332.09 15.28
-5 5 1 351.41 14.72
5 0 1 359.09 19.07
0 -5 1 313.97 13.62
5 -5 2 92.49 7.94
5 0 2 84.28 9.03
-5 0 2 82.63 6.68
0 5 2 76.25 7.49
5 -5 -2 85.44 7.79
0 5 -2 74.82 7.54
-5 5 2 83.54 5.49
-5 0 -2 87.78 7.14
5 -5 -2 71.86 4.56
-5 0 -2 70.52 4.01
0 5 -2 90.9 8.42
0 5 2 75.21 7.62
0 5 2 82.66 6.96
0 5 2 83.16 8.79
5 -5 2 72.82 7.7
0 5 -2 70.57 7.05
-5 5 -2 77.04 5.34
5 0 2 83.36 7.1
5 -5 -2 92.51 8.89
-5 5 -2 79.43 6.54
-5 5 -2 93.95 8.2
-5 0 2 73.49 5.99
0 -5 -2 69.73 8.3
5 0 2 78.27 5.83
0 -5 2 66.62 5.88
5 0 -2 84.23 7.5
-5 0 2 83.09 10.02
5 0 -2 80.51 7.04
0 -5 2 69.41 6.7
-5 0 2 77.79 6.79
0 -5 -2 68.21 7.5
5 0 2 82.39 5.6
5 0 -2 78.96 6.59
5 0 -2 63.49 7.28
-5 0 -2 74.85 4.47
-5 0 -2 79.77 10.34
-5 5 2 79.12 6.16
-5 5 -2 74.18 6.7
-5 0 -2 83.56 7.07
0 -5 2 87.77 8.02
0 -5 -2 81.15 7.18
-5 5 2 75 6.92
-5 0 2 78.66 7.24
5 0 2 86.16 7.38
0 -5 -3 63.78 6.49
0 5 -3 58.98 6.78
-5 0 -3 62.15 6
0 -5 -3 50.82 7.4
5 0 -3 62.31 6.61
0 5 -3 71.68 7.59
5 -5 3 62.25 7.11
0 5 3 57.45 5.54
0 5 3 56.1 6.56
0 5 3 50.36 2.96
-5 0 -3 58.24 2.99
-5 5 -3 62.72 5.71
5 -5 -3 68.57 7.53
0 -5 3 64.02 7
-5 0 -3 58.53 5.98
-5 0 3 58.36 5.83
-5 5 -3 79.07 7.64
0 5 -3 55.11 6.3
5 0 3 63.99 5.02
-5 5 3 61.53 6.16
5 0 3 62.3 3.84
-5 5 -3 59.58 4.57
5 0 3 64.18 6.15
-5 5 3 60.19 6.33
5 -5 -3 58.56 3.69
-5 5 3 61.75 3.9
-5 0 3 56.79 8.12
5 0 3 59.24 7.28
5 0 -3 72.6 9.73
0 -5 3 54.08 5.56
0 -5 -3 59.17 7.12
5 0 -3 64.01 5.98
5 0 -3 45.2 6.53
0 5 3 60.92 7.65
5 0 3 69.4 6.66
0 5 3 59.73 6.62
5 -5 3 78.44 7.31
-5 0 -3 63.81 3.91
-5 0 -3 64.46 9.33
-5 5 -3 56.66 5.85
0 -5 3 50.8 4.41
5 -5 -3 69.4 7.18
5 0 -3 65.95 6.36
-5 0 3 36.05 4.96
-5 0 3 73.01 7.69
-5 5 3 64.13 5.86
-5 5 4 32.2 4.78
-5 0 -4 32.28 4.51
0 -5 -4 27.8 5.1
-5 5 4 33.08 4.48
5 0 -4 30.97 4.45
0 5 4 27.11 2.76
5 -5 -4 36.95 5.28
0 5 -4 31.4 5.05
5 0 4 29.41 4.27
0 5 -4 33.83 5.34
0 5 -4 30.11 4.64
5 -5 4 30.23 4.9
-5 5 -4 31.28 3.99
0 5 4 26.93 3.61
0 5 4 29.71 4.73
0 -5 4 33.77 5.21
5 -5 -4 35.02 5.32
5 0 4 29.96 5.16
-5 5 -4 39.91 5.43
-5 5 4 34.54 4.6
-5 5 -4 29.29 3.24
5 0 4 28.15 3.18
0 -5 4 27.02 2.9
-5 0 4 25.65 5.48
-5 5 4 28.89 2.16
0 -5 4 30.08 4.02
0 5 4 26.73 4.54
0 -5 4 29.77 4.78
5 0 -4 19.93 4.82
5 0 -4 31.91 4.2
0 5 4 30.3 5.35
0 -5 -4 28.36 6.14
-5 0 -4 30.51 4.5
-5 5 -4 28.87 4.08
-5 0 -4 32.69 6.6
5 0 4 36.89 4.91
-5 0 4 33.46 4.83
5 -5 4 35.66 4.91
5 -5 5 214.14 9.25
-5 0 -5 217.85 17.48
0 -5 5 201.49 12.78
0 5 -5 179.95 12.34
5 0 -5 197.82 11.85
5 -5 -5 229.14 13.9
0 5 5 171.77 8.13
0 -5 -5 164.15 12.66
0 5 -5 250.66 15.56
-5 5 -5 186.47 9.77
5 -5 5 194.04 12.47
0 -5 5 210.17 13.32
0 5 5 167.68 8.69
0 5 5 183.59 12.26
5 -5 -5 215.98 13.39
-5 5 -5 247.81 14.09
5 0 5 177.6 7.78
0 -5 5 163.77 6.26
-5 0 5 174.97 14.22
-5 5 5 213.78 11.85
5 0 5 192 14.37
5 0 5 196.08 11.55
0 -5 5 175.48 9.69
5 0 5 207.36 13.73
-5 5 5 161.26 3.76
0 5 5 170.18 11.82
5 0 -5 146.72 12.73
0 5 5 214.88 15.1
-5 5 5 187.35 12.07
5 -5 5 227.32 12.9
-5 0 -5 171 10.83
-5 5 -5 179.44 10.81
5 0 5 228.19 12.63
-5 0 5 180.37 11.33
-5 0 6 59.46 6.84
5 0 6 63.5 6.73
-5 5 6 65.91 7.4
0 5 -6 61.48 7.29
0 -5 -6 56.44 4.32
-5 0 -6 76.51 10.53
0 -5 6 45.95 2.88
5 0 -6 69.88 7.02
5 -5 -6 71.42 8.07
0 5 6 52.94 5.17
-5 5 -6 63.71 5.68
0 5 -6 80.66 8.88
5 -5 6 64.48 7.17
0 -5 -6 59.3 7.91
0 -5 6 68.17 7.73
0 5 6 52.32 4.52
0 5 6 62.42 7.33
-5 5 -6 83.9 8.42
5 -5 -6 75.21 8.06
5 0 6 58.15 4.25
0 -5 6 49.08 3.09
0 -5 6 52.36 3.03
-5 5 6 74.73 7.19
0 -5 6 66.8 7.46
5 0 6 73.73 7.35
0 5 6 64.75 7.17
0 5 6 58.78 7.12
0 -5 6 55.18 5.22
5 0 6 68.18 7.7
5 0 -6 48.48 7.6
0 5 -6 71.98 6.83
0 5 6 54.19 4.93
-5 0 -6 63.95 6.88
5 0 6 68.66 8.82
-5 0 6 58.65 8.15
-5 0 -6 59.9 6.51
-5 5 -6 60.44 6.35
-5 0 6 63.97 8.71
5 -5 6 67.53 5.15
0 -5 6 47.34 2.35
5 -5 6 77.09 7.54
-5 0 -7 13.54 3.06
5 0 7 17.76 3.83
-5 5 -7 21.1 4.31
0 -5 -7 13.72 2.04
-5 0 7 16.87 4.37
-5 5 -7 15.64 2.9
5 0 -7 16.41 3.62
5 -5 -7 16.2 3.89
0 5 -7 15.25 3.72
0 5 -7 22.25 4.91
-5 5 7 17.29 3.72
5 0 7 18.51 4.74
5 -5 7 15.51 3.41
0 -5 7 16.22 3.68
5 0 7 13.47 2.02
-5 0 7 13.05 3.65
0 5 7 13.36 2.16
5 0 7 18.62 2.3
0 5 7 13.85 3.5
0 -5 7 19.7 4.21
5 0 7 17.33 3.83
0 -5 7 11.83 1.47
5 -5 -7 17.51 3.95
-5 5 7 17.83 3.56
0 -5 7 12.67 1.71
0 -5 -7 13.38 4.61
0 5 7 19.57 4.28
-5 0 7 19.04 3.95
0 5 7 17.98 2.79
-5 0 -7 20.88 5.62
5 0 7 15.32 3.51
0 -5 -7 11.44 3.34
0 5 -7 16.49 3.15
5 0 -7 16.64 4.64
5 -5 7 17.2 2.61
0 -5 7 13.65 1.67
-5 5 -7 17.51 3.39
5 -5 7 19.16 3.88
-5 0 8 41.58 6.01
5 0 8 46.44 6.44
0 -5 -8 42.49 8.77
5 0 8 47.44 3.75
5 0 -8 36.61 7.24
-5 5 -8 45.89 5.1
0 -5 -8 39.43 3.59
5 0 -8 51.92 6.5
5 -5 -8 52.66 7.49
0 -5 8 48.67 3.68
-5 0 -8 59.67 9.5
0 5 -8 61.03 8.14
5 -5 8 42.76 5.85
0 -5 8 52.37 7.3
5 0 8 42.94 3.58
-5 5 -8 62.85 7.59
-5 0 8 39.96 6.47
5 -5 -8 52.59 6.92
0 5 8 36.96 3.43
5 0 -8 42.26 4.66
5 -5 -8 56.01 7.21
0 -5 8 37.25 3.23
5 0 8 49.35 8.18
0 -5 8 52.75 6.98
-5 5 8 51.81 6.11
-5 5 8 43.21 6.46
0 5 8 39.85 6.33
5 -5 8 45.64 3.67
0 5 8 42.69 4.42
5 0 8 46.67 6.26
0 -5 -8 38.56 6.82
0 5 -8 48.25 5.29
-5 0 -8 48.84 6.26
5 0 8 41.69 6
5 -5 8 51.42 4.6
0 5 8 47.37 6.8
-5 5 -8 42.9 5.7
-5 0 8 45.49 8.13
5 0 8 58.2 7.07
5 -5 8 53.19 6.66
0 5 -8 42.89 6.46
0 5 9 28.81 5.57
-5 0 9 25.71 4.91
0 -5 9 33.93 5.72
-5 5 9 28.3 5.25
-5 5 -9 29.1 4.14
0 -5 -9 25.36 2.98
0 -5 -9 33.81 4.37
5 0 -9 33.13 4.3
5 -5 9 27.56 4.76
5 0 9 29.43 2.74
-5 5 -9 44.42 6.62
-5 0 9 27.42 5.42
5 -5 -9 37.51 5.9
0 -5 9 32.55 3.27
0 5 9 31.38 3
5 0 9 30.93 6.75
5 0 9 37.23 3.47
-5 5 9 31.88 4.99
0 -5 -9 28.7 7.52
0 5 9 28.26 3.62
5 -5 9 32.43 2.77
-5 5 9 36.98 5.76
5 0 9 33.65 5.31
-5 0 -9 33.33 5.39
0 5 -9 32.48 4.26
5 -5 9 34.65 3.96
0 -5 -9 27.47 5.87
5 0 -9 25.4 5.94
-5 0 -9 30.85 5.33
0 -5 9 32.29 3.38
-5 0 9 40.64 8.08
5 0 9 37.31 5.69
5 -5 9 37.64 5.68
0 5 -9 31.24 5.81
-5 5 -10 39.29 5
5 0 10 52.77 9.22
-5 0 10 38.06 6.21
-5 0 -10 45.19 6.51
0 -5 -10 42.26 4.68
5 -5 10 38.06 5.68
5 0 10 33.63 2.84
0 -5 -10 39.26 8.82
-5 5 -10 62.99 7.99
-5 0 10 35.36 5.75
5 -5 -10 46.06 6.78
0 5 10 40.42 6.91
5 0 -10 42.58 4.98
0 5 10 40.22 3.3
0 -5 10 48.69 7.18
0 5 10 34.54 4.07
5 0 10 54.1 7.21
0 -5 10 47.54 4.33
-5 0 -10 34.68 5.72
5 -5 10 49.51 4.87
5 -5 10 41.01 2.79
5 0 10 41.36 5.79
0 -5 -10 34.59 6.81
5 0 -10 43.42 8.16
0 5 -10 43.12 4.8
0 -5 10 42.53 4.35
-5 0 10 43.44 8.83
-5 5 10 43.44 6.98
5 -5 10 47.89 6.69
0 5 -10 41.28 6.67
5 0 10 46.07 4.06
-5 0 11 161.06 13.59
-5 5 11 167.38 14.11
0 5 11 192.36 7.3
0 -5 -11 193.1 9.97
5 0 11 155.88 5.82
5 -5 11 164.43 11.88
5 0 -11 194.36 11.29
-5 5 -11 258.48 16.79
0 -5 11 217.28 15.84
-5 0 11 189.67 13.34
0 -5 11 204.25 9.69
5 -5 -11 201.53 14.23
0 5 11 173.14 15.12
5 0 11 216.07 19.64
5 -5 11 220.09 10.69
-5 0 -11 200.65 14.03
0 5 11 156.39 8.94
-5 0 -11 186.87 13.85
5 0 11 197.05 8.97
0 5 -11 198.11 10.47
5 0 11 177.3 12.22
5 0 -11 181.25 16.71
0 -5 -11 141.29 14.33
0 5 -11 172.69 14.18
0 -5 -11 197.17 20.48
-5 5 -11 190.15 11.62
5 -5 12 32.66 4.31
-5 0 12 23.6 5.48
-5 5 -12 29.04 4.65
5 -5 12 24.91 4.68
0 -5 -12 30.25 3.86
-5 0 12 32.01 5.32
5 -5 -12 34.1 5.92
5 0 -12 33.21 4.93
0 -5 12 38.22 6.76
0 -5 12 32.49 4.03
0 5 12 22.62 3.39
0 5 12 25.32 6.15
-5 5 12 24.85 5.75
-5 0 -12 28.06 5.37
5 0 12 29.36 3.72
-5 0 -12 32.42 6.04
0 5 -12 31.48 4.11
5 0 12 27.39 4.66
0 -5 -12 17.66 5.21
5 0 12 36.76 8.17
0 5 -12 30.29 6.1
5 0 -12 32.56 7.24
5 -5 13 22.72 4.18
0 5 -13 18.56 4.98
-5 5 -13 15.07 3.52
-5 0 13 13.32 4.09
-5 5 13 17.92 5
0 -5 -13 18.17 2.95
0 5 13 16.29 5.01
0 5 -13 19.87 3.2
0 -5 13 19.29 3.37
-5 0 13 23.58 4.35
0 -5 13 21.48 5.26
5 -5 13 20.87 3.48
5 -5 -13 21.12 4.78
5 0 -13 20.24 3.92
5 0 13 21.72 6.7
5 -5 13 21.47 5.02
-5 0 -13 23.09 4.96
0 5 13 14.54 2.98
5 0 13 17.38 3.18
0 -5 -13 12.35 4.3
5 0 13 16.08 3.66
5 0 -13 18.91 5.42
-5 0 -13 24.45 5.42
0 -5 14 2.75 0.17
-5 5 -14 5.06 2.35
0 -5 14 5.34 2.39
-5 0 14 7.2 2.9
0 -5 -14 3.03 1.02
5 -5 14 6.45 2.06
-5 0 14 6.3 2.09
5 0 -14 7.26 2.47
5 -5 14 9.83 3.52
5 0 14 11.72 2.57
5 -5 14 6.45 2.25
0 5 14 3.32 1.1
5 -5 -14 3.84 1.58
0 5 14 4.25 1.7
5 0 14 3.61 2.03
0 5 -14 4.6 2.74
-5 0 -14 2.06 0.6
0 5 -14 4.7 1.32
0 -5 -14 1.26 2.69
5 0 -14 4.06 2.56
-5 5 14 4.81 3.19
-5 0 -14 2.75 1.57
-5 0 15 83.66 11.41
-5 5 15 114.2 13.47
0 -5 -15 103.82 6.55
-5 5 -15 169.95 13.29
5 -5 15 141.08 11.09
5 -5 15 139.18 10.01
-5 0 15 172.07 10.54
5 0 15 142.12 18.69
0 -5 15 171.09 15.88
5 -5 -15 106.27 11.2
0 5 15 93.07 12.33
0 -5 15 153.53 10.91
5 -5 15 128.8 13.35
-5 0 -15 121.08 11.76
-5 0 -15 124.42 12.62
0 5 -15 138.5 8.06
5 0 -15 132.9 15.26
0 -5 -15 79.7 12.05
-5 5 -15 132.1 11.63
0 5 -15 123.06 13.57
5 0 15 112.46 8.88
5 0 -15 144.64 12.15
-5 0 16 35.01 7.58
-5 5 16 42.33 8.48
0 -5 -16 41.05 3.89
5 -5 16 61.05 7.63
0 -5 16 66.37 7.4
-5 5 -16 68.43 8.37
0 -5 16 74.7 10.79
0 5 16 40.69 8.11
5 0 -16 61.39 8.21
5 -5 16 61.44 6.89
5 -5 16 56.34 9.12
5 0 16 55.73 11.78
-5 0 -16 51.46 7.95
-5 0 -16 46.49 7.89
0 5 -16 53.62 4.87
5 0 -16 52.54 9.6
0 -5 -16 38.82 8.34
-5 0 16 66.97 6.11
-5 5 -16 50 7.33
0 5 -16 52.25 9.14
5 -5 -16 40.49 7.12
5 0 16 43.15 5.93
0 5 -17 39.52 7.79
-5 5 17 37.05 8.12
0 -5 -17 29.61 3.19
5 -5 17 51.19 7.04
0 -5 17 57.5 9.56
0 -5 17 55.62 7.23
5 -5 17 46.54 6.35
5 -5 -17 30.98 6.25
0 5 17 31.9 7.72
5 0 17 45.82 11
-5 0 -17 46.52 7.44
-5 0 -17 38.65 7.6
-5 0 17 54.56 4.97
5 0 -17 49.78 9.41
-5 0 17 33.69 7.79
0 -5 -17 36.68 8.12
5 -5 17 41.38 7.98
-5 5 -17 38.43 6.66
5 0 17 31.63 5.36
-5 5 -17 56.86 7.54
5 0 -17 48.03 7.71
0 -5 18 -0.2 0.34
-5 5 -18 0.01 1.04
5 -5 18 0.16 1.05
-5 0 18 0.28 0.78
-5 5 18 -0.47 1.54
0 5 -18 0.69 1.06
-5 5 -18 1.57 1.29
0 5 18 -1.04 1.45
0 -5 18 0.59 0.88
5 -5 -18 -1.61 2.08
5 0 18 0.83 2.12
5 -5 18 -0.48 1.59
-5 0 -18 0.05 0.16
5 0 -18 -0.76 0.68
0 -5 -18 2.22 2.22
-5 0 -18 -1.61 0.94
0 5 -19 11.67 4.27
0 -5 19 27.68 7.51
5 -5 19 17.05 5.47
5 -5 19 21.74 4.53
-5 0 19 14.12 5.24
-5 5 19 11.73 4.89
5 0 -19 23.52 6.83
-5 5 -19 25.05 5.34
-5 5 -19 14.51 4.24
-5 0 -19 17.66 4.63
0 5 19 17.86 6.12
0 -5 19 25.49 5.45
5 -5 -19 10.29 3.39
5 0 19 22.64 9.22
0 -5 -19 16.4 6.01
-5 0 -19 15.32 5.34
0 -5 -20 25.25 6.81
-5 0 20 24.91 7.13
-5 5 20 30.18 7.85
0 -5 20 50.48 9.96
5 -5 -20 22.51 5.88
5 -5 20 44.08 6.91
5 -5 20 44.22 9.7
-5 5 -20 45.33 7.25
-5 0 -20 41.86 7.6
5 0 20 51.71 13.05
5 0 -20 41.56 9
0 5 20 43.02 9.99
-5 0 -20 29.48 7.12
-5 5 -20 40.57 8.15
0 5 -20 35.35 8.42
0 -5 21 36.73 8.34
-5 5 -21 29.11 7.29
5 -5 21 33.88 6
0 5 21 28.89 7.89
-5 5 -21 35.34 6.44
-5 0 21 24.77 7.23
-5 5 21 18.06 6.18
5 -5 -21 19.67 5.04
5 0 21 38.75 10.75
5 -5 21 32.17 8.87
-5 0 -21 26.79 5.91
5 0 -21 32.21 7.67
0 -5 -21 24.73 7.18
-5 0 -21 21.16 6.21
0 5 -21 29.55 8.22
0 -5 22 5.9 4.16
5 -5 22 6.27 3.83
-5 0 22 -0.14 2.79
-5 5 22 3.72 3.53
0 5 22 1.9 0.68
5 -5 -22 2.43 1.48
-5 0 -22 1.09 1.04
5 -5 22 3.28 2.74
5 0 -22 3.69 3.54
0 -5 -22 3.42 2.32
-5 5 -22 6.91 4.07
5 0 22 -1.12 3.83
-5 0 -22 -1.4 2.7
0 5 -22 -0.31 1.6
5 -5 -23 1.07 1.53
0 -5 23 11.65 5.22
5 -5 23 7.59 3.87
-5 0 23 6.62 4.35
-5 5 23 0.65 1.62
0 5 -23 3.74 2.81
0 5 23 3.8 2.88
-5 0 -23 3.69 1.51
0 -5 -23 3.81 1.17
-5 5 -23 9.02 3.77
-5 0 -23 -1.13 1.96
-5 0 24 0.39 2.96
5 -5 -24 0.53 1.76
0 -5 -24 1.77 1.87
-5 0 -24 -1.61 0.97
5 -5 24 0.03 3.07
5 -5 -25 2.28 1.42
5 -5 25 12.53 7.2
5 -5 -26 1.27 1.28
-3 6 0 8.85 1.85
3 3 0 9.46 1.63
-6 3 0 10.06 2.67
3 3 0 7.15 2.51
6 -3 0 9.38 2.63
3 3 0 9.6 3.18
3 -6 0 8.48 2.09
-6 3 0 8.76 2.55
3 -6 0 9.35 2.38
3 3 0 15.31 3.24
-3 -3 0 7.56 2.12
3 -6 0 5.54 2.3
-3 6 0 7.91 2.28
-3 6 0 7.64 2.37
6 -3 0 9.65 2.37
3 3 0 13.04 2.79
-3 -3 0 9.15 2.66
-6 3 0 11.04 3.2
3 -6 0 6.43 2.24
-3 6 0 10.15 2.78
-6 3 0 8.99 1.91
-6 3 -1 1.71 0.81
-6 3 1 -0.46 0.44
-6 3 1 0.21 0.52
-3 6 1 0.23 0.36
3 -6 1 0.15 0.25
3 3 1 0.34 0.1
6 -3 1 0.75 0.8
6 -3 -1 0.84 1.02
3 3 -1 1.08 0.58
3 3 1 0.54 0.13
3 3 -1 0.77 0.98
3 -6 -1 0.62 0.66
3 3 1 0.8 0.66
3 3 1 1.47 1.71
3 3 -1 -0.13 0.66
3 -6 1 1.16 1.39
6 -3 1 2.49 1.24
3 -6 -1 0.72 0.92
-3 6 -1 1.11 1.02
-6 3 -1 2.42 1.42
-3 6 -1 0.77 1.03
-3 6 1 0.72 1.01
-3 6 1 1.2 0.58
-3 6 -1 0.47 0.56
6 -3 -1 2.44 1.03
-3 -3 -1 1 0.66
-3 -3 -1 -0.49 0.25
-3 6 1 1.54 0.78
3 3 -1 0.37 1.61
3 3 1 0.32 0.83
6 -3 1 0.5 0.36
-6 3 -1 1.41 0.73
-3 -3 1 4.27 1.63
-6 3 1 1.15 1.09
3 -6 1 0.48 0.09
3 -6 -1 -1.6 1.62
-6 3 1 1.26 0.81
3 3 1 -0.57 0.75
-3 -3 1 1.28 0.66
-6 3 -1 0.98 0.32
3 -6 1 0.37 0.94
-6 3 -1 0.35 0.66
-3 6 -1 0.02 0.17
3 3 -1 0.9 1.04
6 -3 2 39.49 5.51
3 -6 2 35.85 4.05
6 -3 2 32.37 4.24
3 3 -2 31.48 3.25
3 -6 -2 33.74 5.3
3 -6 -2 41.96 5.13
-6 3 -2 37.91 5.2
3 -6 2 26.38 4.85
-6 3 2 51.58 8.05
3 -6 -2 28.31 5.01
-3 6 -2 32.21 4.84
-3 6 -2 36.89 5.72
-3 6 2 33.39 4.62
6 -3 2 35.83 4.65
-3 -3 -2 33.75 5.38
6 -3 -2 36.39 4.96
3 3 -2 27.41 3.08
3 3 2 19.19 4.23
-3 6 2 32.32 5.11
6 -3 -2 42.02 5.15
-3 6 -2 33.99 4.56
6 -3 -2 38.42 5.47
3 3 -2 32.33 5.34
-3 -3 2 33.06 4.66
-6 3 -2 32.36 4.17
3 3 -2 34.74 5.83
-6 3 -2 44.73 5.64
3 3 2 32.24 5.41
-3 6 2 31.55 4.67
3 -6 2 29.21 4.36
3 -6 -2 28.19 5.59
3 3 2 30.11 4.34
3 3 2 27.71 5.84
-3 -3 -2 32.14 4.25
-3 -3 2 30.63 2.96
-3 6 -2 33.61 3.58
3 3 2 31.55 4.47
-6 3 -2 31.78 4.78
3 -6 2 34.57 4.63
3 3 -2 34.25 5.27
3 3 2 34.44 4.81
-6 3 2 30.97 4.86
-3 6 2 30.33 3.55
3 3 2 32.5 3.26
3 -6 3 1.43 0.81
3 3 3 0.75 0.59
-6 3 3 2.92 1.5
-3 6 3 0.88 0.7
6 -3 3 0.16 0.7
3 -6 -3 -0.36 0.19
3 -6 3 0.86 0.72
3 3 3 -0.88 1.74
3 3 -3 1.3 1.09
6 -3 -3 0.18 0.3
3 3 -3 1.47 1.09
3 3 3 2.05 1.34
-3 -3 -3 2.56 1.38
-3 6 -3 -0.45 0.46
6 -3 3 0.12 0.16
3 3 3 0.77 1.25
3 -6 3 0.21 0.73
3 -6 -3 0.37 0.88
-3 -3 3 2.9 1.85
-3 -3 3 2.35 1.54
-3 6 -3 0.96 0.84
-3 6 -3 1.46 0.94
6 -3 3 2.74 1.34
-3 6 3 1.07 0.55
3 3 -3 0.43 0.35
3 3 -3 -0.35 0.29
6 -3 -3 1 1.56
3 3 3 1.03 1.34
-3 6 3 2.72 1.59
-6 3 -3 0.38 0.61
3 3 3 3.28 1.32
6 -3 -3 2.36 2.14
-3 -3 -3 2.98 2.83
3 3 -3 -0.03 0.35
-6 3 -3 0.04 0.81
3 3 3 0.86 1.01
3 -6 3 1.31 1.17
3 -6 -3 3.18 2.54
-6 3 -3 -0.35 0.55
-3 6 -3 1.77 0.93
-3 -3 -3 1.19 0.97
-6 3 -3 0.56 1.13
-3 -3 3 1.6 0.88
-3 6 4 241.7 11.14
3 -6 4 295.8 11.89
-3 -3 -4 261.17 11.73
6 -3 -4 298.39 15.7
6 -3 4 251.59 13.19
3 3 4 270.97 12.82
3 -6 4 241.76 10.78
6 -3 -4 307.23 12.59
-3 -3 4 268.58 14.51
-3 6 -4 248.91 13.63
3 -6 4 231.93 14.96
3 -6 -4 237.67 14.76
-3 6 -4 322.54 17.33
-6 3 -4 256.85 7.58
6 -3 4 274.86 13.17
-3 6 4 259.92 12.5
3 3 -4 274.37 14.84
-3 6 -4 256.21 12.81
3 -6 -4 290.98 16.36
6 -3 -4 294.27 14.97
3 3 4 241.49 12.63
-3 -3 4 250.05 13.72
-3 -3 -4 253.06 15.56
-6 3 -4 259.75 12.95
6 -3 4 282.62 15.47
3 3 -4 238.63 15.6
3 3 4 278.17 16.3
3 -6 -4 196.26 16.17
-3 6 4 269.03 14.41
3 -6 4 265.23 13.24
-6 3 -4 283.17 14.23
-3 6 -4 250.35 10.56
3 3 4 174.25 14.01
-6 3 -4 242.19 13.41
3 3 4 195.94 16.94
3 3 -4 257.07 15.69
-3 -3 4 246.28 8.87
3 3 4 257.9 10.14
-6 3 -4 311.56 12.85
3 3 4 239.45 12.16
-3 -3 -4 261.19 11.88
-6 3 4 256.63 14.75
6 -3 4 313.25 16.05
3 3 5 1.17 0.83
-3 -3 5 1.46 0.91
6 -3 5 1.9 2.02
3 -6 5 3.29 1.79
-3 6 -5 0.94 1.45
3 -6 5 1.45 1.27
3 3 -5 0.71 1.87
-3 6 5 0.7 0.89
6 -3 -5 4.48 2.28
-3 6 5 3.22 1.3
6 -3 -5 2.18 2.7
-3 -3 -5 11.93 2.9
3 3 -5 0.4 0.92
-3 -3 5 0.46 0.88
3 3 5 0.09 0.36
3 -6 5 2.84 2.42
6 -3 5 0.26 0.7
3 3 5 5.83 1.92
3 3 5 1.02 1.61
3 -6 -5 3.13 2.79
-3 -3 5 -0.99 1.32
-3 6 -5 2.17 1.37
-6 3 -5 1.14 0.6
-3 6 -5 0.19 2.01
6 -3 5 2.24 1.49
-6 3 -5 1.45 1.85
3 -6 5 4.35 1.4
3 -6 -5 1.73 1.6
-6 3 5 2.52 2.39
-3 6 5 -0.07 0.54
3 3 5 -2.11 1.93
6 -3 5 2.93 2.02
-3 -3 -5 5.83 4.28
-6 3 -5 2.94 1.66
3 3 -5 1.62 2.37
6 -3 -5 1.76 2.6
3 3 5 1.04 1.07
3 -6 -5 1.94 2.75
-6 3 5 1.07 2.2
-6 3 -5 1.03 1.4
-6 3 -5 1.75 2.26
3 3 5 -0.26 0.98
3 3 5 3.41 2.87
-6 3 6 1049.21 31.56
-3 6 6 979.1 24.69
6 -3 -6 1207.69 31.28
6 -3 -6 1259.96 33.69
-3 -3 -6 999.9 23.25
-3 -3 6 1211.03 33.96
3 3 6 1125.76 25.38
3 -6 6 923.54 30.29
3 3 6 999.59 16.9
3 -6 -6 1024.05 31.25
-3 6 -6 1375.88 37.6
6 -3 6 1134.6 26.86
-3 6 6 1118.58 25.51
3 3 6 1119.89 33.47
3 -6 6 1163.58 28.56
6 -3 6 1356.63 34.33
-6 3 6 1597.21 52.41
3 3 6 887.62 34.86
-3 -3 6 1129.9 31.73
-6 3 -6 1164.4 28.64
6 -3 -6 1200.99 22.6
-3 6 -6 1050.61 28.51
6 -3 6 1013.07 29.23
-6 3 -6 1112.18 29.82
6 -3 6 1155.58 29.64
-3 -3 -6 1074.22 33.06
3 3 -6 1050.33 33.37
3 -6 6 956.14 17.58
3 -6 -6 750.44 34.88
3 3 6 1046.72 25.69
-6 3 -6 954.59 13.65
3 3 6 1085.33 27.59
-6 3 -6 1032.2 19.28
-3 6 6 1073.32 30.84
-6 3 -6 1005.46 28.36
3 3 -6 1029.18 33.93
3 3 6 1165.92 24.76
3 -6 -6 1255.62 35.81
3 3 6 789.43 36.1
3 -6 6 1235.21 25.22
-3 -3 6 1034.01 20.67
6 -3 7 2.48 3.08
3 -6 7 3.01 1.66
-6 3 -7 1.9 1.41
3 3 -7 -0.39 0.87
-3 -3 7 -0.6 0.68
-6 3 7 0.84 2.11
3 3 7 -0.04 0.4
-3 6 7 0.4 0.8
-6 3 -7 1.16 0.58
6 -3 -7 0.92 0.46
-3 -3 7 0.98 1.63
3 -6 7 -0.67 0.73
-3 -3 -7 5.8 2.68
6 -3 7 0.04 0.84
-3 6 -7 0.6 0.92
-3 -3 7 1.82 1.47
3 3 7 0.75 0.33
3 3 7 -0.82 1.09
-3 6 -7 0.16 0.96
3 -6 -7 2.19 2.38
6 -3 7 1.13 1.14
3 -6 7 1.19 1.67
3 3 7 0.49 0.05
3 -6 -7 0.79 0.09
-3 6 7 0.26 0.44
6 -3 -7 3.68 2.46
3 -6 7 1.12 0.73
-6 3 -7 1.41 0.78
6 -3 7 4.55 1.83
3 3 -7 -2.28 1.87
-3 -3 -7 2.49 2.89
3 3 7 -1.99 1.48
6 -3 -7 0.8 1.43
3 3 7 -1.71 1.78
3 -6 -7 0 1.64
-6 3 7 1.85 2.35
-6 3 -7 4.23 2.69
3 3 7 0.88 1.02
-6 3 -7 2.3 2.05
-3 6 7 1.48 0.82
3 3 7 0.27 0.73
-3 6 7 0.04 0.27
-6 3 -8 0.88 0.34
3 3 -8 2.91 2.41
-6 3 8 1.23 0.97
-3 -3 8 0.14 0.55
-3 -3 8 1.36 1.71
-3 6 8 2.8 1.11
3 3 8 1.78 1.18
6 -3 8 1.87 1.16
-6 3 8 1.88 1.38
-3 6 -8 1.21 1.47
-3 -3 8 -0.37 1.47
-3 -3 -8 0.72 0.56
6 -3 8 0.51 0.69
3 -6 -8 2.94 2
3 3 8 1 0.91
3 -6 -8 1.32 2.48
3 -6 8 3.09 1.53
3 -6 8 2.94 1.57
3 -6 -8 1.37 0.72
-6 3 -8 1.9 1.3
-3 6 8 0.56 0.32
6 -3 -8 1.65 1.82
3 3 -8 2.39 1.67
3 3 8 2.88 2.69
3 -6 8 1.25 0.55
-3 -3 -8 1.05 1.04
6 -3 -8 1.79 0.56
-6 3 -8 1.73 1.59
3 3 8 1.49 1.24
-6 3 -8 2.03 1.49
-3 6 8 1.59 0.63
3 3 8 0.06 0.3
-3 -3 -9 -0.25 0.16
3 3 -9 2.85 1.69
-3 -3 9 1.29 0.92
-6 3 9 0.46 0.94
-3 -3 9 0.22 0.6
-3 6 9 1.15 1.35
-3 6 -9 -0.15 1.08
-6 3 9 3.72 3.82
-3 -3 9 0.58 1.16
-6 3 -9 4.26 2.53
6 -3 9 1.2 0.81
3 -6 -9 -0.52 0.74
3 3 9 0.68 1.03
3 -6 9 0.5 0.63
3 -6 9 1.28 0.96
3 -6 -9 0.54 1.23
3 3 9 1.01 1.5
-6 3 -9 0.15 0.66
6 -3 -9 1.54 1.73
-3 6 9 2.83 1.17
3 3 9 0.45 0.87
3 3 9 1.01 1.75
6 -3 9 0.97 0.34
6 -3 -9 -0.01 0.33
-6 3 -9 0.47 0.73
-3 6 9 0.83 0.5
3 -6 -9 -2.19 2.98
3 3 -9 -0.58 0.98
-6 3 -9 -0.08 0.14
-6 3 10 149.88 13.39
-3 -3 10 122.57 9.55
-3 6 10 144.57 11.9
3 3 10 141.8 11.01
6 -3 10 156.48 9.86
3 3 10 163.26 10.18
3 -6 -10 131.3 11.55
6 -3 -10 162.97 11.77
-6 3 -10 224.38 18.11
-3 -3 10 170.26 14.59
3 3 10 160.95 16.59
6 -3 -10 150.7 12.21
-3 6 10 157.67 9.26
-6 3 -10 145.97 13.02
6 -3 -10 153.51 6.91
3 -6 10 171.98 12.14
3 3 -10 153.17 13.44
-6 3 -10 109.08 5.75
-3 6 -10 139.32 11.2
-3 -3 -10 149.62 13.53
6 -3 10 161.17 10
-6 3 10 213.27 22.11
3 -6 -10 81.87 12.95
-6 3 -10 150.46 10.71
3 3 -10 139.24 14.24
3 3 10 179.55 12.61
-3 6 10 111.18 4.97
-6 3 11 -1.05 0.79
-3 -3 11 0.61 0.87
-3 6 11 -0.44 0.69
6 -3 11 1.01 0.47
-3 -3 11 0.26 0.79
3 3 11 0.46 0.66
3 -6 11 -1.05 1.28
-6 3 -11 0.78 1.06
-3 6 11 0.73 0.46
3 -6 -11 1.63 2
-3 -3 -11 -0.7 1.24
-6 3 -11 0.99 1.16
6 -3 -11 0.64 0.99
3 3 11 2.15 1.87
6 -3 11 0.95 1.03
3 3 11 -0.69 0.92
-3 6 -11 1.59 1.57
3 3 -11 0.87 1.25
-3 -3 -11 1.38 0.52
3 3 -11 0.02 1.58
6 -3 11 1.38 1.13
-6 3 -11 -0.05 0.32
-6 3 -11 -0.34 1.37
3 -6 -11 0.16 1.63
6 -3 -11 0.65 0.68
3 3 11 0.27 0.42
3 -6 11 0.08 0.75
3 3 -12 7.15 3.14
-6 3 -12 10.47 3.03
-6 3 12 6.8 3.11
-3 -3 12 5.4 2.59
6 -3 12 8.11 1.89
-3 6 12 7.75 2.98
-3 6 -12 14.14 3.65
6 -3 12 10.84 2.64
3 -6 12 13.68 3.52
3 3 12 12.61 4.89
-6 3 -12 15.79 4.52
-3 -3 12 13.96 4.52
3 -6 -12 9.08 3.28
3 3 12 9.99 2.63
6 -3 -12 9.3 2.87
3 -6 12 8.61 2.76
-3 6 12 10.32 2.45
6 -3 12 10.28 3.84
3 3 12 11.44 3.24
3 3 -12 10.29 4.02
-3 -3 -12 14.03 4.49
-6 3 -12 5.61 1.38
-6 3 -12 6.11 2.85
3 -6 -12 12.88 5.02
6 -3 -12 10.6 1.71
3 3 12 8.69 2.89
-6 3 13 2.47 2.14
-3 -3 13 2.13 2.21
-3 6 13 1.84 1.56
3 3 13 -0.51 1.05
6 -3 13 1.47 1.25
3 -6 13 1.36 0.62
6 -3 13 0.09 0.14
-3 6 -13 1.1 1.58
3 3 13 -0.23 1.15
3 -6 13 0.13 0.82
-6 3 -13 -0.07 0.44
3 3 13 -0.35 1.06
6 -3 -13 -0.36 0.84
6 -3 13 2.48 2.28
3 3 -13 -2.63 2.8
-6 3 -13 -0.26 0.64
3 3 13 -0.69 1.32
3 -6 -13 -1.38 1.23
6 -3 13 0.13 0.07
-6 3 -13 -0.83 1.1
3 -6 -13 -1.57 3.37
6 -3 -13 0.62 0.1
3 3 13 2.14 1.19
-6 3 -13 1.96 1.57
3 -6 13 0.56 0.43
-3 -3 -13 -0.23 1.53
3 3 -13 0.01 1.57
6 -3 14 41.43 8.48
-3 -3 14 28.8 5.83
-3 6 14 31.51 6.65
3 3 -14 32.31 7.54
-6 3 14 25.6 6.41
3 -6 -14 28.03 5.61
6 -3 -14 30.79 2.92
-6 3 -14 39.24 5.51
3 -6 14 37.88 6.21
3 3 14 24.2 5.47
3 3 14 43.33 9.44
6 -3 14 29.94 2.7
3 -6 14 37.35 6.36
-6 3 -14 18.49 2.56
-6 3 -14 31.35 7.25
3 3 -14 35.74 6.98
6 -3 -14 30.51 6
-3 -3 -14 33.49 6.97
3 3 14 36.43 4.75
6 -3 14 30.83 4.27
-6 3 -14 40.11 7.7
3 -6 -14 28.57 8.28
3 -6 14 35.2 5.6
-3 6 -14 31.72 5.95
6 -3 14 29.57 4.35
-6 3 -15 -0.52 0.91
6 -3 15 -0.04 0.59
-3 6 -15 1.25 1.52
-6 3 15 -0.14 2.07
-3 -3 15 -1.71 1.97
-3 6 15 0.87 1.72
6 -3 15 -0.88 0.98
3 -6 15 1.59 1.6
3 3 15 2.72 1.78
-6 3 -15 -0.54 0.9
-6 3 -15 3.05 2.18
3 3 15 -2.07 2.38
6 -3 -15 -0.73 1.06
6 -3 15 0.43 2.51
3 3 -15 2.06 1.63
-3 -3 -15 -2.25 2.58
3 -6 -15 -0.61 1.13
-6 3 -15 -0.53 2.1
3 -6 -15 -0.02 0.62
3 -6 15 3.25 2.56
3 -6 15 -1.91 2.11
3 3 -15 -1.62 1.84
6 -3 -15 1.1 0.7
3 3 -16 173.24 16.45
-6 3 16 125.71 14.96
-3 -3 16 122.69 13.41
-3 6 16 129.32 14.71
-3 -3 -16 132.98 14.34
6 -3 -16 119.74 12.39
3 -6 -16 117.95 11.65
6 -3 16 166.88 8.34
-6 3 -16 181.2 12.49
3 3 16 193.19 21.23
3 -6 16 177.48 14.75
3 -6 16 171.59 14.93
-6 3 -16 120.77 15.63
3 3 16 178.33 12.6
3 -6 -16 121.88 17.59
3 3 -16 143.49 17.65
-3 6 -16 139 13.45
6 -3 16 132.58 8.81
6 -3 16 178.59 18.37
-6 3 -16 222.67 18.47
-3 6 -17 -0.32 0.69
3 -6 -17 -0.37 0.38
-6 3 17 0.9 1.48
6 -3 17 -1.64 1.94
-3 -3 17 0.44 1.89
-3 6 17 -0.18 0.94
3 -6 17 1.2 1.12
3 3 -17 -1.67 1.56
-6 3 -17 -0.67 0.71
3 3 17 -0.87 1.68
6 -3 -17 -0.34 0.96
3 -6 17 -2.36 2.52
-3 -3 -17 -0.55 2.11
-6 3 -17 -4.06 3.21
3 -6 -17 -3.06 3.52
-6 3 -17 -1.82 2.05
-3 -3 18 69.35 10.94
-3 6 18 61.96 10.85
-6 3 -18 110.32 13.32
6 -3 -18 54.05 8.5
-6 3 18 59.05 10.54
3 -6 -18 60.9 8.45
3 3 18 111.18 16.26
3 -6 18 94.28 11.6
3 -6 18 84.45 11.61
6 -3 18 96.72 14.64
-6 3 -18 73.46 12.63
-3 -3 -18 61.8 10.13
3 -6 -18 74.91 14.04
3 3 -18 73.18 12.67
-3 6 -18 70.9 10.44
-3 6 -19 -0.41 0.4
3 -6 19 -0.85 1.81
-6 3 19 -0.72 1.91
-3 -3 19 -0.72 2.55
-3 6 19 0.41 1.77
-6 3 -19 -1.65 1.9
3 3 19 -1.15 4.86
6 -3 -19 -0.05 1.31
3 -6 19 3.75 1.87
-3 -3 -19 -0.57 2.12
3 -6 -19 -3.93 2.86
3 -6 -19 1.36 1.42
3 3 -19 -1.43 2.07
6 -3 19 1.54 0.96
-3 6 -20 38.57 8.05
-6 3 20 26.87 7.65
-3 -3 20 40.06 8.83
-3 6 20 26.79 7.5
3 3 20 53.96 11.92
3 -6 -20 29.02 5.86
3 -6 20 50.53 9.67
6 -3 20 49 11.27
6 -3 -20 26.28 5.97
-3 -3 -20 41.6 7.44
-3 -3 -20 32.51 7.46
3 -6 20 48.99 8.52
-6 3 -20 47.21 10.03
3 -6 -20 42.3 11.02
3 3 -20 40.93 10.04
-3 6 -21 3.94 2.82
-3 -3 -21 -1.01 0.32
-6 3 21 -0.95 2.36
-3 -3 21 -1.68 2.1
-3 6 21 2.66 2.05
3 -6 21 -1.71 1.86
6 -3 21 5.65 4
3 3 21 1.01 2.07
3 -6 21 -3.59 3.58
3 -6 -21 -0.38 0.86
-3 -3 -21 2.43 2.36
-6 3 -21 2.49 1.29
3 -6 -21 -3.15 4.27
3 3 -21 -4.1 3.71
6 -3 -21 -0.6 1.74
-3 -3 -22 23.04 5.65
3 -6 22 26.8 6.81
-6 3 22 18.78 6.98
-3 -3 22 15.22 4.55
-3 6 22 10.5 5.17
3 3 -22 21.59 7.44
6 -3 -22 10.05 3.85
3 3 22 24.87 7.97
3 -6 22 30.74 7.85
6 -3 22 32.81 9.79
-3 -3 -22 21.05 5.91
-6 3 -22 22.51 7.45
3 -6 -22 11 3.83
-3 6 -22 22.73 6.87
-3 -3 -23 0.83 1.26
3 -6 23 -1.02 1.33
-3 -3 23 1.08 3.55
-3 6 23 1.22 2.24
-3 6 -23 0.19 2.38
6 -3 -23 -2.9 2.66
3 -6 23 -2.75 3.24
-3 -3 -23 0.07 2.43
3 -6 -23 -1.25 4.71
-3 -3 -24 9.89 3.58
3 -6 24 20.2 5.92
-3 -3 24 11.49 4.21
3 -6 24 24.34 7.05
6 -3 -24 10.58 3.9
-3 -3 -24 16.7 6.1
-3 6 -24 11.75 5.15
-3 -3 -25 -1.24 0.93
3 -6 25 -2.25 3.97
-3 -3 25 -2.67 4.37
-3 -3 -25 -4.04 4.72
-3 6 -25 -2.42 3.91
-3 -3 -26 17.75 5.13
6 -2 0 59.38 6.65
4 2 0 50.54 4.72
6 -4 0 60.59 6.82
6 -4 0 44.3 4.43
2 4 0 34.54 1.99
2 4 0 55.48 6.41
2 -6 0 44.53 6.38
4 -6 0 45.92 6.42
-4 -2 0 48.87 4.95
-6 4 0 46.5 4.36
4 2 0 47.5 6.09
2 -6 0 25.93 4.34
-2 6 0 48.16 6.16
-2 6 0 52.63 6.34
-4 6 0 48.79 5.34
-6 4 0 50.12 3.54
6 -4 0 57.75 6.41
-4 6 0 52.2 6.14
-4 6 0 61.38 6.72
2 4 0 46.81 5.84
2 4 0 46.64 3.68
6 -2 0 51.65 5.71
-2 -4 0 52.76 5.61
4 2 0 46.61 5.95
-6 4 0 59.57 6.6
6 -2 0 55.9 5.95
2 4 0 50.25 6.2
4 2 0 51.93 7.24
2 4 0 45.03 6.47
2 -6 0 49.61 6.21
4 2 0 47.63 5.53
-2 -4 0 48.1 5.58
-6 2 0 45.41 6.52
-2 -4 0 46.22 6.21
-4 -2 0 46.59 4.65
-2 6 0 51.96 6.06
-2 6 0 49.19 3.52
-6 2 0 48.45 5.94
-4 6 0 55.9 5.29
-6 4 0 59.64 6.48
2 -6 0 47.1 5.7
-6 4 -1 14.76 3.27
4 2 1 16.84 2.83
6 -2 1 20.18 3.91
-6 4 1 14.31 3.22
6 -4 -1 13.71 2.37
2 4 1 12.32 1.38
4 2 -1 16.02 2.7
2 4 -1 15.53 3.48
4 2 -1 14.79 3.73
-6 4 1 17.35 3.6
6 -4 1 17.11 2.87
4 2 1 13.65 3.2
6 -4 1 18.22 3.89
2 -6 1 17.47 2.58
2 4 1 16.06 4.27
2 4 1 17.62 3.75
6 -2 -1 17.09 3.6
2 -6 -1 16.15 3.31
6 -4 -1 17.49 3.63
-6 2 1 21.51 3.75
-2 6 1 15.01 2.12
2 4 -1 15.61 3.46
2 4 1 15.93 3.45
-6 4 -1 17.14 3.01
2 4 -1 16.2 3.57
4 2 1 14.85 4.06
2 -6 1 12.65 3.52
2 -6 -1 13.59 3.6
-2 6 1 14.57 3.58
-4 -2 -1 13.31 2.4
-2 6 1 19.03 3.84
4 -6 1 14.25 3.79
-2 -4 -1 20.76 4.88
-2 -4 1 17.15 3.44
-6 2 1 13.96 3.33
4 -6 -1 20.12 4.5
-4 6 1 22.35 3.85
-2 6 -1 18.48 4.08
-2 6 -1 15.32 3.61
-2 6 1 13.71 3.16
6 -2 1 17.57 3.34
2 -6 1 19.36 4.26
2 4 1 16.7 3.5
2 4 1 14.56 2.44
6 -4 1 17.86 3.6
-4 6 -1 19.18 3.84
-6 2 -1 11.93 1.33
6 -4 -1 15.05 3.44
4 2 -1 16.06 3.48
-2 6 -1 15.65 3.45
-4 6 1 12.63 2.8
6 -2 -1 21.43 4.01
-4 6 -1 15.01 2.89
-6 4 -1 17.55 3.61
4 2 1 16.13 3.69
-6 4 1 16.39 2.47
6 -2 -1 18.78 3.44
2 -6 -1 19.01 4.53
4 2 1 17.06 3.41
-6 4 -1 14.16 1.69
-2 -4 1 15.1 3.39
-2 -4 1 16.85 3.74
4 2 -1 19.35 4.34
6 -2 1 17.89 3.54
4 2 1 16.77 4.38
-2 -4 -1 14.82 3.01
2 4 -1 18.85 4.04
2 -6 1 15.54 3.48
-4 -2 -1 16.65 2.98
-2 6 -1 17.61 2.15
-4 -2 1 13.81 2.56
-4 -2 -1 16.74 3.1
-4 6 -1 15.45 2.83
2 -6 1 17.07 3.53
-4 6 1 14.6 2.76
-6 2 1 13.5 3.9
-4 6 -1 16.97 3.45
-6 2 -1 13.21 2.94
-6 2 -1 15.65 3.57
-6 4 1 16.57 2.34
6 -2 2 364.01 16.84
6 -4 2 383.27 17.5
4 -6 2 338.61 14.27
2 4 -2 295.99 15.72
-4 -2 -2 321.56 13.55
4 2 -2 299.86 16.92
4 2 -2 303.67 12.02
-4 6 2 323.34 14.49
2 -6 2 356.71 11.29
6 -4 2 306.72 13.32
2 4 2 308.7 15.03
-6 2 2 377.75 14.52
2 4 -2 307.34 19.1
2 -6 2 269.08 16.1
2 4 2 332.56 14.17
2 -6 -2 269.36 15.67
-2 6 -2 309.05 15.69
4 -6 2 288.33 16.4
4 -6 -2 316.71 17.3
-2 6 -2 351.78 17.42
-4 6 -2 319.09 15.17
-2 -4 2 314.11 15.03
-6 4 -2 317.67 13.26
-2 6 2 334.34 15.01
-2 6 2 306.91 16.26
6 -4 2 348.4 16.04
4 2 2 297.49 18.78
-4 6 -2 307.36 13.08
-4 6 -2 391.43 17.98
-4 -2 -2 295.02 10.89
-2 -4 -2 302.62 13.83
6 -4 -2 367.63 16.88
-4 6 2 354.61 15.67
6 -2 2 338.98 13.99
6 -2 -2 352.88 15.39
2 4 2 309.77 15.18
-6 4 -2 340.25 15.73
-2 6 -2 317.24 14.87
4 2 2 295.55 17.38
4 2 -2 301.96 13.5
6 -2 2 357.72 16.43
-6 4 2 353.92 16.6
-6 4 -2 294.06 7.04
6 -2 -2 343.18 14.01
6 -2 2 364.63 19.47
-2 -4 2 287.29 14.78
-2 6 2 294.58 15.07
-2 -4 -2 298.79 16.28
4 2 -2 302.07 18.37
-2 -4 2 311.75 15.08
4 2 2 320.05 18.01
2 4 -2 307.67 16.73
4 2 2 313.06 14.19
2 -6 2 274.95 13.07
-6 4 2 305.85 9.86
2 4 2 323.67 17.84
2 -6 -2 267 15.94
-6 2 -2 326.01 13.3
6 -2 -2 348.96 16.4
-6 2 2 282.8 19.61
-6 2 -2 326.11 13.76
-4 -2 2 301.06 13.7
-2 6 -2 307.39 9.29
2 -6 2 327.7 15.23
-4 -2 -2 288.72 12.23
6 -4 -2 368.45 17.34
-4 6 -2 293.47 12.16
-6 2 -2 308.34 15
-4 -2 2 295.12 11.67
-6 4 -2 299.95 14.92
4 2 2 308 14.22
-6 2 2 304.12 15.26
-6 4 2 303.32 15.28
-2 6 2 296.47 9.55
-4 6 2 312.45 13.22
2 4 2 309.25 12.82
2 4 2 275.44 7.32
4 2 2 333.31 12.75
6 -4 3 364.87 17.34
6 -2 -3 339.17 13.67
2 4 -3 296.44 16.15
6 -2 -3 335.16 15.37
2 -6 3 331.18 10.46
4 2 3 312.92 13.77
6 -2 -3 344.43 16.56
6 -4 -3 350.28 17.24
-2 -4 -3 313.8 17.11
-4 -2 -3 315.86 13.6
4 2 -3 353.14 13.34
6 -4 3 286.12 13.62
2 4 -3 326.42 18.91
2 4 3 314.45 15.26
-2 6 -3 285.94 15.22
2 -6 3 259.14 15.88
2 4 3 315.94 12.89
2 -6 -3 268.03 15.55
4 -6 3 278.51 16.13
-4 6 -3 309.62 14.84
-2 6 -3 365.93 18.4
4 -6 -3 311.14 17.42
-2 -4 3 329.53 15.86
6 -4 3 323.75 15.59
-4 6 -3 379.76 18.32
-2 6 3 311.37 13.99
-2 6 3 315.76 16.76
-6 4 -3 313.12 10.85
-6 4 -3 257.58 5.99
4 2 3 275.59 18.51
6 -2 3 336.66 13.61
4 2 3 297.23 13.24
6 -4 -3 373.51 17.21
-4 6 3 320.23 14.62
-4 6 -3 313.16 13.31
-2 -4 3 312.22 15.49
2 4 3 302.61 14.3
-2 6 -3 310.3 14.85
-2 -4 -3 307.48 13.96
4 2 3 292.28 18.07
4 2 -3 309.34 12.79
-4 6 3 294.29 13.21
-2 -4 -3 292.24 13.38
6 -2 3 345.02 16.71
2 4 3 288 14.45
-4 -2 3 291.48 14
-6 4 3 352.87 16.74
-4 -2 -3 288.15 16.77
-6 4 -3 313.96 14.2
-6 2 3 367.33 14.4
-2 -4 3 284.08 14.55
2 4 3 293.17 8.33
6 -2 3 344.97 18.63
-4 6 -3 288.27 12.24
4 2 3 309.65 14.35
4 2 3 301.82 17.53
-2 6 3 312.09 15.87
2 4 -3 306.35 16.74
2 -6 3 277.66 12.45
-6 2 -3 315.63 13.76
2 4 3 302.56 17.34
2 -6 -3 264.5 16.57
4 2 -3 292.63 18.15
-6 2 3 275.47 20.2
-4 6 3 307.26 14.44
2 -6 3 316.88 15.14
4 2 -3 278.63 17.1
-6 2 -3 316.71 10.92
-6 4 -3 344.45 16.14
-6 2 -3 288.2 14.58
-6 4 -3 287.6 14.58
-4 -2 3 287.9 11.63
4 -6 3 315.05 13.72
-6 2 3 295.45 15.33
-6 4 3 300.06 15.77
4 2 3 330.27 13.06
-2 6 3 281.89 9.93
6 -2 3 383.55 17.45
-4 6 4 698.6 20.96
-2 6 4 664.08 16.31
2 -6 4 758.47 15.8
-4 6 -4 702.94 20.14
6 -2 4 733.25 22.89
6 -2 -4 806.26 25.56
2 4 -4 812.61 28.09
2 4 4 673.74 20.11
4 2 -4 728.17 19.86
-4 -2 -4 685.75 19.7
-6 2 4 856.98 21.73
-4 -2 4 770.16 24.83
6 -4 4 671.36 22.04
-2 6 -4 669.92 23.4
2 4 4 717.24 22.47
4 -6 4 624.05 24.18
2 -6 -4 618.12 23.3
2 4 4 685.6 17.56
-4 6 -4 706.01 22.16
-2 -4 4 755.68 25.14
-2 -4 -4 709.99 21.37
-2 6 -4 889.75 29.34
4 -6 -4 696.33 26.07
-6 4 -4 708.43 15.87
6 -4 4 747.57 23.8
-2 -4 -4 660.32 21.83
6 -2 4 830.33 26.92
-4 6 -4 910.73 29.19
-2 6 4 700.3 20.18
6 -2 4 753.28 20.42
6 -4 -4 827.47 25.88
4 2 4 641.19 29.64
-2 6 -4 715.85 22.81
2 4 4 677.1 23.07
4 2 4 710.84 20.33
-6 4 4 1025.23 30.85
-6 4 -4 789.1 24.22
6 -2 -4 754.87 23.71
4 2 4 688.78 29.42
-2 6 4 665.66 24.69
-4 -2 4 703.01 22.86
2 4 4 678.47 22.64
-6 4 -4 727.53 22.89
-2 -4 -4 674.32 18.15
2 -6 -4 814.85 28.9
-2 -4 4 705.81 23.83
6 -2 -4 751.82 19.73
6 -2 4 868.54 26.77
6 -2 4 767.94 27.26
4 2 -4 685.09 28.2
-2 -4 -4 716.48 26.51
2 -6 4 648.19 17.85
2 4 -4 730.04 25.9
4 2 4 706.6 26.73
-6 2 -4 696.18 21.29
4 2 -4 652.13 26.98
2 4 4 747.33 27.35
2 -6 -4 570.24 25.44
4 -6 4 725.87 21.58
-4 -2 -4 693.04 26.02
4 2 4 766.23 20.19
2 -6 4 756.56 23.56
-2 6 4 716.24 24.3
-4 6 4 754.45 23.73
-4 6 -4 693.85 19.44
-6 2 -4 666.07 22.61
-6 4 -4 659.12 22.07
4 2 4 693.29 21.21
4 -6 4 744.68 21.24
2 4 4 700.56 14.49
-4 -2 4 678.22 18.43
-6 4 4 827.41 26.27
4 2 4 726.07 19.92
-6 2 4 705.72 24.43
6 -4 -4 844.54 27.02
-4 6 4 761.92 22.45
-6 4 4 699.23 24.44
2 4 -4 707.13 25.75
6 -4 4 874.56 27.11
-6 4 5 695.69 25.14
2 -6 5 743.84 16
-4 6 5 670.67 21.24
-2 6 5 627.25 17
-2 -4 -5 667.06 17.86
6 -2 5 677.07 22.85
4 2 -5 682.59 28.81
6 -2 -5 785.75 25.47
6 -4 -5 815.15 27.03
-6 2 5 802.57 20.8
-4 -2 5 750.19 26.3
4 2 -5 710.18 20.3
4 -6 -5 838.96 27.28
6 -4 5 642.26 23.03
-4 6 -5 682.56 21.83
2 4 5 699.99 22.3
4 -6 5 624.1 24.29
-6 4 -5 699.59 15.46
2 -6 -5 576.81 22.42
-2 -4 5 748.13 25.61
2 4 5 649.64 15.91
-2 6 -5 875.59 29.72
6 -4 5 738.52 23.38
4 -6 -5 696.55 26.24
-6 2 -5 931.03 37.3
-6 4 5 802.38 25.98
-4 6 -5 880.6 29.22
6 -2 5 720.36 19.73
-2 6 5 665.1 19.31
-2 6 -5 705.44 22.88
-4 6 -5 689.33 20.03
6 -4 -5 777.79 25.29
4 -6 -5 777.46 27.34
4 2 5 595.33 29.39
-4 6 5 730.37 21.69
-6 4 -5 775.79 24.34
2 -6 -5 840.34 30.58
2 4 5 640.68 24.14
-4 -2 5 702.06 23.9
4 2 5 701.55 20.13
6 -2 -5 761.82 19.49
4 2 5 673.75 30.88
6 -2 -5 722.03 23.79
-4 6 5 725.81 24.13
4 2 5 665.78 14.27
-2 -4 5 590.81 9.68
-6 4 -5 680.48 23.54
-2 -4 5 701.46 24.61
2 -6 -5 506.01 25.18
-4 -2 -5 693.21 26.51
6 -2 5 748.67 25.87
-6 2 -5 720.65 22.73
-6 4 5 1058.92 33.92
4 2 5 708.44 26.6
2 4 5 666.51 20.02
2 4 5 718.6 27.19
4 -6 5 669.81 18.26
2 -6 5 759.69 23.92
-2 -4 -5 678.9 26.47
2 4 5 658.02 22.72
-2 6 5 678.79 24.3
4 2 -5 623.35 27.18
2 -6 5 635.6 16.82
-2 6 -5 662.25 23.48
4 -6 5 752.32 21.35
-4 -2 -5 724.29 20.53
-4 6 -5 645.66 19.16
-6 2 -5 659.59 22.85
-6 4 -5 680.08 22.97
2 4 5 716.43 16.32
4 2 5 733.14 20.43
4 2 5 671.13 20.98
2 4 -5 792.8 25.96
2 4 -5 678.55 25.9
-4 -2 5 672.41 19.04
6 -2 5 891.03 27.81
6 -4 5 838.98 27.01
2 4 -5 676.58 24.8
-6 2 5 671.64 24.24
4 2 5 713.3 18.86
-6 2 6 116.56 10.56
-6 4 6 116.83 10.83
4 2 6 119.32 7.48
-4 6 6 111.56 9.02
-2 6 6 99.91 7.33
-6 2 6 137.9 8.66
6 -2 6 102.5 9.34
-4 -2 6 125.93 11.13
-2 -4 -6 110.99 7.46
6 -2 -6 129.61 10.65
6 -4 -6 133.61 11.4
-2 6 -6 102.66 9.49
2 -6 -6 122.4 12.16
-4 -2 -6 124.19 8.83
-6 4 -6 116.1 6.33
-4 6 -6 114.44 9.26
-2 -4 6 121.88 10.66
6 -2 -6 125.7 10.25
-2 -4 6 110.79 10.26
4 -6 6 94.96 9.71
2 -6 -6 91.73 9.21
2 4 6 115.6 9.47
4 2 -6 107.86 11.72
-2 6 -6 143.38 12.44
4 2 6 113.64 8.15
2 4 6 99.44 5.64
6 -4 6 127.09 9.71
4 -6 -6 109.59 10.67
-4 6 -6 148.6 12.4
6 -2 6 126.81 8.4
-6 2 -6 167.64 16.07
-2 6 6 111.72 7.78
2 4 6 102.98 10.35
6 -4 -6 129.88 10.71
-4 -2 6 114.16 10.2
-6 4 -6 139.55 10.59
-4 6 6 119.42 8.66
4 2 6 83.52 11.04
2 -6 6 128.05 10.58
4 2 6 102.59 12.78
4 2 6 101.47 4.77
2 -6 6 100.11 6.24
-6 4 -6 114.05 10.33
4 2 6 109.42 8.64
2 4 6 106.87 9.33
6 -4 6 117.89 8.91
-4 -2 -6 117.8 11.21
6 -2 6 125.9 10.24
-2 -4 -6 96 10.49
2 4 -6 111.06 9.99
2 4 6 107.92 8.15
-6 4 6 174.81 14.35
2 -6 6 128.99 10.22
4 2 6 101.64 10.04
4 -6 6 110.78 6.45
2 4 6 117.93 11.07
2 -6 -6 83.16 10.73
-6 2 6 120.87 14.95
4 2 -6 98.97 11.44
-2 6 6 103.44 9.91
4 -6 6 124.69 8.8
4 -6 -6 130.49 11.66
2 4 -6 118.67 9.44
-4 6 -6 110.31 8.29
-6 2 -6 116.33 9.73
-6 4 -6 109.09 9.39
4 2 -6 106.36 5.13
2 4 6 111.82 7.1
6 -2 -6 114.14 7.52
4 2 6 123.19 8.78
-4 6 6 120.35 10.26
2 4 -6 121.37 11.33
6 -2 6 153.64 11.85
-2 -4 6 100.09 4.78
6 -4 6 134.64 10.97
2 -6 6 121.43 6.63
-4 -2 6 108.33 7.95
-6 2 -6 122.61 10.04
-4 -2 7 215.16 11.71
-2 -4 7 209.24 8.04
-6 2 7 223.44 14.83
-6 4 7 222.56 15
4 2 -7 194.27 16.64
-4 6 7 217.61 13.11
4 2 7 244.21 10.31
-6 2 7 250.38 11.71
-2 6 7 205.14 11.37
2 -6 -7 184.97 5.85
-4 -2 7 269.26 17.13
-2 6 -7 216.92 13.97
-6 4 -7 223.59 8.96
6 -2 -7 253.84 15.4
-2 -4 -7 217.66 10.33
-4 6 -7 221.51 12.76
-4 -2 -7 228 11.91
-2 -4 7 258.31 16.28
4 -6 7 198.06 14
4 2 7 224.62 19.47
2 -6 -7 199.08 13.42
6 -4 7 236.47 13.25
2 4 7 221.92 12.94
4 -6 -7 258.81 16.6
2 4 7 177.05 6.75
6 -2 7 239.28 11.49
4 -6 -7 246.02 16.22
-2 -4 -7 210.77 15.28
4 2 -7 221.85 7.91
-4 -2 7 238.75 15.59
-2 6 7 215.6 10.45
6 -4 -7 267.5 15.68
2 4 7 186.97 14.6
2 -6 -7 269.37 18.54
-6 2 -7 309.27 21.64
-4 6 7 247.78 12.27
6 -2 -7 226.44 14.18
-2 -4 7 240.74 15.33
4 2 7 228.16 11.66
-6 4 -7 234.36 15.67
2 -6 -7 165.05 15.25
-6 2 -7 227.02 13.84
4 2 -7 245.93 18.31
-4 -2 -7 230.12 15.9
2 -6 7 209.79 8.48
2 4 7 210.16 11.49
2 4 -7 253.26 12.64
2 -6 7 244.18 14.4
2 4 7 220.39 13.7
6 -2 7 244.43 14.14
-2 -4 -7 212.96 15.56
2 4 -7 228.54 14.53
-6 4 7 360.41 21.75
4 -6 7 199.56 7.41
-2 6 7 187.79 7.97
4 -6 7 250.71 12.67
6 -2 -7 237.14 10.47
-6 2 7 274.5 23.62
-6 4 -7 272.45 14.89
6 -4 7 238.7 12.12
-6 4 -7 214.37 13.1
-6 2 -7 224.9 13.82
2 4 7 235.08 11.48
4 2 7 264.09 13.52
2 4 -7 219.91 15.72
6 -2 7 275.7 15.96
2 -6 7 239.98 9.74
4 -6 7 259.48 13.18
4 2 7 184.11 5.57
-4 6 7 239.49 14.9
-4 6 8 313.78 17.85
-4 -2 8 250.57 13.42
-6 2 8 271.25 16.97
-6 4 8 271.74 17.03
-6 4 -8 269.75 10.02
-2 -4 8 254.87 10.02
-6 2 8 331.37 13.45
-4 6 8 270.33 15.29
-4 6 8 296.41 13.7
-6 2 -8 260.3 15.15
-4 -2 8 341.04 20.52
-2 6 -8 269.83 15.76
-2 6 8 263.39 13.69
4 2 8 311.8 11.41
-4 6 -8 287.77 14.85
4 2 8 287.97 13.5
-2 -4 -8 258.89 11.34
2 -6 -8 219.22 6.24
4 -6 8 248.22 15.77
2 -6 -8 244.86 14.89
6 -4 8 287.5 14.56
6 -2 8 291.33 12.47
2 4 8 292.76 15.06
4 -6 -8 282.04 17.51
2 -6 8 251.55 8.6
2 4 8 224.77 6.19
-4 -2 8 294.84 17.94
-6 4 -8 348.36 17.01
6 -4 -8 337.78 17.99
-2 6 8 282.76 11.92
4 2 -8 303.78 10.11
2 4 8 220.54 16.5
2 4 -8 335.19 13.44
4 2 8 261.32 22.09
-2 -4 8 322.54 18.49
-2 -4 -8 259.94 17.64
6 -2 -8 273.32 16.12
-6 2 -8 398.39 24.35
-6 4 -8 308.69 19.03
2 4 -8 293.51 16.6
2 -6 -8 356.54 22.43
-6 2 -8 286.42 16.12
-4 -2 -8 286.67 17.75
6 -4 8 291.77 12.86
6 -2 -8 305.07 11.9
6 -2 8 295.52 15.33
-2 6 8 231.88 8.74
-2 -4 -8 252.06 17.29
4 -6 8 216.39 6.22
2 4 8 268.94 15.55
-6 4 8 438.87 25.49
4 -6 8 302.27 14.3
2 -6 -8 202.3 17.6
-6 2 8 376.04 28.68
4 2 -8 252.92 19.47
2 4 8 251.57 12.58
4 2 -8 331.39 21.73
-6 4 -8 264.7 15.17
2 4 8 308.7 14.35
4 2 8 331.06 15.85
2 4 -8 280.82 18.19
2 -6 8 316.42 11.79
2 -6 8 320.04 16.65
4 -6 8 337.19 15.39
-6 2 9 551.7 24.85
-4 -2 9 520.37 20.35
-6 4 9 539.9 24.58
-2 6 -9 542.76 22.8
-2 -4 9 507.92 16.1
-4 -2 9 716.66 30.92
-4 6 9 548.06 22.63
-4 6 -9 564.6 21.21
-2 -4 -9 537.44 26.04
-2 6 9 531.12 20.78
4 2 9 635.01 16.03
-2 -4 -9 516.85 16.09
2 4 -9 648.08 16.84
4 -6 9 480.36 22.23
6 -4 9 582.8 20.69
-6 2 9 875.26 44.33
2 -6 -9 478.31 20.99
6 -2 9 575.76 17.53
4 2 -9 638.54 16.45
2 4 9 562 21.38
4 -6 -9 621.84 25.79
-4 -2 9 641.42 27.68
-6 4 -9 744.29 25.5
6 -4 -9 644.9 25.07
2 4 9 393.68 22.94
2 -6 -9 724.56 33.21
-2 -4 9 665.06 27.55
-2 6 9 565.18 16.55
4 2 9 566.12 33.58
2 4 -9 587.23 23.94
-4 6 9 611.84 19.68
6 -2 -9 567.98 23.95
-6 4 -9 657.05 29.25
-2 -4 -9 508.98 26
-6 2 -9 774.25 33.9
2 4 9 519.57 18.2
4 2 9 590.75 19.93
-2 6 9 480.9 12.56
-6 2 -9 581.95 23.9
4 2 -9 728.97 32.19
-4 -2 -9 565.17 25.18
6 -2 9 623.83 22.14
4 -6 9 673.43 21.89
6 -2 -9 565.67 15.96
-6 4 9 930.9 38.09
2 -6 -9 392.06 25.26
6 -4 9 590.11 17.57
2 4 9 542.53 22.44
4 2 -9 503.39 28.28
-6 4 -9 534.87 21.92
2 4 9 639.98 22.36
2 4 -9 559.26 26.47
2 -6 9 625.05 24.13
4 2 9 687.26 23.95
2 -6 9 652.99 18.02
4 -6 9 678.66 22.41
-6 4 -9 566.81 15.45
-2 6 -10 52.47 7.32
-6 2 10 50.17 7.84
-6 4 10 47.43 7.52
-4 -2 10 44.37 6.21
-4 6 -10 47.38 6.19
-4 6 10 43.09 6.7
-2 -4 10 44.25 5.19
6 -2 -10 53.92 7.57
-6 4 10 57.06 4.75
4 2 10 54.73 4.72
4 -6 10 42.03 6.45
6 -4 -10 65.48 8.34
6 -4 10 50.29 5.96
6 -2 10 50.43 5.04
2 -6 -10 53.49 7.11
-2 6 10 41.38 6.32
6 -2 -10 56.72 6.62
2 4 10 33.6 6.83
4 -6 -10 52.74 7.77
2 4 10 47.54 6.43
-6 4 -10 66.39 7.8
6 -2 10 49.64 5.99
-2 -4 10 65.26 9.04
4 2 -10 60.9 5.61
4 2 10 53.07 10.63
4 -6 10 57.68 7.42
-2 6 10 52.9 5.02
-2 -4 -10 41.66 7.84
6 -2 10 54.87 8.75
-4 6 10 57.25 6.15
4 2 10 46.09 5.71
2 -6 10 56.42 7.45
2 -6 10 61.29 5.85
-2 6 10 44.6 3.88
2 4 10 50.3 5.68
-6 2 -10 66.82 8.6
4 -6 10 57.63 6.79
4 2 -10 61.04 9.46
-4 -2 -10 53.53 7.95
-2 -4 -10 55.45 8.81
2 4 -10 52.09 6.84
6 -4 10 54.36 5.22
6 -2 -10 54.95 5.04
-6 2 -10 74.61 10.51
2 -6 10 52.03 5.72
2 4 10 43.97 6.69
4 2 -10 46.78 9.17
-6 2 10 64.92 12.39
2 -6 -10 29.39 7.22
-6 4 -10 52.76 5
2 4 10 58.47 7.19
2 4 -10 50.44 8.04
4 2 10 59.49 7.34
-6 4 -10 52.65 8.45
4 -6 10 63.99 7.11
6 -2 -11 14.28 2.44
4 -6 11 18.84 3.92
-6 4 -11 20.12 4.23
2 4 -11 14.63 4.36
-6 4 -11 12.91 2.58
4 2 11 12.92 5.61
-4 6 11 14.35 3.23
-6 2 11 14.2 4.3
-6 4 11 16.29 4.3
-4 -2 11 8.79 2.95
-2 -4 11 18.76 4.97
-6 4 11 15.94 2.39
-4 6 11 11.49 3.4
-2 -4 11 11.6 3.08
-2 6 11 13.52 3.66
-2 6 -11 15.86 4.2
4 2 -11 17.28 3.26
4 2 11 15.1 2.47
-4 6 -11 14.8 3.67
6 -2 -11 14.33 3.96
6 -4 11 24.55 4.13
4 2 11 16.31 2.39
-6 2 -11 23.27 5.93
6 -2 11 12.46 2.47
2 -6 11 22.05 4.78
2 -6 -11 11.19 3.3
-2 -4 -11 10.47 3.68
4 -6 11 16.59 3.49
4 -6 -11 13.25 3.74
2 4 11 12.89 3.47
6 -2 -11 13.37 3.24
2 4 11 12.77 4.49
4 2 11 12.75 3.29
6 -4 -11 15.52 3.98
2 -6 11 14.34 3.1
6 -2 11 13.81 4.55
4 2 -11 17.97 5.26
-4 -2 -11 12.13 3.59
2 4 -11 15.47 3.78
-6 4 -11 14.69 5.02
-2 -4 -11 15.33 4.47
6 -4 11 14.59 2.52
6 -2 11 16.69 3.21
-2 6 11 11.08 1.91
2 -6 -11 8.51 3.99
6 -4 11 11.64 1.46
-2 6 11 14.85 2.62
2 4 11 17.79 4.47
4 -6 11 16.44 4.16
-6 2 -11 15.46 4.2
4 2 -11 13.94 5
4 2 11 14.4 3.84
6 -2 -12 4.98 1.76
-6 4 -12 5.58 1.85
2 4 -12 9.16 3.63
-2 -4 12 8.29 3.13
-6 2 12 5.3 2.94
-6 4 12 4.79 2.36
-4 -2 12 5.26 2.28
-4 6 12 4.6 2.17
-2 -4 12 5.04 2.15
-2 6 -12 5.42 2.18
-2 6 12 4.21 2.28
6 -4 -12 6.11 2.65
-4 6 -12 6.49 2.55
-6 4 12 6.73 1.47
-6 4 -12 9.16 3.4
6 -4 12 6.73 2.47
6 -2 12 5.92 1.61
2 4 12 5.38 3.4
2 -6 12 8.15 2.88
2 -6 -12 6.13 2.49
4 -6 12 6.54 2.46
4 2 12 6.59 1.59
4 -6 -12 3.35 1.51
-6 4 -12 7.79 2.82
6 -4 12 6.84 1.22
4 2 -12 6.53 2.23
4 2 12 5.54 3.29
2 -6 12 6.77 2.35
6 -2 12 7.63 3.22
-2 6 12 6.13 1.85
-6 2 -12 4.61 2.26
4 2 12 8.25 2.34
-4 6 12 4.88 1.9
6 -2 -12 6.05 2.19
-4 -2 -12 4.78 2.36
2 4 -12 7.13 2.26
-6 4 -12 10.42 4.5
-2 -4 -12 4.16 2.18
6 -4 12 6.88 1.69
4 2 12 5.72 1.63
6 -2 12 6.2 2.07
2 -6 -12 3.63 2.95
-6 2 -12 7.39 3.28
-2 6 12 2.96 1.11
4 2 -12 5.76 3.32
4 2 12 5.44 2.46
4 -6 12 10.77 3.21
-4 -2 -13 9.09 3.05
2 4 -13 11.52 4.52
-2 -4 13 5.11 1.98
-6 2 -13 10.95 4.19
-6 2 13 6.25 2.91
-6 4 13 5.98 3.56
-4 -2 13 8.62 3.09
-4 6 13 4.57 2.48
-4 6 -13 7.11 2.86
-2 -4 13 5.35 1.98
-2 6 13 7.27 2.86
4 -6 13 9.03 3.23
-6 4 13 8.58 1.65
2 -6 13 9.51 3.4
6 -2 13 8.29 2.11
6 -4 13 6.95 2.35
-6 4 -13 11.21 3.76
4 -6 13 8.24 2.67
6 -2 13 8.56 2.07
2 -6 -13 5.65 2.22
6 -4 13 7.75 1.5
4 2 13 8.91 1.88
6 -2 -13 4.44 1.69
-6 4 -13 5.78 3
4 -6 -13 6.72 2.5
-2 6 -13 8.41 3.12
-6 4 -13 8.89 2.73
4 2 13 8.79 2.46
2 4 13 8.53 3.42
4 2 13 3.24 1.7
6 -4 -13 6.15 2.62
4 2 -13 7.5 1.78
2 -6 13 8.56 2.6
6 -2 13 5.85 3.35
6 -4 13 11.56 3.95
6 -2 13 4.68 0.76
4 2 13 7.93 2.65
4 -6 13 7.57 2.66
-4 -2 -13 10.75 3.3
2 4 -13 8.57 2.56
-2 -4 -13 8.89 3.54
6 -4 13 6.51 1.68
2 -6 -13 2.85 0.59
-6 2 -13 7.6 2.74
4 2 -13 5.9 2.74
2 -6 13 9.58 2.75
-6 4 -13 5.71 1.95
-6 2 14 160.77 15.95
-6 4 14 175.02 16.6
-4 -2 14 149.84 14.11
-6 4 14 236.28 9.36
-4 6 14 179.84 15.97
-6 2 -14 308.04 22.95
-2 -4 14 176.89 14.53
-2 6 14 182.29 15.67
6 -4 14 174.3 11.84
2 -6 -14 137.59 11.69
4 2 14 210 10.39
4 -6 -14 185.21 14.68
-6 4 -14 274.32 16.55
-2 -4 14 263.76 20.54
4 2 -14 256.26 14.78
2 4 14 203.7 19.51
4 2 14 234.22 24.3
-6 4 -14 289.38 19.87
6 -2 14 231.3 20.74
2 -6 14 247.48 17.38
4 -6 14 216.49 15.44
2 -6 14 191.02 13.94
-6 4 -14 239.98 21.29
4 -6 14 227.87 14.65
6 -2 -14 171.47 14.75
6 -4 -14 176.32 14.5
-4 -2 -14 191.31 16.03
2 4 -14 196.33 14.14
-2 -4 -14 176.89 16.73
6 -2 14 189.13 11.65
6 -4 14 195.65 9
4 2 14 269.79 14.23
2 -6 -14 124.08 16.53
-4 -2 -14 227.07 15.7
4 2 -14 171.88 18.95
-6 4 -14 211.53 13.75
-6 2 -14 180.74 16.15
6 -4 14 206.33 8.55
4 2 14 170.74 12.93
6 -2 14 161.56 6.29
2 4 -14 184.16 17.66
6 -4 14 217.14 18.06
2 -6 14 233.47 14.06
-2 6 -14 198.05 15.67
-4 6 -14 175.8 13.7
2 4 -15 3.16 2.31
-4 -2 -15 5.9 3.12
-2 -4 15 4.12 1.63
2 4 15 5.49 2.17
-2 6 -15 1.51 0.72
-4 6 -15 3.48 2.07
-6 2 15 4.43 3.43
-6 4 15 0.09 1.84
-6 2 -15 2.29 0.79
-4 -2 15 0.71 0.86
-4 6 15 1.91 0.79
-2 -4 15 3.33 1.44
-2 6 15 4.02 1.4
-6 4 15 2.81 1.1
2 -6 15 3.4 1.58
2 -6 15 1.86 1.17
6 -4 15 2.98 0.82
4 -6 15 1.77 0.72
-4 -2 -15 1.61 2.28
2 -6 -15 0.03 0.93
6 -2 -15 1.52 1.87
4 2 15 6.13 1.65
-6 4 -15 2.72 2.08
2 4 15 1.15 0.24
4 2 15 1.74 0.8
6 -4 -15 4.19 2.66
4 2 -15 2.25 0.32
6 -2 15 4.56 3.31
6 -4 15 2.69 2.25
-6 4 -15 3.75 2.07
4 -6 15 2.93 1.68
2 4 -15 1.08 0.49
-6 4 -15 4.01 3.09
-2 -4 -15 2.94 2.22
4 2 15 2.83 1.87
6 -2 15 3.86 1.77
6 -4 15 2.95 1.06
2 -6 -15 1.71 1.54
-6 2 -15 1.87 1.96
4 2 15 4.02 1.46
4 -6 -15 1.76 0.15
4 2 -15 6.83 3.54
6 -2 15 1.94 0.78
-6 4 -15 2.54 1.52
2 -6 15 4.14 1.69
4 -6 16 218.21 15.29
-6 4 16 204.73 8.76
2 4 16 206.36 12.91
-6 2 16 140.89 15.92
-6 4 16 153.02 16.49
-4 -2 16 137.65 14.58
-4 6 16 159.11 16.1
-2 -4 16 160.85 15.07
-2 6 16 143.25 15.05
2 -6 -16 107.15 10.55
4 -6 -16 156.41 13.88
-6 4 -16 245.73 16.05
-2 -4 16 244.13 21.1
6 -4 16 203.36 9.74
2 -6 16 210.57 17.18
6 -4 -16 149.48 13.57
2 -6 16 201.16 16.34
6 -2 16 209.6 21.37
4 -6 16 186.42 15.79
6 -4 16 205.66 18.78
6 -2 -16 129.34 13.09
2 4 16 217.22 21.59
-6 2 -16 144.75 16.05
-6 4 -16 245.99 22.52
2 4 -16 169.77 13.54
-4 -2 -16 165.89 15.45
-2 -4 -16 159.55 16.62
-6 4 -16 244.13 18.4
6 -2 16 147.99 10.54
2 -6 -16 141.89 17.84
-6 4 -16 203.99 15.18
-4 -2 -16 197.9 15.47
4 2 -16 171.89 19.84
2 4 -16 173.99 18.27
4 2 16 213.38 23.52
4 2 16 150.31 13.17
-2 6 -16 172.93 15.71
2 -6 16 212.31 14.77
-4 6 -16 158.68 14.09
-6 2 17 100.9 13.67
-6 4 17 94.46 13.14
-4 -2 17 112.63 13.76
-4 6 17 118.32 14.44
-2 -4 17 121.06 13.75
-2 6 17 100.51 13.01
-4 6 -17 189.17 12.1
2 -6 -17 77.79 8.9
-6 4 -17 155.88 13.27
4 -6 -17 96.13 11.07
-2 -4 17 194.94 19.53
6 -4 17 157 9.17
2 4 17 166.05 19.2
2 -6 17 167.33 15.9
4 2 17 180.24 22.37
2 -6 17 154.29 14.97
6 -2 17 152.31 18.55
6 -4 17 158.21 17.27
4 -6 17 146.3 14.43
4 -6 17 182.1 14.32
6 -2 -17 90.64 11.27
-6 4 -17 217.31 21.73
-6 2 -17 113 13.82
-4 6 -17 116.54 12.56
-4 -2 -17 145.14 14.73
-2 -4 -17 102.59 13.56
2 -6 -17 109.92 16.18
-4 -2 -17 144.4 13.38
4 2 -17 134.45 17.5
2 4 -17 133.73 16.59
-6 4 -17 191.15 16.36
-2 6 -17 122 13.59
6 -4 -17 116.92 12.28
-4 -2 -18 5.37 2.43
-4 6 -18 8.95 3.66
-2 6 -18 6.32 3.57
2 -6 18 5.62 1.86
6 -4 18 7.46 2.17
-6 2 18 1.62 0.53
-6 4 18 3.85 1.66
-4 -2 18 7.69 4.09
-4 6 18 4.25 3.41
2 -6 18 10.31 3.76
-2 -4 18 7.59 3.17
-2 6 18 6.26 3.24
4 -6 18 7.67 2.72
6 -2 -18 3.13 0.97
-2 -4 18 7.48 3.56
2 -6 -18 3.93 2.1
-4 6 -18 6.96 1.9
4 -6 18 7.94 3.6
4 -6 -18 3.34 1.97
2 4 18 10.8 5.03
-4 -2 -18 5.6 2.7
6 -4 -18 3.58 1.82
6 -2 18 7.86 4.51
6 -4 18 6.85 3.87
-6 4 -18 8.05 4.38
-2 -4 -18 4.71 2.81
2 -6 -18 3.98 1.33
-6 4 -18 6.29 2.04
-6 2 -18 3.79 2.37
4 2 -18 5.62 0.65
4 2 18 10.51 5.82
-6 4 -18 12.63 4.18
2 4 -18 5.59 4.65
-4 -2 -19 0.61 0.92
-4 6 -19 0.82 1.44
-2 6 -19 2.29 2.22
-6 2 19 2.27 2.44
-6 4 19 1.04 1.8
-4 -2 19 0.5 1.28
2 -6 19 0 0.52
-4 6 19 2.54 2.59
-2 -4 19 0.33 1.28
4 -6 19 2.66 1.62
-2 6 19 2.59 1.74
6 -4 -19 2.16 1.37
2 -6 -19 0.76 0.79
4 -6 -19 0.57 0.74
4 2 19 -0.11 3.06
2 4 19 2.9 2.72
-4 -2 -19 2.97 2.88
2 -6 19 0.77 1.64
6 -2 19 -1.72 2.71
4 -6 19 0.81 1.29
-6 4 -19 3.17 3.02
6 -4 19 -0.65 1.04
-6 4 -19 0.7 1.26
-2 -4 -19 -1.51 1.11
-4 6 -19 1.34 1.63
2 -6 -19 0.5 1.43
4 -6 -19 3.34 2.5
-6 2 -19 -2.52 1.79
4 2 -19 -0.97 3.71
6 -2 -19 0.15 1.9
2 4 -19 1.48 2.58
-4 -2 -20 11.15 3.37
-4 6 -20 9.87 4.33
6 -2 -20 7.74 3.22
-2 6 -20 9.49 3.68
-6 2 20 7.51 4.5
2 -6 20 11.36 4.57
-6 4 20 9.62 4.59
-4 6 20 3.12 2.79
2 4 -20 8.11 4.49
-2 -4 20 3.14 2.27
4 -6 20 11.3 4.13
-2 6 20 5.85 3.18
4 -6 -20 8.42 3.89
-6 4 -20 11.02 3.93
4 2 -20 17.2 6.38
2 4 20 9.63 3.73
4 2 20 11.44 5.71
2 -6 20 11.56 4.13
6 -4 -20 7.41 2.9
6 -2 20 17.78 6.84
4 -6 20 10.13 4.23
6 -4 20 9.52 4.62
-4 -2 -20 9.16 3.54
-6 4 -20 18.33 6.44
-2 -4 -20 7.25 3.72
2 -6 -20 4.61 1.81
4 -6 -20 6.12 5.2
-6 2 -20 7.08 3.78
-6 2 21 78.57 13.61
-6 4 21 78.79 13.58
-4 -2 21 91.82 14.26
-4 6 21 83.98 13.65
-2 -4 21 95.99 13.84
-2 6 21 69.9 12.39
2 4 -21 114.72 17.08
4 -6 -21 61.98 9.15
4 -6 21 146.1 14.51
4 2 21 155.88 21.4
6 -4 -21 73.6 10.43
6 -2 21 126.77 19.78
4 -6 21 117.46 15.15
6 -4 21 121.74 17.55
-2 6 -21 108.92 14.51
6 -2 -21 81.57 11.9
-6 4 -21 224.77 24.18
-6 2 -21 107.03 14.95
-4 -2 -21 101.21 13.03
-2 -4 -21 95.04 14.18
4 2 -21 134.09 18.32
-4 -2 -21 102.86 12.58
2 -6 -21 105.56 16.72
4 -6 -21 121.75 19.03
-4 6 -21 99.86 13.24
2 -6 21 145.53 16.58
2 4 21 152.97 20.29
2 -6 21 158.44 16.47
-4 -2 -22 1.47 1.68
2 -6 22 0.11 1.9
-6 2 22 0.71 1.47
-6 4 22 0.93 3.39
-4 -2 22 2.92 2.26
4 -6 22 3.79 2.17
-4 6 22 1.01 0.77
-2 -4 22 1.23 2.13
-2 6 22 3.14 2.55
6 -4 -22 -1.42 0.93
4 -6 22 0.21 2.26
4 -6 -22 0.04 0.81
2 4 22 -0.97 2.76
4 2 22 2.42 1.15
6 -2 22 2.61 2.13
-4 -2 -22 2.25 1.29
-2 -4 -22 -1.42 2.51
-6 4 -22 4.55 3.93
6 -2 -22 1.94 1.63
2 -6 -22 7.29 3.68
4 2 -22 -1.85 2.67
6 -4 22 -1.14 1.47
4 -6 -22 3.65 1.71
-6 2 -22 3.52 1.46
2 4 -22 1.34 1.51
-4 6 -22 -0.34 1.42
-2 6 -22 4.44 3.08
-4 -2 -23 3.4 2.08
2 -6 23 3.72 2.76
4 -6 23 1.91 2.67
-4 -2 23 2.92 1.54
-4 6 23 0.09 1.15
-2 -4 23 -2.85 3.78
-2 6 23 -1.25 2.21
4 -6 -23 -0.12 1.39
-4 6 -23 2.19 1.59
4 -6 23 3.83 3.24
6 -4 -23 1.1 1.62
6 -4 23 -0.5 1.58
6 -2 -23 -2.64 2.75
-2 -4 -23 2.66 2.3
2 -6 -23 -2.7 3.33
-4 -2 -23 3.93 2.02
-2 6 -23 3.64 3.46
-4 -2 -24 0.58 1.13
2 -6 24 3.81 2.86
4 -6 24 -2.63 2.45
-4 -2 24 0.07 2.01
-2 -4 24 6.42 3.85
-2 6 24 0.27 2.1
4 -6 24 1.5 1.04
6 -4 -24 -1.44 2.29
-4 -2 -24 1.91 2.31
-2 -4 -24 4.8 3.02
-4 6 -24 3.06 1.42
-2 6 -24 -2.05 3.91
4 -6 25 9.76 4.41
-4 -2 25 10.97 5.9
-2 -4 25 10.03 5.94
4 -6 25 10.54 4.69
-4 -2 -25 12.23 4.73
-4 6 -25 13.09 6.07
6 -1 0 136.15 10.13
5 1 0 124.02 8.67
6 -5 0 148.85 10.98
5 -6 0 138.6 10.09
-5 -1 0 141.35 9.55
6 -5 0 116.12 7.35
1 5 0 120.07 10.35
-6 1 0 145.51 9.59
-5 -1 0 112.86 7.24
-5 -1 0 116.17 13.21
1 5 0 131.84 10.06
-1 6 0 121.01 10.34
-1 6 0 126.15 10.09
5 -6 0 122.28 11.04
6 -5 0 143.83 11.45
-6 1 0 144.93 15.49
-5 6 0 136.46 10.4
1 -6 0 140.53 11.13
1 5 0 118.67 9.91
-6 5 0 128.24 9.95
6 -1 0 125.83 8.79
-1 -5 0 109.52 7.18
-6 1 0 117.71 5.92
-1 6 0 112.14 9.55
-6 5 0 122.52 7.65
6 -1 0 132.41 9.43
6 -1 0 143.53 13.71
5 1 0 111.9 11.77
-1 -5 0 119.09 10.19
-5 6 0 117.69 8.09
5 1 0 126.25 9.24
1 -6 0 122.25 9.93
1 5 0 128.48 11.66
5 1 0 73.53 8.52
-6 5 0 119.63 6.63
-1 -5 0 123.28 9.6
-5 -1 0 107.34 8.15
-6 1 0 121.05 9.59
1 -6 0 120.57 9.65
-5 6 0 115.29 8.56
-6 5 0 113.63 9.25
-6 1 0 128.56 8.63
-1 -5 1 289.38 14.99
5 1 1 324.79 14.21
6 -1 1 339.67 16.26
6 -5 1 361.53 17.2
6 -1 -1 344.77 16.08
5 -6 1 355 16.03
5 1 -1 316.74 13.84
6 -5 -1 368.85 17.63
5 -6 -1 357.36 16.47
-5 -1 -1 331.37 14.33
6 -5 -1 294.03 10.77
-6 5 -1 292.27 14.67
1 5 -1 306.7 16.4
-6 1 1 361.78 14.93
-5 -1 1 303.33 12.92
6 -5 1 291.17 12.46
-6 1 -1 339.62 14.88
1 5 1 288.71 15.69
-5 -1 1 270.44 19.58
-1 6 -1 288.56 15.86
1 5 -1 351.74 16.99
1 -6 -1 349.32 17.94
-5 -1 -1 294.41 10.76
1 5 1 326.95 15.15
-1 6 1 306.8 16.57
6 -1 1 364.13 20.77
-1 6 -1 347.13 17.23
5 -6 1 325.22 17.86
5 -6 -1 325.15 18
-1 6 1 313.21 15.39
6 -5 1 342.03 17.73
6 -5 -1 346.77 17.49
-6 1 1 359.86 23.09
1 -6 1 339.58 15.84
-5 6 -1 314.96 14.81
-1 -5 -1 282.77 13.35
-5 6 -1 380.92 17.5
6 -1 -1 401.12 23.09
-5 6 1 343.23 16.23
1 5 -1 283.35 15.23
-6 1 1 297.67 10.66
-6 1 -1 375.73 24.27
6 -1 1 311.1 13.36
-6 5 -1 341.96 16.14
-6 5 1 337.15 15.93
1 5 1 297.93 15.54
6 -1 -1 316.08 14.29
-1 6 -1 309.38 15.65
-1 -5 1 273.23 9.42
5 1 1 332.8 17.76
5 1 1 315.05 13.55
-1 6 1 310.83 16.11
6 -1 1 331.9 14.85
-6 5 1 313.48 11.01
-5 6 -1 304.09 12.62
-6 1 -1 294.83 8.38
-6 1 1 333.23 15.58
6 -1 -1 330.57 14.39
-6 5 -1 307.58 10.11
5 1 -1 311.89 19.38
5 1 1 313.57 14.7
5 1 1 288.22 18.11
-1 -5 -1 303.7 16.3
1 -6 1 278.68 14.25
1 -6 -1 272.84 15.31
5 1 -1 308.13 14.55
1 5 -1 336.64 17.68
-5 -1 -1 304.78 11.5
1 5 1 302.48 17.43
-5 6 1 301.32 13.04
5 1 1 184.02 12.54
-5 -1 1 311.4 14.06
-1 -5 1 309.52 15.33
-6 5 -1 315.22 13.36
-6 5 1 313.54 11.3
1 -6 1 325.71 15.72
-1 -5 -1 310.38 15.22
-5 -1 -1 308.68 13.83
-6 1 -1 284.05 14.47
-5 -1 1 280.11 13.02
-5 6 -1 288.87 13.42
-6 1 1 291.85 14.82
5 1 -1 180.5 13.76
-6 5 1 286.71 14.71
-5 6 1 293.31 13.73
1 -6 -1 307.45 15.26
-6 1 -1 302.8 11.1
5 1 2 166.98 10.13
6 -1 2 174.73 11.7
1 -6 -2 156.93 10.96
-1 -5 -2 132.92 10.16
5 -6 2 179.65 11.42
6 -1 -2 170.36 11.32
-6 1 -2 139.22 6.12
6 -5 -2 142.11 7.03
5 1 -2 157.95 9.83
6 -5 -2 184.46 12.52
5 -6 -2 187.55 12.2
1 5 -2 159.27 11.91
-5 -1 -2 166.15 10.17
-6 1 2 181.33 10.49
-5 6 2 165.18 11.26
6 -5 2 136.8 9.09
-5 -1 2 138.31 13.77
-6 1 -2 191.57 11.27
-1 6 -2 147.32 11.32
1 5 2 155.01 11.49
-6 5 -2 154.3 6.9
1 5 -2 175.32 12.44
1 5 2 161.79 10.22
-1 6 -2 170.11 12.38
5 -6 2 151.78 12.12
-6 1 2 174.76 16.14
-1 6 2 152.52 11.65
-1 -5 -2 150.24 11.95
-5 -1 -2 147.41 6.88
5 -6 -2 166.39 12.97
-1 6 2 146.74 10.15
6 -5 2 162.25 12.01
-6 5 2 155.39 7.01
-5 6 -2 161.69 10.4
6 -5 -2 189.03 12.78
6 -1 2 168.39 11.01
-1 -5 2 165.66 11.41
-6 5 2 165.75 11.24
-6 1 2 139.91 8.13
-5 6 -2 193.83 12.59
1 5 -2 145.3 10.87
5 1 2 160.54 10.59
6 -1 2 150.62 9.09
1 -6 2 165.04 10.71
-6 5 -2 177.51 11.79
1 -6 -2 148.24 12.49
-1 6 -2 144.49 10.72
-6 1 -2 192.96 17.3
6 -1 -2 165.73 10.82
5 1 2 163.09 12.8
1 5 2 150.24 11.06
5 1 2 163.89 9.13
-6 5 -2 162.35 10.46
-5 6 -2 157.5 8.85
-1 6 2 151.18 11.24
6 -1 -2 163.77 10.1
6 -1 2 183.23 14.49
-1 -5 2 149.94 10.73
6 -1 -2 156.97 8.86
5 1 -2 147.95 13.79
5 1 2 156.24 13.33
1 -6 2 150.92 10.15
1 -6 -2 137.9 11.25
1 5 -2 180.57 12.95
1 5 2 153.1 12.46
5 1 -2 158.4 10.29
-1 -5 2 151.69 11
5 1 -2 92.54 10.42
5 1 2 90.9 8.15
-6 1 -2 142.03 5.08
-5 6 2 156.26 9.72
-5 -1 -2 159.45 8.07
1 -6 2 162.65 11.27
-5 -1 -2 132.73 9
-6 1 -2 146.32 10.4
-6 1 2 173.62 12.43
-5 6 -2 150.53 9.6
-6 5 -2 142.83 10.34
-5 -1 2 141.47 9.37
-6 5 2 157.47 8.55
-1 -5 -2 150.28 10.41
-1 6 2 117.6 4.3
-6 1 2 145.7 10.55
6 -5 2 189.25 12.47
-6 5 2 150.17 10.8
-5 6 2 151.57 9.97
-6 5 3 125.01 8.11
5 1 3 119.92 7.34
6 -5 3 147.75 11.13
5 -6 3 143.08 10.17
5 1 3 126.34 11.77
-1 6 3 120.74 10.19
1 -6 -3 124.55 9.69
6 -1 -3 128.15 9.92
1 5 -3 111.81 10.01
6 -5 -3 139.42 11.1
5 1 -3 124.24 8.95
-6 1 3 134.06 9.05
5 -6 -3 142.38 10.87
-5 -1 -3 135.46 9.28
-5 -1 3 108.52 11.96
-1 6 -3 112.75 9.99
-6 1 -3 89.3 3.37
1 -6 -3 112.18 10.17
1 5 -3 145.26 11.66
1 5 3 117.67 9.96
5 1 -3 74.61 9.67
5 -6 3 114.48 10.41
-1 6 -3 139.3 11.38
1 5 3 114.57 8.17
-5 6 -3 120.99 8.9
1 5 3 82.5 3.44
6 -5 3 131.42 10.67
-1 6 3 122.48 10.54
5 -6 -3 132.05 11.64
-1 6 3 122.06 9.03
-6 5 -3 122.05 7.89
-1 -5 3 128.43 10.31
1 5 -3 104.33 9.32
6 -5 -3 141.98 11.32
6 -1 3 128 9.62
-5 6 -3 152.28 11.46
6 -1 3 121.05 7.88
-1 6 -3 120.64 9.81
-6 5 -3 142.85 10.89
-5 6 3 134.48 9.84
-6 5 -3 121.13 5.88
-1 -5 -3 100.74 9.4
-5 6 -3 115.13 7.52
-6 5 3 136.3 10.2
6 -1 -3 124.55 9.57
-6 5 -3 142.82 10.62
1 5 3 111.03 9.62
-6 1 -3 148.97 15.32
5 1 3 119.59 9.26
6 -1 -3 130.57 8.79
-6 5 3 128.18 5.66
-1 -5 3 124.73 9.58
5 1 -3 127.29 13.66
6 -1 3 130.39 11.8
6 -1 -3 124.45 8.66
1 -6 3 112.11 8.4
-1 -5 -3 118.71 10.76
5 1 3 125.93 11.72
1 -6 3 124.86 8.76
1 -6 -3 101.97 10.11
-1 -5 3 120.09 9.93
1 5 -3 118.48 10.24
1 5 3 128.76 11.65
5 1 -3 116.2 8.82
5 1 3 69.72 6.5
1 -6 3 119.3 9.71
-5 6 3 133.27 9.38
-5 -1 -3 107.75 8.32
-6 1 -3 112.94 9.2
-5 -1 -3 100.53 6.23
-6 1 3 124.81 11.46
-5 6 -3 112.21 8.36
-6 5 -3 112.42 9.21
-5 -1 3 119.39 8.74
1 5 3 80.88 3.02
-6 1 3 114.01 9.4
-6 5 3 122.18 10.01
-5 6 3 117.5 9.01
-1 -5 -3 118.78 9.31
-1 6 3 109.5 4.87
5 1 3 132.35 9.23
6 -1 3 138.61 10.48
-5 -1 4 1.42 1.4
-6 1 4 3.79 2.05
5 1 4 2.02 0.81
6 -1 4 1.9 1.39
-6 5 4 3.23 1.77
-5 6 4 1.73 1.52
-1 6 -4 2.13 1.6
-6 5 -4 4.29 1.53
6 -5 4 3.64 1.86
-5 -1 -4 2.67 1.11
5 -6 4 2.81 1.6
-1 6 4 2.33 0.88
1 -6 4 4.96 2.14
-5 6 -4 3.13 1.19
6 -1 -4 3.79 2.01
6 -5 -4 5.17 2.52
-5 -1 4 3.85 1.91
5 1 -4 4.04 1.71
-1 -5 -4 3.05 1.75
5 -6 -4 4.36 2.32
-6 1 4 3.04 1.59
1 5 -4 2.66 1.85
5 -6 -4 1.97 0.67
1 -6 -4 2.92 1.81
1 5 -4 3.81 1.75
-5 -1 -4 3.43 1.54
-1 6 -4 3.8 2.15
6 -1 -4 4.13 1.66
5 -6 4 3.72 1.96
1 5 4 2.19 1.27
-6 5 -4 2.6 0.94
-5 -1 4 3.24 2.49
1 5 4 1.7 0.45
1 5 4 5.67 2.29
6 -5 4 3.25 1.62
1 5 4 4.67 1.89
-5 6 -4 3.77 1.9
5 -6 -4 4.09 1.72
-1 6 4 4.9 1.35
-1 -5 4 3.19 1.88
-1 6 4 3.15 2.37
6 -5 -4 5.24 2.35
-1 -5 4 3.48 1.83
1 -6 4 3.81 1.91
-6 5 -4 5.12 1.78
-5 6 4 2.85 1.25
5 1 4 3.21 1.23
-1 -5 -4 5.57 2.82
5 1 4 3.27 1.75
-1 -5 4 2.61 1.49
5 1 -4 2.18 0.94
6 -1 -4 5.76 2.16
-6 5 -4 2.75 1.95
6 -1 4 1.4 0.45
1 -6 4 4.43 1.76
-1 -5 -4 4.12 2.72
5 1 4 0.52 1.04
6 -1 4 2.2 0.81
1 -6 -4 2.92 1.96
1 5 -4 1.46 0.29
-6 1 -4 4.28 2.97
1 5 4 1.7 1.03
5 1 4 2.52 1.46
6 -1 4 4.29 1.43
-5 6 4 2.89 1.57
-5 -1 -4 6.56 2.33
5 1 -4 0.94 1.43
6 -1 -4 4.34 1.73
-6 1 -4 4.35 2.01
5 1 4 0.14 0.46
-5 6 -4 2.78 1.55
1 5 4 2.53 0.75
-6 5 -4 4.08 1.94
-5 6 -4 3.82 1.74
-6 5 4 3.36 0.76
-5 6 5 106.93 9.14
1 -6 -5 120.37 12.53
1 5 -5 95.06 9.55
-5 -1 5 118.91 10.68
-6 1 5 120.17 8.52
1 5 5 105.63 9.64
1 -6 5 70.73 3.14
6 -1 -5 120.73 9.92
6 -5 -5 125.33 10.88
5 1 -5 111.56 8.76
-1 6 -5 105.2 9.91
5 -6 -5 134.21 11.27
-5 -1 5 85.93 10.24
-5 -1 -5 121.15 8.95
-1 6 5 94.88 5.87
1 -6 -5 98.97 9.12
1 5 -5 128.91 11.73
-5 6 -5 110.01 8.49
5 -6 5 101.09 9.95
-1 6 -5 136.56 12.05
-6 5 -5 114.45 7.49
1 5 5 105.15 9.59
6 -5 5 109.48 9.69
1 5 5 90.88 6.5
-1 -5 5 108.17 10.03
5 -6 -5 117.58 11.12
-1 6 5 100.18 7.43
-1 6 5 103.1 10.14
6 -5 -5 129.17 10.94
6 -1 5 111.75 7.3
-5 6 -5 100.55 7.13
-5 -1 5 99.76 9.15
-6 5 -5 125.81 10.3
1 5 5 107.3 9.08
5 1 5 99.5 5.74
-5 6 5 113.64 8.96
5 1 5 121.36 12.57
-5 6 5 88.4 4.2
-6 5 -5 144.54 12.17
1 -6 5 104.1 7.35
6 -1 -5 110.22 9.75
6 -1 5 116.12 9.95
-1 -5 5 110.11 10.07
-1 -5 5 88.7 7.7
1 5 5 103.76 5.72
5 1 -5 125.77 13.83
1 -6 5 95.16 7.04
6 -1 5 109.31 10.37
6 -1 -5 103.61 9.3
6 -1 -5 114.74 8.21
-6 1 -5 139.61 14.89
-1 -5 -5 97.75 10.33
1 5 -5 108.85 9.54
1 -6 -5 89.35 10.08
1 -6 5 114.45 9.78
1 5 5 111.25 11.25
-6 1 -5 111.69 8.86
1 5 5 100.27 7.64
5 1 -5 73.11 10.16
5 1 5 73.92 5.54
-6 1 -5 100.69 9
-5 6 -5 106.67 8.38
-6 5 -5 109.32 9.11
-5 6 5 119.62 9.64
5 1 5 122.31 9.28
-5 -1 5 103.33 8.39
6 -1 5 133.48 10.77
-6 1 5 101.76 9.35
5 -6 5 118.57 8.08
6 -5 5 137.91 10.83
-6 5 5 109.04 9.91
5 -6 5 129.03 9.88
1 5 -6 34.93 5.91
-6 5 6 34.35 5.91
-5 6 6 33.29 5.23
1 -6 6 28.5 2.36
-5 -1 6 36.76 6.38
-6 1 6 38.97 4.91
-1 -5 -6 30.7 3.7
-1 6 6 32.09 3.75
-6 1 6 32.76 6.94
-1 6 -6 29.76 5.34
6 -1 -6 37.84 5.68
-5 -1 6 24.1 5.21
5 1 -6 37.47 5.21
5 -6 -6 38.25 6.16
-5 6 6 33.35 4.9
5 1 6 23.75 2.73
-5 -1 -6 39.48 5.28
-5 6 -6 35.16 4.83
-6 5 -6 32.61 3.9
1 5 -6 42.09 6.78
1 -6 -6 27.67 4.78
5 -6 6 29.51 5.16
6 -5 6 34.54 5.38
1 5 6 33.06 5.31
1 5 6 28.96 3.43
5 -6 -6 39.27 6.46
6 -1 6 33.43 3.91
-1 6 6 30.21 3.77
6 -5 -6 41.75 6.2
5 1 6 34.98 4.03
-5 -1 6 30.15 5.3
-6 5 -6 40.89 5.9
5 1 6 30.63 3.06
1 5 6 32.66 5.2
1 -6 -6 35.25 6.88
-1 6 6 33.6 5.66
5 1 6 38.99 7.27
-6 5 -6 43.25 6.94
6 -1 -6 36.2 5.6
-1 -5 6 34.93 5.64
1 5 6 32.92 5.45
1 -6 6 31.25 3.91
-6 5 6 41.53 6.02
6 -1 6 41.77 6.24
6 -1 -6 29.16 5.17
1 -6 6 34.34 5.42
-1 -5 -6 33.64 6
6 -1 -6 34.61 4.36
1 5 -6 33.55 5.25
1 5 6 29.93 4.11
-6 1 -6 33.4 4.92
-1 6 -6 36.29 5.37
-6 1 -6 42.32 8.25
1 -6 -6 25.29 5.44
1 5 6 36.67 3.93
-6 1 -6 29.38 4.97
-5 6 -6 34.01 4.81
-6 5 -6 30.17 4.71
5 1 -6 21.53 5.66
5 -6 6 37.9 4.56
5 1 6 33.66 4.93
6 -1 6 40.99 5.95
6 -5 6 40.7 5.95
-5 -1 6 31.53 4.73
-5 6 6 40.42 5.86
5 -6 6 37.76 5.45
-6 1 6 29.06 5.12
-1 6 7 9.45 1.98
5 1 7 10.77 2.8
5 1 -7 5.85 2.99
5 -6 7 9.81 2.91
-6 1 7 10.44 3.55
-6 1 7 8.69 2.79
-5 -1 7 11.49 3.34
1 5 7 10.2 2.93
-6 5 7 15.05 4.1
-5 6 7 9.76 2.86
5 1 7 12.89 2.47
-5 6 7 10.66 3.36
1 -6 -7 9.37 3.28
-1 6 7 9.43 2.3
6 -1 -7 9.56 2.85
1 5 -7 10.18 3.32
1 5 7 8.33 2.86
5 1 -7 10.1 2.86
5 -6 -7 12.38 3.8
-5 -1 7 11.44 3.47
1 -6 -7 8.69 1.7
-1 -5 -7 8.77 1.87
-1 6 -7 11 3.44
1 -6 -7 6.97 2.38
5 -6 7 12.42 3.22
1 5 7 9.9 2.28
-6 5 -7 10.91 2.32
-5 6 -7 11.09 2.81
6 -5 7 9.64 2.81
-1 -5 7 11.22 3.47
-5 -1 7 9.94 3.03
-6 1 -7 12.52 4.24
5 1 7 10.01 1.59
6 -1 7 10.97 2.25
5 -6 -7 13.03 3.72
1 5 7 9.21 1.74
1 -6 7 11.68 3.37
6 -5 -7 14.06 3.66
-6 5 -7 14.05 3.45
1 -6 -7 11.38 3.94
-1 -5 -7 8.17 3.25
5 1 7 12.62 4.44
-5 -1 7 8.05 2.64
6 -1 -7 10.03 2.79
6 -1 7 12.22 3.75
1 -6 7 10.35 2.18
-6 5 -7 17.07 4.78
-6 5 7 12.92 3.59
6 -1 -7 9.79 3.02
6 -1 7 10.08 2.83
-1 -5 -7 9.65 3.55
1 5 -7 8.42 2.23
-5 -1 -7 9.48 3.15
-1 6 -7 10.08 2.44
5 -6 7 13.51 2.74
-6 1 -7 8.56 2.78
-5 6 -7 11.01 2.84
-6 5 -7 11.22 3.02
1 -6 7 9.01 1.46
-1 6 7 10.57 2.19
6 -1 -7 8.63 2.1
-6 1 -7 10.71 2.85
-5 -1 8 88.39 10.65
-5 -1 8 72.03 7.87
-6 1 8 74.11 8.84
-6 5 8 80.54 9.3
-5 6 8 75.21 8.46
-1 6 -8 68.69 8.24
-5 6 8 91.93 9.62
-1 -5 8 61.62 3.89
-1 -5 8 68.45 3.91
-1 6 8 68.07 6.86
-6 5 -8 80.51 6.5
1 -6 -8 63.49 4.26
-5 6 -8 77.35 7.43
6 -1 -8 86.1 9.05
-5 -1 8 85.02 9.67
-1 -5 -8 68.88 5.49
1 -6 -8 68.89 7.45
5 -6 8 69.53 8.34
6 -5 8 82.26 8.38
6 -1 8 76.6 5.93
1 5 8 71.12 8.23
5 1 8 64.58 3.79
5 -6 -8 84.59 9.57
1 5 8 68.97 4.47
-6 5 -8 110.87 10.11
6 -5 -8 92.49 9.61
-1 6 8 69.63 5.57
1 5 8 71.56 8.65
5 1 8 81.77 6.31
1 -6 -8 72.83 11.21
-1 -5 -8 67.88 10.25
5 1 8 87.2 12.19
-6 5 -8 117.14 13.31
1 -6 8 75.52 5.57
-1 -5 8 78.88 9
6 -1 -8 75.52 8.63
-5 -1 -8 79.06 9.25
1 5 8 73.48 6.52
6 -1 -8 65.55 8.32
6 -1 8 82.5 8.76
-1 6 8 66.37 5.46
-1 -5 -8 68.18 9.18
1 5 -8 78.23 7.92
-6 1 -8 83.28 8.53
1 -6 -8 61.84 9.36
6 -1 -8 76.28 6.64
5 1 -8 52.55 9.41
-1 6 -8 83.64 7.36
1 -6 8 87.71 9.27
6 -1 8 85.85 10.93
6 -5 8 80.08 6.19
5 -6 8 88.41 7.07
-6 1 8 77.33 11.73
-6 5 -8 78.57 8.26
-6 1 -8 106.94 13.45
5 1 8 87.92 8.72
1 -6 8 83.95 4.95
1 5 -8 78.59 9.49
5 -6 8 93.04 8.88
5 1 -8 78.27 6
5 1 9 5.51 1.94
6 -5 9 4.29 1.46
6 -5 9 3.69 1.09
6 -1 -9 3.32 1.43
5 -6 9 7.92 2.83
-6 1 9 3.82 3.09
-5 -1 9 3.52 1.48
-6 1 9 4.6 2.31
-6 1 -9 5.19 2.97
-6 5 9 3.89 1.85
-5 6 9 4.4 1.92
1 5 -9 5.37 2.51
-1 -5 9 2.93 0.87
-1 6 9 3.66 1.39
-5 -1 9 7.79 3.3
-1 6 -9 3.93 2.51
5 1 -9 2 0.69
-6 5 -9 4.27 1.55
5 1 9 4.77 1.56
-5 6 -9 5.35 2.05
-1 -5 9 4.72 2.03
5 -6 9 3.5 2.05
1 -6 -9 5.91 1.91
6 -5 9 3.7 1.93
-1 -5 -9 4.28 1.36
1 -6 -9 1.93 0.75
6 -1 9 3.33 1.14
5 1 9 3.11 0.75
1 -6 9 4.1 2.17
-5 -1 -9 4.54 2.09
6 -1 -9 3.01 1.45
-5 -1 9 5.54 2.27
5 -6 -9 6.41 3.14
1 5 9 4.42 1.97
-6 5 -9 4.56 2.06
-6 5 -9 6.61 2.31
5 1 -9 3.94 1.3
1 5 9 2.77 1.25
5 1 9 4.18 2.26
6 -5 -9 2.32 1.25
1 5 9 6.7 1.33
1 -6 -9 4.56 2.77
-1 6 9 4.67 1.41
-1 -5 -9 1.39 0.74
1 -6 9 3.86 1.23
6 -1 9 5.46 2.99
6 -1 -9 6.72 2.66
5 -6 9 4.97 1.81
5 -6 9 3.34 0.77
6 -1 -9 5.32 1.97
6 -1 9 3.56 1.96
-1 -5 -9 -0.72 1.94
1 -6 -9 1.94 0.42
5 -6 9 3.37 0.91
-1 6 -9 3.47 1.5
-6 5 -9 3.44 1.73
1 5 9 8.99 2.15
-1 6 9 4.4 1.34
-6 1 -9 3.92 1.79
1 -6 9 5.06 1.39
-6 5 -10 117.89 8.41
-6 1 10 114.76 11.67
-5 -1 10 110.67 10.56
-6 5 10 126.09 12.26
-5 6 10 115.97 11.18
-5 6 -10 119.78 9.57
-6 1 -10 175.93 17.87
1 -6 -10 122.88 15.52
-1 -5 10 102.84 7.39
-1 6 10 114.91 10.13
5 -6 10 109.72 10.62
1 -6 -10 106.24 9.28
6 -5 10 119.34 10.13
6 -1 10 120.61 7.06
5 -6 -10 139.03 12.61
-1 -5 10 140.86 12.93
6 -5 -10 133.85 12.08
6 -1 -10 122.89 9.4
1 5 10 112.21 12.19
5 1 -10 133.33 8.49
1 5 10 114.4 4.73
1 5 10 107.8 10.69
6 -1 10 118.09 10.13
5 1 10 138.28 16.66
-1 -5 -10 122.97 14.79
1 -6 10 132.7 8.53
-6 5 -10 171.33 17.31
6 -1 10 139.06 14.84
6 -1 -10 115.5 11.5
5 1 10 132.09 8.6
1 -6 10 143.47 12.59
1 5 10 99.37 7.84
-1 6 10 100.68 6.74
-5 -1 -10 126.12 12.2
6 -5 10 132.07 7.01
6 -1 -10 85.05 10.25
-6 1 -10 124.62 11.47
-1 -5 -10 109.8 12.37
1 -6 -10 87.68 11.74
5 1 -10 102.76 13.6
-5 -1 -10 137.77 11.39
5 -6 10 139.85 9.37
1 5 -10 122.12 12.44
6 -5 10 138.25 6.9
-6 1 10 120.12 15.98
-1 6 10 116.72 6.82
1 -6 10 132.1 7.5
5 1 10 144.35 12.16
1 5 -10 145.31 8.84
5 -6 10 148.04 11.53
-1 6 -10 117.75 11.42
-5 6 -11 183.83 12.28
-6 1 11 171.31 14.67
-5 -1 11 170.94 13.69
-6 5 11 185.73 15.41
-5 6 11 191.17 15.01
6 -5 11 221.75 8.93
-1 -5 11 181.92 11.3
-1 6 11 182.15 13.53
-6 1 -11 291.74 23.08
5 -6 11 167.48 13.26
6 -5 11 189.89 13
1 -6 -11 168.23 11.71
6 -1 11 183.16 8.48
-1 6 11 159.16 8.62
5 -6 -11 211.79 15.76
6 -1 11 160.12 4.82
6 -5 -11 203.21 15.06
6 -1 -11 202.63 12.42
1 5 11 182.09 16.12
5 1 -11 232.25 12.04
1 5 11 168.97 10.27
-1 -5 11 248.46 17.98
1 -6 11 214.63 11.88
5 1 11 214.01 21.59
-1 -5 -11 196.15 19.15
-6 5 -11 294.09 23.68
6 -1 11 217.88 19.47
-1 6 11 195.72 8.93
1 5 11 186.33 5.78
1 -6 11 222.58 16.1
6 -1 -11 178.47 14.65
5 1 11 205.79 11.04
1 5 -11 242.44 9.82
-5 -1 -11 199.52 15.64
6 -1 -11 152.38 14.05
6 -5 11 205.9 8.21
5 -6 11 238.45 12.55
-1 -5 -11 176.13 16.21
6 -1 11 195.97 13.08
1 -6 -11 124.96 14.74
5 1 -11 193.16 19.68
-5 -1 -11 215.27 14.74
-6 1 -11 210.6 15.28
1 -6 11 221.77 10.6
1 5 -11 197.5 16.22
-6 5 -11 193.61 11.23
-1 6 -11 188.34 14.92
1 5 12 27.56 6.46
1 5 -12 28.12 6.07
-1 -5 12 25.15 4.61
-6 1 12 20.24 5.26
-5 -1 12 21.44 5.13
-6 5 12 28.42 6.21
-5 6 12 24.08 5.65
6 -1 12 24.58 2.19
-1 6 12 19.44 4.83
-1 -5 12 32 6.54
5 -6 12 19.62 4.55
6 -5 12 26.73 4.98
6 -1 12 25.32 3.06
1 5 -12 29.97 2.75
1 -6 -12 19.36 3.96
5 -6 -12 29.19 5.97
-1 6 12 25.03 5.93
1 -6 12 31.63 4.93
6 -1 -12 29.2 4.82
-6 1 -12 39.16 8.29
5 1 -12 32.77 4.8
-6 5 -12 42.98 9.08
1 -6 12 35.7 6.65
-1 6 12 27.54 3.46
6 -5 -12 27.35 5.45
-1 6 12 19.86 3.01
5 1 12 33.62 8.98
6 -1 12 31.37 8.05
5 1 12 26.56 4.13
5 -6 12 34.39 4.98
6 -1 -12 24.37 5.27
6 -5 12 28.33 2.83
6 -5 12 32.62 3.57
-5 -1 -12 35.92 6.44
-5 -1 -12 28.47 6
6 -1 -12 24.57 5.77
-1 -5 -12 21.14 5.79
1 -6 -12 18.54 5.89
5 1 -12 23.63 6.81
1 -6 12 20.45 3.6
-6 5 -12 30.33 4.63
-1 6 -12 30.6 6.19
-6 1 -12 30.52 6.11
-5 6 -12 26.08 4.65
-5 -1 -13 14.34 4.36
1 5 -13 12.08 4.19
-6 5 -13 14.22 3.26
-6 1 13 11.28 4.28
-1 6 -13 11.65 3.5
-5 -1 13 9.01 3.78
-6 5 13 12.28 4.28
-5 6 13 12.73 4.12
-5 6 -13 15.42 3.88
6 -1 13 15.35 5.51
-1 -5 13 13.21 3.67
-1 -5 13 19.16 5.49
-1 6 13 10.52 3.57
6 -1 13 13.23 2.31
1 -6 13 15.73 4.41
6 -5 13 10.52 2.96
1 -6 -13 11.37 3.03
5 -6 13 17.09 3.56
-1 6 13 11.78 4.44
5 -6 -13 14.69 4.1
-6 5 -13 23.92 7.51
6 -5 13 15.16 2.55
1 5 13 10.43 3.99
6 -1 -13 13.44 3.27
5 1 13 13.49 2.93
6 -5 -13 17.06 4.36
5 1 -13 17.49 3.85
6 -1 13 13.43 1.86
1 -6 13 13.99 3.33
5 1 13 17.59 6.84
6 -1 -13 10.98 3.71
6 -5 13 12.28 1.75
-5 -1 -13 16.63 4.75
6 -1 -13 6.81 3.11
-1 6 13 9.93 2.4
-1 -5 -13 14.76 4.95
1 -6 -13 14.17 5.02
5 1 -13 12.92 5.12
-6 1 -13 16.81 4.6
-5 -1 -14 12.17 3.76
-6 5 -14 11.06 3.3
1 5 -14 12.39 4.54
-1 6 -14 13.36 4.21
-5 6 -14 8.47 2.76
-6 1 14 12.02 4.23
-5 -1 14 11.09 3.54
-6 5 14 10.9 4.1
-5 6 14 7.03 3.03
-1 -5 14 14.41 4.77
-1 -5 14 11.29 3.48
-1 6 14 5.66 2.58
6 -5 14 13.17 3.55
6 -1 14 10.44 1.82
6 -5 14 27.74 6.25
1 -6 14 12.52 3.89
6 -1 -14 8.97 3.53
1 -6 -14 9.74 2.73
5 -6 14 20.35 4.04
6 -5 14 12.28 2.32
5 -6 -14 11.82 3.48
-6 5 -14 21.66 6.32
-1 6 14 11.6 4.26
1 5 14 9.02 3.12
6 -1 -14 9.89 2.9
6 -5 -14 11.81 3.6
5 1 -14 12.48 3.28
1 -6 14 13.28 3.27
6 -1 14 16.7 6.08
5 1 14 15.68 6.1
5 1 14 14.35 3.49
5 -6 14 17.93 4.61
-1 -5 -14 12.01 4.95
6 -1 -14 9.23 3.52
-5 -1 -14 11.85 3.71
-1 6 14 6.4 2
1 -6 -14 5.88 3.3
6 -5 14 8.25 1.32
5 1 -14 14.01 5.23
-6 1 -14 11.23 3.79
1 -6 14 14.86 3.39
-6 5 -15 289.93 26.36
-6 1 15 113.43 13.57
-5 -1 15 104.78 12.54
-6 5 15 127.84 14.72
-5 6 15 126.74 14.28
-1 -5 15 148.07 13.68
-1 6 15 117.95 13.43
1 -6 -15 105.61 8.94
5 -6 15 170.95 12.21
-6 5 -15 193.21 15.75
5 -6 -15 134.3 13.4
6 -5 -15 129.95 13.12
5 1 -15 171.31 13.48
1 -6 15 204.79 14.61
5 1 15 163.13 21.12
1 -6 15 189.25 16.66
6 -1 15 167.73 19.68
5 -6 15 153.83 14.07
6 -5 15 165.5 9.45
1 5 15 122 14.7
-6 1 -15 148.01 14.48
6 -1 -15 103.86 12.04
-5 -1 -15 146.43 14.32
6 -1 -15 133.6 14.52
-1 -5 -15 109.66 14.05
1 -6 -15 86.96 13.44
5 1 -15 165.96 18.37
-5 -1 -15 162.67 14.24
5 1 15 143.48 10.86
-6 5 -15 142.41 11.95
1 5 -15 139.17 15.3
1 -6 15 163.83 11.78
6 -5 15 155.57 15.38
-1 6 -15 140.25 14.32
-5 6 -15 143.09 12.39
-1 6 15 127.04 14.92
-1 -5 15 176.66 17.3
-6 5 -16 8.75 3.21
1 5 -16 5.6 2.32
-1 6 -16 7.11 3.47
-5 6 -16 5.3 2.42
-1 -5 16 10 4.42
-6 1 16 5.97 3.52
-5 -1 16 9.44 4.08
-6 5 16 9.38 4.34
-5 6 16 7.27 3.44
-1 -5 16 7.53 3.12
-1 6 16 5.89 2.85
1 -6 16 7.79 3.35
1 -6 -16 4 1.7
5 -6 16 8.24 2.78
6 -5 16 6 1.74
5 -6 16 5.5 2.19
-6 5 -16 10.97 3.85
-6 5 -16 20.37 7.32
5 -6 -16 7.67 3.38
-1 6 16 6.43 3.22
1 5 16 6.25 3.93
1 -6 16 9.81 3.47
6 -5 -16 9.73 3.81
5 1 16 3.99 1.23
6 -1 16 8.23 4.42
6 -5 16 8.68 3.68
6 -1 -16 1.85 0.47
-5 -1 -16 8 2.9
-1 -5 -16 4.96 2.37
1 -6 -16 6.24 3.39
5 1 -16 5.49 3.3
-6 1 -16 7.8 3.19
1 -6 16 7.74 2.74
6 -1 -16 4.43 2.48
-5 -1 -16 7.38 3.19
1 5 -17 21.71 6.19
-5 6 -17 16.03 4.45
-1 6 -17 19.4 5.58
-1 -5 17 24.31 6.92
-6 1 17 13.42 4.73
-5 -1 17 7.96 3.63
-6 5 17 14.67 5.12
-5 6 17 9.99 4.2
1 -6 17 23.64 6.17
-1 -5 17 13.91 4.74
-1 6 17 8.09 3.74
6 -5 -17 15.78 4.6
6 -5 17 18.01 3.28
5 -6 17 22.93 4.73
5 -6 17 16.83 4.8
-5 6 -17 22.54 4.67
1 -6 -17 12.54 2.98
5 -6 -17 13.35 4.42
-6 5 -17 42.63 10
-1 6 17 15.05 5.45
1 -6 17 23.62 5.11
5 1 17 22.92 9.08
6 -1 17 15.28 6.27
1 5 17 14.13 4.99
6 -5 17 18.91 5.26
6 -1 -17 7.75 3.41
-6 5 -17 21.93 5.15
-5 -1 -17 15.93 5.08
6 -1 -17 13 4.64
-1 -5 -17 10.72 3.81
1 -6 -17 8.88 3.85
5 1 -17 19.72 6.71
-6 1 -17 18.05 5.2
-6 5 -17 20.91 5.06
-5 -1 -17 18.45 5.33
1 5 -18 1.41 0.83
-5 6 -18 0.63 1.38
-1 6 -18 1.87 2.01
-1 -5 18 1.1 2.72
-5 6 -18 0.55 0.42
-6 1 18 -1.91 2.81
-6 5 18 2.85 3.09
-5 -1 18 -0.24 0.13
-5 6 18 -1.44 3.13
1 -6 18 2.52 2.12
-1 -5 18 0.94 1.68
-1 6 18 -2.61 2.14
6 -5 18 2.14 1.27
5 -6 18 1.11 1.23
5 -6 -18 1.1 0.07
1 5 18 -0.8 2.22
1 -6 18 0.47 1.65
6 -5 -18 0.67 1.01
5 1 18 -0.91 3.93
6 -1 18 0.04 1.15
5 -6 18 -3.25 2.47
6 -5 18 4.3 1.61
6 -1 -18 -1.63 1.04
-6 5 -18 0.97 1.35
-6 5 -18 5.38 3.09
-5 -1 -18 -2.68 2.94
6 -1 -18 -1.37 0.61
-1 -5 -18 -0.71 2.18
1 -6 -18 1.02 2.52
5 1 -18 -2 2.57
-6 1 -18 -0.8 1.44
-6 5 -18 1.15 0.93
-1 6 18 3.22 2.58
-5 -1 -18 0.95 0.59
-5 6 -19 12.72 3.97
-1 6 -19 12.07 5.08
-1 -5 19 20.76 6.65
-6 1 19 9.08 3.88
-6 5 19 7.74 3.77
-5 -1 19 12.96 5.03
-5 6 19 10.6 4.25
1 -6 19 15.3 5.19
-1 6 19 8.59 4.03
-1 -5 19 8.86 3.05
-1 6 19 4.85 3.16
5 -6 19 14.87 3.89
5 -6 19 12.91 4.9
-6 5 -19 17.38 4.69
5 -6 -19 6.28 2.92
1 5 19 12.16 4.89
6 -5 -19 7.54 2.98
5 1 19 19.78 7.43
6 -1 19 15.42 6.41
6 -5 19 12.97 4.98
6 -1 -19 9.35 3.44
-6 5 -19 31.67 9.42
-5 -1 -19 12.85 4.4
6 -1 -19 11.57 4.27
-5 6 -19 19.03 4.41
-1 -5 -19 8.41 4.14
1 -6 -19 13.31 5.7
5 1 -19 9.96 4.32
-6 1 -19 12.75 4.72
-6 5 -19 14.14 4.78
-5 -1 -19 11.52 3.8
1 5 -19 14.17 5.42
6 -5 20 45.53 9.67
-6 1 20 26.8 7.43
-6 5 20 29.2 8.06
-5 -1 20 25.94 6.87
-5 6 20 29.9 8.15
-1 -5 20 40.03 8.65
-1 6 20 29.78 8.18
-5 -1 -20 37.69 7.34
-1 -5 20 53.74 10.69
1 -6 20 52.33 10.11
5 -6 20 42.11 7.06
5 -6 -20 29.34 6.62
-1 6 20 29.62 8.15
1 5 20 48.26 10.53
6 -5 -20 26.04 5.83
5 1 20 44.17 12.59
6 -1 20 44.63 11.33
6 -1 -20 31.86 7.21
6 -1 -20 33.69 8.26
-5 6 -20 56.08 7.65
-1 -5 -20 30.52 8.21
-5 6 -20 37.88 7.89
-1 6 -20 45.41 9.34
1 -6 -20 34.74 9.14
5 1 -20 41.81 9.23
5 -6 20 47.64 9.26
-6 1 -20 36.95 8.53
-6 5 -20 57.29 8.72
1 5 -20 40.32 9.68
-5 -1 -20 40.13 8.01
-1 6 -21 8.49 4.39
-5 -1 -21 14.59 5
-1 -5 21 14.83 5.25
1 -6 21 21.07 6.92
-6 1 21 9.58 4.48
-6 5 -21 19.13 5.02
-6 5 21 8.72 3.55
-5 -1 21 9.99 4.8
-5 6 21 11.65 5.41
-1 -5 21 12.45 3.88
-1 6 21 11.01 4.94
5 -6 21 19.05 4.73
5 -6 -21 7.25 3.1
-1 6 21 13.52 5.33
1 5 21 11.4 5.1
6 -5 21 7.19 4.01
6 -5 -21 12.32 4.48
5 1 21 18.27 7.39
6 -1 21 17.28 6.71
5 -6 21 9.01 4.09
6 -1 -21 7.12 2.72
6 -1 -21 8.67 3.49
-6 5 -21 35.14 9.29
-5 -1 -21 13.95 4.39
-1 -5 -21 13.73 5.4
5 1 -21 14.43 5.3
1 -6 -21 9.78 3.35
-6 1 -21 10.11 4.18
1 5 -21 10.91 4.77
-5 6 -21 13.98 4.21
-1 -5 22 16.25 5.49
1 -6 22 18.04 5.58
-6 1 22 7.49 5.01
-5 -1 22 4.51 2.35
-5 6 22 6.11 3.41
-1 -5 22 7.83 2.04
-1 6 22 8.84 4.91
5 -6 22 12.66 4.37
5 -6 -22 8.35 3.74
-1 6 22 10.6 4.64
1 5 22 18.21 7.69
6 -5 -22 7.38 3.28
5 -6 22 18.6 6.72
6 -5 22 14.29 6.23
6 -1 -22 7.03 3.23
-5 -1 -22 9 3.4
-1 -5 -22 8.74 4.32
1 -6 -22 7.02 3.46
-6 1 -22 7.66 3.31
-5 6 -22 11.31 4.39
-5 -1 -22 12.35 4.68
-1 6 -22 15.42 6.13
1 -6 23 8.47 4.38
-6 1 23 7.5 4.65
-5 -1 23 5.08 1.82
-1 -5 23 7.82 4.23
-1 6 23 11.38 5.34
5 -6 -23 3.9 2.34
6 -5 -23 3.64 2.81
6 -5 23 11.01 5.87
-5 -1 -23 8.04 3.76
-1 -5 -23 8.15 2.78
-5 6 -23 6.21 3.24
5 -6 23 10.27 5.03
-5 -1 -23 6 2.39
-5 -1 24 -4.21 4.85
-1 6 24 -1.25 0.8
5 -6 -24 -4.75 2.88
6 -5 -24 1.47 2.3
5 -6 24 -1.01 3.94
-5 -1 -24 0.51 2.63
6 -5 -25 0.13 1.65
6 0 0 2428.41 42.76
6 -6 0 2576.27 48.26
-6 0 0 2147.52 32.1
-6 0 0 2489.84 41.18
0 6 0 2137.06 45.14
0 6 0 2421.23 45.48
6 -6 0 2410.66 50.09
6 0 0 2205.25 37.73
-6 6 0 2669.19 41.83
-6 0 0 2206.05 30.26
6 0 0 2264.38 40.86
0 -6 0 2087.08 42.72
-6 6 0 2230.19 33.36
6 0 0 2274.07 37.74
0 6 0 2433.97 51.54
-6 0 0 2346.73 61.53
0 -6 0 2263.34 43.25
-6 0 0 2050.69 39.24
-6 6 0 2120.91 40.6
-6 6 1 6.02 3.38
6 0 1 17.28 5.29
6 -6 1 17.28 5.32
6 0 -1 12.21 4.61
-6 0 1 19.11 4.63
-6 0 -1 75.83 8.49
6 -6 -1 5.97 3.29
-6 0 -1 17.26 3.35
0 6 1 18.47 6.31
-6 0 1 3.17 2.09
0 6 1 23.69 6.71
-6 0 1 11.45 6.38
6 -6 -1 6.27 2.55
-6 0 1 7.12 2.38
0 6 -1 8.07 4.8
0 6 -1 11.33 5.1
6 -6 1 10.39 4
-6 6 -1 3.54 1.87
6 -6 -1 8.64 5.68
0 -6 -1 34.37 8.1
-6 6 -1 14.2 4.52
-6 6 -1 18.74 5.13
-6 6 1 7.53 4.76
0 -6 1 8.16 3.36
6 0 1 13.27 3.49
6 0 -1 14.3 4.11
6 0 1 44.18 7.59
-6 6 1 3.94 2.49
0 -6 1 67.74 9.67
6 0 1 39.89 4.89
6 0 -1 17.92 4.59
-6 0 -1 15.31 3.03
0 6 -1 71.69 11.36
0 6 1 25.43 7.06
0 -6 -1 7.05 4.35
0 -6 1 16.65 5.4
-6 0 -1 29.21 6.43
-6 0 -1 44.26 10.95
-6 0 1 9.57 4.19
-6 6 -1 13.71 4.81
6 0 -1 6.36 3.39
0 -6 -1 27.14 6.86
6 0 2 81.16 8.05
6 -6 2 90.28 9.3
-6 0 2 70.64 7.17
6 0 -2 80.33 8.04
6 -6 -2 91.37 9.23
-6 0 2 81.31 7.63
6 -6 -2 66.62 4.84
0 6 -2 73.69 8.87
-6 0 -2 84.92 7.84
0 6 2 62.64 8.12
-6 0 -2 70.44 4.34
0 6 -2 82.89 8.88
0 6 2 65.41 6.91
6 -6 2 84.24 9.43
6 -6 -2 82.27 9.67
-6 6 -2 75.57 7.31
0 -6 2 48.85 5.7
0 -6 -2 52.41 8.18
6 0 2 70.83 6.28
6 0 -2 74.74 7.94
-6 6 -2 68.56 5.55
-6 6 2 70.26 5.21
6 0 -2 73.95 7.42
0 -6 2 73.8 7.51
6 0 2 71.28 5.01
0 -6 -2 66.75 8.3
6 0 -2 66.79 7.98
0 6 -2 79.59 8.84
0 6 2 76.1 9.18
-6 0 2 71.67 10.97
-6 6 -2 74.93 7.58
-6 0 -2 61.76 4.56
0 -6 2 77.19 8.23
-6 6 2 78.01 6.75
-6 0 -2 75.6 7.84
-6 0 2 72.27 7.65
-6 0 -2 90.9 12.59
-6 6 2 67.73 7.38
0 -6 -2 69.52 7.73
-6 0 3 0.9 1.11
-6 6 3 0.75 1.24
6 0 3 1.38 1.85
6 -6 3 0.5 1.24
-6 0 3 -1.05 0.29
6 0 -3 1.68 1.49
0 -6 -3 0.54 1.07
6 0 -3 2.95 1.88
-6 0 -3 1.01 2.83
6 -6 -3 0.65 0.81
-6 6 -3 0.12 0.85
-6 0 3 4.3 1.79
6 -6 -3 0.65 0.45
0 6 -3 0.73 1.41
0 6 -3 0.14 1.28
-6 0 -3 3.03 1.95
6 -6 3 2.95 1.86
0 6 3 1.6 1.18
0 6 3 1.98 2.04
6 -6 -3 0.02 1.37
-6 6 -3 1.02 1.39
-6 0 -3 0.26 0.05
0 -6 3 0.34 0.34
6 0 3 0.74 0.7
0 -6 -3 -0.29 0.65
0 -6 3 0.84 1.28
0 -6 3 -0.28 0.7
0 -6 -3 2.17 2.36
-6 6 3 0.02 0.07
6 0 -3 1.84 1.33
0 6 -3 0.25 1.4
0 6 3 6.72 2.8
-6 6 3 1.84 0.93
-6 0 -3 3.22 1.79
-6 0 -3 1.26 0.71
6 0 -3 0.61 1.45
-6 6 -3 -0.81 0.83
6 -6 4 82 8.4
0 -6 -4 55.63 7.67
0 6 4 46.96 2.85
-6 0 -4 77.47 11.59
-6 0 4 74.65 7.24
6 0 -4 74 7.67
6 -6 -4 72.42 8.39
0 6 -4 65.27 8.2
-6 0 -4 65.52 6.88
0 6 -4 79.04 9.08
6 -6 4 68.9 8.36
0 6 4 62.08 7.92
-6 6 -4 65.88 6.4
0 6 4 62.36 6.28
6 -6 -4 78.59 9.25
-6 6 -4 65.72 5.38
6 0 4 62.79 5.54
6 0 -4 69.26 7.83
0 -6 4 59.17 6.37
-6 0 4 65.69 9.86
6 0 -4 63.67 6.69
6 0 -4 51.23 7.53
0 6 -4 64.21 7.59
0 -6 4 66.9 7.73
6 0 4 68.6 9.32
-6 6 4 63.6 3.55
0 -6 4 55.17 4.63
0 6 4 53.37 3.3
-6 0 -4 56.96 6.59
-6 6 -4 65.88 7.03
-6 6 4 71.08 7.01
-6 0 4 60.81 7.1
-6 6 4 62.88 7.35
6 0 4 74.86 7.8
-6 0 -5 -1.25 3.47
-6 0 5 2.27 1.48
6 0 5 9.49 2.41
-6 6 5 0.09 1.02
-6 6 5 14.63 3.41
6 -6 5 12.18 3.27
0 6 5 0.78 0.19
6 0 -5 0.56 0.33
-6 0 5 0.47 0.89
0 6 -5 0.97 1.19
6 0 -5 0.23 0.38
6 -6 5 0.64 1.37
-6 0 5 0.34 0.48
-6 6 -5 5.25 1.89
0 6 5 0.14 0.6
0 6 5 0.61 0.78
6 -6 -5 0.21 0.93
6 0 5 2.03 1.19
0 -6 5 -0.37 1.29
6 0 5 -0.03 1.14
0 -6 5 0.25 0.53
0 -6 -5 1.24 1.32
6 0 -5 3.3 1.3
0 6 -5 -0.83 1.42
-6 0 -5 1.14 1.27
-6 6 -5 1.93 1.16
-6 6 5 0.79 0.3
-6 0 5 -0.2 1.89
6 0 -5 -1.38 1.09
-6 6 6 193.69 13.61
-6 6 6 212.79 13.31
0 -6 -6 175.37 8.53
0 6 -6 183.68 13.98
0 6 6 178.29 8.49
6 0 -6 215.12 13.68
-6 0 -6 227.73 20.44
-6 6 -6 198.58 11.15
6 -6 6 190.64 13.79
0 -6 -6 168.54 17.15
0 6 6 184.68 13.86
0 6 6 167.53 9.11
6 -6 -6 221.81 15.6
6 0 6 178.57 8.56
6 0 6 208.08 17.46
-6 0 6 165.22 15.38
0 -6 6 168.75 10.33
6 0 -6 184.39 13.61
0 -6 6 203.46 14.39
0 -6 -6 158.36 14.11
6 0 -6 134.22 13.13
0 6 -6 194.15 12.9
6 0 -6 186.65 11.52
0 6 6 168.03 9.81
-6 0 -6 172.72 12.23
-6 6 -6 192.47 12.42
-6 0 6 222.59 16.81
6 0 6 225.75 14.48
-6 0 6 181.36 12.76
6 0 -7 1.09 1.31
-6 0 7 0.32 0.98
-6 6 7 0.85 1.55
-6 0 7 2.82 1.91
-6 0 -7 0.52 1.97
0 6 7 -0.98 1.06
6 0 -7 -0.53 1.22
0 6 -7 3.01 1.71
0 -6 -7 1.46 1.14
6 -6 7 0.35 1
-6 6 -7 1.57 1.11
0 6 7 0.18 0.76
0 -6 7 1.32 1.7
6 0 7 0.43 0.41
6 -6 -7 0.65 0.72
0 6 7 1.06 0.73
0 -6 -7 0.49 1.64
6 0 7 0.52 1.45
0 -6 -7 -1.19 1.63
-6 0 7 -1.01 1.58
6 0 -7 0.74 1.69
-6 6 -7 3.07 1.58
0 6 7 1.01 0.03
6 -6 8 5.43 1.68
-6 0 8 4.49 2.38
-6 6 8 4.86 2.3
-6 0 8 1.52 0.96
0 6 8 7.97 2.31
6 0 -8 3.33 1.64
0 6 -8 3.98 2.42
6 -6 -8 9.42 2.86
0 -6 -8 3.81 1.13
-6 6 -8 3.78 1.61
6 -6 8 4.61 1.91
0 -6 8 4.54 2.01
6 0 8 4.54 1.29
0 6 8 3.1 1.62
0 6 8 3.3 1.09
0 -6 -8 1.22 0.34
6 0 8 4.6 2.56
0 -6 -8 3.18 1.85
-6 0 8 2.51 2.05
6 0 -8 0.88 1.72
-6 6 -8 2.49 1.47
0 6 8 3.87 1.47
0 -6 9 1.07 0.38
-6 0 -9 1.37 1.79
-6 0 9 0.09 0.4
-6 6 9 5.01 3.06
-6 0 9 2.23 1.8
0 -6 9 -0.5 0.34
0 6 -9 1.39 1.32
0 6 9 -1.11 1.48
-6 6 -9 0.78 0.66
6 -6 9 1.17 1.23
0 -6 -9 0.25 0.54
0 -6 9 0.03 0.79
6 0 9 0.14 0.39
0 6 9 -2.34 1.78
0 6 9 7.8 2.64
6 -6 -9 -0.13 0.89
6 0 -9 0.51 0.91
0 6 9 1.12 0.41
0 -6 -9 -0.86 1.85
6 0 9 1.07 4.41
6 -6 9 0.16 0.35
-6 0 9 -0.9 2.2
0 -6 -9 -1 2.03
6 0 -9 1.82 1.39
0 6 9 0.91 0.85
6 -6 9 2.36 0.95
-6 0 10 219.41 16.06
-6 6 10 223.31 16.47
-6 6 -10 235.33 13.15
0 -6 10 212.84 10.4
0 6 10 217.56 14.18
6 -6 10 226.22 15.23
6 0 10 207.63 8.01
6 -6 -10 258.81 17.71
6 0 10 263.66 9.7
0 6 10 230.89 16.93
6 0 -10 247.35 12.67
0 6 10 216.47 8.66
0 6 10 221.04 16.83
6 0 10 285.75 23.9
0 -6 10 288.05 19.05
0 6 10 202.21 10.75
6 -6 10 242.68 8.03
0 -6 -10 193.16 17.38
6 0 -10 228.96 19.2
-6 0 -10 267.81 16.76
0 6 -10 223.69 16.95
-6 0 10 242.96 17.32
6 -6 10 276.73 12.09
0 -6 10 228.37 8.41
-6 0 -11 9.04 4.06
-6 0 11 2.2 3.4
-6 6 11 4.36 3.35
6 0 11 2.01 0.57
0 6 -11 7.28 3.78
0 -6 11 1.27 1.08
-6 6 -11 1.59 1.51
6 -6 11 4 2.65
6 0 11 1.76 0.79
0 -6 11 -0.76 4.54
6 -6 -11 5.63 4.11
0 6 11 4.35 3.39
0 6 11 2.38 1.19
6 0 11 1.34 1.33
6 -6 11 0.71 0.27
-6 0 11 -0.04 1.47
0 -6 -11 3.25 2.64
6 0 -11 5.27 3.47
6 -6 11 2.57 1.78
0 6 11 2.83 1.55
0 -6 11 0.45 0.51
6 0 -11 1.85 1.09
-6 0 12 578.1 27.95
-6 6 12 614.68 29.39
0 6 12 542.92 18.26
0 -6 12 757.97 19.28
6 -6 12 625.78 25.85
6 -6 -12 753.74 31.05
0 6 12 649.81 31.05
6 0 -12 759.07 24.03
6 0 12 751.92 17.46
6 0 12 824.07 43.58
0 6 12 698.7 15.1
0 -6 12 814.73 33.31
-6 0 12 852.46 30.65
6 0 -12 690.82 33.78
0 -6 -12 532.04 30.81
0 6 -12 544.61 19.15
-6 0 -12 757.77 29.86
6 -6 12 766.06 21.02
0 6 -12 670.21 30.88
-6 6 -12 665.89 23.65
6 -6 13 0.65 0.82
0 6 -13 0.77 1.01
-6 0 13 4.03 3.48
-6 6 13 3.43 3.22
-6 6 -13 1.76 1.72
6 -6 13 1.09 1.49
0 -6 13 -0.47 0.94
6 0 13 0.81 0.53
6 -6 -13 6.13 3.59
0 6 13 0.09 1.4
6 0 -13 1.16 0.8
6 0 13 -0.78 3
0 -6 -13 -0.31 0.73
0 6 13 2.83 1.5
6 0 -13 5.85 3.61
0 6 -13 5.36 2.78
-6 0 13 1.63 2.18
0 -6 13 4.81 2.17
-6 0 -13 3.51 2.93
0 6 -14 17.56 4.93
-6 6 -14 20.34 4.42
-6 0 14 17.27 5.12
-6 6 14 21.12 5.77
0 -6 14 28.36 6.77
6 -6 -14 17.48 4.81
0 6 14 18.25 5.52
6 0 -14 21.84 4.36
6 0 14 28.14 8.29
6 -6 14 24.23 5.72
6 -6 14 24.91 4.02
-6 0 14 31.18 5.35
0 -6 -14 16.55 5.89
6 0 -14 21.76 6.26
-6 0 -14 21.97 5.36
0 6 -15 1.1 0.53
-6 6 -15 0.13 1.07
-6 0 15 1.95 1.99
-6 0 15 1.33 0.82
-6 6 15 1.98 0.91
0 -6 15 -1.31 2.73
0 -6 -15 -0.9 1.1
6 -6 15 0.87 0.29
6 -6 -15 3.17 2.19
0 6 15 -1.29 2.72
6 0 15 -1.49 2.25
6 -6 15 1.01 1.42
-6 0 -15 1.1 0.5
6 0 -15 3.58 2.01
-6 0 -15 -0.83 1.25
0 6 -16 30.43 7.35
-6 0 16 23.61 6.11
-6 6 16 31.03 7.29
-6 6 -16 48.16 7.66
6 -6 16 41.7 5.56
0 -6 16 47.25 8.93
0 6 16 26.39 7.39
6 -6 -16 31.46 6.51
6 0 16 47.81 11.66
6 -6 16 33.78 6.95
-6 0 -16 36.62 7.09
6 0 -16 32.35 7.52
0 -6 -16 22.29 6.54
-6 6 -16 39.78 6.5
-6 0 -16 34.58 7.09
-6 6 -17 1.56 2.56
0 6 -17 -2.38 3.03
-6 0 17 -1.53 1.53
-6 6 17 0.3 1.37
0 -6 17 0.54 0.76
6 0 17 1.63 2.77
-6 6 -17 -1.62 1.79
6 -6 17 1.77 0.3
6 -6 17 0.49 0.58
0 6 17 -1.48 1.15
6 -6 -17 -2.21 2.12
-6 0 -17 -0.97 1.43
6 0 -17 1.3 0.82
0 -6 -17 -3.67 2.45
-6 0 -17 1.89 0.67
-6 0 18 48.93 10
-6 6 18 49.93 9.99
6 -6 -18 49.22 8.43
0 6 18 49.41 10.46
0 -6 18 94.25 13.46
6 0 18 89.33 17.4
-6 6 -18 99.89 11.22
6 -6 18 71.76 11.34
6 -6 18 79.41 8.25
-6 0 -18 64.6 9.65
6 0 -18 76.32 11.83
-6 0 -18 61.53 10.19
0 -6 -18 45.23 9.77
-6 6 -18 72.14 9.85
0 6 -18 65.57 11.42
0 6 -19 -1.09 1.9
-6 0 -19 2.18 0.53
-6 0 19 2.45 2.37
-6 6 19 -1.96 1.73
0 -6 19 2.82 3.53
0 6 19 2.99 3.13
6 -6 -19 1.03 1.29
6 0 19 -0.32 2.05
6 -6 19 2.05 2.25
6 0 -19 -3.48 2.14
0 -6 -19 -2.7 2.84
-6 6 -19 -0.13 1.12
-6 0 -19 1.12 0.79
-6 6 -19 0.14 0.99
0 6 -20 25.97 7.69
6 -6 -20 11.32 4.17
-6 0 20 21.58 6.79
-6 6 20 17.58 5.82
0 -6 20 37.07 8.7
-6 0 -20 28.09 6.38
0 6 20 26.02 7.61
6 0 20 41.8 12.2
6 -6 20 32.04 8.49
-6 6 -20 37.82 6.97
6 0 -20 27.72 7.71
0 -6 -20 20 6.08
-6 0 -20 22.22 6.22
-6 6 -20 29.9 7.01
-6 0 21 -0.75 1.06
-6 6 21 -2.2 3.18
0 -6 21 -0.03 1.61
0 6 21 -1.18 4.22
6 -6 -21 -1.4 1.89
6 0 -21 0.86 1.43
-6 6 -21 0.87 1.74
0 -6 -21 -0.45 0.76
6 -6 21 -0.78 0.86
-6 0 -21 1.87 1.66
-6 0 -21 1.8 1.97
0 6 -21 -1.24 2.84
-6 0 22 30.11 8.61
6 -6 -22 23.84 5.94
6 -6 22 52.11 11.14
-6 0 -22 35.57 7.5
-6 0 23 0.05 2.04
6 -6 -23 0.1 1.41
6 -6 -24 9.36 4.37
3 4 0 81.87 8.94
3 -7 0 86.39 8.54
4 3 0 78.53 5.95
3 4 0 73.17 4.4
3 -7 0 86.53 7.49
3 -7 0 63.55 8.56
4 -7 0 72.09 8.88
-3 7 0 82.58 8.97
-4 7 0 85.67 8.98
-4 -3 0 76.35 6.99
7 -4 0 94.56 8.87
4 3 0 79.32 10.22
7 -3 0 90.74 8.33
3 -7 0 81.85 8.9
3 4 0 75.1 5.32
4 3 0 38.05 6.1
-3 -4 0 82.53 7.69
-4 7 0 77.46 7.56
-3 -4 0 84.16 9.31
-7 4 0 79.55 6.32
3 -7 0 75.74 8.45
4 -7 0 71.06 9.01
-7 3 0 59.12 9.04
-4 -3 0 79.99 7.44
-3 -4 0 78.31 7.67
-4 -3 0 72.16 5.99
-7 4 0 71.76 3.95
3 4 0 76.48 10.51
-3 7 0 76.62 5.58
-4 7 0 79.69 6.58
-7 3 0 78.42 8.24
4 3 0 77.29 8.73
-7 4 0 80.62 8.53
3 4 1 215.53 13.9
4 3 1 207.63 9.61
7 -4 1 205.41 11.14
3 4 1 198.45 7.42
4 3 -1 216.26 9.92
3 -7 1 252.69 12.27
3 4 -1 187.15 7.09
-7 3 -1 186.25 15.2
3 4 1 222.94 13.44
3 -7 1 178.73 14.21
-3 -4 1 199.53 13.74
3 -7 -1 169.19 13.67
4 -7 1 189.62 14.37
4 -7 -1 200.17 15.01
-3 7 -1 205.96 14.05
-4 -3 1 205.05 11.77
-4 7 -1 225.75 14.21
3 -7 -1 224.85 15.03
-3 7 1 206.31 14.22
4 3 -1 210.61 15.86
-3 -4 1 209.93 12.55
-4 7 1 220.51 14.38
-3 7 1 240.96 14.32
7 -4 1 243.46 14.27
7 -4 -1 248.63 14.55
7 -3 1 236.1 13.21
3 4 1 212.35 13.41
7 -3 -1 245.46 14.08
4 3 1 200.21 16.66
3 4 -1 180.81 6.54
3 4 1 204.76 10.61
4 3 -1 124.9 10.22
4 3 1 112.86 11.29
7 -3 -1 251.3 14.49
-7 4 -1 249.27 15.12
-4 7 1 222.01 13.12
-3 -4 -1 205.39 14.51
-7 4 -1 165.11 4.88
-7 4 -1 206.37 10.68
-7 4 -1 314.07 17.12
-4 -3 1 209.45 12.41
3 -7 1 187.19 12.48
3 -7 -1 194.48 14.24
4 -7 1 191.97 13.72
-7 4 1 195.28 9.19
4 -7 -1 178.02 14.69
-7 3 -1 212.18 10.88
-7 3 1 206.04 18.36
-3 -4 1 209.46 12.8
-4 7 -1 213.24 12.44
3 4 -1 224.02 17.19
-4 -3 -1 206.64 11.58
-3 -4 -1 210.98 12.43
-4 -3 1 196.2 9.42
-3 7 -1 214.07 9.12
3 4 1 191.89 17.3
-4 7 -1 208.11 10.46
4 3 -1 208.57 14.53
-7 3 -1 212.43 13.72
-7 4 -1 208.67 13.5
-3 7 1 208.99 9.24
-4 7 1 200.09 10.35
-7 3 1 199.23 13.46
4 3 1 231.18 14.28
-7 4 1 211.77 13.77
3 -7 1 220.8 13.42
3 4 -1 216.79 14.55
4 3 2 56.45 5.16
4 -7 2 65.74 7.03
3 4 2 56.93 4.08
-4 -3 -2 64.83 6.72
3 4 2 67.31 7.62
7 -4 2 53.47 5.83
3 -7 2 69.57 6.08
4 3 -2 60.86 5.36
3 4 2 60.59 6.6
4 3 -2 65.81 8.47
3 -7 2 54.07 7.75
3 -7 -2 49.52 7.47
4 -7 2 51.77 7.61
-3 7 -2 58.57 7.31
4 -7 -2 56.79 8.15
-4 -3 2 56.69 6.47
-4 7 -2 58.31 7.19
-3 -4 2 57.1 6.72
-3 7 2 65.26 8.14
7 -4 2 66.73 7.28
-3 7 2 62.94 7.11
-4 7 2 54.77 7.39
7 -3 2 67.65 6.96
7 -4 -2 68.52 7.56
3 4 2 57.16 6.97
7 -3 -2 64.05 7.18
3 -7 -2 66.8 8.34
3 4 2 51.17 6.04
4 3 -2 31.95 4.56
4 3 2 32.68 6.15
4 3 2 51.27 8.38
-4 7 -2 61.48 6.62
7 -3 -2 68.9 7.27
-7 4 -2 70.76 7.96
-4 -3 -2 56.69 7.67
-4 -3 2 61.98 6.94
-3 -4 -2 64.01 8.2
-7 4 -2 56.05 5.91
-4 7 2 56.9 6.7
-7 4 -2 92.01 8.59
-4 7 -2 59.1 5.61
-3 -4 2 58.99 6.93
3 -7 2 70.36 7.26
3 -7 -2 49.76 7.58
-7 3 -2 62.37 6.14
4 -7 2 54.9 6.9
3 4 -2 59.12 8.2
4 -7 -2 43.91 7.56
-7 3 -2 46.23 6.85
-4 -3 -2 54.09 5.98
-3 7 -2 61.59 4.98
-4 -3 2 57.32 5.07
-3 -4 -2 57.02 6.5
4 3 -2 57.76 7.72
-7 3 -2 58.56 7.09
-7 4 -2 62.02 7.38
3 4 2 50.08 8.84
-3 7 2 54.17 4.76
-7 3 2 53.44 6.93
-7 4 2 54.17 6.97
-4 7 2 57.06 5.57
3 -7 2 60.7 7.01
4 3 2 63.18 7.4
3 4 -2 70.26 8.43
-3 -4 -3 41.96 5.16
3 -7 3 47.18 4.83
-4 -3 -3 42.59 5.35
3 4 3 44.81 6
7 -4 3 36.48 5.05
4 3 -3 38.17 4.29
-4 -3 3 41.4 5.69
3 -7 3 31.84 5.95
3 4 3 40.76 5.04
-3 7 -3 38.72 5.87
4 -7 3 35.6 6.21
3 -7 -3 34.02 5.79
-4 -3 3 40.57 5.6
-4 7 -3 39.75 5.85
4 -7 -3 36.8 6.41
-3 -4 3 45.44 6.14
7 -4 3 46.58 6.13
-3 7 3 39.85 6.52
7 -3 3 45.22 5.63
-3 7 3 42.2 5.66
4 3 3 40.66 5.59
7 -4 -3 50.99 6.64
4 -7 -3 43.6 6.87
7 -3 -3 48.9 6.36
3 -7 -3 42.92 6.98
3 4 3 43.83 6.01
3 4 3 35.69 5.37
-4 7 -3 39.07 5.3
4 3 -3 25.99 3.65
4 3 3 27.97 6.24
-7 4 -3 41.7 5.99
7 -3 -3 52.12 6.18
-7 3 -3 42.71 6.44
7 -3 3 56.04 7.74
-4 -3 -3 43.23 6.76
-7 4 -3 45.21 5.33
-3 -4 3 40.89 5.86
-3 -4 -3 39.53 6.43
-7 4 -3 57.12 6.28
3 4 -3 41.88 6.85
3 -7 3 35.01 4.78
-7 4 3 61.77 9.2
-7 3 -3 41.39 5.13
-4 7 3 38.78 5.73
4 -7 3 34.63 4.91
3 -7 -3 34.84 6.9
-7 3 -3 33.83 5.42
3 4 -3 41.27 6.63
-7 4 3 43.75 6.29
4 -7 -3 26.82 6.22
-3 7 -3 41.07 4.22
4 3 -3 40.91 6.68
-4 7 -3 44.03 4.83
-4 -3 3 38.66 4.07
-7 3 -3 39.92 5.96
-7 4 -3 38.05 5.69
3 -7 3 46.21 6
-4 -3 -3 41.04 4.9
-3 -4 -3 43.28 5.43
3 4 -3 39.14 6.43
-7 3 3 39.05 6.04
-3 7 3 41.68 4.38
-4 7 3 43.68 5.08
3 4 3 30.88 7.22
4 -7 3 44.65 5.82
4 3 3 42.19 5.65
3 4 3 40.69 3.62
4 3 3 42.32 4.51
-7 3 4 8.34 3.12
3 4 4 10.25 2.06
-7 4 4 9.1 3.07
4 3 4 8.78 2.2
-4 7 4 7.54 2.16
-3 7 4 10.26 2.27
4 3 -4 8.5 3.03
-4 -3 -4 10.57 2.58
-3 -4 -4 9.81 2.72
4 3 4 11.34 2.91
3 -7 4 10.16 2.24
3 4 -4 14.71 4
-4 7 -4 7.83 2.21
4 3 4 12.61 2.97
-7 4 -4 10.9 1.88
-3 -4 -4 7.99 2.08
3 4 4 9.65 2.82
-4 -3 -4 11.18 2.84
7 -4 4 8.48 2.45
3 -7 4 9.66 3.4
-7 3 -4 8.14 1.25
3 4 4 8.04 1.85
4 -7 4 9.35 3.29
3 4 4 10.74 2.81
3 -7 -4 11.65 3.45
-7 3 4 12.88 3.02
-4 -3 4 9.01 2.76
4 -7 -4 12.34 3.64
-3 7 -4 8.98 2.9
-4 -3 4 11.64 3.41
-4 7 -4 8.96 2.7
-3 -4 4 12.94 3.51
7 -4 4 13.3 3.36
7 -3 4 14.53 3.06
-3 7 4 11.96 3.86
-3 -4 4 10.55 3.27
-3 7 4 11.73 2.95
4 -7 -4 9.74 3.35
7 -4 -4 12.61 3.44
3 4 4 6.38 2.11
7 -3 -4 12.16 3.36
4 3 4 9.23 3.03
-7 4 -4 10.7 2.9
-7 3 -4 10.77 2.94
3 4 -4 10.09 3.22
7 -3 4 11.55 3.3
-4 -3 -4 10.01 3.39
-7 4 -4 10.87 2.44
7 -3 -4 12.18 2.98
-3 -4 -4 13.19 4.09
3 4 -4 10.86 3.48
3 -7 4 6.69 1.84
4 -7 4 9 2.29
3 -7 -4 5.69 2.64
3 -7 -4 8.52 2.86
-7 4 4 14.62 4.41
3 -7 4 11.31 3.04
4 -7 -4 5.06 2.65
-3 -4 4 9.8 1.52
-7 4 -4 8.54 2.33
4 3 -4 5.5 1.27
-4 7 -4 9.06 2.34
-7 3 4 8.43 3.11
-7 3 -4 7 2.18
-7 3 -4 11.24 3.06
-7 3 -4 8.31 2.34
-7 4 -4 8.9 2.86
-4 -3 4 11.51 2.29
4 -7 4 9.87 2.7
-4 7 5 102.13 8.32
-3 7 5 103.47 7.58
4 3 5 114.94 8.93
3 -7 5 117.78 7.71
-3 -4 -5 100.37 7.77
-4 -3 -5 107.3 8.35
3 4 5 111.05 9.39
-7 3 -5 72.36 3.13
-3 7 -5 104.28 9.98
-7 3 5 132.08 9.27
-4 -3 5 119 10.71
-4 7 -5 107.14 9.56
3 -7 5 91.37 10.33
4 -7 5 93.53 10.25
-7 4 -5 108.67 5.73
3 4 5 103.69 6.92
3 -7 -5 91.26 10.1
-3 -4 5 107.38 10.23
4 -7 -5 95.06 10.32
7 -4 5 123.51 10.12
7 -3 5 117.57 9.25
-4 7 -5 111.8 9.06
-3 7 5 100.84 8.31
7 -4 -5 119.11 10.61
3 -7 -5 126.05 12.38
4 3 5 108.06 9.04
7 -3 -5 124.03 10.67
3 4 5 81.96 9.39
3 4 -5 113.8 10.31
4 3 5 84.55 11.96
-7 4 -5 114.1 10.13
3 4 5 108.36 9.57
-4 -3 5 102.99 9.69
7 -3 -5 117.54 8.45
-7 3 -5 123.49 10.51
-3 -4 5 109.38 10.28
-7 4 -5 107.74 9.31
7 -4 5 129.26 10.93
-4 -3 -5 109.22 11.22
7 -3 5 118.28 10.97
-3 -4 -5 103.02 10.96
-7 4 -5 135.38 8.38
-7 3 -5 114.86 9.45
3 4 -5 108.7 11.21
3 -7 5 95.5 6.91
4 -7 5 95.02 6.99
-7 4 5 176.54 17.09
3 -7 -5 72.38 10.31
4 -7 -5 57.91 10.71
-7 3 5 135.77 17.04
-7 3 -5 88.17 5.36
3 -7 5 121.02 10.06
4 3 -5 109.17 11.8
-4 7 -5 104.33 7.94
-7 3 -5 107.62 9.91
-7 4 -5 103.42 9.6
-3 -4 5 98.36 5.03
4 -7 5 123.15 9.75
3 4 -5 104.15 11.09
-4 -3 5 103.01 6.95
3 4 5 106.47 6.74
4 3 5 115.54 8.06
-7 3 5 104.97 10.37
-7 4 5 99.69 10.1
-4 7 6 29.54 4.59
3 -7 6 33.72 4.19
-3 7 6 26.18 3.97
4 3 -6 23.62 5.68
4 3 6 33.8 4.74
-3 -4 -6 28.72 4.27
-7 4 -6 31.64 3.05
-3 7 -6 31.2 5.41
-4 -3 -6 31.07 4.61
3 4 6 30.08 4.78
-7 3 6 37.51 4.75
-4 7 -6 30.74 5.19
-4 -3 6 30.2 5.54
4 3 6 26.77 3.2
4 -7 6 27.77 5.64
3 4 6 26.52 3.08
3 -7 -6 26.53 5.5
4 -7 -6 29.95 5.91
7 -4 6 32.98 5.14
7 -3 6 30.4 4.76
3 4 -6 30.34 5
-7 4 -6 32.98 3.73
-3 7 6 29.41 4.31
3 -7 -6 32.43 6.33
7 -3 -6 32.36 5.59
4 3 6 28.18 4.58
-7 4 -6 32.42 5.19
-4 -3 6 27.09 4.95
3 4 6 28.96 5.02
-7 3 -6 33.63 5.33
3 4 6 21.77 5.18
7 -3 -6 31.93 4.19
-3 -4 6 33.99 5.96
4 3 6 23.03 6.1
-7 4 -6 29.61 5.05
7 -4 6 34.83 5.36
7 -3 6 34.06 5.67
-7 3 -6 29.87 5.02
3 -7 6 25.28 3.31
4 -7 6 26.66 3.28
-4 -3 -6 28.51 5.88
-3 -4 -6 29.03 5.77
3 4 -6 28.99 5.64
3 -7 6 34.15 5.42
7 -4 -6 34.45 5.76
3 -7 -6 20.04 5.27
4 -7 6 35.4 5.28
-7 4 6 44.27 8.34
4 -7 -6 15.42 5.6
-7 3 -6 28.98 5.06
-7 4 -6 28.13 5.18
3 4 -6 31.74 6.13
-3 -4 6 28.67 2.9
3 4 6 29.58 3.82
-7 3 6 42.2 9.7
4 3 6 29.62 4.14
-4 -3 6 29.66 3.8
-7 3 6 26.84 5.2
-7 4 6 29.08 5.61
4 3 7 9.38 2.43
-3 -4 7 8.17 1.66
4 3 -7 9.31 3.56
-4 -3 7 7.85 1.98
4 -7 7 9.08 2.53
-7 3 7 4.63 1.8
3 -7 7 10.6 2.34
-7 4 7 9.49 3.37
3 -7 -7 5.92 0.89
3 4 -7 7.73 3.32
-4 7 7 9.53 2.68
-3 7 7 8.48 2.27
-4 -3 7 8.57 2.92
-7 4 -7 9.74 1.63
4 3 7 9.13 2.6
4 3 7 9 2.22
4 -7 7 7.32 2.85
4 3 7 7.93 1.53
-3 -4 -7 8.32 2.25
-7 3 -7 10.29 4.44
-7 3 7 9.39 2.21
-3 -4 7 10.34 3.25
-3 7 -7 10.3 3.29
-4 -3 -7 7.85 2.13
-4 7 -7 6.64 2.2
3 -7 -7 6.61 2.81
3 4 7 7.82 2.49
3 4 7 8.03 2.32
3 4 7 7.67 1.48
4 -7 -7 5.5 2.87
7 -4 7 8.81 2.51
7 -3 7 9.51 2.49
3 4 7 4.8 1.89
7 -4 -7 10.13 3.09
-3 7 7 9.84 2.51
4 3 7 8.92 3.75
7 -3 -7 11.17 3.1
-7 4 -7 6.77 2.31
4 3 7 6.94 1.14
-7 3 -7 7.97 2.61
3 -7 7 14.2 3.4
4 -7 7 8.92 2.56
7 -4 7 14.52 3.09
-4 -3 -7 13.26 4.09
7 -3 7 9.94 2.82
-3 -4 -7 6.67 3
3 -7 7 7.96 1.52
3 4 -7 6.05 2.14
4 -7 7 7.52 1.4
7 -3 -7 7.56 1.93
3 -7 -7 2.8 2.13
-7 4 -7 9.16 2.88
-7 4 7 12 4.77
-7 3 -7 10.23 2.79
-7 3 -7 7.65 2.51
-7 4 -7 7.51 2.47
-7 3 7 9.89 3.91
3 4 7 11.32 2.45
-7 3 8 32.77 6.16
-7 4 8 41.78 7.15
4 3 -8 32.03 6.88
-4 7 8 33.22 5.29
-3 7 8 30.53 4.75
3 -7 8 5.79 2.04
-3 7 -8 33.96 5.88
4 3 8 37.85 4.88
-4 7 -8 34.24 5.61
-7 3 8 43.48 5.2
-3 -4 -8 33.46 4.47
-4 -3 -8 31.06 4.61
3 4 8 33 5.2
4 -7 8 28.46 5.71
4 3 8 16.85 1.76
3 -7 -8 31.29 5.95
7 -4 8 38.62 5.53
7 -3 8 37.29 5.07
4 -7 -8 32.82 6.24
3 4 8 21.5 2.04
-7 3 -8 45.67 8.71
7 -4 -8 35.92 5.9
4 3 8 19.04 1.55
-3 7 8 35.88 4.68
-4 -3 8 34.24 6.34
-7 4 -8 30.66 5.2
7 -3 -8 33.22 5.74
-3 -4 8 35.78 6.37
-7 3 -8 36.86 5.73
4 3 8 32.83 5.14
3 4 8 24.07 5.86
7 -3 -8 37.83 4.37
4 3 8 31.63 7.7
3 4 8 34.75 5.78
-7 4 -8 33.53 5.8
-7 3 -8 32.86 5.6
-4 7 8 28.72 2.26
3 -7 8 33.13 3.07
-4 -3 -8 33.96 6.47
7 -4 8 36.78 5.23
-3 -4 -8 32.32 6.46
7 -3 8 31.21 5.02
4 -7 8 28.23 2.6
3 4 -8 34.88 6.41
-3 7 8 28.85 2.94
-7 4 8 45.27 10.06
3 -7 8 35.4 5.72
-7 3 8 51.28 11.12
4 -7 8 38.71 5.61
3 -7 -8 14.92 4.76
4 -7 -8 11.24 4.59
-7 3 -8 32.12 5.67
-7 4 -8 32.64 5.61
3 4 -8 33.74 6.84
3 4 8 39.13 5.02
4 3 8 38.44 5.34
-7 4 -8 32 3.08
-3 -4 8 32.95 3.64
4 -7 8 40.57 5.45
-4 -3 8 32.54 4.44
4 3 -9 14.28 4.73
4 -7 9 19.64 3.75
3 4 -9 14.63 4.7
-3 -4 9 12.84 2.46
-4 -3 9 13.5 2.97
-7 3 9 15.5 4.38
-7 4 9 16.02 4.46
-4 7 9 12.49 3.39
-3 7 9 13.17 3.26
-4 -3 9 15.01 4.35
-3 -4 9 16.77 4.53
-3 7 -9 16.47 4.16
-7 3 9 16.75 3.09
-4 7 -9 16.95 3.98
4 3 9 18.1 3.26
7 -3 -9 14.16 3.61
-3 -4 -9 12.54 2.76
7 -4 9 15.4 3.48
3 -7 -9 13.71 4.01
4 3 9 14.35 3.42
7 -3 9 16.99 3.36
3 4 9 14.53 3.33
4 -7 -9 12.02 3.69
-7 3 -9 18.98 5.94
3 4 9 9.94 3.41
3 -7 9 17.84 4.16
7 -4 -9 18.07 4.39
4 3 9 18.23 6.02
-4 7 9 10.85 1.31
-7 4 -9 18.72 4.18
-3 7 9 17.33 3.09
-7 3 -9 16.64 4.03
4 -7 9 17.55 3.72
4 -7 9 11.07 1.21
-4 -3 -9 14.88 4.25
7 -4 9 16.82 3.34
-3 -4 -9 14.07 4.41
7 -3 9 14.84 3.39
3 4 -9 14.59 3.77
7 -3 -9 16.71 2.82
3 -7 -9 6.42 2.05
-7 4 -9 17.24 4.64
4 -7 -9 4.07 2.9
-7 3 -9 12.21 3.72
-7 4 -9 15.42 2.3
-7 3 -9 17.36 4.32
-7 4 -9 13.93 3.79
-3 7 9 16.12 2.06
3 4 9 16.88 3.46
4 3 9 17.2 3.46
4 3 -10 33.07 7.4
-4 -3 10 34.27 5.13
-3 -4 10 30.31 4.14
-7 3 10 36.86 7.1
-7 4 10 31.66 6.47
-3 7 -10 33.23 5.88
-4 7 10 30.88 5.54
3 4 -10 33.58 6.99
-4 7 -10 33.78 5.96
-3 7 10 29.53 5.08
-7 3 10 42.22 5.09
4 3 10 39.4 4.91
3 4 10 36.09 5.52
7 -4 10 34.7 5.1
7 -3 10 37.41 5.02
3 4 10 29.26 6.65
3 -7 -10 33.83 6.19
4 -7 -10 32.9 6.53
-7 3 -10 50 9.63
7 -4 -10 41.33 6.95
-7 4 -10 39.96 6.16
-3 -4 10 38.14 7.08
7 -3 -10 34.99 6.25
-3 7 10 35.01 4.51
-7 3 -10 31.42 5.26
-7 4 -10 39.31 6.94
-3 7 10 28.53 2.79
7 -3 -10 35.65 3.99
4 3 10 36.85 5.75
-7 3 -10 35.93 6.49
4 3 10 36.83 8.65
3 -7 10 41.6 6.47
3 4 -10 35.18 6.54
7 -4 10 38.97 5.15
7 -3 10 37.62 5.63
4 -7 10 37.12 5.8
-4 -3 -10 29.36 6.14
-3 -4 -10 34.68 6.76
-4 -3 10 40.42 7.4
-7 4 -10 31.63 3.54
3 -7 -10 16.46 5.81
4 -7 -10 12.09 5.25
3 4 10 37.44 5.56
4 3 10 37.05 5.8
4 -7 10 45.13 5.95
-3 7 -11 111.14 11.03
-3 -4 11 134.56 13.9
-7 3 11 109.98 12.48
-4 -3 11 106.35 9.59
-4 7 -11 112.85 10.76
-7 4 11 108.88 12.61
-3 -4 11 96.03 8.21
-4 7 11 109.07 11.12
-3 7 11 104.28 10.49
-7 3 11 137.32 9.28
4 3 11 129.02 8.99
-3 7 11 119.51 8.48
7 -4 11 110.42 9.34
7 -3 11 116.6 8.87
3 4 11 125.94 10.6
3 -7 -11 97.76 10.93
4 3 11 116.21 10.52
4 -7 -11 119.57 12.4
-7 4 -11 167.59 16.46
-4 -3 11 137.06 14.31
-7 4 -11 132.23 11.39
3 4 11 108.2 13.85
7 -4 -11 113.25 11.67
4 3 11 134.18 17.15
7 -3 -11 120.72 11.78
-7 3 -11 108.01 9.77
7 -3 11 122.69 14.04
-3 7 11 87.47 5.08
-7 4 -11 121.15 13.06
-7 3 -11 170.19 17.22
7 -3 -11 121.11 7.27
3 -7 11 143.44 12.36
-4 -3 -11 107.23 12.17
3 4 -11 111.83 12.19
-3 -4 -11 108.14 12.63
7 -4 11 118.99 8.82
4 -7 11 135.53 11.27
7 -3 11 119.12 9.76
3 -7 -11 44.97 10.04
4 -7 -11 61.03 12.43
-7 4 -11 112.11 7.18
4 3 -11 108.65 14.18
3 4 -11 115.71 13.83
3 4 11 122.33 10.95
4 3 11 124.39 11.25
3 -7 11 139.18 9.83
4 -7 11 132.09 10.48
-7 3 -11 112.5 12.04
-7 3 -12 31.3 7.56
4 -7 12 20.77 4.28
3 4 -12 19.59 5.33
-4 -3 12 28.75 6.68
-7 3 12 18.26 5.44
-7 4 12 17.94 5.19
-4 -3 12 18.06 4.19
-3 -4 12 16.73 3.77
-4 7 12 17.15 4.48
-3 7 12 19.27 4.95
-3 -4 12 25.85 6.41
-3 7 -12 18.44 4.53
-4 7 -12 20.31 4.67
4 3 12 23.65 3.85
-7 3 12 20.27 3.56
7 -3 12 20.49 3.6
3 4 12 23.08 4.66
7 -4 12 18.18 3.71
3 -7 -12 14.34 4.22
4 -7 -12 20.69 5.46
-7 4 -12 36.47 7.92
3 -7 12 27.35 5.41
4 -7 12 23.64 4.84
4 3 12 20.48 4.35
-3 7 12 13.55 1.92
-3 7 12 23.58 3.8
3 4 12 18.25 5.48
4 3 12 21.63 6.66
-7 4 -12 24.1 4.69
7 -4 -12 21.27 4.97
-7 3 -12 18.39 3.76
7 -3 -12 19.92 4.97
7 -3 -12 21.4 2.99
3 -7 12 18.98 4.02
7 -3 12 22.65 6.17
7 -4 12 21.4 3.62
-7 4 -12 14.95 2.81
-4 -3 -12 18.26 5.61
3 4 -12 18.41 5.06
-3 -4 -12 20.83 5.7
7 -3 12 19.82 3.56
-7 4 -12 23.28 6.05
3 -7 -12 10.54 4.47
4 -7 -12 10.24 5.21
-7 3 -12 19.86 5.21
3 -7 12 25.33 4.3
3 4 12 22.34 4.87
4 3 -12 16.93 5.54
3 -7 13 11.98 3.19
4 -7 13 12.89 3.43
3 4 -13 9.07 3.83
3 4 13 13.38 3.53
-4 -3 13 12.02 4.77
-7 3 13 12.63 4.51
-7 4 13 9.74 3.96
-4 -3 13 7.62 2.84
-3 -4 13 13.51 4.91
-3 -4 13 8.46 2.94
-4 7 13 10.63 3.93
-3 7 13 11.84 3.89
-3 7 -13 10.06 3.37
-4 7 -13 12.1 3.64
-7 3 -13 18.47 5.49
-7 3 13 12.82 2.78
7 -4 13 12.12 3.21
7 -3 13 14.16 3.09
3 -7 -13 7.98 3.1
4 3 13 13.87 3.08
3 -7 13 16.72 4.55
4 -7 -13 12.5 4.13
4 -7 13 18.16 4.35
-7 4 -13 13.91 4.72
4 3 13 10.53 3.12
3 4 13 18.2 6.04
-7 4 -13 13.68 3.6
4 3 13 16.02 6.32
7 -4 -13 12.29 4.17
7 -3 -13 10.17 3.7
3 -7 13 14.64 3.75
7 -3 13 15.36 5.7
4 -7 13 14.05 4.04
7 -4 13 15.66 4.99
-3 7 13 9.77 2.64
4 3 13 12.96 2.59
-4 -3 -13 14.81 4.75
-3 -4 -13 9.58 3.69
7 -4 13 10.85 2.39
7 -3 13 8.39 2.53
-7 4 -13 19.66 5.72
-7 4 -13 11.29 2.26
3 -7 -13 9.42 4.93
4 -7 -13 10.84 6.64
-7 3 -13 9.05 3.72
7 -3 -13 13.78 2.08
3 4 13 17.34 4.6
-7 3 -13 9.77 2.8
4 3 -13 9.47 4.57
3 4 -14 4.74 2.73
-7 3 14 3.45 1.18
-4 -3 14 9.05 4.39
-3 -4 14 5.15 2.78
-7 3 14 4.29 2.96
-7 4 14 4.38 1.87
-4 -3 14 0.72 0.78
-3 -4 14 4.8 2.25
-3 7 -14 3.68 1.24
-4 7 14 2.44 0.65
-4 7 -14 6.48 3.05
-3 7 14 4.91 2.61
7 -3 14 2.8 1.2
7 -4 14 6.18 2.31
3 -7 14 7.38 3.19
3 -7 -14 0.09 1.57
4 3 14 7.24 2.24
4 -7 14 6.49 2.94
4 -7 -14 1.96 1.19
3 4 14 3.17 1.59
-7 3 -14 6.39 3.09
7 -4 14 9.17 4.01
7 -3 14 8.66 4.19
3 4 14 4.72 2.28
-7 4 -14 4.88 2
4 3 14 5.46 1.83
7 -4 -14 3.62 2.2
-7 3 -14 3.38 1.64
7 -3 -14 5.49 2.19
3 -7 14 2.89 1.13
4 -7 14 6.96 2.65
3 4 14 5.66 1.62
-7 4 -14 5.18 2.26
-4 -3 -14 3.26 2.38
-3 -4 -14 3.05 1.92
7 -3 14 3.99 1.38
-7 4 -14 1.51 0.92
3 -7 -14 4.8 4.02
4 -7 -14 7.26 4.24
-7 3 -14 5.54 1.66
4 3 -14 2.58 1.84
3 -7 14 3.31 1.75
-7 3 15 64.75 10.66
-7 4 15 67.73 10.83
-4 -3 15 62.93 9.02
-3 -4 15 55.71 8.15
-4 7 15 69.07 10.16
-3 7 15 73.11 10.41
7 -3 15 72.24 6.95
7 -4 15 68.68 7.56
3 4 -15 81.6 13.2
4 3 15 87.03 8.1
3 -7 -15 57.73 8.55
4 -7 -15 66.16 9.95
3 4 15 88.46 9.7
-4 -3 15 105.79 14.23
-3 -4 15 104.65 14.15
3 4 15 86.61 14.15
4 3 15 115.95 17.63
7 -4 -15 76.39 10.12
3 -7 15 85.29 9.68
7 -3 15 97.2 13.79
4 -7 15 93.64 10.71
7 -3 -15 61.98 9.09
7 -4 15 88.59 12.67
3 -7 15 99.55 11.55
-7 4 -15 81.25 12.39
4 -7 15 104.89 10.96
-7 3 -15 80.97 11.64
-4 -3 -15 76.22 10.99
-3 -4 -15 71.9 11.25
-7 4 -15 119.4 14.29
3 -7 -15 53.11 11.71
4 -7 -15 63.41 13.81
4 3 -15 77.75 13.36
-3 7 -15 77.59 10.08
-4 7 -15 79.2 9.79
-7 3 -15 123.85 15.24
-3 -4 16 37.59 8.42
-3 7 -16 23.8 5.8
-4 7 -16 21.04 5.16
-7 3 16 15.55 5.34
-7 4 16 18.76 5.77
-4 -3 16 17.24 5.09
-3 -4 16 19.87 4.96
-4 7 16 17.42 5.35
-3 7 16 21.68 5.97
-7 4 -16 35.49 7.74
3 -7 16 29.73 6.38
4 -7 16 28.72 6.03
-4 -3 16 29.84 7.12
3 -7 -16 16.06 4.66
-7 3 -16 40.44 9.19
4 -7 -16 21.07 5.69
3 4 16 24.68 5.32
3 4 16 25.16 7.42
4 3 16 34.84 9.1
7 -4 -16 15.54 4.5
3 -7 16 27.02 5.92
7 -3 -16 16.63 4.99
4 -7 16 27.99 5.74
7 -3 16 30.72 8.02
7 -4 16 28.81 7.7
-4 -3 -16 18.89 5.34
-3 -4 -16 22.35 6.55
-7 4 -16 17.9 6.04
3 -7 -16 10.99 5.76
4 -7 -16 22.62 7.88
-7 3 -16 19.58 5.93
4 3 -16 25.49 8.64
3 4 -16 21.89 6.99
-3 -4 17 37.16 9.08
-3 7 -17 19.55 5.15
-4 7 -17 22.68 5.66
-7 3 17 20.32 6.44
-7 4 17 19.04 5.97
-4 -3 17 17.53 5.17
-3 -4 17 18.92 5.16
-4 7 17 15.24 5.19
-3 7 17 22.12 6.14
3 -7 17 26.56 6.09
4 -7 17 25.18 5.61
3 -7 -17 13.56 3.79
4 -7 -17 17.68 5.16
3 4 17 21.62 5.23
-7 3 -17 37.46 8.47
3 4 17 27.21 8.04
4 3 17 33.09 9.26
7 -4 -17 12.71 4.1
3 -7 17 25.01 5.96
7 -3 -17 15.81 4.86
4 -7 17 25.26 5.66
7 -3 17 25.84 7.76
7 -4 17 30.78 8.22
-7 4 -17 32.71 7.52
-4 -3 -17 23.09 6.25
-3 -4 -17 13.78 3.7
-7 4 -17 29.8 7.76
3 -7 -17 15.75 6.96
4 -7 -17 16.36 6.87
-7 3 -17 22.31 6.51
4 3 -17 26.34 7.86
3 4 -17 21.75 7.21
-7 3 -18 1.14 1.71
-3 -4 18 -1.72 2.3
-3 7 -18 -1.08 1.81
-4 7 -18 -1.37 1.13
-7 3 18 2.43 1.86
-7 4 18 0.46 1.82
-4 -3 18 0.49 0.87
-3 -4 18 -2.68 2.65
-4 7 18 -0.43 0.96
-3 7 18 2.95 2.61
-7 4 -18 1.18 0.9
3 -7 18 0.28 1.48
4 -7 18 -0.7 1.58
3 -7 -18 1.81 2.18
4 -7 -18 -0.4 1.98
3 4 18 -1.92 4.16
4 3 18 -3.42 4.08
7 -4 -18 -1.33 2.36
3 -7 18 0.38 1.14
7 -3 -18 0.24 0.69
4 -7 18 0.31 2.17
7 -3 18 -1.75 2.94
7 -4 18 3.75 3.41
-4 -3 -18 0.06 0.93
-3 -4 -18 -0.46 1.92
-7 4 -18 1.43 2.65
3 -7 -18 2.36 3.28
4 -7 -18 -2.52 1.9
-7 3 -18 -1.76 1.48
4 3 -18 3.05 2.13
3 4 -18 -3.88 3.96
-4 7 -19 11.29 4.16
-3 7 -19 12.41 4.57
-3 -4 19 23.44 7.34
-7 4 -19 17.86 5.81
-7 3 19 7.17 3.26
-7 4 19 3.1 2.53
-4 -3 19 4.56 2.01
-3 -4 19 10.85 3.76
-4 7 19 9.45 4.13
-3 7 19 11.95 4.64
3 -7 19 17.87 5.53
4 -7 19 17.6 4.9
3 -7 19 15.42 5.21
3 -7 -19 5.1 2.86
4 -7 -19 7.19 3.63
3 4 19 15.68 5.92
4 3 19 23.54 7.64
7 -4 -19 8.13 3.23
4 -7 19 9.84 3.75
7 -3 19 18.39 6.54
7 -4 19 10.21 4.68
7 -3 -19 7.15 3.65
-4 -3 -19 16.32 5.28
-3 -4 -19 11.72 5.23
-7 4 -19 15.61 5.28
3 -7 -19 10.11 5.5
4 -7 -19 13.77 5.97
-7 3 -19 6.68 3.4
4 3 -19 8.25 4.58
3 4 -19 12.05 5.43
-4 7 -20 22.29 6.35
-3 7 -20 21.17 5.96
-3 -4 20 37.4 9.63
-7 3 20 22.91 7.25
-7 4 20 22.75 6.44
-4 -3 20 18.62 5.53
-3 -4 20 19.9 6.08
-4 7 20 17.35 6.09
-3 7 20 12.76 5.13
3 -7 20 27.6 6.51
4 -7 20 33.39 7.29
-7 4 -20 40.27 8.66
4 -7 -20 16.93 4.88
3 4 20 36.79 9.41
4 3 20 36.24 10.85
7 -4 -20 18.9 5.67
4 -7 20 30.65 7.54
7 -3 20 38.08 10.71
7 -3 -20 14.09 4.51
7 -4 20 28.24 8.46
-4 -3 -20 26.11 6.36
-3 -4 -20 25.56 7.46
-7 4 -20 32.23 8.84
3 -7 -20 20.06 6.73
4 -7 -20 24.22 9.3
-7 3 -20 22.03 6.94
4 3 -20 39.69 10.19
3 4 -20 26.23 8.51
-4 7 -21 17.23 5.53
-3 7 -21 13.44 5.35
-4 -3 21 10.32 4.47
-3 -4 21 17.29 6.12
-4 7 21 13.3 4.74
-3 7 21 9.94 4.34
3 -7 21 19.89 6.26
4 -7 21 20.18 5.95
3 4 21 18.93 7.2
4 3 21 26.09 8.16
7 -4 -21 7.76 2.91
4 -7 21 14.98 4.88
7 -3 -21 12.83 4.67
-4 -3 -21 11.74 5.09
-3 -4 -21 21.67 6.9
-4 7 -22 5.89 4.15
-3 7 -22 3.24 2.24
-4 -3 22 2.28 1.28
-4 7 22 0.75 3
-3 7 22 3.16 3.2
3 -7 22 3.68 2.64
4 -7 22 1.88 2.45
4 -7 22 3.64 3.2
-4 -3 -22 4.62 3.36
-3 -4 -22 1.68 2.78
-4 -3 23 4.15 2.07
-3 7 23 2.99 2.85
3 -7 23 1.42 1.57
4 -7 23 7.81 4.02
-4 -3 -23 2.11 2.47
-4 7 -23 -2.06 3.96
-4 7 -24 -1.18 2.13
5 2 0 114.93 8.23
-5 -2 0 124.38 9.39
7 -5 0 107.22 7.51
5 -7 0 139.5 10.69
2 5 0 115.46 10.66
2 -7 0 92.8 10.33
2 5 0 124.85 10.36
-2 7 0 116.06 10.88
5 -7 0 111.41 11.26
-2 7 0 120.04 10.46
7 -5 0 135.61 11.3
-5 7 0 112.71 9.99
7 -2 0 126.11 9.64
5 2 0 102.89 10.48
7 -2 0 127.31 10.01
-5 7 0 114.32 8.88
-7 5 0 120.9 7.54
-2 -5 0 107.84 10.32
2 -7 0 103.22 9.46
-5 -2 0 110.75 8.15
-7 5 0 113.36 5.95
5 2 0 92.92 9.74
-2 -5 0 112.17 9.59
-7 2 0 125.9 10.17
-2 7 0 105.34 4.95
-5 -2 0 106.77 8.02
-7 2 0 99.97 4.89
-7 2 0 104.85 9.65
-5 7 0 114.3 8.54
-7 5 0 111.23 9.91
2 -7 0 129.08 10.45
-7 5 -1 0.75 0.5
2 -7 1 2.8 1.72
-7 2 1 -0.68 1.28
5 2 -1 0.03 0.38
-5 7 1 0.78 1.02
-7 5 1 1.26 1.24
5 2 1 0.66 0.62
7 -5 -1 0.42 0.48
-7 2 1 0.73 0.55
-7 2 1 0.47 0.43
-7 2 -1 1.27 1.06
5 2 1 1.66 1.03
5 -7 1 1.42 1.25
5 2 -1 2.94 1.73
2 -7 -1 2.25 2.01
5 -7 -1 1.08 1.21
2 -7 1 0.33 0.74
-5 -2 -1 2.58 1.77
7 -5 1 1.22 0.65
2 5 -1 0.34 0.54
2 -7 -1 1.3 1.79
2 5 -1 0.03 1.69
5 2 -1 1.92 0.99
2 5 1 2 1.78
2 5 1 -0.96 1.32
5 -7 1 2.12 1.39
-5 7 -1 0.69 0.82
-7 2 1 1.32 1.82
5 -7 -1 1.05 1.26
-2 7 -1 0.36 0.78
-2 7 1 1.21 1.04
-7 5 -1 0.68 0.37
-2 7 1 1.46 1.51
-5 -2 -1 0.62 0.56
-5 7 -1 0.24 1.02
7 -5 -1 0.89 1.54
-5 7 1 2.84 1.63
-7 2 -1 0.34 0.24
-5 7 1 -0.1 0.11
-5 -2 1 0.31 0.78
7 -2 1 2.87 1.51
7 -2 -1 2.02 0.74
5 2 1 1.81 1.45
-7 5 1 -0.99 1.59
-5 -2 -1 1.79 1.11
-2 -5 1 4.05 1.81
-2 -5 1 2.07 2.34
-2 -5 -1 0.96 1.15
7 -2 1 0.32 0.49
2 -7 1 2.88 1.44
7 -5 1 0.09 1.04
2 -7 -1 2.93 2.09
7 -2 -1 -0.1 0.58
-7 5 1 0.8 0.45
2 5 -1 0.29 0.83
-2 -5 -1 1.23 1.93
-7 5 -1 0.23 0.59
-5 -2 -1 2.64 1.66
-7 5 1 1.28 0.86
-5 -2 1 -0.13 0.48
-2 7 1 0.79 0.6
-7 2 -1 0.7 1.07
-5 7 -1 1.28 1.36
5 2 2 34.66 4.59
2 5 -2 33.92 5.9
5 -7 2 41.07 5.67
5 2 -2 35.39 4.69
-5 -2 -2 34.85 4.94
5 -7 -2 39.3 5.9
7 -5 2 30.51 4.41
2 5 2 35.36 5.68
-7 2 2 39.21 5.33
-2 7 -2 30.03 5.42
-5 -2 2 33.25 4.74
2 -7 -2 29.12 5.63
2 5 -2 37.57 5.98
2 5 2 35.28 4.9
5 -7 2 34.24 6.21
5 -7 -2 36.79 6.47
-2 7 2 34.58 5.88
-7 2 -2 44.73 8.93
-5 7 -2 36.15 5.57
-5 7 -2 31.73 4.46
7 -5 2 37.46 5.78
-2 7 2 38.59 5.41
7 -5 -2 35.71 5.94
-2 -5 2 34.02 5.38
7 -2 2 35.87 4.91
2 5 2 30.22 3.77
2 -7 -2 37.26 6.36
7 -2 -2 37.67 5.52
5 2 2 32.14 6.29
-7 5 -2 30.82 2.61
5 2 -2 33.95 5.4
7 -2 2 38.72 5.75
-7 5 -2 34.94 4.64
-5 -2 2 31.72 4.71
-2 -5 2 32.28 5.36
-7 5 2 45.71 6.24
2 -7 2 28.06 4.53
-7 5 2 32.89 3.41
2 -7 -2 28.98 5.68
2 5 -2 33.04 5.82
-5 7 2 36.78 5.22
-2 -5 2 35.49 5.58
-2 -5 -2 28.17 5.28
5 2 -2 28.45 5.75
5 2 2 30.02 5.07
-5 -2 -2 32.94 4.2
-7 2 2 34.48 6.68
-5 -2 -2 32.2 4.58
-5 -2 2 29.45 4.19
-5 7 -2 33.04 4.53
-7 2 -2 31.67 5.22
7 -2 -2 35.39 5.09
-7 5 -2 35.49 5.51
2 -7 2 34.74 5.47
-2 7 2 31.19 2.87
-2 -5 -2 33.16 5.19
-7 2 -2 30.31 3.52
-7 5 2 35.84 3.96
-7 2 2 33.85 5.55
-7 5 2 31.94 5.31
-5 7 2 33.11 4.77
-7 2 3 3.17 2.04
-2 7 3 2.61 1.05
-7 5 3 4.3 2.01
-5 7 3 3.01 1.39
5 2 3 0.92 0.46
-2 -5 -3 3.12 1.65
5 2 3 2.72 1.66
2 5 3 1.99 0.6
5 -7 3 3.16 1.22
-7 5 3 2.37 0.99
5 2 -3 6.19 2.11
5 -7 -3 5.21 2.58
-7 2 -3 2.06 0.67
-5 7 -3 1.81 0.91
2 5 -3 5.67 2.72
-5 -2 -3 4.77 2.11
2 5 -3 0.52 0.93
2 -7 -3 3.13 2.1
-7 2 -3 0.94 1.25
7 -5 3 3.05 1.57
-7 2 3 6.55 2.65
2 5 3 3.56 1.51
5 -7 3 0.89 0.54
2 5 3 3.43 1.93
-5 -2 3 2.54 1.41
-7 5 -3 1.55 0.56
-5 -2 3 1.66 1.06
-2 7 -3 4.14 2.06
5 2 3 2.43 1.89
5 -7 -3 4.33 2.41
-5 7 -3 3.49 1.95
7 -5 3 3.62 1.84
-2 7 3 2.81 1.85
-7 5 -3 2.27 1.08
-2 7 3 3.57 1.86
7 -5 -3 2.13 1.71
7 -2 3 1.71 0.92
2 -7 3 0.06 1.38
2 5 3 2.59 1.12
2 -7 -3 -0.28 1.95
7 -2 -3 2.52 1.79
-2 -5 3 3.15 1.83
5 2 -3 2.85 1.64
5 2 3 1.57 0.54
2 5 -3 0.25 1.42
-5 7 3 3.89 1.74
-2 -5 3 2.28 1.29
-7 5 3 2.44 0.66
-2 -5 -3 4.66 2.68
2 -7 3 4.49 1.68
2 5 -3 0.66 1.44
2 -7 -3 2.03 2.33
7 -2 -3 4.56 2.05
2 -7 3 3.33 1.78
-7 5 -3 2.37 1.45
7 -2 3 1.87 1.5
-5 7 -3 3.71 1.38
-7 2 -3 2.23 1.39
-7 5 -3 3.52 1.7
-5 -2 3 2.37 1.3
5 2 -3 1 0.5
-2 -5 -4 112.08 9.62
5 -7 4 132.99 9.7
5 -7 4 133.75 10.27
2 -7 4 109.33 5.97
5 2 -4 119.69 8.9
5 -7 -4 139.43 11.69
-5 -2 -4 118.97 9.31
2 5 -4 125.18 12.42
-7 2 4 139.69 9.78
7 -5 4 102.42 9.08
-5 -2 4 125.95 10.57
-2 7 -4 110.07 10.62
2 5 4 116.37 10.48
2 5 -4 135.43 12.45
2 -7 -4 91.45 9.93
5 -7 4 107.19 11
-5 7 -4 119.76 9.78
2 5 4 108.37 7.86
5 -7 -4 114.71 11.72
-7 5 -4 118.76 7.51
7 -5 4 126.71 10.91
-2 7 4 113.46 11.28
-2 7 4 114.86 8.76
7 -2 4 116.89 8.63
7 -5 -4 133.28 11.57
-7 2 -4 154.94 16.92
-5 7 -4 115.14 8.7
2 5 4 112.97 9.09
2 -7 -4 123.16 12.91
7 -2 -4 117.06 10.09
5 2 4 113.92 13.27
5 2 -4 115.49 8.99
-2 -5 -4 96.86 8.72
5 2 4 112.24 7.18
-5 -2 4 106.31 9.44
2 -7 4 131.16 10.84
-7 5 -4 120.21 9.67
7 -2 -4 120.26 9.02
-2 -5 -4 105.25 10.84
-2 -5 4 114.75 10.53
-7 5 4 177.93 13.82
2 -7 4 106.93 8.23
2 5 -4 114.25 11
2 -7 -4 92.4 10.91
-7 2 -4 118.92 9.36
5 -7 4 118.09 10.15
5 2 -4 88.51 11.11
-5 7 4 120.22 10.11
5 2 4 102.49 8.61
-5 7 -4 111.72 8.64
-7 2 -4 102.64 9.66
-7 5 -4 107.82 9.7
-5 -2 4 106.88 8.22
-7 2 4 108.41 10.34
2 5 4 100.84 4.87
-7 5 4 111.16 10.42
-5 7 4 115.66 9.32
-2 7 4 107.04 6.25
5 2 4 119.45 8.95
2 5 -4 101.92 10.69
-7 2 -5 3.94 1.77
2 5 5 6.18 1.4
-5 -2 5 8.14 2.57
-7 2 5 6.49 3.56
-7 2 5 7.3 2.83
5 2 5 7.61 2.31
-7 5 5 8.83 3.03
5 2 5 4.69 1.93
-5 7 5 6.54 2.39
-5 7 -5 8.08 2.36
5 -7 5 7.7 2.35
-2 7 5 6.45 1.65
5 -7 5 7.32 2.1
2 -7 5 6.07 1.3
2 5 -5 7.43 3.2
5 2 -5 6.79 2.49
5 -7 -5 4.16 2.43
-2 -5 -5 9.31 2.56
-5 -2 5 7.96 2.66
5 -7 -5 3.64 0.66
-7 2 5 7.3 2.33
2 -7 -5 6.17 2.93
-5 -2 -5 7.99 2.54
5 -7 5 6.02 2.62
7 -5 5 3.72 1.31
-2 7 -5 7.08 2.94
-5 -2 5 6.17 2.18
5 2 5 8.48 2.4
2 5 5 5.95 1.45
2 5 -5 4.4 1.65
2 5 5 7.23 2.6
-5 7 -5 6.45 2.38
7 -5 5 7.96 2.89
5 -7 -5 5.39 2.63
-7 5 -5 6.41 1.76
-2 -5 5 6.91 2.88
-2 7 5 10.72 3.77
7 -2 5 7.64 2.23
-7 2 -5 8.03 3.76
-2 7 5 7.81 2.23
7 -5 -5 9.47 3.02
2 5 5 5.34 2.04
2 -7 -5 3.94 1.58
5 2 5 5.28 2.72
5 2 5 6 1.55
7 -2 -5 8.69 3.33
2 -7 5 7.74 3.08
-2 -5 -5 9.94 4.45
2 -7 5 4.63 1.57
-7 5 5 8.65 3.16
2 5 -5 6.28 2.23
2 -7 -5 4.35 3.09
-7 5 -5 8.63 2.6
5 -7 5 6.89 1.93
7 -2 -5 8.34 2.74
-5 7 -5 6.99 2.3
-7 2 -5 6.38 2.28
-7 5 -5 7.89 2.86
5 2 -5 2.38 2.24
-5 7 6 261.57 14.91
5 -7 6 328.77 16.53
-2 7 6 238.21 11.01
2 -7 6 282.8 9.76
-2 -5 -6 249.75 11.87
-7 2 6 311.23 14.61
-2 7 -6 251.7 16.25
-5 -2 6 300.6 18.41
5 2 -6 284.57 14.63
-5 -2 -6 266.25 13.79
-5 7 -6 273.95 15
-7 5 -6 270.75 10.99
5 -7 -6 327.99 19.66
-2 7 6 258.74 17.61
2 5 6 264.69 15.75
2 -7 -6 219.85 15.42
5 -7 6 240.14 16.5
7 -5 6 277.53 16.06
2 5 6 229.13 10.03
5 -7 -6 282.57 18.88
7 -2 6 277.89 13.29
-2 7 6 252.88 12.7
7 -5 -6 318.37 18.15
5 2 6 277.23 13.75
2 5 6 249.02 15.48
2 -7 -6 323.33 22.04
5 2 6 233.01 8.36
-5 -2 6 258.34 16.01
5 2 6 279.57 22.69
7 -2 -6 277.06 16.44
-2 -5 -6 243.97 15.97
-7 2 -6 358.41 25.51
-7 5 -6 289.27 17.29
-2 -5 6 294 17.62
7 -2 -6 278.45 13.22
-5 -2 -6 263 18.01
2 -7 6 233.71 10.9
-2 -5 -6 239.49 17.55
-7 5 6 402.55 22.93
2 5 -6 273.47 17.05
-7 2 -6 283.65 15.59
2 -7 -6 192.44 16.94
5 -7 6 263.92 12.13
2 -7 6 301.92 17.05
5 2 -6 204.95 18.39
-7 2 6 243.59 22.35
-5 7 -6 268 14.08
5 2 6 254.08 12.07
-7 2 -6 252.34 15.73
-7 5 -6 256.9 15.39
2 5 6 262.31 10.16
5 -7 6 315.07 15.03
2 5 -6 302.35 17.67
2 5 -6 271.95 18.31
-5 -2 6 268.27 13.7
5 2 6 295.66 14.9
-7 2 6 264.24 16.9
-7 5 6 264.49 17.03
-2 7 7 2.95 0.88
5 2 7 5.32 1.87
-7 2 7 3.88 1.18
-5 -2 7 4.37 1.54
-7 2 7 3.77 2.42
5 -7 7 6.71 2.6
-7 5 7 3.64 1.99
5 2 7 3.9 1.29
-5 7 7 5.22 1.95
2 -7 7 5.83 1.5
5 2 7 4.5 1.64
-2 7 7 3.54 0.97
2 5 -7 4 2.37
-5 -2 7 5.98 2.83
2 -7 -7 3.59 0.99
-7 2 7 6.22 2.42
-2 -5 -7 6.54 2.36
-2 7 -7 4.71 2.46
5 -7 7 2.89 2.12
-5 -2 7 3.79 2.4
2 5 -7 5.13 2.2
2 -7 -7 4.05 2.12
-7 5 -7 5.03 1.55
-5 7 -7 5.75 2.22
-5 -2 -7 7.43 2.75
7 -5 7 3.69 1.75
-2 -5 7 3.88 2.33
2 5 7 3.46 2.26
5 -7 -7 2.84 2.27
2 5 7 3.17 1.02
7 -2 7 5.28 1.96
-2 7 7 3.51 1.94
5 2 -7 4.46 1.13
7 -5 -7 6.05 2.2
2 5 7 2.55 1.21
-2 7 7 4.65 1.78
5 2 7 3.26 0.87
2 -7 -7 4.31 2.06
5 2 7 5.56 2.98
7 -2 -7 2.32 1.62
2 -7 7 4.01 1.94
-2 -5 -7 -0.12 1.79
-5 -2 -7 2.65 2.47
7 -5 7 4.17 1.46
2 -7 7 3.8 1.47
-7 2 -7 5.97 3.91
-2 -5 -7 3.2 1.93
2 5 -7 3.06 0.61
-7 5 -7 7.52 2.98
2 -7 -7 2.39 2.56
5 -7 7 4.69 1.23
7 -2 -7 4.58 1.68
5 -7 7 4.55 1.94
-7 2 -7 3.93 1.51
-7 5 -7 3.78 1.28
-5 7 7 2.53 0.45
5 2 -7 -0.77 2.75
2 5 7 4.22 1.48
-7 2 -7 4.47 2.6
5 2 8 2.39 1.27
-2 -5 8 2.26 0.64
-7 2 8 0.7 0.36
-5 -2 8 1.09 0.92
5 -7 8 2.12 1.18
2 -7 8 1.94 0.84
-7 2 8 2.4 1.27
-7 5 8 4.84 2.6
-5 7 8 3.02 1.85
5 2 8 1.4 0.71
2 5 -8 -0.02 1.42
-5 -2 8 2.89 2.25
-2 7 8 1.64 0.85
5 2 8 2.4 0.71
-7 2 8 2.56 1.11
-2 7 -8 3.02 2.11
-5 -2 -8 3.33 1.96
2 -7 -8 1.68 0.54
-7 5 -8 2.97 1.14
5 -7 8 1.07 0.17
-2 -5 -8 2.75 1.28
2 -7 -8 1.42 1.08
-5 7 -8 0.88 0.54
-2 -5 8 3.18 2.07
7 -5 8 5.03 2.38
7 -2 8 2.83 1.3
2 5 8 2.27 1.28
5 -7 -8 4.08 2.6
2 5 8 2.02 0.69
5 2 8 0.78 0.36
7 -5 -8 2.4 0.82
5 2 -8 1.84 0.72
2 5 8 0.98 0.26
-2 7 8 2 1.24
2 -7 8 3.38 1.95
5 2 8 5.53 3.22
7 -2 -8 2.74 1.38
-2 -5 -8 1.46 0.71
2 -7 8 1.98 0.95
7 -5 8 2.86 0.44
-2 -5 -8 2.35 1.97
2 5 -8 2.7 1.32
-7 5 -8 2.13 0.27
5 -7 8 2.75 0.82
2 -7 -8 0.97 0.4
5 -7 8 2.07 0.86
-7 2 -8 1.95 1.8
2 5 -8 1.83 0.87
7 -2 -8 3.3 1.8
-7 5 -8 1.66 1.66
2 5 8 1.25 0.28
5 2 -8 2.82 2.25
-7 2 -8 2.71 1.58
-2 7 8 1.29 0.22
-7 2 -8 3.11 2.49
5 2 9 2.06 0.71
2 -7 9 3.05 1.26
5 -7 9 0.98 0.98
-2 -5 9 1 0.16
-5 -2 9 0.3 0.88
-7 2 9 1.87 1.48
-7 5 9 0.86 1.05
-5 -2 9 2.68 1.91
2 5 -9 2.94 2.33
-5 7 9 4.39 1.85
5 2 9 3.38 1.11
-7 2 -9 1.44 1.03
-2 7 9 0.4 0.64
-7 2 9 0.78 1.14
-7 5 -9 3 1.15
5 2 9 2.07 0.36
-2 7 -9 1.82 1.61
5 -7 9 0.28 1.31
-5 7 -9 2.72 1.84
-2 -5 9 3.19 1.75
2 -7 -9 2.07 1.06
2 5 -9 1.69 1.08
-2 -5 -9 2.13 0.99
7 -5 9 2.05 1.53
7 -2 9 2.06 1.18
2 5 9 0.15 1.32
5 -7 -9 7.15 3.09
2 -7 9 3.51 2.17
2 5 9 1.64 0.49
2 5 9 5.14 2.41
5 2 -9 3.84 1.32
-2 7 9 2.72 1.15
5 2 9 6.53 3.55
7 -2 -9 3.43 2.14
-2 -5 -9 1.17 0.97
7 -2 9 1.48 1.66
-5 -2 -9 2.12 0.91
5 -7 9 2.39 1
7 -5 9 2.38 1.28
-2 -5 -9 -0.17 1.51
5 -7 9 1.88 0.49
2 5 -9 3.27 2.03
-7 5 -9 0.25 1.06
2 -7 -9 -2.35 2.92
7 -5 -9 3.56 1.95
-7 5 -9 2.22 1.29
7 -2 -9 1.22 1.1
-2 7 9 1.51 0.54
2 5 9 2.22 1.05
5 2 -9 0.16 2.23
-7 2 -9 2.76 1.65
-5 -2 10 98.81 9.65
-7 2 10 110.06 12.21
-2 -5 10 102.79 6.43
-2 7 -10 104.54 11.1
-7 5 10 108.19 12.07
-5 7 10 103.21 10.61
-7 2 10 121.83 9.28
-5 7 -10 112.08 10.12
-2 7 10 99.98 9.45
2 5 -10 141.36 8.33
5 -7 10 92.15 10.44
2 -7 -10 79.26 9.17
7 -5 10 104.5 9.72
7 -2 10 114.57 8.17
2 5 10 109.62 10.77
5 -7 -10 126.09 13.16
-5 -2 10 127.95 13.36
7 -5 -10 131.99 12.56
2 5 10 102.5 12.17
5 2 -10 130.08 7.95
-2 7 10 107.45 7.67
2 5 10 86.12 3.14
-2 -5 -10 92.16 11.92
2 -7 10 116.79 8.63
7 -2 10 131.39 14.87
7 -2 -10 110.41 11.33
-2 -5 10 132.96 13.24
5 2 10 121.1 9.49
-7 5 -10 141.99 14.48
-2 7 10 93.38 6.21
2 -7 10 136.39 12.45
-5 -2 -10 123.1 12.92
7 -2 -10 118.69 8.43
7 -5 10 119.08 8.23
5 2 10 112.49 5.5
-7 2 -10 116.91 11.58
-2 -5 -10 101.65 12.61
2 5 -10 110.72 11.02
2 -7 -10 74.02 11.59
5 2 10 124.4 17.54
5 2 -10 99.48 14.12
5 -7 10 126.53 9.98
-7 2 -10 167.24 17.98
2 5 10 124.27 10.24
2 5 -10 118.01 13.21
5 2 10 102.8 6.34
2 -7 10 131.96 8.01
-7 5 -10 121.37 8.11
5 -7 10 132.33 11.27
2 -7 11 9.36 2.63
-5 -2 11 9.4 3.69
2 5 -11 8.51 3.42
-5 -2 11 5.54 1.63
-7 2 11 8.67 3.27
-7 5 11 9.94 3.84
-7 5 -11 11.12 2.54
-2 -5 11 6.61 1.67
-5 7 11 6.73 2.77
5 -7 11 10.72 2.92
-2 7 11 6.23 2.31
5 2 11 5.96 1.61
-2 7 -11 9.02 2.99
5 -7 11 6.86 2.44
-5 7 -11 10.42 3.27
-2 -5 11 6.42 2.87
7 -5 11 9.16 3.01
2 -7 -11 5.95 2.44
5 2 11 11.2 3.01
7 -2 11 10.26 2.47
5 -7 -11 6.86 2.68
2 -7 11 8.82 3.17
2 5 11 8.05 2.95
2 5 11 8.42 3.61
7 -5 -11 10.78 3.66
5 2 -11 8.12 1.89
5 2 11 9.84 4.61
-2 7 11 9.29 2.23
7 -2 -11 7.92 2.64
2 -7 11 10.47 2.71
7 -2 11 13.31 4.86
-7 2 -11 13.34 5.05
-5 -2 -11 8.43 3.3
7 -5 11 8.97 2.11
-2 -5 -11 11.08 4.14
2 5 -11 8.09 2.68
-7 5 -11 9.59 3.5
5 2 11 9.22 1.72
2 -7 -11 1.37 1.1
-2 7 11 6.61 1.66
2 5 11 9.68 2.87
5 2 -11 5.69 2.34
-7 2 -11 6.09 2.56
7 -2 -11 7.05 1.63
2 5 -12 21.61 6.04
-7 2 -12 29.18 7.41
-7 2 12 19.27 5.39
-5 -2 12 14.31 3.93
-7 5 12 21.93 5.86
-5 7 12 18.54 4.54
-2 -5 12 17.08 3.22
-2 7 12 17.34 4.39
-2 7 -12 21.15 5.14
-5 7 -12 18.81 4.15
-2 -5 12 23.95 6.05
7 -2 12 18.63 3.19
7 -5 12 20.72 4.39
2 -7 -12 11.24 3.59
-5 -2 12 21.44 5.92
5 2 12 17.98 3.7
5 -7 -12 19.27 5.24
2 5 12 18.9 4.59
2 -7 12 22.36 4.21
-2 7 12 19.95 3.25
2 5 12 14.53 4.64
7 -5 -12 21.98 5.17
5 -7 12 22.45 4.38
5 2 12 21.92 7.29
2 -7 12 31.24 6.34
7 -2 -12 16.74 4.71
7 -2 12 25.14 7.19
7 -5 12 19.81 3
-5 -2 -12 20.65 5.52
-2 -5 -12 14.18 4.55
2 5 -12 22.06 4.83
-7 5 -12 23.67 6.2
-2 7 12 10.73 1.79
2 -7 -12 7.1 3.85
-7 5 -12 23.24 3.86
2 5 12 18.42 4.23
5 2 -12 17.34 5.91
-7 2 -12 18.22 4.8
7 -2 -12 18.7 3.25
5 2 12 14.74 2.2
-7 5 -13 10.45 2.84
2 5 -13 8.6 4.11
-7 2 13 6.06 3.05
-5 -2 13 6.93 2.68
-7 5 13 9.01 3.9
-5 7 13 5.31 2.79
-2 -5 13 5.78 1.92
-2 7 -13 5.44 2.66
-2 7 13 5.65 2.53
-5 7 -13 7.67 2.83
-2 -5 13 10.27 4.01
-7 5 -13 8.36 3.94
7 -2 13 9.45 4.31
7 -5 13 7.41 2.7
7 -2 13 5.66 1.71
2 -7 -13 2.02 1.45
2 -7 13 12.54 4.03
5 2 13 6.06 2.01
5 -7 -13 4.43 2.64
2 5 13 5.87 2.55
-7 2 -13 10.81 4.39
5 -7 13 8.35 2.7
7 -5 -13 9.93 3.62
5 2 13 8.59 3.96
2 -7 13 8.2 2.47
7 -2 -13 6.06 2.7
-2 7 13 8 2.11
-5 -2 -13 7.09 3.3
-2 7 13 5.44 1.33
-2 -5 -13 5.35 2.2
2 5 -13 7.07 2.14
-7 5 -13 8.58 3.32
2 -7 -13 5.57 3.6
5 2 -13 2.44 1.67
2 5 13 6.81 2.64
-7 2 -13 6.24 2.44
2 5 13 6.19 2.37
7 -2 -13 7.51 2.03
-7 5 -14 22.33 4.3
2 5 -14 12.93 4.91
-7 2 14 12.42 4.75
-5 -2 14 11.62 3.87
-7 5 14 11.82 4.47
-2 7 -14 15.58 4.6
-5 7 14 15.66 4.61
-2 -5 14 13.64 3.59
-5 7 -14 14.42 4.2
-2 7 14 12.71 4.17
-2 -5 14 23.21 6.33
7 -2 14 13.92 2.78
7 -5 14 13.62 3.57
-7 5 -14 24.37 5.77
2 -7 -14 9.86 3.37
2 -7 14 19.65 5.45
5 -7 -14 13.66 4.65
2 5 14 14.07 4.29
5 2 14 19.18 4.12
5 -7 14 20.1 4.46
2 5 14 16.08 5.6
-7 2 -14 19.87 6.21
7 -5 -14 18.54 4.97
5 2 14 22.07 8.09
2 -7 14 20.41 4.47
7 -2 14 19.85 6.22
7 -2 -14 12.16 4
5 -7 14 16.18 4.26
-5 -2 -14 18.09 5.56
-2 -5 -14 17.58 5.45
2 5 -14 22.57 5.01
-7 5 -14 22.41 6.44
2 -7 -14 5.3 3.2
5 2 -14 15.11 6.16
-7 2 -14 15.51 4.59
7 -5 14 15.6 5.06
2 5 -15 0.98 0.73
-2 7 -15 0.49 0.68
-7 2 15 1.28 1.98
-5 -2 15 -1.3 2.51
-7 5 15 -3.38 2.89
-5 7 -15 0.34 0.92
-5 7 15 -1.63 2.85
-2 -5 15 2.05 0.49
-2 7 15 -0.66 2.44
-2 -5 15 1.47 1.2
7 -5 15 1.6 1.3
2 -7 15 1.42 1.77
2 -7 -15 -0.28 1.5
-7 5 -15 5.58 3.13
5 -7 -15 1.13 1
5 -7 15 -0.29 1.44
2 5 15 0.99 1.82
2 5 15 1.95 2.89
7 -5 -15 0.93 1.25
5 2 15 -2.18 4.27
2 -7 15 2.58 1.3
7 -2 15 0.98 2.22
7 -2 -15 0.24 1
5 -7 15 1.04 0.71
7 -5 15 -0.16 2.01
-5 -2 -15 0.83 0.24
-7 2 -15 -2.73 2.7
-2 -5 -15 -2.41 2.74
-7 5 -15 0.18 1.4
2 -7 -15 2.4 1.61
5 2 -15 -1.77 2.21
-7 2 -15 5.1 2.75
-7 5 -15 -0.26 1.04
-7 2 16 53.03 9.98
-7 5 16 60.73 10.57
-5 -2 16 56.11 9.26
-5 7 16 67.09 10.56
-2 -5 16 70.6 9.1
-2 7 16 58.64 9.67
2 -7 -16 45.04 7.24
5 -7 -16 64.14 10.11
7 -5 -16 67.9 10.25
-2 -5 16 92.1 13.42
2 5 16 74.18 12.53
5 2 16 113.91 18.97
2 -7 16 92.01 10.85
7 -2 16 86.88 14.66
5 -7 16 73.01 10.1
7 -5 16 77.56 12
5 -7 16 93.3 10.06
7 -2 -16 55.99 9.3
2 -7 16 102.05 12.39
-7 5 -16 96.12 14.64
-7 5 -16 108.13 13.05
-7 2 -16 69.85 10.77
-5 -2 -16 68.18 10.76
-2 -5 -16 58.87 10.41
5 2 -16 79.76 13.55
2 5 -16 63.61 11.51
2 -7 -16 40.48 10.21
-2 7 -16 69.81 10.21
-5 7 -16 79.04 10.07
2 5 -17 4.67 2.1
-2 7 -17 5.58 3.06
-5 7 -17 4.62 2.46
-7 2 17 0.09 2.19
-7 5 17 3.47 2.4
-5 -2 17 0.57 1.51
-2 -5 17 6.57 2.97
-5 7 17 2.49 2
-2 -5 17 4.6 2.45
-2 7 17 1.58 1.68
2 -7 17 6.52 3.09
5 -7 17 3.23 1.46
5 -7 -17 6.25 3.12
2 5 17 4.64 3.2
7 -5 -17 4.29 2.51
5 2 17 6.05 4.07
7 -2 17 4.54 2.71
5 -7 17 3.94 1.35
7 -5 17 4.86 2.52
7 -2 -17 3.11 0.45
-5 -2 -17 4.7 2.76
-2 -5 -17 1.18 2.46
-7 5 -17 3.95 3.23
2 -7 -17 3.59 2.72
5 2 -17 5.49 3.44
-7 2 -17 -0.69 1.04
-7 5 -17 5.77 2.07
-2 7 -18 9.42 4.18
-5 7 -18 8.59 3.28
-2 -5 18 12.82 5.04
-7 2 18 10.27 4.7
-7 5 18 6.65 3.57
-5 -2 18 8.51 3.44
-5 7 18 4.11 2.38
-2 -5 18 7.87 3.04
-2 7 18 5.32 3.08
-7 5 -18 20.98 5.61
-5 7 -18 12.33 3.28
2 -7 18 10.11 4.37
5 -7 18 8.61 3.09
5 -7 -18 7.33 3.73
2 5 18 11.92 6.17
7 -5 -18 6.9 3.51
5 2 18 4.62 2.39
7 -2 18 11.13 5.81
5 -7 18 9.64 3.73
7 -5 18 6.98 3.7
7 -2 -18 5.62 3.02
-5 -2 -18 6.5 2.72
-2 -5 -18 4.57 2.46
-7 5 -18 15.98 6.16
2 -7 -18 5.7 3.5
5 2 -18 14.07 6.29
-7 2 -18 4.69 2.77
2 5 -18 9.18 3.29
-5 7 -19 3.45 2.32
-2 7 -19 6.48 3.22
-2 -5 19 5.87 3.26
-7 2 19 5.33 4.14
-7 5 19 5.13 4.39
-5 -2 19 5.16 3.13
-5 7 19 3.8 2.57
-2 7 19 4.83 2.49
2 -7 19 9.3 4.06
5 -7 19 6.29 2.66
5 -7 -19 3.75 2.59
2 5 19 2.49 1.79
5 2 19 5.91 5.3
7 -5 -19 1.52 2.15
7 -2 19 6.94 5.16
5 -7 19 3.83 2.48
7 -5 19 2.38 0.55
-7 5 -19 11.8 4.3
7 -2 -19 3.51 2.37
-5 -2 -19 6.92 3.8
-2 -5 -19 6.57 4.71
-7 5 -19 3.9 2.14
2 -7 -19 10.91 5.53
5 2 -19 3.51 1.7
-7 2 -19 4.97 2.24
2 5 -19 2.28 2.04
-7 5 -20 42.94 8.33
-5 -2 -20 25.3 6.17
-5 7 -20 21.72 5.53
-2 7 -20 26.38 7.08
-2 -5 20 37.43 9.21
-7 2 20 13.02 5.48
-7 5 20 20.6 6.8
-5 -2 20 19.43 6.27
-5 7 20 14.03 5.83
-2 7 20 18.24 6.32
2 -7 20 35.42 8.17
5 -7 20 33.05 6.58
5 -7 -20 20.56 5.59
2 5 20 29.18 8.54
5 2 20 40.14 11.57
7 -5 -20 18.16 5.56
7 -2 20 36.36 9.96
5 -7 20 28.7 7.05
7 -5 20 34.37 8.79
7 -2 -20 21.87 6.12
-5 -2 -20 25.3 6.48
-2 -5 -20 22.69 6.89
-7 5 -20 50.67 11.36
2 -7 -20 18.57 6.68
5 2 -20 34.7 8.85
5 -7 -20 17.16 7.34
-7 2 -20 20.19 6.35
2 5 -20 21.02 6.71
-5 7 -21 -0.72 1.61
-2 7 -21 2.57 2.46
-5 -2 -21 0.52 1.41
-7 2 21 -2.14 2.19
-5 -2 21 3.44 1.88
-5 7 21 -1.29 2.87
-2 7 21 0.58 2.03
2 -7 21 1.85 3.37
-7 5 -21 3.14 2.19
5 -7 21 -0.38 1.2
5 -7 -21 1.69 1.77
2 5 21 -1.86 2.51
7 -5 -21 -2.2 2.1
5 -7 21 -1.09 2.74
-5 -2 -21 0.82 1.54
-2 -5 -21 0.98 3.28
-5 -2 22 11.48 3.73
-2 7 22 12.57 5.53
2 -7 22 20.98 6.3
5 -7 -22 6.8 3.28
5 -7 22 13.81 5.39
-5 -2 -22 11.26 4.34
-5 7 -22 20.1 5.67
-5 -2 23 -2.1 4.18
-2 7 23 3.4 2.41
-5 -2 -23 -1.2 2.82
5 -7 23 -2.62 2.48
-5 7 -23 -0.5 1.27
-5 -2 -24 6.13 4.33
-7 1 0 61.39 5.7
6 1 0 69.13 7.42
6 -7 0 77.19 8.42
-6 -1 0 75.42 7.86
7 -6 0 60.65 5.64
1 6 0 75.42 9.14
-7 1 0 82.8 8.18
-1 7 0 66.62 8.86
-6 -1 0 61.56 5.66
1 6 0 70.09 7.92
6 -7 0 69.94 9.15
-1 7 0 71.67 8.21
7 -6 0 71.03 9.03
-6 7 0 72.77 7.96
1 -7 0 74.8 9.3
7 -1 0 72.25 7.41
-1 -6 0 67.08 5.62
6 1 0 63.64 6.8
-7 1 0 83.82 12.59
-7 6 0 63.4 5.72
-7 1 0 65.68 4.68
-6 7 0 68.51 6.64
-1 -6 0 59.27 7.91
-7 6 0 70.71 5.57
1 -7 0 69.07 8.03
6 1 0 39.13 6.55
-1 -6 0 71.72 8.3
-6 -1 0 60.15 6.75
-7 1 0 60.94 7.76
-6 7 0 65.08 7.14
-7 6 0 65.25 7.71
1 -7 0 74.68 8.54
6 1 1 139.64 10.32
6 -7 1 161.47 12.29
6 1 -1 143.4 10.52
6 -7 -1 160.12 12.43
-6 -1 1 146.5 10.8
-7 1 -1 120.86 6.91
7 -6 -1 115.41 7.35
1 6 -1 130.77 11.95
-6 -1 -1 150.72 10.79
7 -6 1 118.6 8.43
1 6 1 136.23 12.15
-7 1 1 152.54 10.77
-7 1 -1 162.61 11.38
-1 7 -1 123.42 11.53
-1 7 1 135.61 12.25
1 6 -1 143 11.76
1 6 1 142.96 10.88
6 -7 1 138.42 12.95
-6 -1 -1 124.75 7.28
6 -7 -1 143.67 13.26
-1 7 1 132.92 10.87
7 -6 1 149.23 12.72
7 -1 -1 135.32 10.22
7 -6 -1 150.49 13.03
-6 7 -1 133.7 10.71
7 -1 1 133.28 9.82
1 -7 1 136.64 11.81
-1 -6 -1 130.15 9.18
-1 -6 1 109.89 5.76
6 1 1 143.08 13.35
-7 1 1 150.59 16.86
-7 1 1 130.02 7.27
6 1 1 135.39 9.59
6 1 -1 132.78 10.45
-7 6 -1 135.15 9.06
-6 7 -1 130.86 9.04
-7 6 -1 129.93 7.3
-7 6 1 125.34 7.36
-7 1 -1 165.5 17.66
-6 -1 1 134.62 9
-1 -6 1 128.57 11.05
-1 -6 -1 122.28 11.25
-6 7 1 137.24 9.57
1 -7 1 128.72 10.81
1 -7 -1 115.02 10.9
-7 1 -1 128.92 5.84
6 1 1 87.03 9.26
6 1 -1 69.94 9.25
-7 6 1 132.21 7.94
-1 -6 1 138.15 11.51
-6 -1 -1 127.09 9.93
-6 -1 1 119.51 9.46
-7 1 -1 122.1 10.6
-6 7 -1 129.15 10.13
-7 1 1 129.68 11.17
1 -7 1 147.5 11.76
-7 6 -1 131.62 10.91
-1 -6 -1 134.81 11.07
-6 7 1 125.32 10.03
-7 6 1 131.33 10.95
1 -7 -1 135.32 11.12
-7 1 1 132.25 9.59
6 1 2 61.63 6.95
1 -7 -2 69.1 8.08
6 -7 2 75.43 8.15
7 -6 -2 54.64 4.69
-6 -1 2 65 7.23
6 1 -2 59.73 6.87
6 -7 -2 68.68 8.24
1 6 -2 58.58 7.98
-6 -1 -2 72.29 7.52
-7 1 2 73.97 7.64
-7 1 -2 52.92 3.62
7 -6 2 54.9 6.07
-1 7 -2 58.05 8.07
-7 1 2 13.63 3.66
6 -7 -2 51.01 4.29
1 6 2 62.88 8.18
1 6 -2 67.34 8.25
-1 7 2 61.42 8.43
1 6 2 63.19 7.04
6 -7 2 63.67 8.63
6 -7 -2 66.98 9.16
7 -6 2 67.76 8.58
-1 7 2 55.39 7
-6 7 -2 58.86 6.95
-6 -1 -2 60.75 4.61
7 -6 -2 77.01 9.33
-7 6 -2 61.91 6.36
7 -1 2 62.06 6.52
1 -7 2 60.27 7.35
-7 1 2 57.44 5.33
7 -1 -2 64.71 7.17
-7 1 2 64 10.69
-1 -6 -2 54.92 6.65
6 1 2 64.73 9.22
-7 6 -2 60.9 4.84
6 1 2 56.57 5.82
-6 7 -2 59.4 5.98
-7 6 -2 64.28 6.86
6 1 -2 55.2 6.92
-6 -1 2 62.34 6.43
7 -1 -2 64.49 7.27
-7 6 2 58.57 4.56
-1 -6 2 57.95 7.57
-7 1 -2 78.14 12.21
-1 -6 -2 55.18 7.59
1 -7 2 57.85 6.84
1 -7 -2 54.85 7.9
1 6 -2 64.08 8.51
6 1 2 42.59 6
-6 7 2 59.95 6.48
6 1 -2 32.43 6.82
-1 -6 2 63.49 7.92
-7 6 2 59.92 5.67
-7 1 -2 55.26 3.42
1 -7 2 63.7 7.78
-6 -1 -2 50.02 6.23
-7 1 -2 62.12 7.47
-6 7 -2 58.78 6.78
-7 6 -2 56.37 7.07
-6 -1 2 53.17 6.38
-7 1 2 60.6 7.56
-7 6 2 59.42 7.32
-6 7 2 55.72 6.61
-1 -6 -2 63.52 7.69
-1 -6 -3 55.53 7.19
6 1 3 66.08 7.34
6 -7 3 68.61 7.94
-6 -1 3 67.59 7.11
1 6 -3 56.57 8.08
6 1 -3 61.57 6.94
-7 1 3 73.02 7.37
6 -7 -3 50.24 3.71
-6 -1 3 58.49 7.01
-1 7 -3 57.52 8.03
-6 -1 -3 68.01 7.27
7 -6 3 52.63 6.33
1 6 3 61.66 8.1
-7 6 -3 60.36 4.71
-7 6 3 58.3 4.06
6 -7 3 62.83 8.52
-1 7 3 61.29 8.45
1 6 3 54.64 6.29
-6 7 -3 58.62 6.81
7 -6 3 63.1 8.27
6 -7 -3 63.7 8.84
-7 1 -3 38.43 1.97
-7 6 -3 61.85 6.22
-1 7 3 59.99 6.73
7 -6 -3 66.11 8.49
-6 -1 3 56.96 6.4
7 -1 3 60.92 6.12
1 -7 3 65.62 7.22
-7 1 3 61 10.4
-6 7 -3 59.03 5.86
6 1 3 55.02 5.38
-1 -6 -3 58.5 7.49
7 -1 -3 63.07 7.41
6 1 3 58.7 8.94
-7 6 -3 66.91 7.56
7 -1 -3 63.8 6.97
-1 -6 3 55.04 6.95
1 -7 3 56.54 6.63
-1 -6 -3 56.51 8.07
1 -7 -3 50.21 7.47
6 1 3 43.1 5.46
-7 1 -3 75.77 12.06
1 6 -3 61.17 7.94
6 1 -3 33.06 6.52
-1 -6 3 62.4 7.75
-6 7 3 60.82 6.72
1 -7 3 61.93 7.8
-6 -1 -3 53.35 6.62
-7 6 3 60.7 6.01
-7 1 -3 53.56 6.99
-6 7 -3 56.73 6.52
-7 6 -3 58.64 7.2
-1 7 3 33.17 1.93
-6 -1 3 57.46 6.84
-7 1 3 58.22 7.39
-7 6 3 59.55 7.39
-6 7 3 58.11 6.96
-7 6 4 2.75 1.34
-6 -1 4 2.9 1.64
-7 1 4 1.44 1.57
-1 7 4 2.21 0.67
-7 6 4 0.98 0.76
-6 7 4 3.2 1.35
6 1 4 3.96 1.57
6 -7 4 2.07 1.22
-6 7 -4 2.4 1.23
-7 1 4 3.17 1.12
6 1 -4 1.92 1.11
-1 -6 -4 2.26 1.67
-7 1 -4 1.91 2.64
6 -7 -4 2.17 0.74
-6 -1 4 3.13 1.35
1 6 -4 4.82 2.63
-7 1 4 2.54 1.75
-6 -1 4 3.86 2.17
-1 7 -4 3.97 2.67
-6 -1 -4 5.05 2.25
6 -7 4 1.8 0.73
7 -6 4 5.3 2.64
1 6 4 4.99 2.71
1 6 4 3.99 1.46
-7 1 4 4.04 2.66
6 -7 -4 6.02 2.61
-6 7 -4 3.17 1.69
-7 6 -4 3.2 1.61
-1 7 4 3.64 2.32
-1 7 4 2.94 1.44
7 -6 -4 3.32 1.71
7 -1 4 2.82 0.8
1 -7 4 2.94 1.79
1 -7 -4 0.81 2.72
6 1 4 2.11 0.87
7 -1 -4 2.92 1.96
-1 -6 4 3.97 2.21
6 1 4 2.76 1.98
7 -1 -4 1.96 1.52
1 -7 4 3.83 2.42
-1 -6 4 5.05 1.81
-6 7 4 3.09 1.01
1 -7 4 5.11 1.65
-6 7 4 2.6 1.2
-1 -6 -4 4.28 2.85
-7 6 -4 4.28 2.49
1 -7 -4 5.65 2.87
1 6 -4 2.93 2.2
6 1 4 0.67 0.2
6 1 -4 -0.61 1.5
7 -1 -4 4.92 1.76
-6 -1 -4 5.35 2.43
-7 1 -4 1.62 0.72
-6 7 -4 5.47 2.27
-7 6 -4 2.96 2.06
-1 7 5 64.53 4.36
7 -1 -5 79.71 7.66
1 6 -5 74.53 9.39
-6 -1 5 81.58 9.33
1 6 5 53.37 3.42
-7 1 5 84.04 8
-1 7 -5 70.06 8.77
6 1 -5 77.07 8.14
-6 -1 -5 81.07 7.93
-6 7 -5 76.28 7.68
1 6 5 72.85 8.94
6 -7 5 72.44 9.28
-7 6 -5 74.4 6.74
7 -6 5 86.87 9.53
1 6 5 62.15 6.11
-1 7 5 78.41 9.82
6 -7 -5 85.21 10.48
-1 7 5 66.38 6.57
7 -6 -5 87.72 9.99
7 -1 5 72.99 6.56
-6 7 -5 72.11 6.63
-7 1 5 75.8 11.75
6 1 5 71.05 5.55
1 -7 5 77.75 7.05
-6 -1 5 73.05 7.99
1 -7 -5 70.19 10.66
7 -1 -5 76.38 8.43
-7 6 -5 87.67 9.77
-6 7 5 60.18 3.27
6 1 5 87.77 12.06
-1 -6 5 62.92 6.97
1 -7 5 68.49 6.76
7 -1 -5 71.18 7.4
-1 -6 -5 71.3 9.59
1 -7 -5 58.66 8.67
-1 -6 5 84.78 9.43
6 1 5 56.73 4.42
1 6 -5 72.33 8.72
6 1 -5 53.2 9.4
1 -7 5 81.13 9.05
-7 1 -5 96.78 13.99
-6 7 5 73.58 7.89
-7 1 -5 64.78 7.83
-6 7 -5 73.78 7.75
-7 6 -5 80.8 8.61
1 6 5 52.86 3.19
-7 1 5 80.99 10.4
-6 -1 5 68.09 7.44
-7 1 5 75.53 8.71
-7 6 5 75.77 8.91
-6 7 5 73.6 8.18
6 1 5 83.55 8.56
-7 6 5 73.63 7.47
-1 7 6 20.16 2.64
-7 6 6 27.48 4.95
-7 1 6 23.04 4.89
-1 -6 -6 27.12 3.78
-7 6 6 24.72 4.97
-7 1 6 28.94 4.66
1 6 6 19.8 2.63
-7 1 6 26.44 6.07
6 1 -6 25.9 4.65
-6 7 -6 25.38 4.52
-7 6 -6 27 4.01
1 6 -6 24.08 5.33
-6 -1 6 23.74 5.2
-1 7 -6 23.08 5.12
-7 1 6 25.6 6.76
6 -7 6 23.95 5.03
1 6 6 19.77 3.18
7 -6 6 21.75 4.74
7 -1 6 22.12 3.43
-1 7 6 20.02 3.44
1 6 6 22.05 4.77
6 1 6 20.98 2.76
6 -7 -6 28.7 6.3
-6 -1 6 25.83 5.05
1 -7 6 25.41 3.86
-1 7 6 22.54 5.21
7 -6 -6 27.32 5.55
-1 -6 6 24.75 5.16
1 -7 -6 21.95 6.15
7 -1 -6 21.75 4.98
-1 -6 -6 15.44 4.41
6 1 6 28.54 7.11
-7 1 -6 31.16 8.05
1 -7 6 23.39 3.85
7 -1 -6 28.68 4.61
1 -7 6 25.84 5.17
7 -1 -6 17.09 3.74
-7 6 -6 30.15 5.98
-1 -6 -6 20.91 5.19
1 -7 -6 16.58 4.39
1 6 -6 23.56 4.88
-6 7 -6 25.22 4.44
6 1 -6 17.61 5.37
1 6 6 19.71 2.47
-7 1 -6 21.96 4.7
-7 6 -6 23.29 4.69
-6 -1 6 27.73 4.79
6 1 6 30.69 5.23
-6 7 6 26.34 4.99
-1 7 7 20.07 3.23
6 -7 7 27.87 4.32
-6 -1 7 19.93 4.21
-1 7 7 23.39 3.26
-7 1 7 20.91 4.79
-7 1 7 29.35 4.57
1 -7 -7 21.87 2.82
-6 7 7 21.86 4.64
-1 -6 -7 23.06 3.33
-7 1 7 31 7.06
1 6 7 19.48 3.16
6 1 -7 25.05 4.73
-7 6 -7 27.82 4.05
-6 7 -7 26.6 4.61
1 6 -7 20.3 4.79
-6 -1 7 28.22 5.83
7 -6 7 27.94 5.28
-1 7 -7 20.33 4.71
-7 1 7 22.93 6.68
6 -7 7 22.17 4.89
6 -7 -7 30.58 6.37
7 -1 7 25.63 3.81
1 6 7 19.46 2.93
6 1 7 21.26 2.61
-1 7 7 21.08 3.32
1 6 7 25.1 5.44
-6 -1 7 27.77 5.38
1 -7 7 24.62 3.66
-1 7 7 28.38 5.96
-1 -6 7 25.23 5.43
7 -6 -7 30.61 5.92
1 -7 -7 24.46 7.36
1 6 7 21.38 4.83
-1 -6 -7 16.26 4.48
6 1 7 27.28 7.07
7 -1 -7 24.96 5.04
7 -1 7 28.45 6.73
1 -7 7 21.8 3.58
7 -1 -7 26.42 4.32
1 -7 7 30.55 5.85
-7 1 -7 28.8 5.01
7 -1 -7 21.66 4.46
-7 6 -7 32.21 6.54
-1 -6 -7 20.86 5.6
1 -7 -7 17.03 5.12
1 6 -7 22.21 4.64
-7 1 -7 24.33 5
-6 7 -7 26.3 4.76
-7 6 -7 25.05 4.87
6 1 -7 19.23 5.64
1 6 7 23.48 3.01
-7 1 -7 34.38 8.27
-7 6 7 27.07 5.63
-7 1 -8 10.53 3.34
6 -7 8 15.94 3.14
-7 1 8 21.09 3.85
-6 -1 8 13.63 3.54
-7 1 8 13.83 4.1
-6 -1 8 14.78 4.08
-7 6 8 15.63 4.54
-6 7 8 10.8 3.35
-7 1 8 13.48 4.62
-1 7 8 12.39 2.58
1 6 -8 15.65 4.52
1 -7 -8 12.4 3.39
-1 7 -8 12.22 3.61
-7 1 8 13.35 4.51
1 -7 -8 12.27 2.07
-7 1 -8 13.52 5.66
-1 -6 -8 12.68 2.46
6 -7 8 12.48 3.5
-7 6 -8 15.93 2.94
-6 7 -8 16.46 3.81
7 -6 8 12.43 3.48
6 1 8 12.26 1.93
1 6 8 13.12 2.3
7 -1 8 13.92 2.85
-1 -6 8 11.76 3.71
1 6 8 12.72 3.77
-1 7 8 12.41 3.85
7 -6 -8 12.64 3.91
1 -7 8 13.05 2.18
6 1 -8 12.97 2.61
1 6 8 11.59 3.4
1 -7 8 13.07 2.56
1 -7 8 15.45 4.09
-1 7 8 10.74 2.39
1 -7 -8 12.76 4.86
6 -7 -8 15.27 4.72
-1 -6 -8 5.09 2.41
6 1 8 18.59 6.25
7 -1 -8 13.27 3.75
7 -1 8 12.04 4.76
7 -6 8 17.21 3.14
7 -1 -8 9.49 3.33
-7 6 -8 17.84 4.89
-1 -6 -8 12.98 4.25
1 -7 -8 13.81 4.82
1 6 -8 11.87 3.54
-6 7 -8 11.13 3.25
6 1 -8 6.64 3.45
-7 6 -8 12.82 3.54
1 6 8 13.81 2.6
7 -1 -8 15.28 3.35
-1 7 8 12.97 2.67
-7 1 -9 5.53 2.8
-6 -1 9 4.37 1.84
-6 -1 9 4.62 2.5
-7 1 9 5.65 2.99
1 -7 9 3.8 0.97
-7 6 9 5.69 2.14
-6 7 9 5.88 3.34
1 6 -9 7.12 2.95
-1 7 9 4.3 1.41
1 -7 -9 3.27 1.67
-1 7 -9 4.07 1.99
-7 6 -9 4.76 1.93
6 -7 9 5.01 1.93
-6 7 -9 6.07 2.47
1 -7 -9 4.82 1.36
-1 -6 -9 5.08 1.63
-7 1 9 7.07 3.82
7 -6 9 5.24 2.57
6 1 9 4.96 1.58
7 -1 9 4.44 1.73
-1 -6 9 6.39 2.86
6 1 9 3.94 1
1 -7 9 3.15 1.18
1 6 9 4.06 2.2
6 -7 -9 7.37 2.99
-1 7 9 4.65 2.21
1 -7 9 7.15 2.75
7 -6 -9 6.73 2.68
1 6 9 4.54 2.31
6 1 -9 4.61 1.59
1 6 9 6.16 1.53
-1 7 9 5.27 1.66
6 1 9 6.92 3.44
1 -7 9 6.25 1.61
-1 -6 -9 2.51 1.44
7 -1 9 6.09 3.32
7 -1 -9 5.66 2.64
7 -6 9 8.6 2.19
-7 6 -9 7.78 3.55
-7 1 -9 13.87 5.8
7 -1 -9 4.69 2.23
-1 -6 -9 4.42 3.08
1 -7 -9 3.38 1.86
1 6 -9 3.99 2.16
6 -7 9 5.66 1.44
-7 6 -9 6.26 2.24
6 1 -9 1.4 1.79
1 6 9 3.83 1.69
-1 7 9 5.17 1.44
6 -7 9 6.77 2.23
7 -1 -9 3.98 1.59
-7 1 10 104.11 11.94
-1 -6 10 72 3.47
-7 6 10 117.43 12.64
-6 7 10 108.65 11.63
-7 6 -10 115.67 8.8
-6 7 -10 116.37 10.1
-1 7 10 101.49 9.16
-7 1 -10 167.07 19.13
-1 -6 -10 98.57 7.21
1 -7 -10 98.5 9.89
6 -7 10 115.13 11.77
7 -6 10 112.8 10.86
6 1 10 70.43 3.62
7 -1 10 113.53 7.53
-7 1 10 103.76 13.39
1 6 10 100.67 11.42
6 -7 -10 125.18 13.43
1 -7 10 144.71 13.67
7 -6 -10 133.23 13.32
6 1 10 137.42 8.94
7 -1 -10 114.04 9.42
1 6 10 112.01 12.74
1 6 10 106.29 5.36
6 1 -10 128.51 8.64
-1 7 10 116.03 7.51
1 -7 10 129.67 8.16
6 1 10 140.2 17.98
-1 7 10 105.87 12.63
7 -1 10 126.5 15.83
-7 6 -10 163.83 17.34
7 -1 -10 104.89 11.63
-1 -6 10 141.9 14.05
-1 7 10 84.87 6.84
7 -6 10 130.75 7.61
7 -1 -10 79.67 9.99
-1 -6 -10 103.71 13.09
1 -7 -10 82.99 12.29
1 6 -10 127.23 11.02
7 -1 -10 110.05 9.08
6 1 -10 111.14 14.88
6 -7 10 91.61 4.07
-7 1 -10 133.72 12.32
1 6 10 123.75 10.55
6 -7 10 142.31 9.99
1 6 -10 117.09 12.94
1 -7 10 109.43 6.03
-1 7 -10 114.18 12.25
-6 -1 10 106.49 11
1 6 -10 162.57 11.13
-6 -1 11 109.42 11.53
-7 1 11 111.44 12.6
-7 6 11 125.34 13.42
-6 7 11 118.95 12.64
-1 -6 11 96.9 5.8
-6 7 -11 123.99 10.62
-1 7 11 111.7 10.24
-7 1 -11 184.91 20.15
1 -7 -11 105.94 10.17
6 -7 11 118.03 11.92
7 -6 11 111.44 10.86
7 -1 11 117.08 7.28
-7 1 11 117.17 13.88
1 6 11 111.07 12.3
6 -7 -11 133.21 13.94
7 -6 -11 136.84 13.52
6 1 11 146.55 9.31
7 -1 -11 130.71 10.44
1 6 11 121.27 13.67
6 1 -11 142.54 9.63
1 -7 11 131.96 8.84
-1 7 11 121.2 7.48
6 1 11 154.24 19.53
7 -1 11 148.19 17.68
-7 6 -11 206.59 19.76
7 -1 -11 113.21 12.26
-1 -6 11 150.15 14.71
-1 7 11 99.31 7.33
1 -7 11 149.91 14.28
7 -1 -11 87.25 10.81
-1 -6 -11 100 13.21
1 -7 -11 81.01 12.37
1 6 -11 131.82 11.28
-7 1 -11 139.5 13.04
6 1 -11 122.8 15.35
7 -1 -11 120.52 9.37
6 -7 11 150.65 10.5
1 6 -11 127.82 14.08
-1 7 -11 128.08 13.13
-7 6 -11 125.5 9.5
7 -1 -12 10.54 2.89
-6 -1 12 9.47 3.46
-7 1 12 12.74 4.54
1 6 -12 13.13 4.77
-7 6 12 12.62 4.65
-6 7 12 12.03 4.29
-1 -6 12 10.22 2.14
-7 6 -12 13.92 3.4
-1 7 -12 13.06 4.32
-1 7 12 11.76 3.4
-6 7 -12 9.84 3.02
6 -7 12 10.18 3.46
1 -7 -12 11.91 3.24
7 -6 12 10.41 3.32
-7 1 12 12.83 4.08
7 -1 12 8.69 1.92
-1 -6 12 16.38 5.05
6 -7 12 14.03 3.07
1 -7 12 15.28 4.7
1 6 12 8.99 3.58
7 -6 -12 12.25 4.38
1 6 12 7.18 3.2
6 -7 -12 12.91 4.5
1 -7 12 13.61 2.93
6 1 12 17.86 6.84
7 -1 12 11.44 5.19
7 -1 -12 11.43 4.1
-6 -1 -12 12.56 4.29
-7 6 -12 20.62 6.04
7 -1 -12 11.23 3.79
-1 -6 -12 11.92 4.76
1 6 -12 10.67 3.12
1 -7 -12 9.22 4.68
-1 7 12 11.38 2.64
6 1 -12 10.91 4.02
-7 1 -12 14.39 4.06
1 6 -13 0.39 0.98
-6 -1 13 -0.32 1.56
-7 1 13 1.16 2.02
-7 6 13 -0.5 1.92
-7 6 -13 -0.11 0.59
-6 7 13 1.04 0.37
-1 7 -13 1.24 0.71
-1 -6 13 -0.11 0.92
-6 7 -13 0.93 0.95
-1 7 13 -1.74 2
6 -7 13 3 2.86
1 -7 -13 0.65 0.26
7 -6 13 0.26 0.38
-1 -6 13 -1.63 1.59
-7 1 13 -3.12 3.07
1 -7 13 1.96 2.12
6 -7 -13 2.16 1.7
1 6 13 -2.06 1.48
7 -6 -13 1.73 2.16
1 6 13 0.2 0.14
6 1 13 2.66 2.4
7 -1 13 1.24 1.24
7 -1 -13 -0.78 1.71
-6 -1 -13 0.26 2.39
6 -7 13 4.77 1.96
-7 6 -13 3.79 3.52
7 -1 -13 -1.29 1.79
-1 -6 -13 0.39 1.14
1 -7 -13 2.41 2.26
6 1 -13 -2.02 2.78
-7 1 -13 1.25 1.48
1 6 -14 0.7 0.54
-7 6 -14 0.55 1.18
-7 1 14 0.89 2.34
-6 -1 14 1.55 1.75
-1 7 -14 0.37 1.42
-7 6 14 -1.97 1.66
-6 7 14 1.92 1.93
-6 7 -14 0.04 0.95
-1 7 14 -0.93 1.42
1 -7 -14 -0.35 0.82
7 -6 14 0.33 0.84
-1 -6 14 -0.21 2.55
-7 1 14 1.16 1.72
1 -7 14 1.71 1.59
1 6 14 6.23 3.54
1 6 14 0.07 1.5
7 -6 -14 2.49 1.8
6 1 14 2.84 3.47
7 -1 14 0.66 2.58
6 -7 14 -1.11 1.37
7 -1 -14 -0.6 1
-6 -1 -14 2.73 2.01
-7 6 -14 3.13 2.58
7 -1 -14 -0.42 1.02
-1 -6 -14 -1.72 1.33
6 -7 -14 0.65 0.6
1 -7 -14 0.17 1.22
6 1 -14 3.25 2.38
-7 1 -14 0.67 1.87
-7 1 15 56.2 10.08
-6 -1 15 57.41 9.49
-7 6 15 59.24 10.32
-6 7 15 66.12 10.62
-1 7 15 60.68 9.39
7 -6 15 63.53 8.31
-7 6 -15 107.81 12.59
-7 1 15 114.96 12.47
6 -7 -15 66.43 10.14
7 -6 -15 75.59 10.76
1 6 15 59.22 11.01
6 1 15 101.05 18.06
7 -1 15 97.19 16.13
-1 -6 15 94.29 12.9
6 -7 15 80.89 10.74
7 -6 15 88.78 12.16
-7 6 -15 138.19 18.04
1 -7 15 102.52 12.88
7 -1 -15 53.76 9.05
-6 -1 -15 64.96 9.91
7 -1 -15 61.64 9.86
-1 -6 -15 53.1 10.12
-7 1 -15 73.49 10.51
6 1 -15 92.11 13.73
6 -7 15 92.8 8.88
-6 -1 -15 94.42 11.35
1 -7 -15 45.23 9.92
-7 6 -15 87.93 9.38
1 6 -15 76.86 11.89
-1 7 -15 76.69 11.18
-6 7 -15 77.11 9.25
-6 -1 -16 -0.68 1.34
-7 6 -16 0.83 1.79
1 6 -16 -0.23 1.87
-1 7 -16 0.65 1.57
-6 7 -16 1.09 0.77
-7 1 16 -0.02 1.08
-6 -1 16 0.39 1.08
-7 6 16 2.44 1.86
-6 7 16 0.88 1.56
-1 7 16 -2.45 2.65
-1 -6 16 -1.05 0.5
-7 6 -16 -1.48 2.48
1 -7 16 0.58 1.67
1 6 16 2.49 3.11
6 -7 -16 0.72 0.25
7 -6 -16 -0.14 1.45
6 -7 16 1.82 1.01
6 1 16 -1.92 1.28
7 -1 16 0.07 2.21
6 -7 16 2.47 2.55
7 -6 16 -0.98 1.33
7 -1 -16 2.74 2.46
-6 -1 -16 2.22 2.31
-7 6 -16 4.66 3.42
7 -1 -16 1.6 0.91
-1 -6 -16 3.16 0.84
1 -7 -16 -0.22 2.08
6 1 -16 -0.3 1.15
-7 1 -16 -0.57 1.76
-6 -1 -17 5.62 2.75
1 6 -17 7.56 3.55
-1 7 -17 8.33 3.86
-6 7 -17 8.34 2.85
-7 1 17 7.27 3.16
-6 -1 17 5 1.89
-7 6 17 4.96 1.61
-6 7 17 6.53 3.86
-1 7 17 4.61 2.22
6 1 17 13.62 6.82
-1 -6 17 11.32 4.45
1 -7 17 11.66 4.52
-7 6 -17 11.36 4.62
6 -7 -17 7.64 3.59
6 -7 17 10.07 3.34
1 6 17 2.52 2.2
7 -6 -17 8.11 3.39
7 -1 17 1.02 0.72
6 -7 17 10.37 3.95
7 -6 17 11.01 4.16
7 -1 -17 7.18 3.09
-6 -1 -17 11.78 4.44
7 -1 -17 2.93 0.86
-7 6 -17 17.51 6.41
-1 -6 -17 8.38 4.48
1 -7 -17 2.23 1.96
6 1 -17 6.87 3.77
-7 1 -17 9.37 4.2
-6 -1 -18 0.24 0.58
1 6 -18 0.25 2.74
-6 7 -18 0.75 1.03
-1 7 -18 3.68 3.02
6 -7 18 -1 2.13
-7 1 18 -2.09 2.06
-6 -1 18 -0.85 1.87
-7 6 18 1.29 2.64
-6 7 18 2.75 1.66
-1 7 18 -1.12 2.02
-1 -6 18 0.35 1.36
1 -7 18 0.65 2.47
-6 7 -18 0.05 0.94
6 -7 -18 1.9 1.69
1 6 18 2.18 2.72
7 -6 -18 3.27 2.09
6 1 18 2.46 1.78
7 -1 18 -0.28 1.6
7 -6 18 2.18 1.55
7 -1 -18 -3.56 2.88
-7 6 -18 -0.78 1.62
-6 -1 -18 -0.99 2.03
7 -1 -18 -0.74 1.37
-7 6 -18 -0.79 2.99
-1 -6 -18 0.2 0.42
1 -7 -18 -0.56 2.46
6 1 -18 0.79 2.59
-7 1 -18 -2.46 2.29
1 6 -19 2.5 2.42
-6 -1 -19 0.28 1.08
-7 6 -19 6.59 3.5
-6 7 -19 1.92 1.44
-1 7 -19 1.75 1.36
-7 1 19 -0.55 2.55
-6 -1 19 1.56 1.63
-7 6 19 0.46 0.76
-6 7 19 0.53 0.55
-1 7 19 2.04 2.32
-1 -6 19 3.49 3.15
1 -7 19 3.29 2.58
-6 7 -19 4.12 2.13
6 -7 -19 0.48 1.06
1 6 19 0.24 1.14
7 -6 -19 -1.81 1.86
6 1 19 1 4.89
7 -1 19 0.52 4.05
6 -7 19 2.14 2.17
7 -6 19 5.4 4.33
7 -1 -19 2.89 1.56
-6 -1 -19 1.78 2.02
7 -1 -19 3.86 3.19
-7 6 -19 3.79 4.49
-1 -6 -19 -1.84 1.37
1 -7 -19 -3.37 4.3
6 1 -19 -2.99 2.97
-7 1 -19 0.14 1.23
-6 7 -20 7.32 2.8
-6 -1 -20 10.68 3.36
-7 1 20 6.98 3.71
-6 -1 20 4.85 1.87
-6 7 20 7.24 4.17
-1 7 20 -0.27 1.16
1 -7 20 12.44 5.24
-7 6 -20 16.76 4.69
6 -7 -20 4.72 1.87
1 6 20 10.72 3.44
7 -6 -20 7.35 3.18
6 -7 20 11.77 4.85
7 -6 20 13.9 5.92
7 -1 -20 5.91 2.76
-6 -1 -20 10.79 4.45
-7 1 21 16.1 6.15
-6 -1 21 7.64 3.88
-1 7 21 3.89 2.75
6 -7 -21 11.83 4.62
7 -6 -21 9.11 4.14
6 -7 21 10.72 4.28
-6 -1 -21 12.53 3.8
-7 6 -21 21.87 5.55
-6 -1 22 11.27 4.73
-1 7 22 8.95 4.65
6 -7 -22 13.59 4.67
6 -7 22 25.72 7.45
-6 -1 -22 22.9 6.76
-6 -1 23 7.7 4.49
-1 7 23 -0.91 1.77
6 -7 -23 2.15 1.96
-6 -1 -23 6.81 3.67
-7 0 0 33.96 5.6
7 -7 0 18.87 3.1
-7 0 0 23.91 7
-7 0 0 23.72 3.29
7 -7 0 29.8 6.31
0 7 0 23.34 5.21
-7 7 0 25.47 4.69
7 0 0 24.97 4.25
-7 7 0 26.02 3.88
0 -7 0 18.83 4.17
-7 7 0 25.84 3.84
7 0 0 23.59 3.47
0 -7 0 25.96 5.11
-7 0 0 23.74 4.84
-7 7 0 26.75 5.1
0 -7 0 27.79 5.59
-7 0 -1 62.85 11.33
7 -7 -1 58.28 5.14
-7 0 1 72.73 7.92
-7 0 1 51.8 5.59
0 7 -1 63.23 8.68
-7 0 -1 70.76 7.68
7 -7 1 56.72 5.9
0 7 1 61.2 8.47
-7 0 -1 61.01 4.74
0 7 1 64.97 7.89
7 -7 1 71.11 9.39
7 -7 -1 74.65 9.73
-7 7 -1 66.74 7.38
7 0 1 65.88 6.82
0 -7 -1 48.32 7.46
0 -7 1 58.48 6.89
7 0 -1 63.97 7.32
-7 7 -1 80.88 7.87
-7 7 1 64.64 5.59
-7 7 -1 63.85 5.94
7 0 1 60.63 4.87
0 -7 1 61.64 7.58
0 -7 -1 56.41 7.75
7 0 -1 59.8 6.25
-7 7 1 68.35 6.49
-7 0 -1 61.52 4.93
-7 0 -1 62.14 7.52
0 -7 1 77.01 8.96
-7 0 1 64.09 7.6
-7 7 -1 63.64 7.61
-7 7 1 67.41 7.96
0 -7 -1 65.35 8.12
-7 0 1 58.47 10.85
-7 7 2 4.44 2.23
0 -7 -2 4.41 2.11
7 -7 -2 4.32 1.26
-7 7 -2 3.85 1.18
-7 0 2 6.01 2.33
0 7 -2 6.25 2.83
-7 0 -2 8.48 2.76
7 -7 2 5.06 1.75
0 7 2 5.33 2.69
0 7 2 7.29 2.52
7 -7 -2 6.72 3.12
-7 0 -2 5.15 1.2
-7 7 -2 5.82 2.41
7 0 2 5.02 1.58
0 -7 -2 -0.23 0.81
-7 0 -2 3.37 2.14
0 -7 2 4.01 1.72
7 0 -2 6.01 1.77
-7 7 2 6.02 1.69
-7 7 -2 6.67 2.29
0 -7 2 8.53 2.91
0 -7 -2 3.6 1.9
7 0 -2 6.52 2.16
-7 7 2 4.66 1.23
0 -7 2 5 2.26
-7 0 -2 6.45 1.48
-7 0 2 3.58 1.88
-7 0 -2 9.01 3.37
-7 7 -2 7.13 2.52
-7 0 2 5.88 2.54
-7 0 3 15.46 3.93
-7 7 3 13.46 3.63
7 -7 -3 14.9 2.19
7 0 -3 14.16 3.59
-7 7 -3 15.34 2.78
-7 0 -3 16.16 6.31
0 -7 -3 14.84 3.75
-7 0 3 16.22 3.49
-7 0 3 14.72 3.75
-7 0 3 14.25 2.91
0 7 -3 14.92 4.19
-7 0 -3 15.89 3.72
7 -7 3 15.66 4.12
0 7 3 17.09 4.35
0 7 3 16.02 3.71
7 -7 -3 16.61 4.71
-7 7 -3 16.36 3.46
0 -7 3 12.76 2.26
7 0 3 16.03 3.12
-7 7 3 13.38 1.97
-7 7 3 15.01 3.4
-7 0 3 12.51 4.2
-7 7 -3 19.29 4.49
0 -7 3 14.46 3.58
0 -7 3 15.21 3.99
0 -7 -3 16.35 4.57
7 0 -3 11.45 3.01
0 7 -3 14.25 4.21
-7 0 -3 14.32 3.86
-7 7 -3 15.85 3.67
-7 0 -3 14.16 2.12
-7 0 4 6.96 3.31
-7 7 4 8.56 2.85
-7 7 -4 10 2.28
-7 0 4 6.38 2.1
-7 0 4 8.73 2.88
-7 0 4 9.03 2.51
0 7 -4 7.88 3.47
7 -7 4 9.15 3.48
0 7 4 8.82 3.57
-7 7 -4 8.87 2.74
0 7 4 7.22 2.23
7 -7 -4 11.32 3.69
-7 7 -4 9.09 2.97
7 0 4 5.89 1.94
0 -7 -4 9.09 4.29
-7 0 4 8.71 4.43
7 0 -4 3.7 1.1
7 0 4 8.36 3.86
0 -7 4 10.3 3.51
0 -7 4 7.56 2.85
0 -7 -4 10.28 3.83
-7 7 4 7.61 2.37
7 0 -4 5.89 2.59
0 7 -4 5.57 2.71
-7 0 -4 9.12 3.9
-7 7 4 8.27 1.32
-7 0 -4 6.61 2.37
-7 7 -4 9.39 2.9
-7 0 5 94.37 10.5
0 7 -5 91.32 10.71
-7 0 5 101.81 9.43
-7 0 -5 108.51 15.64
-7 7 -5 90.91 8.36
0 7 5 83.69 10.26
7 -7 5 87.89 10.39
7 -7 -5 100.67 11.68
0 7 5 79.62 7.26
7 0 5 78.52 6.67
-7 0 5 84.92 8.54
0 -7 -5 69.95 11.03
7 0 5 93.09 12.44
7 0 -5 90.57 9.75
0 -7 5 80.93 8.08
0 -7 -5 70.96 9.86
7 0 -5 69.23 8.57
0 7 -5 85 9.6
0 -7 5 96.27 10.41
-7 0 -5 75.23 8.64
-7 7 5 89.17 8.63
-7 0 5 73.85 11.62
-7 7 -5 88.49 8.99
-7 0 5 78.93 8.99
-7 7 5 91.15 9.82
0 7 6 28.6 2.58
0 7 -6 31.37 6.38
0 -7 -6 33.82 4.14
-7 0 6 44.32 6.37
-7 7 -6 33.6 5.02
-7 0 6 34.94 6.48
7 -7 6 39.78 6.82
0 7 6 34.14 6.84
-7 0 -6 36.05 8.78
7 -7 -6 44.93 7.94
0 7 6 31.96 4.38
7 0 6 32.27 4.03
-7 0 6 30.11 5.19
-7 0 6 27.45 6.52
7 0 6 41.56 8.27
0 -7 -6 31.79 7.47
7 0 -6 27.96 5.37
0 -7 6 31.77 4.83
0 7 -6 35.41 6.08
0 -7 6 39.59 6.74
0 -7 -6 29.64 6.25
7 0 -6 27.54 5.83
0 7 6 23.05 2.56
-7 7 -6 37.43 5.92
-7 0 6 35.48 6.19
-7 7 6 34.36 6.16
-7 0 7 48.1 8.48
0 7 -7 42.52 7.32
-7 0 7 44.24 6.15
0 7 7 32.48 3.45
0 -7 -7 39.01 4.27
-7 7 -7 43.47 5.67
7 -7 7 43.46 7.03
0 7 7 40.14 7.47
7 -7 -7 48.81 8.36
7 0 7 38.85 4.32
0 7 7 34.82 4.45
-7 0 7 39.64 6.48
-7 0 7 31.73 6.93
7 0 7 50.88 9.8
7 0 -7 41.46 7.26
0 -7 -7 35.49 8.74
0 -7 7 46.37 7.55
0 7 -7 43.75 6.71
0 -7 -7 36.48 7.23
7 0 -7 28.02 6.38
0 7 7 35.01 3.9
-7 7 -7 44.06 6.57
-7 0 7 38.42 6.46
-7 7 7 44.27 7.23
-7 0 8 0.66 0.35
-7 7 8 2.1 1.73
0 7 8 1.9 0.38
0 7 -8 1.74 0.72
7 0 8 2.52 2.93
0 -7 -8 -0.14 0.44
7 -7 8 0.99 0.39
-7 7 -8 1.78 1.41
-7 0 8 0.69 1.29
-7 0 8 -0.6 1.18
7 0 8 1.46 1.07
7 -7 -8 -0.55 1.68
0 7 8 1.28 0.65
0 -7 8 2.27 1.73
0 -7 -8 0.41 1.38
7 0 -8 1.02 0.96
0 -7 -8 -0.28 0.74
7 0 -8 1.09 0.94
0 7 -8 1.33 0.97
-7 7 -8 0.75 0.7
-7 0 9 19.27 5.01
-7 7 9 21.27 5.63
0 7 9 17.24 3.3
0 7 -9 17.71 5.05
-7 7 -9 19.32 4.07
0 -7 -9 14.37 2.58
7 0 9 17.42 2.71
7 -7 9 21.31 4.76
-7 0 9 17.88 5.21
0 7 9 17.84 2.85
0 7 9 21.66 5.49
7 -7 -9 19.24 5.28
0 -7 9 23.72 5.53
7 0 9 27.12 7.02
7 0 -9 18.69 4.94
0 -7 -9 19.74 5.7
7 0 -9 14.02 4.48
0 7 -9 17.77 4.05
7 0 -9 21.37 3.88
-7 7 10 41.98 7.51
-7 7 -10 50.22 6.42
0 7 10 35.92 5.21
0 -7 -10 35.67 4.05
7 -7 10 46.16 7.4
7 0 10 40.3 3.83
0 7 10 45.1 8.1
7 -7 -10 51.23 8.92
7 0 -10 42.22 5.54
7 0 10 50.04 10.68
0 -7 10 51.93 8.62
7 0 -10 34.32 6.73
0 -7 -10 30.71 6.88
7 0 -10 31.39 6.42
-7 0 10 53.14 9.08
0 7 -10 40.3 7.62
-7 0 10 37.06 6.93
7 -7 11 89.9 7.42
-7 7 11 73.22 10.26
-7 7 -11 72.83 7.81
0 7 11 60.55 7.44
7 -7 11 75.13 9.44
0 7 11 72.74 10.64
7 -7 -11 79.83 11.14
7 0 11 85.8 14.67
0 -7 11 88.82 11.63
7 0 -11 64.99 9.8
7 0 -11 63.57 10
0 -7 -11 55.91 9.95
-7 0 11 97.62 11.96
0 7 -11 72.77 10.38
-7 0 11 65.27 9.44
7 -7 12 2.65 1.04
-7 0 12 3.5 1.82
-7 7 12 0.36 1.71
0 7 -12 2.91 2.06
0 7 12 1.78 0.94
-7 7 -12 2.24 1.42
7 -7 12 1.54 1.01
0 -7 12 2.92 1.74
0 7 12 1.51 2.33
7 -7 -12 3.29 1.68
7 0 12 4.46 3.41
-7 0 12 5.78 2.85
7 0 -12 1.88 1.35
0 -7 -12 3.24 1.11
7 0 -12 2.8 2.38
-7 0 -13 0.67 0.69
-7 0 13 -0.49 1.74
-7 7 13 1.15 1.72
0 7 -13 -1.12 2.21
-7 7 -13 1 0.46
0 7 13 1.22 1.63
7 -7 13 2.37 2.31
0 -7 13 -0.56 1.2
0 7 13 -0.63 1.93
7 -7 -13 2.57 1.9
7 0 13 1.43 3.81
7 0 -13 0.82 1.44
7 0 -13 2.25 2.47
0 -7 -13 1.28 1.02
-7 0 13 1.99 1.54
-7 0 -14 8.67 3.52
-7 0 14 7.11 3.75
0 7 -14 11.87 4.33
-7 7 14 10.45 4.33
-7 7 -14 10.38 3.27
0 7 14 11.04 3.73
7 -7 14 12.15 3.88
0 -7 14 14.42 4.98
0 7 14 10.55 4.15
7 -7 -14 11.17 4.13
0 7 14 10.75 4.26
7 0 14 10.33 2.87
7 0 -14 9.58 3.32
7 0 -14 9.96 4.18
0 -7 -14 8.74 4.04
-7 0 -15 32.62 7.06
-7 0 15 23.09 6.17
-7 7 -15 30.85 5.54
-7 7 15 27.16 6.97
0 7 15 27.28 7.09
0 7 15 23.8 5.8
0 -7 15 37.68 8.26
7 -7 -15 30.65 7.2
7 0 15 39.16 11.38
7 -7 15 32.77 7.24
7 0 -15 22.14 6.4
7 0 -15 32.18 7.89
0 -7 -15 26.4 8.08
0 7 -15 37.81 8.45
-7 0 -16 -0.69 1.25
0 7 -16 1.34 0.63
-7 7 -16 2.65 1.05
-7 0 16 1.29 2.11
-7 7 16 1.4 1.4
0 7 16 -1.44 1.84
0 -7 16 2.68 2.71
0 7 16 -0.09 2.37
7 -7 -16 3.49 2.3
7 0 16 3.36 4.37
7 -7 16 2.5 1.94
7 0 -16 1.75 2.19
7 0 -16 3.37 3.31
0 -7 -16 -0.48 1.4
-7 0 -17 7.11 3.26
-7 7 -17 16.65 4.81
0 7 -17 13.17 5.15
-7 0 17 9.06 4.87
-7 7 17 12.71 5.01
0 7 17 9.63 4.2
-7 7 -17 21.27 5.34
0 -7 17 13.4 4.92
7 -7 -17 12.06 4.73
0 7 17 9.4 5.23
7 0 17 15.76 6.5
7 -7 17 12.67 4.51
7 0 -17 9.26 4.3
0 -7 -17 9.12 3.52
-7 0 -18 2.51 2.37
-7 0 18 1.46 2.25
-7 7 18 2.04 1.57
0 7 18 0.73 0.39
0 -7 18 0.66 1.73
-7 7 -18 3.01 2.16
7 -7 -18 3.9 2.64
0 7 18 2.09 2.34
7 0 18 8.47 6.18
7 -7 18 2.26 1.46
7 0 -18 0.16 1.86
-7 0 19 2.23 2.27
0 7 19 -3.16 4.05
7 -7 -19 -2.89 2.38
0 7 19 -0.92 2.65
-7 7 -19 -2.32 2.17
7 -7 19 0.46 0.98
7 0 -19 -3.14 1.15
-7 0 20 1.61 0.91
0 7 20 -3.27 2.84
7 -7 -20 -1.09 2.27
7 -7 20 3.82 3.61
-7 0 21 16.2 6.6
0 7 21 15.68 6.27
7 -7 -21 10 4.15
4 4 0 1141.8 21.63
4 -8 0 963.99 35.81
-4 8 0 1172.5 36.4
8 -4 0 1289.7 35.16
4 4 0 1066.44 24.04
-4 -4 0 1111.53 29.63
4 -8 0 985.52 32.94
-4 -4 0 1139.89 31.15
-4 8 0 1123.13 24.47
-8 4 0 1093.58 34.62
4 4 0 1184.99 37.05
-8 4 1 7.73 4.66
-8 4 -1 8.93 3.33
-8 4 1 1.66 0.87
4 4 1 10.8 3.44
4 4 -1 10.61 3.17
4 4 -1 9.62 5.82
4 -8 -1 18.36 7.24
4 -8 1 8.52 4.78
-4 8 -1 6.33 4.84
4 -8 -1 19.29 7.86
-4 -4 1 2.36 2.28
8 -4 1 16.34 4.9
8 -4 -1 5.14 3.86
4 4 -1 3.23 1.24
4 4 1 8.49 3.21
-4 -4 1 6.73 3.62
-4 8 1 7.27 5.99
4 -8 -1 8.17 4.34
-4 -4 -1 22.06 5.98
-8 4 -1 17.03 7.15
-4 8 -1 13.08 4.79
4 4 1 16.6 7.01
-8 4 -1 6.03 3.94
-4 8 1 3.17 2.59
4 -8 2 53.7 7.31
4 4 2 47.09 4.33
-4 -4 -2 54.77 6.71
4 -8 2 37.22 7.27
4 -8 -2 37.88 6.94
-4 8 -2 56.34 7.88
-4 -4 2 45.44 6.22
-4 8 2 50.29 7.59
8 -4 2 54.12 6.95
4 4 -2 48.62 8.09
8 -4 -2 58.91 7.62
4 4 -2 30.03 2.06
-4 -4 -2 45.22 7.89
4 -8 2 41.07 6.24
-8 4 -2 52.4 5.84
-4 -4 2 49.31 6.65
4 -8 -2 36.62 6.95
-8 4 -2 39.64 7.39
4 4 2 38.18 5.86
-4 8 -2 49.27 5.25
-8 4 2 45.98 9.6
-8 4 -2 49.42 7.25
-4 -4 -2 51.08 6.4
4 4 -2 47.5 7.68
-4 8 2 43.45 5.01
-8 4 2 51.29 7.66
4 4 2 51.15 7.51
-4 -4 -3 0.9 1.28
-4 8 3 0.15 0.71
-8 4 3 -0.27 0.61
4 4 -3 0.68 1.59
4 4 3 0.09 0.62
4 -8 3 -0.13 1.09
4 4 3 0.59 1.06
-4 -4 -3 4.46 2.23
4 4 3 -0.36 0.63
4 -8 3 -0.78 1.19
4 4 -3 0.2 0.71
4 -8 -3 2.13 1.26
-4 8 -3 2.04 1.61
-4 -4 3 -1.5 2.01
8 -4 3 0.06 1.1
-8 4 -3 1.07 0.6
-4 8 3 0.32 0.41
8 -4 -3 -0.02 0.74
-4 -4 3 1.07 1.48
4 4 3 1.19 0.69
-4 -4 -3 4.49 2.3
4 -8 3 1.18 0.79
4 -8 -3 -1.3 1.39
-8 4 -3 -1.12 0.79
-8 4 3 1.53 2.05
-4 8 -3 0.39 1
-8 4 -3 1.12 0.61
-8 4 -3 2.29 1.64
4 4 4 36.09 4.17
-4 -4 -4 35.53 5.09
4 4 4 38.15 5.97
-4 -4 -4 32.79 4.9
-4 8 -4 37.6 6.25
4 4 4 36.68 4.85
4 -8 4 30.66 6.4
-8 4 -4 34.12 3.16
4 -8 -4 28.49 6.08
8 -4 4 39.84 6.09
-4 8 4 36.43 6.94
8 -4 -4 41.6 6.73
4 4 4 25.31 5.32
-4 -4 4 30.68 5.4
-4 -4 -4 39.27 7.06
-8 4 -4 36.85 5.24
4 -8 4 33.99 4.72
-8 4 -4 26.72 5.4
4 -8 -4 21.58 5.65
-4 -4 4 35.2 3.53
4 4 -4 34.99 6.75
-8 4 -4 31.99 5.81
-8 4 4 38.13 9.77
-8 4 4 38.78 6.65
4 -8 4 35.47 5.79
-4 8 4 32.11 4.48
-8 4 5 1.13 1.18
-4 8 5 -0.39 0.5
4 4 5 -0.33 0.66
4 4 -5 1.13 0.97
4 4 5 -0.01 1.05
-4 -4 -5 2.6 1.35
4 -8 5 2.16 0.22
4 4 5 0.04 0.69
4 -8 -5 0.33 1.4
-4 8 -5 0.85 0.99
-8 4 -5 0.47 0.16
-4 -4 5 0.9 1.84
8 -4 5 0.85 0.94
-4 8 5 1.31 2.04
8 -4 -5 0.3 0.39
4 4 5 -0.79 1.25
-4 -4 -5 -0.47 1
4 -8 5 0.96 0.81
4 -8 -5 -0.53 2.1
-8 4 -5 -0.81 1.03
-8 4 5 -4.44 3.73
-4 -4 5 0.12 0.44
-8 4 -5 3.55 2.17
-8 4 -5 0.56 0.9
4 -8 5 0.35 1.28
4 4 6 84.76 8.88
-8 4 -6 58.77 3.43
-4 -4 -6 58.88 6.74
-4 8 -6 70.08 8.77
4 -8 6 72.77 9.89
4 4 6 61.14 5.27
4 -8 -6 59.16 9.07
8 -4 6 69.05 7.86
8 -4 -6 78.21 9.25
4 4 6 46.05 8.36
4 -8 6 65.73 5.69
-4 -4 6 70.22 8.99
-4 -4 -6 76.29 10.36
-8 4 -6 75.69 8.43
4 -8 -6 43.01 8.81
-8 4 6 86.26 15.14
-8 4 -6 52.43 5.63
4 4 -6 62.76 9.81
-8 4 -6 68.18 8.43
4 -8 6 78.75 8.84
-4 -4 6 71.73 5.34
4 4 6 69.45 6.44
-8 4 6 70.75 9.46
-4 8 6 62.94 6.81
4 4 7 1.23 0.7
4 4 -7 1.95 2.01
-8 4 7 0.72 1.68
-4 8 7 1.94 1.03
4 4 7 0.75 1.34
-4 -4 -7 1.32 1.74
-4 8 -7 0.58 1.56
4 4 7 0.32 0.18
4 -8 -7 1.39 1.39
-4 -4 7 -0.66 1.14
8 -4 7 0.72 1.02
4 4 7 -0.57 1.97
8 -4 -7 1.46 1.5
-4 -4 -7 -0.91 3.2
4 -8 7 0 0.14
4 -8 7 0.09 1.12
4 -8 -7 -0.77 2.14
-8 4 -7 1.05 1.49
-8 4 -7 1.39 1.41
-4 -4 7 0.76 0.59
-4 -4 8 5.08 1.56
4 4 8 2.51 1.05
4 4 -8 3.65 1.24
-8 4 8 4.63 2.96
4 -8 8 5.29 1.55
-4 8 8 2.73 0.95
4 4 8 5.48 2.2
-4 8 -8 3.45 1.73
-4 -4 8 4.17 2.31
-4 -4 -8 4.05 1.49
4 -8 -8 3.77 2.02
8 -4 8 6.5 2.48
4 4 8 1.67 1.53
8 -4 -8 3.17 1.72
4 4 8 1.88 0.58
-4 -4 -8 5.23 3.33
4 -8 8 2.53 0.75
4 -8 8 4.53 2.26
4 -8 -8 0.22 1.54
-8 4 -8 4.35 2.11
-8 4 -8 2.73 1.48
-4 8 8 4.02 1.04
4 4 9 -0.32 0.61
-4 -4 9 1.4 0.25
4 4 -9 2.43 2.07
-8 4 9 0.26 0.9
4 -8 9 0.31 0.78
-4 8 9 -0.76 1.2
-8 4 -9 3.83 2.34
-4 8 -9 -1.17 1.91
-4 -4 9 0.42 1.12
4 4 9 -0.9 0.94
-4 -4 -9 0.8 1.26
4 -8 -9 -0.15 1.41
8 -4 9 2.07 1.07
4 4 9 -2 2.11
8 -4 -9 0.67 1.76
4 -8 9 0.7 0.47
4 -8 9 -0.12 0.17
-4 -4 -9 -1.36 1.72
4 -8 -9 -1.02 2.76
-8 4 -9 -2.51 2.19
-8 4 -9 0.22 3.54
-8 4 10 143.47 14.82
-4 8 10 133.76 11.69
-4 8 -10 145.85 13.17
4 4 10 178.16 12.62
-8 4 10 181.87 11.5
8 -4 10 154.98 11.63
4 -8 -10 119.7 13.31
-8 4 -10 231.87 21.89
8 -4 -10 155.26 14.23
4 4 10 144.12 16.57
-4 -4 10 163.99 15.57
-8 4 -10 143.86 13.57
-4 -4 -10 146.7 15.42
4 -8 10 175.35 13.8
4 4 -10 136.75 16.16
4 -8 -10 43.55 10.65
4 4 10 161.45 12.26
-4 -4 10 145.18 9.63
4 -8 10 178.69 12.08
4 4 -11 1.61 2.63
4 4 11 1.55 1.59
-4 -4 11 -0.29 1.18
-8 4 11 -1.72 2.37
-4 8 11 0.17 1.35
-4 -4 11 0.27 2.13
-4 8 -11 4.72 2.54
-8 4 11 0.86 2.35
8 -4 11 2.57 1.46
4 4 11 3.08 2.79
4 -8 -11 1.36 0.5
-8 4 -11 0.28 2.41
8 -4 -11 9.04 3.71
4 -8 11 2.94 3.05
-4 -4 -11 2.95 2.38
4 -8 -11 -4.41 4.41
-8 4 -11 -0.34 2.25
-4 -4 12 339.18 16.82
-4 8 -12 360.01 21.6
-8 4 12 335.99 23.91
-4 8 12 325.65 19.85
-8 4 12 439.59 17.52
4 4 12 409.18 19.15
8 -4 12 363.85 17.58
4 -8 -12 284.46 21.33
8 -4 -12 361.72 22.88
4 4 12 369.67 28.67
-4 -4 12 417.68 26.72
8 -4 12 392.43 27.44
-8 4 -12 566.76 33.71
-8 4 -12 370.44 23.57
-4 -4 -12 341.16 24.3
4 -8 12 452.01 23.06
4 -8 -12 136.74 19.34
4 4 -12 352.36 27.35
-4 -4 13 -0.17 0.65
-8 4 13 1.94 3.21
-4 8 13 1 1.57
-4 8 -13 4.53 1.89
-4 -4 13 1.12 2.27
8 -4 13 2.56 1.96
-8 4 13 7.7 2.69
4 4 13 4.59 3.06
4 -8 -13 0.87 1.24
4 -8 13 1.82 2.36
4 4 13 1.61 0.71
8 -4 -13 2.75 3.11
4 -8 13 0.44 1.26
8 -4 13 5.38 3.97
-4 -4 -13 3.38 3.13
-8 4 -13 2.63 1.89
4 -8 -13 -2.4 3.61
-8 4 -13 -0.02 0.95
4 4 -13 -0.59 1.54
-8 4 -14 20.47 6.48
-4 -4 14 10.99 3.19
-8 4 14 10.55 3.92
-4 8 14 8.92 3.6
-4 8 -14 13.39 4.43
-4 -4 14 18.54 5.81
8 -4 14 12.64 3.34
-8 4 14 13.46 2.69
4 -8 -14 10.55 4.17
4 -8 14 16.35 4.74
4 4 14 9.59 3.95
8 -4 -14 9.73 3.68
4 -8 14 12.15 3.57
8 -4 14 13.84 4.78
-4 -4 -14 15.24 5.66
4 -8 -14 6.77 4.61
-8 4 -14 11.69 4.77
4 4 -14 15.64 6.21
-8 4 15 1.36 1.36
-4 -4 15 0.2 1.4
-4 8 -15 -0.13 0.66
-4 8 15 1.92 2.35
-4 -4 15 -0.64 0.89
-8 4 -15 1.55 1.13
8 -4 15 -0.38 1.25
4 -8 -15 0.15 0.86
4 -8 15 -2.06 2.26
4 4 15 -2.3 4.02
8 -4 -15 1.02 1.93
4 -8 15 -2.5 1.83
8 -4 15 0.95 1.07
-4 -4 -15 2.31 2.39
4 -8 -15 0.88 1.65
-8 4 -15 5.54 2.96
4 4 -15 -2.35 1.15
-8 4 16 15.07 5.41
-4 8 -16 21.68 5.98
-4 -4 16 33.06 8.33
-4 8 16 19.56 5.85
8 -4 16 18.39 3.99
4 -8 -16 14.34 4.94
4 -8 16 26.22 5.89
4 4 16 31.23 9.56
8 -4 -16 15.59 5.1
-8 4 -16 36.18 8.73
4 -8 16 26.7 6.05
8 -4 16 29.05 8.03
-4 -4 -16 23.85 7.1
4 -8 -16 12.92 6.19
-8 4 -16 25.98 7.15
4 4 -16 23.52 7.66
-8 4 -17 -0.74 2.37
-4 8 -17 -1.39 1.05
-8 4 17 -0.46 1.53
-4 -4 17 -3.15 3.37
-4 8 17 -3.08 2.58
4 -8 -17 -4.26 3.15
4 -8 17 1.41 1.48
4 4 17 -0.55 1.64
8 -4 -17 0.13 0.83
4 -8 17 3.41 2.9
8 -4 17 0.39 2.37
-4 -4 -17 2.9 2.86
4 -8 -17 -1.39 3.49
-8 4 -17 0.01 2.11
4 4 -17 2.08 1.06
-4 8 -18 34.44 7.37
-8 4 -18 58.49 11.19
-8 4 18 27.41 8.22
-4 8 18 26.13 6.92
4 -8 -18 15.61 4.91
-4 -4 18 57.79 12
4 4 18 45.02 12.02
8 -4 -18 23.9 6.67
8 -4 18 35.33 9.46
4 -8 18 44.15 8.06
-4 -4 -18 32.72 8.05
4 -8 -18 26.87 9.21
-8 4 -18 32.16 8.25
4 4 -18 35.96 9.89
-4 8 -19 -2.93 3.02
-4 8 19 -1.79 2.14
4 -8 19 3.32 3.23
4 4 19 -1.53 2.47
-4 -4 -19 -0.07 2.37
-8 4 -19 -3.65 3.49
-4 8 -20 17.83 5.91
-4 8 20 17.08 5.94
4 -8 20 16.81 4.57
4 4 20 22.36 8.25
-4 8 -21 -1.32 3
-4 8 21 -0.48 2.86
4 -8 21 4.02 3.44
4 -8 22 33.15 8.18
3 5 0 70.21 9.18
3 -8 0 80.55 9.18
-5 -3 0 74.28 8.23
5 3 0 67.64 6.43
5 -8 0 77.72 8.55
3 -8 0 52.61 8.67
3 5 0 69.91 8.48
5 -8 0 61.49 8.94
-3 8 0 70.22 9.24
-5 8 0 68.36 8.61
-5 -3 0 60.86 6.41
8 -5 0 74.57 8.79
8 -3 0 74.17 8.1
3 -8 0 72.26 9.42
5 3 0 29.81 5.91
8 -3 0 85.15 9.64
-8 3 0 40.3 2.46
-3 -5 0 66.22 8.61
-8 5 0 56.18 3.67
-8 5 0 87.06 10.14
3 -8 0 62.01 8.03
-8 5 0 65.03 6
5 -8 0 58.06 8.69
-5 -3 0 67.95 7.2
-8 3 0 61.62 8.44
-3 -5 0 72.6 8.41
-5 -3 0 61.83 6.36
5 3 0 59.82 8.71
-3 8 0 64.47 5.02
-5 8 0 65.92 6.78
-8 3 0 65.8 8.73
-8 5 0 66.81 8.61
3 -8 1 146.12 12.24
3 5 1 133.82 12.22
5 3 1 134.2 8.99
-5 -3 -1 134.24 10.57
5 3 -1 127.45 8.74
5 -8 1 151.65 11.56
5 -8 -1 154 12.39
3 -8 1 99.07 11.61
3 5 -1 134.3 12.4
3 -8 -1 95.24 11.32
3 5 1 128.9 10.92
-3 8 -1 128.87 12.31
5 -8 1 116.66 12.27
5 -8 -1 129.04 13.3
-3 8 1 133.42 12.77
-5 8 -1 131.16 11.85
-5 -3 1 121.39 9.52
-5 8 1 141.29 12.5
8 -5 1 148.27 12.48
8 -5 -1 147.63 12.57
8 -3 1 140.22 11.01
-8 3 1 106.57 5.63
8 -3 -1 140.35 11.46
3 5 1 114.44 6.64
3 -8 1 144.04 12.87
3 -8 -1 146.06 13.29
5 3 -1 67.13 8.48
5 3 1 77.47 10.51
8 -3 -1 150.1 12.29
-8 5 -1 94.1 4.1
-3 -5 1 127.36 11.92
-3 -5 -1 129.54 12.64
-8 5 -1 120.95 8.57
-8 5 1 198.4 16.22
3 -8 1 108.07 10.06
3 -8 -1 106.5 10.92
5 -8 1 109.64 11.2
-8 5 1 127.1 7.88
5 -8 -1 113.85 12.89
-5 -3 1 130.44 10.23
-3 -5 1 124.98 10.97
-8 5 1 123.87 6.27
-8 3 -1 134.04 11.44
-5 -3 -1 126.3 9.7
5 3 -1 111.25 12.03
-3 8 -1 132.61 7.18
5 3 1 130.32 12.17
-5 -3 1 116.63 8.48
-3 -5 -1 135.58 11.05
-3 8 1 124.55 6.9
-5 8 -1 128.49 9.26
-8 3 -1 125 11.62
-8 5 -1 125.89 11.54
-5 8 1 125.3 9.37
-8 3 1 130.53 12.03
-8 5 1 128.37 11.92
3 5 -1 124.04 12.3
5 3 2 74.72 6.77
3 5 2 86.19 9.91
5 -8 2 93.12 9.14
-5 -3 -2 90.71 8.75
3 5 2 54.44 3.18
5 3 -2 78.69 7.05
5 -8 -2 92.29 9.81
3 -8 2 61.75 9.23
3 5 -2 84.94 10.01
-3 8 -2 76.99 9.37
3 -8 -2 66.4 9.49
3 5 2 76.48 7.86
5 -8 2 70.38 9.75
5 -8 -2 76.32 10.22
-5 8 -2 77.4 9.04
-5 -3 2 74.07 7.78
-3 8 2 80.83 10.01
8 -5 2 89.37 9.64
-5 8 2 80.75 9.71
8 -5 -2 90.71 9.97
8 -3 2 86.72 8.74
8 -3 -2 85 8.94
3 -8 2 80.57 9.66
3 5 2 77.15 6.31
3 -8 -2 86.53 10.51
5 3 -2 39.27 6.02
5 3 2 43.52 8.1
8 -3 -2 92.33 9.15
-3 -5 -2 75.84 9.84
-8 5 -2 78.94 7.24
-5 -3 2 79.1 8.2
-8 5 2 113.14 12.62
3 -8 2 69 7.66
3 -8 -2 65.32 8.94
5 -8 2 67.68 8.38
5 -8 -2 54.98 9.34
-3 -5 2 82.24 8.91
3 5 -2 73.77 10.5
5 3 -2 68.7 9.57
-8 3 -2 79.72 7.49
-5 -3 2 68.06 6.33
5 3 2 72.99 8.76
-5 -3 -2 75.38 7.47
-5 8 -2 73.85 7.1
-8 3 -2 77.07 9.02
-8 5 -2 78.41 9.01
-3 8 2 75.89 5.61
-8 5 2 73.27 5.28
-3 -5 -2 86.49 8.73
-8 3 2 70.68 8.96
-5 8 2 73.72 7.17
-8 5 2 84.31 9.66
3 5 -2 78.96 9.97
3 -8 2 89.79 9.7
-8 5 3 61.8 5.3
5 3 3 59.7 6.14
-3 -5 -3 59.55 6.8
3 5 3 49.19 3.49
5 -8 3 68.29 7.57
3 5 3 64.26 8.28
-5 -3 -3 72.78 7.78
3 -8 3 64.42 5.87
5 3 -3 59.72 6.21
5 -8 -3 70.52 8.79
-3 8 -3 58.13 8.21
3 -8 3 41.63 7.66
3 -8 -3 44.59 7.64
5 -8 3 52.36 8.33
3 5 3 55.07 6.38
-5 8 -3 57.97 7.68
5 -8 -3 61.57 9.22
-5 -3 3 54.48 7.09
-3 8 3 60.09 8.85
8 -5 3 67.3 8.51
-8 5 -3 56.89 5.18
8 -3 3 64.39 7.36
8 -5 -3 63.09 8.19
3 -8 3 54.39 7.62
8 -3 -3 64.88 8.1
3 5 3 53.13 6.11
5 3 -3 33.98 5.21
5 3 3 39.84 8.12
-5 8 3 61.84 8.49
8 -3 -3 62.35 7.47
3 -8 -3 64.77 9.28
-5 -3 3 52.47 6.84
-8 5 -3 62.05 6.68
-3 -5 -3 65.33 9.16
3 -8 3 54.28 6.34
-8 5 3 87.57 11.58
3 -8 -3 43.36 7.72
3 5 -3 58.49 8.68
5 -8 3 53.93 6.89
-3 -5 3 57.57 7.74
-8 3 3 49.47 9.6
5 3 -3 52.08 8.81
5 -8 -3 40.51 8.44
-5 8 -3 58.74 6.36
-5 -3 3 54.93 5.7
-8 3 -3 49.99 4.76
5 3 3 58.35 7.65
-8 3 -3 56.63 7.76
-8 5 -3 58.35 7.77
-3 8 3 51.71 4.72
-8 3 3 60.41 8.1
-5 -3 -3 59.86 6.48
3 -8 3 69.64 8.43
-8 5 3 56.46 7.91
-5 8 3 56.68 6.32
3 5 -3 54.68 8.49
-3 -5 -3 57.01 7.1
-8 3 4 2.37 2.05
-8 3 -4 7.21 2.01
5 3 -4 6.5 3.48
-8 3 4 5.41 2.53
-3 8 4 5.76 1.91
-8 5 4 5.69 2.79
-5 8 4 4.49 2
5 3 4 5.15 2.09
3 5 4 4.33 1.11
5 3 4 5.16 2.02
-5 -3 -4 6.74 2.35
5 -8 4 7.23 2.52
-3 -5 -4 6.58 2.53
3 5 -4 5.04 2.72
3 -8 4 7.39 2.06
5 -8 4 5.39 2.09
-8 3 -4 2.59 0.58
5 3 -4 5.7 2.17
5 -8 -4 4.24 2.13
-3 -5 -4 8.88 3.1
-8 3 -4 8.73 4.83
-5 -3 -4 7.42 2.86
3 5 4 6.12 2.78
3 -8 -4 6.54 3.34
5 -8 4 7.89 3.04
3 5 4 4.95 1.49
5 -8 -4 2.82 1.8
-3 8 -4 6.16 2.67
-8 3 -4 2.46 0.47
-5 8 -4 7.64 3.16
-5 -3 4 2.42 1.17
8 -5 4 7.88 2.76
-5 -3 4 3.82 1.82
-8 5 -4 7.24 1.93
-3 8 4 5.13 2.85
3 5 4 3.7 1.6
8 -3 4 7.61 2.8
8 -5 -4 5.77 2.64
3 -8 -4 7.6 3.12
-3 -5 4 5.99 2.89
8 -3 -4 6.51 2.27
5 3 -4 3.12 1.1
5 3 4 3.24 1.89
-8 5 -4 10.55 3.21
-3 -5 -4 9.55 3.58
8 -3 -4 4.1 1.24
3 -8 4 6.32 2.02
3 -8 -4 -0.28 1.77
-8 5 4 7.39 2.92
5 -8 4 4.78 1.65
5 -8 -4 1.75 2.59
3 5 -4 3.06 1.67
-8 5 -4 5.54 2.43
-5 8 -4 4.8 1.92
3 -8 4 5.27 2.45
-8 3 -4 5.71 2.64
-8 5 -4 4.66 2.39
-5 -3 4 5.95 2.03
-8 3 5 39.34 9.72
5 -8 5 59.39 6.93
3 -8 5 59.65 5.5
-3 -5 -5 49.69 5.87
3 5 5 52.37 7.53
-5 -3 -5 49.12 6.14
-3 8 -5 46.06 7.26
-8 3 5 61.62 6.9
-5 8 -5 48.09 6.91
5 -8 5 42.63 7.45
-8 5 -5 50.78 4.63
3 -8 -5 36.16 6.77
3 5 5 49.48 5.33
5 -8 -5 44.89 7.8
8 -5 5 53.45 7.34
8 -3 5 53.81 6.57
-8 3 -5 62.59 11.49
-3 8 5 53.38 8.48
5 3 5 52.57 6.86
8 -5 -5 59.92 8.12
5 3 -5 37.08 2.43
8 -3 -5 49.61 7.32
3 5 5 40.89 6.15
5 3 -5 28.62 3.13
5 3 5 38.77 8.59
5 3 5 46.93 4.62
8 -3 -5 53.75 6.43
3 5 -5 53.93 7.81
-5 -3 5 49.65 7.13
-8 5 -5 45.23 6.28
8 -5 5 60.66 8.09
-5 -3 -5 45.83 7.83
-3 -5 -5 49.43 8.28
-3 -5 5 49.87 7.38
-8 5 -5 64.78 6.91
3 -8 5 45.17 5.27
-8 5 5 74.41 11.22
5 -8 5 41.48 4.97
3 -8 -5 35.07 7.52
-8 3 -5 51.08 6.55
5 3 -5 38.54 7.8
5 -8 -5 24.05 7.52
-5 8 -5 50.51 6.14
3 -8 5 54.09 7.39
-8 3 -5 48.56 7.18
-8 5 -5 44.75 6.76
-5 -3 5 47.96 5.42
5 3 5 50.49 6.54
3 5 -5 53.06 8.42
-8 3 5 49.89 7.67
-8 5 5 47.25 7.45
-3 8 5 44.24 4.91
-5 8 5 48.24 6.17
3 5 5 46.94 4.16
5 3 5 54.09 6.12
5 -8 5 54.46 6.94
-8 3 6 9.33 4.75
5 3 -6 9.5 3.39
5 -8 6 15.08 3.59
3 5 6 13.51 2.43
-8 3 6 11.53 4.01
-8 5 6 15.4 4.47
5 3 6 12.63 3.03
-5 8 6 13.22 3.18
5 3 6 13.51 3.44
-3 8 6 13.85 2.95
5 -8 6 15.23 3.56
3 5 -6 12.15 3.68
5 3 6 13.44 3.06
3 -8 6 15.56 2.62
-8 5 -6 13.88 2.41
-3 -5 -6 12.66 3.12
5 -8 6 10.82 3.48
3 -8 -6 10.08 3.62
-5 -3 -6 15.21 3.67
-3 8 -6 11.2 3.32
3 5 6 14.42 3.86
-5 -3 6 13.91 3.77
-8 3 6 13.72 3.23
-8 3 -6 17.84 6.29
-5 8 -6 13.06 3.41
3 5 6 10.47 2.14
5 -8 -6 10.34 3.64
8 -5 6 15.83 3.97
3 5 -6 18.58 4.62
8 -3 6 15 3.58
-3 -5 6 14.16 4.15
-3 8 6 12.08 4.29
8 -5 -6 13.22 4.09
3 5 6 11.06 3.26
8 -3 -6 13 3.88
5 3 6 9.67 4.33
5 3 6 12.31 1.95
-8 5 -6 13.52 2.84
-5 -3 -6 14.01 4.52
8 -5 6 16.01 3.95
-3 -5 -6 9.81 3.45
3 -8 6 10.17 2.34
8 -3 -6 11.43 2.88
3 -8 6 17.68 4.27
5 -8 6 11.83 2.45
3 -8 -6 9.32 3.69
5 -8 -6 1.52 1.9
-8 5 -6 13.18 3.67
-8 3 -6 11.53 3.12
-8 5 -6 12.55 3.7
-8 3 -6 13.61 3.48
-5 -3 6 11.28 2.52
-8 3 7 10.85 5.53
-5 -3 7 11.41 2.55
3 5 7 11.01 2.37
5 3 7 11.43 3.2
-8 3 7 11.87 4.05
-8 5 7 12.37 4.25
-5 8 7 8.44 2.57
-3 8 7 10.16 2.5
5 -8 7 14.3 3.51
3 5 -7 12.31 4.24
5 3 7 12.57 3.37
3 -8 7 9.44 1.94
5 3 7 12.46 3.06
3 -8 -7 6.96 1.17
3 5 -7 10.53 3.13
5 3 7 8.87 1.9
5 -8 7 9.2 3.34
-8 5 -7 10.46 1.9
-3 -5 -7 7.45 2.18
-5 -3 7 10 3.18
-3 8 -7 8.91 3.17
3 -8 -7 5.35 2.52
-8 3 7 12.37 3
-5 -3 -7 7.47 2.38
-5 8 -7 14.96 3.93
3 5 7 13.47 3.77
5 -8 -7 10.36 4.14
8 -5 7 10.54 3.17
3 5 7 7.66 1.75
-3 -5 7 8.27 3.25
8 -3 7 9.56 2.66
-8 3 -7 12.49 5.16
-3 8 7 9.94 3.85
8 -5 -7 10.35 3.06
3 5 7 6.64 2.59
5 3 7 9.24 4.31
8 -3 -7 12.61 4.01
5 3 7 8.28 1.47
-5 -3 -7 13.89 4.68
8 -5 7 13.83 3.65
3 -8 7 12.98 3.82
3 -8 7 10 1.95
-3 -5 -7 7.94 2.92
8 -3 -7 11.04 2.75
5 -8 7 8.48 1.88
3 -8 -7 3.21 1.47
5 -8 -7 0.04 2.7
-8 5 -7 10.72 3.24
-8 3 -7 12.61 3.81
-8 5 -7 10.02 3.12
5 -8 7 11.91 3.22
-8 3 -7 8.26 2.44
5 3 -7 7.87 3.37
5 -8 8 31.84 5.5
-5 8 8 28.34 5.27
-8 5 -8 29.29 3.26
-3 8 8 28.92 4.64
3 -8 8 35.14 4.35
-8 3 8 30.77 6.15
-8 5 8 30.28 6.38
-3 8 -8 30.71 6.13
3 5 -8 26.48 5.97
-5 8 -8 30.48 5.6
3 -8 -8 18.84 1.78
-8 3 8 39.46 5.47
-3 -5 -8 24.39 4.14
3 5 8 32.32 5.66
-5 -3 -8 26.6 4.68
8 -5 8 33.44 5.76
5 -8 8 27.97 6.23
8 -3 8 29.6 4.83
3 -8 -8 22.15 5.38
-3 -5 8 30.96 6.3
5 -8 -8 26.42 6.32
5 3 8 16.99 1.77
8 -5 -8 35.53 6.6
5 3 8 35.77 5.8
-5 -3 8 29.19 6.09
3 5 8 24.13 5.92
8 -3 -8 30.87 4.56
-8 3 -8 44.17 9.58
5 3 8 26.95 7.78
8 -3 -8 29.53 5.96
-8 5 -8 30.11 6.12
3 -8 8 28.64 3.39
8 -5 8 33.75 5.4
5 -8 8 27.62 2.82
-8 3 -8 32.61 5.85
-3 8 8 24.48 3.12
-5 -3 -8 28.25 6.09
-3 -5 -8 26.83 6.55
3 -8 8 35.49 6.16
3 -8 -8 17.53 5.52
5 -8 -8 6.79 3.67
-8 3 -8 33.41 6.12
-8 5 -8 31.58 6.08
5 -8 8 30.31 5.44
-3 -5 8 21.54 2.02
3 5 8 29.32 4.1
-5 -3 8 28.75 4.62
5 3 8 34.69 5.03
5 3 8 32.08 5.28
5 3 -8 26.87 7.51
-3 -5 9 2.27 0.85
5 3 9 2.4 1.42
-5 -3 9 1.51 0.94
-8 3 9 3.3 2.02
-8 5 9 0.98 1.65
5 -8 9 3.69 1.61
3 5 -9 2.03 0.82
-5 8 9 0.57 0.74
-3 8 9 1.15 0.59
-8 5 -9 2.03 0.94
5 3 9 4.13 2.02
5 3 9 1.89 0.84
5 -8 9 3.9 1.94
-5 -3 9 0.61 0.93
-3 8 -9 1.19 0.69
-5 8 -9 -0.47 1.13
-8 3 9 2.15 1.3
3 -8 -9 -1.98 2.06
-3 -5 -9 2.32 0.46
-3 -5 9 1.12 0.36
8 -5 9 4.97 2.02
3 5 9 2.8 1.28
8 -3 9 3.61 1.61
5 -8 -9 -0.11 1.63
3 5 9 0.81 1.01
8 -5 -9 1.38 0.95
5 3 9 0.07 1.69
8 -3 -9 2.15 1.88
-8 3 -9 -0.28 0.97
3 -8 9 1.22 0.59
-8 3 -9 -0.45 2.47
-5 -3 -9 0.56 1.62
8 -5 9 3.38 2.05
-3 -5 -9 0.46 2.5
8 -3 -9 1.99 1.28
3 -8 -9 -0.41 1.96
5 -8 9 2.25 1.31
5 -8 -9 -1.32 2.48
-8 5 -9 1.41 1.75
-8 3 -9 0.73 1.32
-8 5 -9 0.81 1.32
-3 8 9 2.66 1.06
-8 3 -9 2.99 1.2
5 3 -9 -0.46 3.22
3 5 9 1.81 1.09
-8 5 10 94.59 11.96
-5 8 10 86.74 9.83
-3 8 -10 90.4 10.56
-3 8 10 77.92 8.28
-5 8 -10 93.79 10.03
-8 3 10 115.04 9.43
3 5 10 95.9 10.21
3 -8 -10 60.46 8.96
8 -5 10 99.14 9.88
8 -3 10 90.2 8.31
5 -8 -10 81.83 11.2
8 -5 -10 108.06 11.96
3 5 10 67.12 10.55
-5 -3 10 98.79 12.12
5 3 10 107.56 16.76
8 -3 -10 89.83 10.68
-3 -5 10 106.35 12.54
-8 3 -10 89.4 10.21
-8 5 -10 101.17 11.73
-8 3 -10 136.49 16.91
-5 -3 -10 83.68 11.64
-3 -5 -10 74.95 10.84
8 -5 10 108.16 9.15
-8 3 -10 91.52 10.79
3 -8 10 109.99 11.34
5 3 -10 79.01 12.92
5 -8 10 103.71 10.02
3 -8 -10 46.71 9.84
5 -8 -10 27.61 9.06
3 5 -10 98.27 13.2
-8 5 -10 90.92 6.4
-3 -5 10 81.55 5.44
-5 -3 10 74.79 8.15
5 3 10 100.1 7.99
-8 3 10 79.91 11.07
-8 3 11 97.28 12.56
-8 5 11 95.06 12.43
-3 8 -11 100.48 11.44
-5 8 11 93.36 10.49
-5 8 -11 102.61 10.79
-3 8 11 88.83 9.27
-8 3 11 126.06 10.04
3 5 11 119.32 11.51
8 -5 11 104.47 10.14
3 -8 -11 63.58 9.27
8 -3 11 102.98 8.75
5 -8 -11 98.21 12.69
8 -5 -11 123.64 13.16
-5 -3 11 111.88 13.35
3 5 11 74.72 11.56
5 3 11 122.25 17.89
8 -3 -11 104.2 11.8
3 -8 11 114.86 9.62
8 -3 11 109.52 14.55
-3 -5 11 116.59 13.69
-8 5 -11 110.63 12.87
-5 -3 -11 89.81 12.22
-8 3 -11 98.2 11.66
-3 -5 -11 99.25 13.13
3 -8 11 129.56 12.69
-8 3 -11 156.29 18.29
5 3 -11 91.74 14.31
5 -8 11 125 11.29
3 -8 -11 43.8 10.13
3 5 -11 96.36 13.21
5 -8 -11 40.52 11.19
-5 -3 11 93.02 9.25
3 5 -12 13.01 5.15
-5 -3 12 11.16 2.79
-8 3 12 8.61 3.71
-8 5 12 15.05 5.03
-5 8 12 13.57 3.9
-3 8 12 11.58 3.54
-5 -3 12 13.66 4.56
-3 8 -12 11.99 4.25
-5 8 -12 12.23 3.83
-8 3 12 12.1 2.68
-3 -5 12 16.53 4.94
-8 3 -12 23.7 7.22
8 -5 12 12.6 3.52
8 -3 12 14.6 3.2
-8 5 -12 20.55 6.11
3 -8 -12 7.59 3.28
3 5 12 18.27 4.63
5 -8 -12 12.53 4.5
3 5 12 9.64 3.87
3 -8 12 17.55 5.17
8 -5 -12 16 4.97
5 3 12 13.04 6.01
8 -3 -12 10.26 3.7
3 -8 12 19.22 4.04
8 -3 12 17.05 5.92
5 -8 12 19.22 4.55
-5 -3 -12 9.1 2.88
-3 -5 -12 11.48 4.53
3 -8 -12 3.7 1.1
-8 5 -12 16.87 5.12
5 -8 -12 10.72 5.46
-8 3 -12 14.78 4.72
5 3 -12 9.08 4.1
3 5 -13 3.71 2.56
-5 -3 13 2.62 1.05
-8 3 13 0.26 1.39
-8 5 13 1.3 2.14
-5 -3 13 2.5 0.81
-5 8 13 4.89 2.65
-3 8 13 3.84 1.69
-3 8 -13 0.04 0.84
-5 8 -13 2.06 1.11
-8 3 13 4.26 1.9
-3 -5 13 1.7 0.31
8 -5 13 2.55 1.46
8 -3 13 2.75 1.12
3 -8 -13 -0.66 2.26
-8 5 -13 3.75 2.34
5 -8 -13 0.99 1.12
3 5 13 3.51 1.93
3 -8 13 3.38 1.73
3 5 13 2.4 1.65
8 -5 -13 3.05 2.52
5 3 13 5.58 5.2
-8 3 -13 3.65 2.74
8 -3 -13 2.98 1.41
3 -8 13 3.64 2.03
8 -3 13 2.46 1.57
5 -8 13 4.55 2.27
-5 -3 -13 0.21 2.02
-3 -5 -13 6.45 3.79
3 -8 -13 0.03 1.34
-8 5 -13 5.96 3.06
5 -8 -13 3.34 4.98
-8 3 -13 3.29 2.09
5 3 -13 6.49 4.27
-8 3 -14 5.38 2.27
3 5 -14 0.44 0.62
-5 -3 14 1.06 1.33
-8 3 14 2.78 2.32
-8 5 14 0.85 1.13
-5 -3 14 0.63 0.65
-5 8 14 2.55 1.62
-3 8 14 3.37 2.35
-3 8 -14 3 2.91
-5 8 -14 0.39 1.13
-3 -5 14 4.69 2.51
-8 3 14 3.88 1.46
8 -5 14 4.81 2.18
8 -3 14 2.65 1.11
3 -8 -14 -0.62 1.37
5 -8 -14 3.82 2.04
3 5 14 5.93 2.57
3 -8 14 3.28 2.1
-8 5 -14 3.63 0.9
3 5 14 4.39 3.4
8 -5 -14 3.68 2.65
5 3 14 1.9 2.59
8 -3 -14 5.1 3.47
5 -8 14 3.65 1.22
3 -8 14 2.61 0.28
8 -3 14 4 2.88
5 -8 14 4.42 2.43
8 -5 14 1.91 1.78
-5 -3 -14 4.16 3.91
-3 -5 -14 6.12 3.73
3 -8 -14 0.76 2.65
-8 5 -14 2.65 2.83
5 -8 -14 -0.69 4.53
-8 3 -14 2.03 2.11
5 3 -14 -0.04 3.45
-5 -3 15 54.78 8.47
-8 3 15 59.68 10.91
-8 5 15 61.79 10.89
-8 3 -15 120.54 16.77
-5 8 15 65.18 10.17
-8 3 15 89.88 8.37
-3 8 15 63.22 9.57
8 -5 15 59.53 7.66
3 -8 -15 34.84 7.09
3 5 15 77.52 9.93
5 -8 -15 54.32 9.75
-5 -3 15 86.36 13.55
8 -5 -15 66.75 10.41
3 5 15 69.29 12.45
5 3 15 98.58 17.05
-3 -5 15 86.45 12.91
8 -3 -15 56.65 9.6
8 -3 15 81.7 14.09
5 -8 15 71.21 9.55
8 -5 15 86.54 12.94
-8 5 -15 99.57 13.55
-8 5 -15 86.93 12.71
3 -8 15 94.6 11.93
-8 3 -15 62.4 10.54
-5 -3 -15 68.63 10.92
-3 -5 -15 64.18 11.17
5 -8 15 90.59 10.38
5 3 -15 66.97 13.1
3 5 -15 69.61 12.38
3 -8 -15 25.98 7.55
5 -8 -15 48.17 12.32
-3 8 -15 68.06 10.23
-5 8 -15 71.68 9.8
-5 -3 16 0.08 1.57
-8 3 16 -0.69 2.33
-5 -3 16 0.54 1.53
-8 5 16 0.98 2.73
-3 8 -16 -1.2 2.24
-5 8 -16 1.3 1.86
-5 8 16 3.72 2.16
-3 8 16 -0.15 1.27
-3 -5 16 1.67 2.42
8 -5 16 -0.21 0.92
-8 3 16 1.8 1.5
-8 3 -16 -0.03 1.49
3 -8 -16 1.12 1.06
5 -8 -16 -3.16 2.32
3 5 16 -0.64 2.63
3 -8 16 1.62 2
5 -8 16 0.04 1.26
3 5 16 -0.55 4.29
5 3 16 -1.18 4.05
8 -5 -16 -4.29 3.01
8 -3 -16 1.6 0.52
8 -3 16 -2.35 2.74
5 -8 16 -0.16 1.68
8 -5 16 0.47 2.14
-5 -3 -16 0.12 2.21
-3 -5 -16 -0.64 0.4
3 -8 -16 4.01 3.89
-8 5 -16 2.18 1.25
5 -8 -16 2.08 3.27
5 3 -16 -0.66 3.06
-8 3 -16 -1.47 0.99
-8 5 -16 -2.3 2.56
3 5 -16 0.08 0.94
-8 3 -17 7.93 4.14
-5 -3 17 7.34 3.71
-3 8 -17 4.58 3.08
-5 8 -17 6.69 2.76
-8 3 17 6.59 4
-8 5 17 4.91 2.26
-5 -3 17 4.43 2.71
-5 8 17 4.04 2.92
-8 5 -17 8.61 4.64
-3 8 17 7.2 3.43
-3 -5 17 7.62 4.73
3 -8 17 6.39 3.55
5 -8 -17 6.08 2.86
5 -8 17 7.31 2.82
3 5 17 5.59 3.91
5 3 17 8.1 4.05
8 -5 -17 7.65 3.7
8 -3 -17 3.14 2.68
8 -3 17 6.85 4
5 -8 17 6.44 3.27
8 -5 17 7.58 3.64
-5 -3 -17 2.67 0.65
-3 -5 -17 0.57 2.86
3 -8 -17 3.7 3.13
-8 5 -17 12.73 5.12
5 -8 -17 5.5 4.55
5 3 -17 3.89 3.93
-8 3 -17 3.38 1.78
3 5 -17 7.8 4.65
-5 -3 18 5.94 3.87
-3 8 -18 -0.39 1.39
-5 8 -18 -0.84 1.62
-8 3 18 -2.55 2.5
-5 -3 18 -1.65 3
-5 8 18 1.53 1.58
-3 8 18 -0.6 1.33
-3 -5 18 -1.95 2.63
3 -8 18 2.2 2.55
5 -8 -18 -3.93 3.2
-8 5 -18 0.57 1.8
5 -8 18 0.51 1.61
3 5 18 -0.48 1.53
5 3 18 -1.15 5.45
8 -5 -18 -1.21 3.06
5 -8 18 -0.19 0.85
8 -5 18 -1.63 4.01
-5 -3 -18 1.88 2.25
-3 -5 -18 -1.1 2.68
-8 5 -18 -4.81 4
5 3 -18 0.87 1.45
-8 3 -18 2.21 2.71
3 5 -18 -1.35 2.67
-3 8 -19 -0.01 1.51
-5 8 -19 1.33 2.66
-5 8 19 4.48 2.69
-3 8 19 0.97 1.85
3 -8 19 5.46 2.07
5 -8 -19 -5.38 3.52
5 -8 19 3.03 1.1
3 5 19 4.96 3.99
5 3 19 5.37 4.71
5 -8 19 4.89 2.19
-5 -3 -19 5.86 3.69
-8 5 -19 7.37 4.33
-5 8 -20 15.76 5.59
-5 8 20 9.48 3.75
-3 8 20 13.4 5.62
3 -8 20 21.36 6.03
5 -8 -20 4.52 2.19
5 -8 20 18.77 4.78
3 5 20 15.7 5.18
-8 5 -20 23.44 6.96
5 -8 20 17.78 5.16
-5 -3 -20 20.98 6.66
-5 8 -21 9.1 4.39
-8 5 -21 9.45 2.86
-3 8 21 6.72 4.19
-5 8 -22 14.13 5.63
-3 8 22 10.24 4.2
-8 6 0 10.17 3.09
2 -8 0 15.22 4.14
6 2 0 10.48 2.78
6 -8 0 13.49 3.82
-8 2 0 12.21 2.9
8 -6 0 10.19 2.47
-6 -2 0 12.32 3.07
2 6 0 13.53 4.21
2 6 0 11.54 3.18
-8 2 0 16.48 5.28
6 -8 0 12 3.68
-2 8 0 13.46 4.12
8 -6 0 14.82 4.12
-8 6 0 9.5 1.77
-6 8 0 14.34 3.94
2 -8 0 13.32 3.98
8 -2 0 9.48 2.7
6 2 0 11.39 4.16
-8 2 0 9.3 1.4
6 2 0 8.65 2.47
-6 -2 0 12.26 2.78
-2 -6 0 11.37 3.32
2 -8 0 13.21 3.38
-2 -6 0 13.32 4.03
-6 -2 0 9.89 2.9
-8 6 0 10.28 2.27
6 2 0 7.48 3.5
-8 2 0 12.38 3.81
-6 8 0 11.14 3.11
-6 8 1 13.43 3.31
-8 6 1 12.3 3.73
2 -8 1 13.73 3.89
6 2 1 14.78 3.37
6 2 -1 14.23 3.37
6 -8 1 16.61 4.23
2 -8 -1 13 3.58
-8 2 -1 10.61 2.34
-6 -2 1 17.36 4.12
8 -6 1 11.23 2.68
2 6 -1 15.79 4.44
-6 -2 -1 14.67 3.36
-8 2 1 15.08 5.4
2 6 1 14.77 3.91
-6 8 -1 14.69 3.26
2 6 1 15.29 3.62
6 -8 1 14.14 4.49
6 -8 -1 15.07 4.68
-2 8 -1 16.58 4.54
-2 8 1 14.31 4.51
-8 2 -1 16.11 5.86
-6 -2 1 13.62 3.01
8 -6 1 15.72 4.43
-6 8 -1 12.43 3.62
8 -6 -1 15.44 4.53
-6 8 1 14.72 3.99
-8 2 1 12.93 2
-8 6 -1 14 2.17
8 -2 1 13.02 3.11
2 -8 -1 13.07 3.56
8 -2 -1 17.78 3.78
-6 -2 1 13.98 3.22
6 2 1 10.92 3.71
6 2 -1 11.42 3.62
6 2 1 13.24 3.22
-8 6 1 20.91 4.54
-8 6 1 14.39 2.54
-2 -6 1 13.22 3.62
-2 -6 -1 20.3 5.04
-6 -2 -1 14.55 3.09
2 -8 1 13.23 3.62
2 -8 -1 16.82 4.5
-2 -6 1 15.28 4.18
-8 2 -1 9.52 1.07
-8 6 -1 16.74 3.09
-6 -2 -1 13.71 3.38
-8 2 1 19.02 4.54
-6 -2 1 11.91 3.19
6 2 -1 9.23 3.87
-2 -6 -1 13.79 3.66
-8 6 1 12.69 2.41
6 2 1 6.75 2.57
-8 2 -1 12 3.53
-6 8 -1 14.71 3.48
-8 6 -1 15.71 4.03
-8 2 1 12.82 3.72
2 6 -2 67 9.21
6 2 2 76.06 7.74
-6 -2 2 81.96 8.58
6 -8 2 80 8.91
-8 2 -2 53.96 3.94
6 2 -2 75.64 7.57
2 6 2 73.95 9.44
-6 -2 -2 78.73 8.26
-2 8 -2 77.12 9.79
-8 2 2 90.83 9.15
-6 -2 2 71.2 7.36
6 -8 2 74.74 10.19
2 6 2 75.29 8.09
-2 8 2 75 9.98
6 -8 -2 78.43 10.61
-6 8 -2 80 9.03
8 -6 2 83.86 9.93
-8 2 2 82.76 13.73
8 -6 -2 86.7 10.33
-8 6 -2 76.73 7.01
8 -2 2 75.17 7.78
-8 6 -2 74.3 7.05
-8 6 -2 73.16 4.56
8 -2 -2 72.2 8.24
-8 2 2 67.49 5.42
2 -8 -2 75.41 10.12
-6 8 2 77.86 9.38
-8 2 -2 88.61 14.18
6 2 2 70.62 10.48
6 2 -2 72.89 9.14
-6 8 -2 71.75 7.39
6 2 2 69.38 7.02
-2 -6 2 69.52 8.58
-2 -6 -2 67.94 9.35
-6 -2 2 71.43 7.42
-8 6 2 96.68 10.15
2 -8 2 68.11 7.61
2 -8 -2 73.53 9.35
-8 6 2 71.11 5.37
6 2 -2 45.84 8.4
6 2 2 38.71 6.77
-8 6 2 72.7 5.92
-2 -6 2 78.65 9.09
-6 -2 -2 68.56 7.56
-2 8 2 53.42 3.15
-6 -2 -2 73.14 6.69
-6 -2 2 65.41 7.09
-8 2 -2 65.21 8.38
-6 8 -2 72.76 7.6
-8 6 -2 67.85 8.39
-8 2 2 73.12 9.12
-6 8 2 69.37 7.51
-8 6 2 74.53 9.05
2 -8 2 83.14 9.47
-2 -6 -2 78.16 8.78
-2 -6 -3 54.25 7.5
2 6 -3 48.3 8.17
6 2 3 45.43 6.21
-6 -2 3 58.83 7.69
6 2 -3 53.06 6.81
2 6 3 46.39 7.34
-6 -2 -3 60.52 7.41
-2 8 -3 48.41 7.9
-8 2 3 56.36 7.34
2 -8 -3 40.9 7.57
-6 -2 3 42.92 5.74
2 6 -3 46.34 8.34
6 -8 3 50.06 8.48
2 6 3 46.85 5.92
-6 8 -3 50.59 7.39
-8 2 3 65.39 11.96
6 -8 -3 53.65 8.92
-2 8 3 48.08 8.4
8 -6 3 58.17 8.23
-8 6 -3 53.56 5.78
8 -6 -3 61.52 8.71
8 -2 3 49.69 6.11
-8 2 3 45.83 5.17
-6 8 -3 43.35 5.65
2 -8 -3 58.36 9.71
8 -2 -3 53.11 7.42
6 2 3 51.94 9.42
6 2 -3 50.91 7.5
-8 2 -3 58.14 11.63
6 2 3 44.38 5.4
-8 6 -3 49.44 6.16
-6 -2 3 47.58 6.53
-2 -6 3 44.82 6.95
-2 -6 -3 50.24 8.43
2 -8 3 48.01 6.26
2 -8 -3 49.16 8.45
6 2 3 28.64 5.26
-2 -6 3 51.93 7.86
-8 6 3 44.68 4.91
-6 8 -3 50.87 6.43
-8 2 -3 46.41 7.41
-8 6 -3 47.9 7.09
-6 -2 3 43.82 6.19
-2 8 3 39.37 3.04
2 -8 3 54.55 7.96
-8 2 3 44.74 7.25
6 2 -3 29.75 7.28
-6 -2 -3 52.26 5.66
-6 8 3 45.84 6.22
-8 6 3 47.21 7.28
6 2 4 206.24 13.24
-6 -2 -4 203.13 11.03
-2 -6 -4 174.71 11.06
-2 -6 -4 192.87 13.76
6 2 -4 200.59 13.1
2 6 -4 192.8 17.49
6 -8 -4 133.88 5.44
-2 8 -4 188.64 15.4
2 6 4 196.42 15.39
-6 -2 -4 202.53 13.11
-8 2 4 241.83 14.48
-6 -2 4 177.58 13.05
2 -8 -4 165.27 14.93
-6 8 -4 192.24 13.92
6 -8 4 174.5 15.51
2 6 4 172.93 11.15
6 -8 -4 193.52 16.95
-8 6 -4 199.11 10.91
8 -6 4 209.47 15.55
-2 8 4 186.07 15.88
8 -6 -4 221.15 16.62
8 -2 4 201.51 12.56
-6 8 -4 191.3 12.07
2 -8 -4 213.39 18.87
8 -2 -4 190.67 14.28
6 2 4 185.02 18.84
6 2 4 165.54 9.46
6 2 -4 179.36 13.29
-6 -2 4 185.96 13.35
-8 2 -4 247.04 23.62
-8 6 -4 199.58 13.23
-2 -6 -4 189.99 16.15
2 -8 4 166.61 11.31
2 -8 -4 158.43 14.87
6 -8 4 192.42 14.17
-2 -6 4 196.81 15.17
6 2 -4 126.78 15.62
6 2 4 108.31 9.83
2 -8 4 210.52 15.47
-6 8 -4 183.11 12.45
-8 2 -4 175.98 13.89
-8 6 -4 183.25 13.88
-8 2 4 212.97 17.66
-6 -2 4 182.26 12.34
-2 8 4 152.54 6.7
-8 6 4 189.35 10.86
-8 2 4 169.28 14.13
-8 6 4 193.63 14.94
-6 8 4 189.01 13.14
2 6 -4 176.09 15.53
6 2 5 219.41 13.92
2 6 -5 218.55 18
-2 -6 -5 196.82 11.61
-2 8 -5 187.52 15.5
6 2 -5 205.43 13.43
-8 2 5 243.6 14.23
2 6 5 197.99 15.88
-6 -2 5 201.18 14.83
-6 -2 -5 221.31 14.13
-6 8 -5 198.58 13.95
2 -8 -5 152.08 14.53
-8 6 -5 205.15 10.95
6 -8 5 199.81 16.54
8 -6 5 228.15 16.03
2 6 5 191.16 11.04
6 -8 -5 218.42 18.03
-2 8 5 215.43 17.4
8 -2 5 207.57 12.6
8 -6 -5 230.06 17.06
2 -8 5 187.48 13.27
-6 8 -5 213.53 12.75
2 6 5 190.35 12.44
2 -8 -5 243.78 20.72
6 2 5 179.46 8.97
8 -2 -5 211.74 14.93
6 2 5 208.18 20.63
6 2 -5 188.72 13.1
-6 -2 5 191.05 13.89
8 -2 -5 203.11 13.03
-8 6 -5 228.64 14.87
-8 2 -5 282.04 25.5
2 -8 5 172.8 11.05
-2 -6 -5 187.27 16.6
2 -8 -5 155.98 15.38
-2 -6 5 223.23 16.48
6 -8 5 205.2 13.18
6 2 -5 142.03 16.47
6 2 5 144.66 10.61
2 -8 5 242.85 16.61
-6 8 -5 198.3 13.23
-8 2 -5 182.18 14.3
-8 6 -5 196.98 14.8
-8 2 5 221.08 19.59
-6 -2 5 191.09 12.69
-8 2 5 189.64 15.23
-2 8 5 175.36 7.95
-8 6 5 197.92 15.5
-6 8 5 197.17 13.89
2 6 -5 209.24 17.33
-8 6 5 201.15 11.97
-8 2 6 46.84 9.4
-2 -6 -6 49.25 6.11
-2 8 -6 47.96 7.78
-8 2 6 65.15 7.56
6 2 -6 47.05 6.67
2 6 6 56.64 8.6
-6 -2 -6 61.24 7.67
-6 8 -6 51.7 7.17
-8 6 -6 57.76 5.74
2 -8 -6 38.41 7.28
6 -8 6 49.62 8.29
8 -6 6 55.21 7.98
6 -8 -6 60.95 9.82
2 6 6 40.9 4.93
-2 8 6 54.52 8.99
8 -2 6 53.22 6.36
8 -6 -6 60.46 8.85
2 6 6 44.4 6.44
2 -8 6 58.05 7.7
6 2 6 44.55 4.17
8 -2 -6 51.09 7.89
6 2 6 50.04 10.56
-2 -6 -6 41.14 6.33
6 2 -6 47.81 6.5
-6 -2 6 44.47 7.1
-6 8 6 35.52 2.55
-8 6 -6 52.11 7.36
8 -2 -6 57.15 7.01
2 -8 6 45.84 5.42
-2 -6 -6 53.83 9.38
-2 -6 6 57.35 8.63
-8 2 -6 66.97 12.43
2 -8 -6 42.07 8.27
6 -8 6 49.78 5.92
6 2 -6 36.78 8.9
6 2 6 35.45 4.89
2 -8 6 52.49 7.76
-6 8 -6 50.15 6.55
-8 2 -6 49.12 7.49
-8 6 -6 50.35 7.63
-6 -2 6 44.8 6.18
2 6 -6 54.55 8.45
-8 2 6 47.61 7.82
2 6 -6 52.41 8.85
-8 6 6 51.45 7.97
-6 8 6 45.05 6.68
-2 8 6 45.32 4.4
6 2 6 49.57 6.75
-2 8 7 63 5.67
6 -8 7 80.79 8.28
2 -8 -7 58.92 4.43
-2 8 -7 63.74 9.03
-2 -6 -7 68.2 6.6
-8 2 7 85.96 8.69
-8 6 -7 71.06 6.44
-6 8 -7 73.28 8.47
2 6 7 86.78 10.46
2 -8 -7 49.61 8.1
6 -8 7 67.04 9.46
8 -6 7 74.75 9.38
6 -8 -7 72.8 10.68
8 -2 7 70.15 7.18
-2 8 7 70.83 10.53
8 -6 -7 83.32 10.38
6 2 7 59.11 4.37
2 6 7 76.07 9.05
6 2 7 68.08 12.77
8 -2 -7 75.89 9.49
-6 -2 7 63.07 8.57
-2 -6 -7 68.6 8.9
-8 6 -7 91.22 10.44
8 -2 -7 65.55 6.96
8 -6 7 77.6 8.3
2 -8 7 67.39 6.28
-2 -6 7 83.46 10.57
-2 -6 -7 64.99 10.04
6 -8 7 64.67 5.81
-2 8 7 56.11 5.47
-8 2 -7 82.48 9.25
6 2 -7 46.27 9.42
-8 2 -7 106.53 15.62
6 2 7 53.51 5.45
2 -8 7 80.88 9.83
2 -8 -7 45.48 8.55
2 6 -7 68.15 8.89
-6 8 -7 69.71 8.11
-8 2 -7 71.73 9.32
-8 6 -7 68.6 8.8
-8 2 7 70.74 11.4
-6 -2 7 57.96 7.21
2 6 -7 70.3 10.48
-8 2 7 62.16 8.92
-8 6 7 65.7 9.38
-6 8 7 68.39 8.42
-6 8 8 77.1 9.27
-2 8 8 67.19 6.31
-2 8 -8 76.66 9.99
-8 6 -8 87.02 7.11
2 -8 -8 62.61 4.33
-8 2 8 95.55 9.25
-6 8 -8 83.34 9.18
-2 -6 -8 72.93 7
2 -8 -8 60.36 9.04
2 6 8 84.77 10.34
6 -8 8 75.95 10.06
8 -6 8 88.26 9.97
6 -8 -8 89.39 11.97
8 -2 8 77.59 7.65
-2 8 8 82.74 11.64
6 2 8 61.08 4.01
8 -6 -8 94.83 11.47
2 6 8 81.6 10.22
-6 -2 8 76.21 9.84
6 2 8 94.66 15.32
8 -2 -8 81.39 9.91
-2 -6 -8 70.75 9.57
8 -2 8 92.41 13.37
-8 6 -8 95.61 10.82
8 -2 -8 77.37 7.7
-2 -6 8 95.34 11.68
2 -8 8 74.25 6.24
8 -6 8 88.05 8.29
-2 -6 -8 77.46 11.33
-2 8 8 64.74 5.93
2 6 -8 95 9.7
6 -8 8 74.52 5.46
-8 2 -8 80.79 9.67
6 2 -8 62.67 11.28
2 -8 8 97.09 10.82
2 -8 -8 49.99 8.69
-8 2 -8 119.85 16.68
-8 2 -8 79.7 10.13
-8 6 -8 85.1 9.89
2 6 -8 84.03 11.34
-6 -2 8 73.86 8.2
-8 2 8 75.27 10.29
6 -8 8 96.61 9.29
-8 6 8 88.66 11.03
-6 8 9 145.05 13.09
-2 8 -9 138.36 13.52
-2 8 9 132.17 9.61
-8 6 -9 149.23 9.45
-8 2 9 175.02 12.15
-6 8 -9 147.9 12.4
2 -8 -9 111.14 5.62
-2 -6 -9 131.4 9.04
2 -8 -9 117.14 12.58
6 -8 9 140.31 13.78
2 6 9 150.57 13.97
8 -6 9 150.81 13.01
8 -2 9 140.1 10.11
6 -8 -9 163.14 16.26
-2 8 9 149.03 15.69
8 -6 -9 176.33 15.73
2 6 9 140.51 13.94
-6 -2 9 150.37 14.64
6 2 9 155.44 20.98
8 -2 -9 139.93 13.38
8 -2 9 165.07 18.38
-8 6 -9 179.14 15.78
-2 -6 9 163.93 15.44
8 -2 -9 159.37 10.98
-2 8 9 114.78 7.8
-2 -6 -9 138.94 15.36
2 -8 -9 90.16 13.05
-8 2 -9 155.72 13.48
6 2 -9 119.89 16.6
2 -8 9 182.51 15.17
-8 6 -9 148.89 13.28
-8 2 -9 218.03 22.34
2 6 -9 149.57 15.64
6 -8 9 181.12 12.67
-6 -2 9 135.54 11.63
-8 2 9 130.53 13.53
-8 6 9 154.86 15.07
-8 2 -10 8.24 3.29
-6 -2 10 4.88 2.19
-8 2 10 4.37 2.85
-8 6 10 6.4 3.5
-6 8 10 5.69 2.85
2 6 -10 8.12 3.68
-2 8 10 6.15 2.16
-6 -2 10 5.45 3.19
-8 6 -10 8.32 2.63
-2 8 -10 6.02 3
-8 2 10 6.11 2.19
6 -8 10 4.54 2.41
-6 8 -10 8.86 3.16
2 -8 -10 3.65 1.79
8 -6 10 5.69 2.5
-2 -6 -10 5.81 2.12
8 -2 10 8.67 2.49
-2 -6 10 10.45 4.55
2 6 10 9.36 3.73
6 -8 -10 5.72 3.35
-2 8 10 3.83 2.61
8 -6 -10 6.6 3.31
2 6 10 6.83 2.83
2 -8 10 9 3.3
6 2 10 7.02 5.58
8 -2 -10 4.18 2.09
2 -8 10 7.62 2.28
8 -2 10 9.58 4.36
-2 -6 -10 4.12 2.26
-8 6 -10 8.03 3.4
2 -8 -10 1.8 0.7
6 2 -10 6.97 3.87
-8 2 -10 8.1 4.1
6 -8 10 7.42 2.62
-6 -2 11 9.14 3.23
-8 2 11 11.74 4.07
-8 6 11 13.9 4.31
2 6 -11 13.06 4.35
-6 8 11 11.08 3.86
-6 -2 11 14.34 4.63
-2 8 11 10.31 2.89
-8 6 -11 14.68 3.05
-2 8 -11 12.97 4.39
-8 2 11 16.36 3.72
-6 8 -11 13.49 3.82
-8 2 -11 15.1 6.13
6 -8 11 11.74 4.12
2 -8 -11 12.72 4.21
8 -6 11 15.84 4.32
8 -2 11 16.35 3.23
-2 -6 11 14.27 5.1
2 6 11 18.89 5.35
6 -8 -11 15.23 5.38
8 -6 -11 15.39 5.19
2 6 11 12.38 4.64
2 -8 11 16.92 4.96
6 2 11 16.74 6.74
8 -2 -11 11.94 3.99
8 -2 11 15.56 5.72
-6 -2 -11 12.47 4.73
-2 -6 -11 8.69 3.5
-8 6 -11 18.8 4.91
2 -8 -11 5.1 2.74
6 -8 11 20.04 4.15
6 2 -11 13.89 5.19
-8 2 -11 10.93 3.47
-6 -2 12 0.25 0.8
2 6 -12 0.76 0.85
-8 2 12 2.56 0.62
-8 6 12 0.51 1.47
-6 -2 12 3.15 3.32
-6 8 12 2.99 2.1
-2 8 12 1.46 1.05
-2 8 -12 0.99 0.51
-8 2 12 1.12 0.6
-6 8 -12 1.62 1.61
2 -8 -12 -0.45 0.87
8 -6 12 0.75 1.1
8 -2 12 2.31 1.24
-2 -6 12 4.76 2.11
2 6 12 1.89 1.66
6 -8 -12 2.92 2.39
2 -8 12 2.75 1.86
8 -6 -12 1.24 1.01
2 6 12 0.39 1.04
6 2 12 0.35 0.94
8 -2 -12 0.59 1.29
8 -2 12 1.44 1.93
-6 -2 -12 2.25 1.45
-2 -6 -12 -0.8 2.26
-8 2 -12 3.57 1.78
-8 6 -12 -2.1 3.02
6 -8 12 1.56 1.3
2 -8 -12 -1.9 2.11
6 2 -12 4.97 3.41
-8 2 -12 1.46 0.46
2 6 -13 3.17 1.65
-6 -2 13 0.72 1.33
-6 -2 13 1.8 1.08
-8 2 13 1.64 2.38
-8 6 13 3.46 2.45
-6 8 13 1.51 0.46
-2 8 13 2.97 2.23
-2 8 -13 2.88 1.32
-6 8 -13 2.03 1.83
-8 2 13 1.09 1.28
2 -8 -13 3.22 1.81
8 -6 13 4.16 2.21
-2 -6 13 2.33 1.03
6 -8 -13 2.45 1.51
2 6 13 1.95 1.45
2 -8 13 3.59 2.63
8 -6 -13 2.83 1.51
2 6 13 4.15 2.35
6 2 13 -1.77 3.94
8 -2 -13 0.3 0.71
8 -2 13 1.51 2.4
-6 -2 -13 -0.68 1.13
6 -8 13 2.3 1.6
-2 -6 -13 2.01 3.22
-8 2 -13 5.26 2.21
-8 6 -13 7.96 3.27
2 -8 -13 5.03 3.02
6 2 -13 3.7 2.77
-8 2 -13 3.01 1.87
-6 -2 14 54.33 8.74
-8 2 14 45.57 9.13
-8 6 14 57.23 10.26
-6 8 14 54.72 9.31
-8 2 14 74.69 8.46
-2 8 14 53.12 8.33
-8 2 -14 91.08 14.78
8 -6 14 60.78 8.2
2 -8 -14 43.2 7.35
-8 6 -14 111.52 14.09
2 6 14 63.05 9.64
6 -8 -14 60.84 10.6
-6 -2 14 78.91 12.82
8 -6 -14 64.74 10.38
2 6 14 54.56 10.5
6 2 14 86.31 17.7
8 -2 14 84.77 14.94
8 -6 14 70.34 11.27
8 -2 -14 50.61 8.78
-2 -6 14 83.36 12.51
-8 6 -14 93.41 13.63
2 -8 14 83.05 11.57
-6 -2 -14 68.11 10.95
-2 -6 -14 54.11 10.77
-8 2 -14 60.68 9.75
6 2 -14 66.23 12.58
6 -8 14 83.04 9.02
2 -8 -14 31.51 8.75
2 6 -14 68.23 11.43
-2 8 -14 59.37 9.93
-6 8 -14 71.57 9.22
-8 2 15 1.42 0.29
2 6 -15 -0.3 0.93
-6 -2 15 1.13 0.66
-6 -2 15 2.29 1.37
-8 2 15 0.26 1.02
-8 6 15 0.78 0.28
-6 8 15 2.05 2.05
-2 8 -15 2.35 1.89
-6 8 -15 -0.06 1.43
-2 8 15 2.96 2.02
8 -6 15 2.22 1.85
-2 -6 15 -0.89 2.47
-8 6 -15 0.74 2.04
6 -8 -15 3.38 2.83
2 -8 15 3.23 2.95
2 6 15 2 1.74
2 6 15 4.25 3.16
8 -6 -15 1.86 0.86
6 2 15 0.53 2.63
8 -2 15 3.08 2.8
8 -2 -15 5.9 2.5
6 -8 15 2.22 2.1
8 -6 15 -0.05 1.92
6 -8 15 1.93 1.22
-6 -2 -15 -0.82 2.18
-2 -6 -15 2.48 2.51
-8 6 -15 6.95 3.97
2 -8 -15 3.22 2.07
6 2 -15 2.92 1.73
-8 2 -15 1.38 1.52
-6 -2 16 38.63 7.94
2 6 -16 42.21 9.74
-8 6 16 44.84 9.4
-6 8 16 45.44 9.01
-2 8 16 40 7.61
-8 2 16 39.67 9.03
8 -6 16 40.93 7
2 6 16 41.5 8.49
-6 -2 16 56.35 11.24
6 -8 -16 36.62 8.08
-8 6 -16 70.9 11.19
6 -8 16 50.15 8.71
8 -6 16 53.25 10.24
-2 -6 16 64.65 11.34
2 6 16 35.24 8.65
8 -6 -16 38.28 8.03
-8 6 -16 62.17 11.74
6 2 16 60.61 14.9
8 -2 16 53.68 11.64
2 -8 16 55.01 9.35
8 -2 -16 32.12 7.28
-8 2 -16 44.41 8.94
-6 -2 -16 47.03 9.11
6 -8 16 57.93 7.98
-2 -6 -16 35.45 8.32
2 -8 -16 21.89 7.73
6 2 -16 43.92 10.16
-2 8 -16 42.65 8.57
-6 8 -16 47.44 7.81
2 6 -17 34.78 9.18
-2 8 -17 32.4 7.34
-8 2 17 25.03 7.77
-6 -2 17 23.64 6.09
-8 6 17 34.84 8.3
-6 8 17 33.08 7.88
-2 8 17 24.4 6.43
-2 -6 17 45.86 9.96
-6 -2 17 46.56 10.55
6 -8 -17 32.2 7.72
2 6 17 28.79 7.14
2 6 17 38.13 9.27
8 -6 -17 36.69 8.13
-8 6 -17 65.1 10.88
6 2 17 50.97 13.28
2 -8 17 51.05 9.49
8 -2 17 53.33 12.81
8 -2 -17 22.1 5.81
6 -8 17 35.68 7.23
8 -6 17 42 9.13
6 -8 17 55.7 7.99
-6 -2 -17 30.47 7.21
-2 -6 -17 29.99 7.92
-8 6 -17 56.34 11.12
2 -8 -17 18.01 5.51
6 2 -17 33.57 8.92
-6 8 -17 45.78 8.21
-8 2 -17 37.91 8.42
-6 8 -18 4.55 1.62
-8 2 18 1.29 1.21
-6 -2 18 1.18 0.96
-6 8 18 1.4 0.54
-2 8 18 3.39 2.36
2 -8 18 2.9 1.7
6 -8 -18 3.79 3.7
2 6 18 -2.2 2.06
2 6 18 1.35 1.79
8 -6 -18 4.48 2.33
6 2 18 7.95 6.55
6 -8 18 1.04 1.13
-6 -2 -18 2.48 1.28
6 2 -18 -0.35 3.67
-8 6 -18 5.74 3.59
-6 8 -19 2.63 1.9
-6 -2 19 0.09 0.94
-6 8 19 3.25 2.78
-2 8 19 -2.05 2.98
-8 6 -19 1.8 2.02
6 -8 -19 3.77 1.34
2 6 19 -0.88 1.07
6 -8 19 0.33 1.1
-6 -2 -19 3.49 2.83
-6 8 -20 3.14 3.07
-6 -2 20 3.21 0.87
-2 8 20 8.19 4.8
6 -8 -20 2.04 2.24
-8 6 -20 5.28 3.77
6 -8 20 7.96 2.65
-6 -2 -20 4.43 2.79
-8 6 -21 50.55 9.82
-2 8 21 34.73 8.68
6 -8 -21 21.62 6.44
6 -8 21 33.07 8.77
1 -8 0 6.07 2.56
-8 1 0 7.01 4.25
8 -7 0 4.28 1.66
-7 -1 0 7.42 2.82
1 7 0 7.04 3.18
-8 1 0 7.43 2.73
-7 8 0 6.44 2.18
7 -8 0 6.53 3.44
-1 8 0 6.74 2.74
-8 7 0 5.26 1.6
8 -7 0 9.16 3.71
-7 8 0 6.27 2.15
8 -1 0 6.44 2.17
-8 1 0 5.47 1.37
7 1 0 4.98 2.14
7 1 0 5.8 2.22
-7 -1 0 6.9 2.02
-1 -7 0 8.1 2.91
1 -8 0 4.58 1.88
7 1 0 3.36 0.89
-8 7 0 4.13 1.38
-7 -1 0 5.79 2.49
-1 -7 0 5.6 2.68
-8 1 0 5.29 2.32
-7 8 0 7.52 2.49
-8 7 0 7.33 2.73
-7 8 1 0.45 0.34
-8 7 1 -0.17 0.84
1 -8 1 0.88 0.93
-1 -7 -1 -0.61 0.98
-8 1 1 1.03 2.22
1 -8 -1 0.05 0.79
8 -7 -1 -1.42 1.11
-8 1 -1 1.97 3.01
-7 -1 1 1.19 0.87
8 -7 1 0.46 0.56
-8 1 1 3.08 2
-8 7 -1 1.58 1.14
1 7 -1 0.04 1.22
-7 -1 -1 -0.01 1.02
-7 8 -1 -0.95 0.69
1 7 1 -0.03 0.21
7 -8 -1 -1.15 0.75
-8 1 1 0.77 1.45
-1 8 -1 -0.25 1.53
-8 1 -1 0.64 1.59
7 -8 1 1.82 1.83
7 -8 -1 0.96 1.76
-1 8 1 -1.63 1.51
8 -7 1 -0.03 0.2
8 -7 -1 -0.04 0.75
-7 8 1 -0.77 1.16
-8 1 1 -0.11 0.6
-7 8 -1 0.16 0.95
-8 7 -1 1.55 1.34
-7 8 1 0.76 1.54
-8 7 1 0.85 0.48
-7 8 1 -0.11 0.97
-7 -1 1 0.87 0.89
8 -1 1 0.56 0.87
8 -1 -1 0.79 0.98
7 1 1 -1.43 1.85
7 1 -1 -0.49 0.51
7 1 1 -1.15 2.85
7 1 -1 0.2 0.76
-1 -7 1 -0.08 1.13
-1 -7 -1 1.14 1.62
1 -8 1 0.12 0.79
-7 -1 -1 0.05 0.45
1 -8 -1 -0.17 1.07
-8 1 -1 1 0.49
7 1 1 -0.43 0.79
7 1 -1 1.23 0.45
-8 7 -1 3.26 1.4
-8 7 1 1.62 1.1
-1 -7 1 0.12 0.56
-7 -1 -1 0.19 0.37
-7 -1 1 -0.42 0.56
-8 1 -1 0.89 1.63
-8 1 1 -0.08 0.54
-7 8 -1 2.84 1.78
-8 7 -1 1.18 1.27
-7 8 2 4.49 1.76
-8 7 2 6.18 2.62
-8 1 2 5.5 3.56
-1 -7 -2 5.04 2.39
-8 7 -2 3.72 1.29
1 -8 -2 7.86 3.08
-7 8 -2 8.31 2.28
-7 -1 2 4.77 2.1
1 7 -2 8.15 3.5
7 -8 -2 3.72 1.03
8 -7 2 3.35 1.21
-7 -1 -2 2.33 0.76
-8 1 2 7.32 2.63
-1 8 -2 5.77 3.23
1 7 2 5.97 2.93
7 -8 2 5.8 3.11
1 7 2 1.83 0.97
-7 -1 2 2.85 0.54
7 -8 -2 4.35 2.61
-8 1 -2 7.35 3.97
-1 8 2 4.93 2.7
8 -7 2 8.23 3.29
8 -7 -2 7.25 3.15
-7 8 -2 6.56 2.54
-8 7 -2 6.1 2.02
-7 -1 2 5.37 1.56
8 -1 2 6.01 1.94
1 -8 -2 4.51 2.52
8 -1 -2 4.46 1.93
7 1 2 3.84 0.95
-8 7 2 4.52 1.65
7 1 2 7.22 3.42
7 1 -2 4.2 2.13
-1 -7 2 4.6 2.02
-7 8 2 5.39 1.77
-1 -7 -2 3.97 1.83
1 -8 2 6.74 2.55
1 -8 -2 4.27 2.9
7 1 2 3.5 1.4
-1 -7 2 7.62 2.69
-8 7 -2 5.7 1.74
7 1 -2 4.76 2.39
-7 -1 -2 3.12 1.58
-8 7 2 7.51 1.68
-8 1 -2 4.9 2.53
1 -8 2 7.26 2.85
-7 -1 2 6.88 2.76
-7 8 -2 7.48 2.83
-8 7 -2 5.18 2.4
-8 1 2 5.71 2.58
-8 1 3 0.09 0.75
-7 8 3 0.15 1.45
-8 7 3 0.17 0.43
-7 8 -3 1.79 0.98
-1 -7 -3 1.74 1.98
-8 1 3 0.4 0.63
-7 -1 3 1.68 1.72
1 7 -3 1.17 1.02
-8 1 3 3.6 2.49
-1 8 -3 0.7 1.22
-7 -1 -3 -0.02 0.54
7 -8 3 2.49 3.29
1 7 3 1.45 1.16
-7 -1 3 -0.75 0.46
8 -7 3 0.74 0.83
1 7 3 0.19 1.65
7 -8 -3 1.19 1.46
-1 8 3 3.76 2.81
-7 -1 3 2.83 1.3
-7 8 -3 1.28 1.34
8 -7 -3 0.1 1.03
-8 7 -3 1.17 1.11
8 -1 3 1.69 0.86
-8 1 -3 5.62 4.18
1 -8 -3 0.65 1.94
7 1 3 0.51 0.77
8 -1 -3 0.67 1.09
7 1 3 -1.66 1.48
7 1 -3 -1.41 1.86
-8 7 3 0.36 0.63
-1 -7 3 1.43 2.17
1 -8 3 1.84 1.31
-1 -7 -3 2.34 1.51
-1 -7 3 2.27 1.88
-7 8 3 0.09 0.41
7 1 3 -0.09 0.68
1 -8 -3 3.81 2.52
-8 7 -3 0.16 0.67
7 1 -3 -1.69 1.68
1 -8 3 -0.65 2.1
-7 -1 -3 1.11 1.82
-8 1 3 -3.25 3.02
-8 1 -3 1.69 1.84
-7 8 -3 0.33 0.86
-8 7 3 1.41 0.61
-8 7 -3 1.13 2.1
-7 -1 3 3.32 2.66
1 7 -4 76.7 10.3
-7 -1 4 84.41 9.12
-1 8 -4 79.42 10.2
-8 1 4 96.19 9.57
-7 -1 4 80.98 9
-7 -1 -4 98.65 9.91
1 7 4 85.63 10.62
7 -8 4 82.86 10.78
-7 8 -4 84.71 8.91
-1 8 4 75.21 10.32
-8 7 -4 83.89 7.98
8 -7 4 85.94 10.63
7 -8 -4 88.79 11.58
1 7 4 71.42 7.5
8 -7 -4 98.27 11.85
8 -1 4 77.28 7.54
-7 8 -4 84.81 7.63
7 1 4 67.29 6.45
-8 1 4 78.52 7.49
1 -8 -4 76.53 12.2
8 -1 -4 76.49 9.06
7 1 4 87.25 13
7 1 -4 76.36 9.19
-8 7 -4 98.67 9.69
-7 -1 4 79.84 8.39
-7 8 4 72.7 4.42
-8 1 4 89.7 14.22
-1 -7 4 75.07 8.56
1 -8 4 75.82 8.13
-1 -7 -4 74.29 10.27
1 -8 -4 70.62 10.12
7 1 -4 50.63 8.51
-1 -7 4 87.36 10.22
-8 7 4 86.88 7.93
1 -8 4 94.45 10.82
-7 -1 -4 75.11 8.87
-8 1 -4 73.44 9.21
-7 8 -4 84.67 8.96
-8 7 -4 80.22 9.35
-7 -1 4 79.86 8.96
-8 1 4 73.99 9.16
-8 1 -4 106.4 16.08
-8 7 4 87.9 10.11
-7 8 4 78.61 9.12
-8 1 4 83.72 10.01
-7 -1 5 5.49 3.78
-8 1 5 3.85 3.53
-1 -7 -5 4.35 2.13
-8 7 5 3.34 2.65
-7 8 5 2.75 2.39
-8 1 -5 -0.18 0.67
-8 1 5 1.32 0.17
-8 1 5 -0.71 1.08
-7 -1 5 8.09 4.67
1 7 -5 3.49 3.28
-8 1 5 10.67 4.99
-1 8 -5 5.58 3.88
-7 -1 5 2.07 0.73
-7 -1 5 -1.64 2.3
7 -8 5 2.02 2.28
-7 -1 -5 9.85 4.28
8 -7 5 3.92 3.15
1 7 5 2.81 2.41
-7 8 -5 3.17 2.18
-8 7 -5 2.91 1.89
7 -8 -5 4.6 3.73
-1 8 5 4.11 3.9
1 7 5 2.7 1.13
8 -7 -5 1.99 3.28
8 -1 5 3.53 1.54
7 1 5 2.63 1.35
1 -8 -5 -5.15 5.37
8 -1 -5 0.21 0.63
-1 -7 -5 -2.35 2.59
7 1 5 1.74 2.13
7 1 -5 -0.56 0.86
-1 -7 5 4.54 3.92
1 -8 5 2.43 0.87
-1 -7 -5 11.58 5.82
1 -8 5 6.74 4.46
-8 1 5 2.95 2.98
1 -8 -5 9.96 5.23
-8 7 -5 3.28 2.83
7 1 -5 3.81 3.01
-8 7 5 0.34 0.44
-8 1 -5 3.05 3.37
-7 8 -5 1.84 2.12
-8 7 -5 1.92 2.55
1 7 -6 264.24 20.02
-8 1 -6 362.37 30.05
-7 -1 6 315.37 17.99
-1 8 -6 263.02 19.48
-1 -7 -6 244.95 12.5
-8 1 6 319.23 17.25
-7 8 -6 277.84 16.14
-8 7 -6 286.37 14.51
1 7 6 258.51 19.06
7 -8 6 266.54 19.17
8 -7 6 294.73 19.44
-1 8 6 273.63 20.47
7 -8 -6 297.64 21.97
8 -7 -6 322.56 21.9
8 -1 6 258.98 13.38
-8 1 6 264.11 15.98
7 1 6 246.97 11.1
7 1 6 326.29 26.93
-1 -7 -6 263.17 19.19
-7 -1 6 255.79 16.58
8 -1 -6 275.18 17.98
8 -1 6 312.49 24.66
-8 7 -6 359.68 20.99
-8 1 6 270.94 24.39
1 -8 6 253.48 14.11
7 1 -6 259.61 18.27
-1 -7 -6 238.6 19.41
1 -8 -6 219.85 18.9
7 1 -6 214.2 19.25
-1 -7 6 311.55 20.28
1 -8 6 298.31 19.52
-8 1 -6 256.62 17.58
-7 8 -6 263.13 16.44
-8 7 -6 271.97 17.52
-7 -1 6 239.45 16
-8 1 6 252.15 17.77
-8 7 6 270.31 18.42
-7 8 6 266.45 17.53
-7 -1 7 1.71 2.36
-8 1 7 4.27 3.23
-8 7 7 1.08 1.69
-7 8 7 0.64 2.13
1 7 -7 4.01 2.97
-7 -1 7 0.02 1.31
1 -8 -7 5.04 2.03
-1 8 -7 1.83 1.34
-8 1 7 0.3 1.59
-1 -7 -7 6.66 2.98
7 -8 7 0.98 1.1
8 -7 7 1.37 2.22
-8 7 -7 0.97 0.34
-7 8 -7 2.92 1.41
-8 1 7 1.63 1.22
1 7 7 5.23 3.46
7 -8 -7 1.32 2.51
-1 8 7 1.13 1.97
8 -1 7 0.65 0.91
8 -7 -7 -0.97 1.08
7 1 7 1.69 0.86
-1 -7 7 0.62 0.53
7 1 7 -1.37 3.06
8 -1 -7 1.11 1.32
8 -1 7 -0.79 0.99
1 -8 7 -0.87 1.1
7 1 -7 0.15 0.74
1 -8 7 2.47 2.22
-8 1 7 2.83 1.65
-8 1 -7 -1.7 2.06
-1 -7 -7 2.45 3.41
-8 7 -7 -0.27 1.68
1 -8 -7 0.73 0.66
7 1 -7 -0.04 1.71
-8 1 -7 0.93 1.4
-7 8 -7 2.8 2.52
-8 7 -7 0.59 0.33
-7 -1 8 -1.2 1.82
-8 1 8 1.71 1.37
-8 7 8 -0.84 0.95
-7 8 8 -0.74 1.4
1 7 -8 -1.76 2.34
-7 -1 8 0.89 0.93
-1 8 -8 -0.53 1.12
-8 1 8 0.96 0.99
1 -8 -8 -0.05 0.17
-1 -7 -8 -0.37 0.19
7 -8 8 -1.34 0.73
-8 7 -8 -0.36 1.31
-7 8 -8 0.73 1.29
-8 1 -8 0.98 1.96
8 -7 8 0.93 0.98
1 7 8 -0.71 1.57
7 -8 -8 0.63 2.25
8 -1 8 1.48 1.18
-1 8 8 -0.49 1.76
8 -7 -8 1.31 0.33
-1 -7 8 2.03 1.26
7 1 8 0.43 2.56
8 -1 -8 2.44 1.55
8 -1 8 3.21 2.48
1 -8 8 -0.87 1.38
8 -1 -8 0.38 1.42
-8 1 8 0.6 2.34
-1 -7 -8 1.59 2.24
-8 7 -8 2.24 1.06
1 -8 -8 3.78 3.18
7 1 -8 -1.04 1.93
-7 8 -8 1.56 2.14
-8 7 -8 1.42 1.64
-7 -1 9 0.57 1.13
-8 1 9 2.63 1.56
-8 7 9 1.02 0.56
-7 8 9 -0.93 1.56
-7 -1 9 0.05 1.68
1 7 -9 -1.64 2.48
-1 8 -9 2.18 1.81
-8 1 9 0.87 0.93
-8 7 -9 0.4 0.7
7 -8 9 0.59 0.44
-7 8 -9 1.97 1.82
1 -8 -9 1.24 0.89
8 -7 9 -0.47 1.56
8 -1 9 0.94 1.16
1 7 9 1.23 1.33
7 -8 -9 -0.64 2.24
-1 8 9 2.56 2.22
-8 1 -9 0.17 1.73
8 -7 -9 0.35 0.74
-1 -7 9 -0.79 0.38
7 1 9 4.01 3.52
1 -8 9 -1.34 1.45
8 -1 -9 -0.22 1.26
8 -1 9 3.41 2.63
-8 1 9 0.66 1.92
8 -1 -9 -1.11 1.3
-8 7 -9 -1.58 3.25
-1 -7 -9 -2.66 3.31
1 -8 -9 0.73 2.02
7 1 -9 -0.14 0.69
-8 7 -9 2.09 2.15
-7 8 10 39.59 7.32
-8 7 -10 47.17 6
-8 1 10 45.89 6.56
-7 8 -10 40.17 6.26
1 7 -10 37.84 7.81
-1 -7 -10 30.96 4.14
7 -8 10 35.95 7.11
8 -7 10 38.74 6.9
1 7 10 39.2 7.96
7 -8 -10 50.01 9.26
-1 8 10 45.03 8.95
8 -7 -10 42.16 8.05
-7 -1 10 37.77 7.42
-8 7 -10 62.64 10.46
-8 1 10 43.28 9.12
7 1 10 46.05 11.52
8 -1 -10 32.96 6.54
8 -1 10 46.86 10.57
-1 -7 10 48.52 8.79
8 -1 -10 29.48 6.04
1 -8 10 48.04 8.42
-1 -7 -10 28.9 7.35
1 -8 -10 28.19 7.19
7 1 -10 32.29 8.05
-8 1 -10 54.66 11.92
-7 -1 10 35.49 6.65
-8 1 10 34.86 7.1
-1 8 -10 40.31 7.82
-8 7 10 51.26 8.78
-7 -1 11 1.29 1.94
-8 1 11 0.92 1.44
-8 7 11 0.99 1.1
-7 -1 11 0.75 0.8
-7 8 11 -0.37 0.76
7 -8 11 -0.18 1.76
1 7 -11 3.65 3.12
-1 8 -11 2.16 1.44
-8 1 11 0.5 1.08
-8 7 -11 0.57 0.18
-7 8 -11 1.58 0.58
7 -8 11 1.48 1.44
8 -7 11 2.5 1.98
1 7 11 -0.22 0.83
1 7 11 0.54 1.92
7 -8 -11 3.74 3.58
-1 -7 11 1.79 0.76
-1 8 11 0.62 1.16
8 -7 -11 2.9 2.48
1 -8 11 0.89 1.64
7 1 11 2.23 3.87
8 -1 11 1.92 2.52
8 -1 -11 -1.22 1.4
-8 1 11 -0.64 2.52
8 -1 -11 -0.78 1.43
-8 7 -11 1.68 1.88
-1 -7 -11 2.8 1.9
1 -8 -11 1.58 1.78
7 1 -11 -0.01 2.37
7 -8 12 0.71 1.28
-8 1 -12 4.8 2.52
-8 1 12 3.5 1.57
-7 -1 12 2.81 3.37
-7 -1 12 -0.64 1.13
-8 1 12 0.93 1.15
-8 7 12 0.81 1.58
-7 8 12 3.16 1.76
1 7 -12 3.84 2.08
-1 8 -12 1.36 1.56
-8 7 -12 4.66 1.93
-7 8 -12 0.93 0.75
7 -8 12 1.4 2.34
8 -7 12 0.61 0.79
-1 -7 12 -0.17 1.62
1 7 12 2.65 2.23
1 7 12 1.09 1.24
7 -8 -12 2.18 2.14
-1 8 12 5.42 3.81
8 -7 -12 4.52 3.1
1 -8 12 2.7 2.12
7 1 12 1.11 1.94
8 -1 12 7.04 4.28
8 -1 -12 -0.06 1.78
-8 1 12 4.32 3.7
8 -1 -12 -0.07 1.96
-8 7 -12 4.57 2.73
-1 -7 -12 4.49 2.92
1 -8 -12 0.12 1.86
7 1 -12 2.48 2.71
-8 1 -13 1.32 1.27
-7 -1 13 -0.66 0.89
-8 1 13 0.55 0.78
-8 7 13 -1.5 2.59
1 7 -13 0.65 1.24
-7 8 13 0.77 2.13
-1 8 -13 2.61 1.72
-7 8 -13 3.28 1.72
7 -8 13 -0.04 1.9
8 -7 13 2.13 0.77
-7 -1 13 1.2 1.17
-1 -7 13 2.71 2.67
1 7 13 -0.27 1.15
7 -8 -13 2.78 2.82
1 -8 13 2.9 1.73
-1 8 13 1.2 1.67
8 -7 -13 1.16 1.05
1 7 13 2.92 1.71
7 1 13 2.97 2.24
8 -1 13 2.6 2.7
8 -1 -13 3.47 2.73
-8 1 13 3.87 2.91
8 -1 -13 -1.14 1.39
-8 7 -13 1.26 2.28
-1 -7 -13 -1.21 2.99
1 -8 -13 -1.01 1.68
7 1 -13 0.84 2
-8 1 -14 10.61 3.88
-7 -1 14 12.94 4.27
-8 1 14 11.11 4.25
1 7 -14 16.83 6.19
-8 7 14 10.45 4.32
-7 8 14 9.14 3.67
-1 8 -14 14.54 5
-7 8 -14 13.17 4.24
8 -7 14 10.96 3.77
-7 -1 14 11.5 4.78
-1 -7 14 13.02 4.64
1 7 14 9.56 4.18
7 -8 -14 14.77 5.44
1 -8 14 15.75 5.21
-1 8 14 7.17 3.92
8 -7 -14 10.87 4.42
1 7 14 11.43 3.94
7 1 14 21.37 9
8 -1 14 13.23 6.87
8 -1 -14 11.47 4.53
8 -1 -14 11.42 4.39
-8 7 -14 22.65 7.16
-1 -7 -14 5.79 1.04
1 -8 -14 4.86 2.96
7 1 -14 10.81 4.56
-8 1 -15 0.5 1.28
1 7 -15 3.17 2.69
-7 -1 15 -2.32 2.55
-8 1 15 0.27 1.85
-8 7 15 0.67 1.22
-1 8 -15 1.16 0.13
-7 8 15 -3.91 3.47
-7 8 -15 1.48 1.02
8 -7 15 0.43 1.5
-1 -7 15 0.72 1.57
1 -8 15 -2.16 3.13
7 -8 -15 -1.85 1.21
1 7 15 0.47 1.75
-1 8 15 1 2.36
8 -7 -15 -1.06 2.53
1 7 15 -0.24 2.32
7 1 15 3.79 2.91
8 -1 15 -1.71 0.93
8 -1 -15 0.43 0.84
8 -7 15 0.88 1.9
7 -8 15 1.06 2.77
8 -1 -15 1.34 1.04
-8 7 -15 1 2.26
-1 -7 -15 -5.31 4.07
1 -8 -15 -0.02 2.69
7 1 -15 -1.12 2
-7 -1 16 31.63 7.54
-8 1 16 27.32 7.53
-8 7 16 35.68 8.5
-7 8 16 37.9 8.36
-8 7 -16 68.76 10.59
7 -8 -16 43.79 9.43
1 7 16 32.63 8.13
8 -7 -16 40.06 8.45
8 -7 16 45.29 9.5
1 7 16 34.56 8.56
7 1 16 67.09 16.17
8 -1 16 59.69 14.26
1 -8 16 57.92 10.22
7 -8 16 42.88 8.41
8 -1 -16 31.41 7.45
-8 7 -16 77.88 13.08
7 1 -16 43.84 10.07
-7 8 -16 47.26 7.81
-7 8 -17 4.39 2.64
-7 -1 17 2.32 2.92
-8 1 17 0.2 2.62
-7 8 17 2.76 3.08
-8 7 -17 -0.03 2.53
7 -8 -17 1.54 1.53
1 7 17 1.84 3.28
8 -7 -17 -1.91 3.35
1 7 17 0.43 1.5
7 1 17 1.32 4.33
7 -8 17 0.82 0.44
8 -7 17 1 0.95
8 -1 -17 -1.39 1.24
-8 7 -17 5.49 4.73
7 1 -17 1.42 0.83
-7 -1 18 12.51 5.23
-8 1 18 13.16 5.15
-7 8 -18 29.5 6.25
7 -8 -18 8.18 3.96
1 7 18 12.54 4.87
1 7 18 7.31 2.59
-8 7 -18 33.66 7.96
7 -8 18 25.11 6.81
8 -1 -18 15.68 5.1
-7 -1 19 2.34 1.4
7 -8 -19 -5.7 4.76
1 7 19 -3.2 1.93
7 -8 19 -0.28 3.33
-8 7 -19 2.61 2.87
-8 7 -20 16.07 4.96
-7 -1 20 10.27 5.07
0 -8 0 6.12 2.56
-8 0 0 11.95 3.43
0 8 0 9.36 3.61
8 -8 0 5.91 2.79
-8 8 0 7.47 2.99
8 0 0 10.22 3.16
-8 0 0 2.72 1.25
0 -8 0 8.89 3.27
-8 8 0 6.27 1.39
-8 0 0 8.06 3.03
-8 8 0 6.64 2.47
-8 8 1 13.17 3.66
0 -8 -1 15.73 4.11
-8 0 1 16.71 6.14
-8 0 1 19.38 4.84
0 8 -1 15.35 4.97
-8 0 -1 16.64 4.39
-8 0 -1 13.84 6.26
0 8 1 13.33 4.56
8 -8 1 13.27 4.28
8 -8 -1 20.14 5.2
-8 8 -1 10.55 3.2
-8 8 1 15.09 4.07
8 0 1 10.41 2.7
8 0 -1 10.54 2.55
0 -8 1 14.77 3.96
0 -8 -1 16.57 4.43
-8 8 -1 15.79 3.48
-8 8 1 12.37 2.44
-8 0 -1 10.64 3.42
-8 0 1 13.82 3.88
-8 8 -1 14.56 3.7
0 -8 1 15.43 4.27
-8 0 2 31.92 8.76
0 -8 -2 31.52 6.06
0 8 -2 35.07 7.33
-8 0 2 35.44 6.11
0 8 2 35.47 7.17
-8 0 -2 44.7 7.03
8 -8 2 42.91 7.94
-8 8 -2 32.82 5.7
8 -8 -2 38.21 7.6
8 0 2 30.48 4.91
-8 8 -2 44.43 6.16
8 0 -2 28.42 5.23
-8 8 2 33.48 3.61
8 0 2 36.67 8.39
-8 0 2 32.95 4.6
0 -8 2 33.06 5.91
8 0 -2 27.13 4.22
0 -8 -2 26.52 5.78
-8 0 -2 32.62 6.27
-8 8 -2 32.9 5.94
-8 0 2 30.1 5.9
0 -8 2 33.27 6.59
-8 8 2 33.53 6.25
-8 0 -2 37.39 3.79
-8 0 -2 32.72 9.36
-8 8 3 21.07 4.89
-8 0 3 31.6 5.96
0 8 -3 26.28 6.47
8 -8 3 22.65 5.84
0 8 3 22.39 5.83
-8 0 3 21.11 3.68
8 -8 -3 20.41 5.7
-8 8 -3 21.83 4.53
-8 0 -3 21 7.47
8 0 3 18.64 3.72
8 0 -3 24.35 5.01
8 0 3 26.7 7.75
8 0 -3 20.01 4.11
0 -8 3 21.27 4.67
0 -8 -3 25.79 6.49
-8 8 -3 29.37 5.2
-8 0 3 20.86 7.09
0 -8 3 27.59 6.25
-8 8 -3 28.43 5.8
-8 0 3 20.34 5.82
-8 0 -3 24.27 5.57
0 8 -4 113.11 13.36
-8 0 4 108.66 15.99
-8 0 4 136.09 12.13
0 8 4 116.33 13.47
-8 8 -4 121.3 10.62
8 -8 4 120.24 13.33
8 -8 -4 137.06 14.94
8 0 4 100.16 8.48
8 0 4 132.86 16.7
8 0 -4 109.37 11.5
-8 8 -4 165.64 13.72
-8 0 4 114.7 9.65
0 -8 4 104.51 10.36
8 0 -4 110.82 10.24
0 -8 -4 117.93 13.6
0 -8 4 139.35 13.75
-8 0 -4 106.34 11.23
-8 8 -4 122.56 11.76
-8 0 4 107.57 11.72
-8 8 4 114.38 11.8
0 8 -5 112.68 13.4
-8 0 5 95.57 14.84
-8 0 5 139.17 12.09
0 8 5 107.46 13.1
-8 8 -5 127.24 10.75
8 -8 5 122.99 13.25
8 -8 -5 141.7 15.55
8 0 5 99.14 8.24
8 0 5 131.36 17.09
-8 0 5 108.37 9.89
8 0 -5 116.33 12.05
-8 8 -5 168.37 14.71
0 -8 5 99.63 9.84
8 0 -5 109.74 11.07
0 -8 -5 99.29 12.75
0 -8 5 129.14 13.36
-8 0 -5 101.63 11.14
-8 8 -5 122.82 11.83
-8 0 5 103.82 11.55
-8 8 5 112.49 12.03
-8 0 6 25.61 5.64
0 -8 -6 32.49 4.31
-8 0 6 41.27 7.03
-8 8 -6 32.19 5.27
-8 0 6 25.95 4.95
0 8 -6 30.42 6.08
8 -8 6 35.83 6.98
8 0 6 29.95 4.22
0 8 6 33.83 7.71
8 -8 -6 40.4 8.2
-8 0 6 26.99 7.67
8 0 -6 29.4 5.8
8 0 6 31.31 8.07
-8 8 -6 46.52 7.68
8 0 -6 24.47 5.37
0 -8 -6 25.6 6.76
0 -8 6 39.76 7.62
-8 8 -6 33.58 6.06
-8 8 6 33.08 6.71
-8 0 7 28.12 5.89
-8 8 7 26.17 6.04
-8 0 7 32.08 6.08
0 -8 -7 25.06 3.7
-8 8 -7 31.24 5.41
-8 0 7 27.63 5.49
0 8 -7 30.27 6.92
8 -8 7 33.9 6.67
8 0 7 30.05 4.13
0 8 7 26.27 6.74
8 -8 -7 37.39 8.1
-8 0 7 34.84 8.71
8 0 7 32.72 9.33
8 0 -7 29 6.25
0 -8 7 33.92 7
-8 8 -7 43.73 7.77
8 0 -7 14.93 3.97
0 -8 -7 29.17 7.1
-8 8 -7 29.1 5.81
-8 0 8 28.03 5.98
0 -8 -8 26.05 3.77
-8 8 -8 36.77 5.77
-8 0 8 32.29 6.33
-8 0 8 35.74 6.25
8 -8 8 31.26 6.61
0 8 8 29.92 7.31
8 -8 -8 42.18 8.49
-8 0 8 36.79 8.62
8 0 8 43.3 10.09
8 0 -8 33.97 6.88
-8 8 -8 43.88 8.39
0 -8 8 40.78 7.97
8 0 -8 19.44 5.19
0 -8 -8 19.41 5.8
-8 8 -8 31.32 6.05
-8 8 8 33.23 6.95
0 8 -8 40.99 8.2
-8 0 9 93.61 10.07
-8 0 9 93.44 13.5
-8 8 -9 88.11 9
0 -8 -9 62.68 5.78
8 -8 9 78.37 10.53
0 8 9 75.44 11.69
8 -8 -9 84.24 12.42
-8 0 9 67.61 9.81
8 0 9 96.02 16.13
-8 8 -9 129.67 15.44
8 0 -9 78.27 10.9
8 0 -9 52.09 8.52
0 -8 -9 70.03 11.77
0 -8 9 99.03 12.47
-8 0 9 61.77 9.37
0 8 -9 81.07 11.6
-8 8 9 74.14 10.38
-8 0 10 4.65 2.75
-8 0 10 8.37 2.82
-8 8 10 8.8 3.64
-8 0 10 7.7 3.43
0 8 -10 8.62 3.56
-8 8 -10 7.77 2.75
8 -8 10 6.7 2.63
0 -8 -10 7.26 1.93
0 8 10 4.1 2.14
8 -8 -10 13.2 5.55
0 -8 10 8.05 4.29
8 0 10 2.73 2.73
8 0 -10 0.34 1.54
-8 0 10 6.84 3.22
-8 8 -10 11.82 5.21
8 0 -10 3.18 1.16
0 -8 -10 2.38 0.75
-8 0 11 7.39 2.57
-8 0 11 4.62 2.18
-8 8 11 9.75 3.85
0 8 -11 10.14 4.26
-8 8 -11 7.48 2.42
8 -8 11 8.06 3.71
0 8 11 10.67 4.49
8 -8 -11 12.17 4.74
0 -8 11 10.08 4
8 0 11 9.49 5.28
8 0 -11 3.78 2.99
-8 8 -11 7.86 2.8
8 0 -11 3.73 2.37
0 -8 -11 4.97 3
-8 0 11 9.63 3.52
-8 0 12 0.16 1.11
-8 8 12 1.39 1.66
0 8 -12 1.22 2.01
-8 8 -12 2.07 1.74
8 -8 12 -0.41 1.2
-8 0 12 -1.61 3.9
0 8 12 0.77 2.32
8 -8 -12 1.09 2.58
0 -8 12 2.74 1.84
-8 8 -12 3.07 3.76
8 0 12 -0.77 3.16
8 0 -12 -0.95 2.02
8 0 -12 -2.47 3.2
0 -8 -12 3.32 3.53
-8 0 13 4.2 2.53
-8 8 13 1.48 0.27
0 8 -13 0.63 1.53
-8 8 -13 -0.04 1.19
8 -8 13 0.55 0.66
0 8 13 1.91 1.66
8 -8 -13 1.42 2.27
0 -8 13 -0.09 0.79
8 0 13 2.14 2.14
8 0 -13 -2.02 1.83
-8 8 -13 -3.04 4.28
8 0 -13 3.41 0.94
0 -8 -13 0.16 3.1
-8 0 14 24.09 6.65
-8 8 14 26.54 7.08
8 -8 14 29.39 6.66
0 8 14 19.84 5.91
0 -8 14 33.13 7.97
8 -8 -14 26.2 7.32
8 0 14 37.09 11.59
8 0 -14 18.74 5.88
8 0 -14 14.88 5.2
-8 0 15 -0.55 1.96
-8 8 15 0.39 2.47
0 8 15 2.28 0.8
8 -8 -15 1.35 1.74
8 0 15 2.1 3.51
8 -8 15 0.44 1.31
-8 8 -15 9.08 4.36
8 0 -15 -2.46 3.97
-8 0 16 24.15 7.01
0 8 16 30.3 8.64
8 -8 -16 35.29 8.32
8 -8 16 46.24 9.47
8 0 -16 33.47 7.92
-8 0 17 20.6 6.08
0 8 17 9.35 3.34
-8 0 18 1.42 1.05
-8 8 -18 2.36 2.46
0 8 18 2.12 2.49
-5 -4 0 23.15 4.72
5 4 0 21.55 5.62
4 5 0 21.74 5.29
5 -9 0 24.69 5.32
4 -9 0 16.6 4.94
5 -9 0 20.12 5.62
-4 9 0 16.91 4.75
-5 9 0 22.9 5.66
9 -5 0 24.58 5.59
9 -4 0 24.95 5.24
5 4 0 17.41 3.35
4 -9 0 13.85 3.88
5 -9 0 14.06 3.98
-5 -4 0 21.69 4.69
-4 -5 0 20.74 4.73
-4 9 0 20.59 3.39
-5 9 0 19.85 3.72
-9 4 0 19.21 4.69
-9 5 0 19.99 4.89
-5 -4 -1 42.98 6.29
5 -9 1 53.11 7.26
5 -9 -1 53.19 7.82
4 -9 1 37.81 7.73
-4 9 -1 41.53 7.67
5 -9 -1 37.35 7.5
-5 9 -1 43.66 7.58
-4 9 1 44.52 7.84
4 -9 -1 31.75 7.22
5 -9 1 34.43 7.24
-5 9 1 45.78 7.89
9 -5 1 45.59 7.32
9 -5 -1 50.73 7.7
9 -4 1 40.15 6.44
9 -4 -1 45.02 7.08
5 4 1 33.08 5.3
-5 -4 1 39.29 6.2
4 -9 1 32.2 5.66
4 -9 -1 31.85 6.4
-4 -5 1 44.37 6.96
5 -9 1 28.62 5.56
5 -9 -1 30.53 6.21
-4 9 -1 41.7 4.63
5 4 -1 41.51 7.53
-9 5 1 48.47 10.31
-5 -4 -1 44.35 6.26
-5 9 -1 42.22 5.34
-4 9 1 41.01 4.64
5 4 1 39.9 7.14
-5 9 1 39.95 5.31
-9 4 -1 39.93 6.8
-9 5 -1 40.42 7.09
-4 -5 -1 41.36 6.52
-9 4 1 40.49 7.23
-9 5 1 42.79 7.31
4 5 -1 38.31 7.59
4 5 1 48.75 7.97
-4 -5 -2 5.97 2.65
-9 4 2 8.53 3.2
-9 5 -2 7.2 2.28
-9 5 2 7.13 3.32
5 4 -2 7.93 3.38
5 4 2 8.26 3.16
4 5 -2 8.48 3.58
4 5 2 6.85 3
-4 -5 -2 10.07 3.38
4 -9 2 10.55 3.5
-5 -4 -2 11.51 3.6
4 -9 2 4.53 2
4 5 2 6.56 1.94
4 -9 -2 6.71 2.9
5 -9 2 7.26 3.07
5 -9 -2 8.68 3.62
-4 9 -2 6.95 2.86
-5 9 -2 8 2.89
-4 9 2 6.14 2.5
9 -5 2 9.77 3.19
-5 9 2 7.27 3.43
9 -4 2 7.55 2.57
9 -5 -2 6.56 2.26
9 -4 -2 8.28 2.72
4 5 2 6.84 1.71
5 4 2 1.9 1.53
-4 -5 -2 12.14 3.79
-5 -4 2 6.45 2.79
-4 -5 2 8.18 3.01
4 -9 2 8.07 2.32
4 -9 -2 3.24 1.87
5 -9 2 5.53 2.11
5 -9 -2 5.34 3.03
-9 5 2 5.57 2.65
-5 9 -2 7.61 2.43
-9 4 -2 7.6 2.66
-9 5 -2 7.66 3.5
-5 -4 -2 7.23 2.68
-4 9 2 5.99 2.07
-5 9 2 8 2.4
-5 9 3 11.88 2.99
-9 4 3 11.83 3.95
-9 5 3 11.76 3.89
5 4 -3 15.69 5.45
-5 -4 -3 11.38 3.09
-4 -5 -3 11.69 3.31
4 5 -3 14.29 4.84
5 4 3 13.46 4.18
4 -9 3 14.28 3.93
4 5 3 10.95 3.26
-4 -5 -3 12.95 3.11
-5 -4 -3 12.01 3.3
4 -9 3 7.06 2.82
5 -9 3 10.29 4.02
4 -9 -3 10.45 4.32
5 -9 -3 14.4 4.8
-4 9 -3 12.15 3.61
-5 9 -3 11.76 4
9 -5 3 15.45 4.13
-4 9 3 10.56 3.88
-9 5 -3 12.8 2.33
9 -4 3 14.1 3.52
-5 9 3 16.33 4.84
9 -5 -3 11.62 3.61
9 -4 -3 10.29 3.17
4 5 3 7.8 1.91
5 4 3 9.94 3.25
-5 -4 3 11.73 3.38
-4 -5 3 10.3 3.45
-4 -5 -3 8.78 3.54
4 -9 3 9.67 2.9
5 -9 3 9.28 2.88
4 -9 -3 8.81 3.29
5 -9 -3 5.23 3.05
-5 9 -3 11.27 2.8
-9 4 -3 11.14 4.06
-9 5 -3 13.05 4.05
-9 5 -3 11.31 2.75
-4 9 3 10.33 2.43
-4 9 4 4.08 1.53
-9 4 -4 2.58 1.41
-9 4 4 3.77 2.96
-5 9 4 0.87 0.9
-9 5 4 2.59 2.33
5 4 -4 4.63 2.86
4 -9 4 2.55 1.63
4 5 -4 2.97 2.54
5 4 4 3.91 1.98
-5 -4 -4 3.89 2.23
-4 -5 -4 2.7 1.95
5 -9 4 3.05 2.24
4 -9 4 2.14 1.85
4 5 4 1.27 0.33
-4 -5 -4 4.88 1.63
-5 -4 -4 1.69 2.2
5 -9 4 2 1.96
4 -9 -4 4.29 2.07
5 -9 -4 0.06 1.17
-4 9 -4 3.75 2.38
-5 9 -4 2.78 1.59
-9 5 -4 2.49 0.86
9 -5 4 1.4 2.08
9 -4 4 3.94 1.96
-4 9 4 0.76 0.64
-5 9 4 3.99 3.22
9 -5 -4 2.82 2.06
9 -4 -4 4.4 0.91
4 5 4 1.13 0.73
-5 -4 4 0.83 1.02
5 4 4 2.06 0.88
-4 -5 4 0.54 1.58
-4 -5 -4 3.54 1.19
4 -9 4 2.58 1.6
5 -9 4 3.18 0.97
4 -9 -4 1.26 1.43
5 -9 -4 2.24 1.62
-5 -4 4 2.77 1.76
-9 4 -4 1.38 0.95
-9 5 -4 3.98 2.7
-9 5 -4 2 1.28
5 -9 5 62.26 8.42
4 5 5 53.14 8.05
-4 -5 -5 51.06 6.56
-5 -4 -5 48.19 6.45
-4 9 -5 64.12 9.17
-5 9 -5 52.37 8.1
5 -9 5 44.35 8.34
4 -9 -5 37 7.7
5 -9 -5 47.24 8.71
9 -5 5 54.24 7.72
9 -4 5 52.58 7.46
-4 9 5 58.47 9.54
-5 9 5 55.53 9.05
9 -5 -5 67.83 9.2
9 -4 -5 53.38 8.22
4 5 5 47.15 6.91
5 4 5 37.51 7.64
-5 -4 -5 50.69 8.78
-4 -5 -5 46.63 8.53
-5 -4 5 48.2 7.48
-9 5 -5 52.61 7.03
4 -9 5 49.64 5.82
-4 -5 5 53.76 8.21
5 -9 5 45.34 5.29
-9 4 -5 48.16 6.78
4 -9 -5 32.11 7.56
5 4 -5 56.14 10.25
5 -9 -5 28.25 7.2
-5 -4 5 51.02 5.21
-9 4 -5 52.47 8.28
-9 5 -5 51.19 7.93
4 5 -5 52.17 9.45
5 4 5 54.01 7.76
-9 4 5 50.63 8.3
-4 9 5 49.85 5.6
-9 5 5 53.25 8.6
-5 9 5 52.99 6.52
4 -9 5 60.71 8.43
5 4 -6 15.57 5.03
-9 4 6 20.2 5.27
-9 5 6 19.38 5.33
-4 9 6 16.7 3.21
-5 9 6 19.66 4
4 5 -6 17.54 5.43
5 -9 6 19.09 4.53
5 4 6 22.26 4.88
4 5 6 17.89 4.51
5 -9 6 14.27 4.4
-4 -5 -6 20.71 4.41
-5 -4 -6 23.47 4.79
4 -9 -6 10.27 3.79
-9 4 -6 22.95 7.61
-4 9 -6 17.94 4.79
5 -9 -6 16.59 5.09
-5 9 -6 18.83 4.44
9 -5 6 19.43 4.78
9 -4 6 19.33 4.61
-5 -4 6 16.68 4.54
-4 9 6 19.23 5.49
-5 9 6 19.62 5.63
-4 -5 6 16.85 4.67
9 -5 -6 18.55 4.74
4 5 6 16.38 4.31
9 -4 -6 19.94 4.83
5 4 6 11.81 3.79
-5 -4 -6 16.8 4.94
-4 -5 -6 12.73 3.68
4 -9 6 17.21 3.23
5 -9 6 17.46 3.11
4 -9 -6 8.66 3.79
5 -9 -6 5.17 1.56
-5 -4 6 20.94 3.3
-9 4 -6 20.83 5.4
-9 5 -6 20.76 5.33
-9 5 -6 20.45 4.62
4 -9 6 19.59 4.7
-9 4 -6 17.59 4.25
5 4 -7 21.49 6.68
-9 4 7 22.87 5.95
-9 5 7 21.73 5.64
-5 9 7 20.78 4.18
-4 9 7 20.36 3.81
4 5 -7 27.3 7.31
5 -9 7 23.2 6.01
4 5 7 26.51 5.49
-9 4 -7 29.93 8.69
-4 -5 -7 19.99 3.99
9 -4 7 26.86 5.3
-4 9 -7 26.48 5.83
4 -9 -7 15.05 4.72
-5 -4 -7 22.8 4.61
-5 9 -7 26.72 5.79
5 -9 -7 20.25 5.88
9 -5 7 25.28 5.1
-5 -4 7 22.78 5.6
-4 -5 7 23.09 5.39
-4 9 7 28.84 6.96
9 -5 -7 28.29 6.41
4 5 7 16.63 4.71
9 -4 -7 24.22 5.62
5 4 7 17.16 5.86
-5 -4 -7 21.83 6.1
-4 -5 -7 19.4 5.63
4 -9 -7 12.4 4.89
5 -9 -7 11.7 4.81
4 -9 7 24.51 5.51
-9 4 -7 23.68 5.74
-9 5 -7 22.72 5.43
-9 5 -7 23.08 4.9
5 4 7 26.83 5.38
5 -9 7 30.11 5.79
-9 4 -7 21.69 4.75
5 4 -8 -1.01 2.21
-9 4 8 -2 1.91
-9 5 8 -1.13 2.19
4 5 -8 -0.15 1.12
-5 9 8 0.2 0.31
-4 9 8 0.17 1.15
5 4 8 -0.45 1.18
4 5 8 -0.21 0.57
-4 9 -8 -0.57 1.24
-5 9 -8 -0.31 0.63
4 -9 -8 0.75 0.83
-4 -5 -8 -0.46 1.02
-5 -4 -8 -0.74 1.09
5 -9 -8 -0.36 0.25
-5 -4 8 -0.45 1.51
9 -5 8 2.56 1.97
9 -4 8 0.64 1.32
-9 4 -8 5.5 3.62
-4 -5 8 2.25 2.16
-4 9 8 0.06 1.07
9 -5 -8 -0.15 1.73
4 5 8 -0.07 1.83
5 4 8 -1.33 0.76
9 -4 -8 3.39 2.65
-5 -4 -8 -0.43 0.59
-4 -5 -8 0.98 1.62
4 -9 -8 -0.85 2.57
5 -9 -8 -3.03 2.24
4 -9 8 1.96 1.6
-9 4 -8 1.07 1.58
-9 5 -8 0.56 1.34
-9 5 -8 0.06 0.48
-9 4 -8 1.13 1.73
5 -9 8 -1.15 1.45
4 5 -9 11.58 4.46
-9 4 9 13.45 4.55
-9 5 9 9.03 3.65
-5 9 9 11.37 3.45
-4 9 9 8.98 2.96
-4 9 -9 9.42 3.64
4 5 9 12.3 3.98
-5 9 -9 10.5 3.41
4 -9 -9 6.14 2.76
-5 -4 9 10.2 3.88
-4 -5 -9 9.77 2.82
5 -9 -9 8.69 3.67
9 -5 9 10.79 3.65
9 -4 9 7.91 2.71
-4 -5 9 8.54 3.13
-9 4 -9 12.95 5.36
9 -5 -9 9.55 3.48
4 5 9 7.64 3.2
5 4 9 7.43 4.37
9 -4 -9 9.53 3.54
-5 -4 -9 11.54 4.63
-4 -5 -9 8.55 3.94
4 -9 9 11.26 3.75
4 -9 -9 1.65 2.47
5 -9 -9 2.44 2.24
-9 4 -9 8.62 3.83
-9 5 -9 7.67 3.34
5 -9 9 12.38 3.81
-9 5 -9 7.26 2.47
-9 4 -9 9.04 3.42
5 4 -9 11.49 4.54
-4 9 10 33.17 5.63
4 5 -10 35.14 8.67
-4 9 -10 36.49 7.07
-9 4 10 29.53 6.77
-9 5 10 30.39 7.06
-5 9 -10 38.8 7.27
-5 9 10 29.7 5.77
4 5 10 42.12 7.16
9 -4 10 37.98 5.96
-5 -4 10 33.88 7.43
4 -9 -10 22.24 5.87
-9 5 -10 55.74 11.25
9 -5 10 31.93 5.64
5 -9 -10 28.74 7.11
-4 -5 10 36.69 7.69
-9 4 -10 52.83 11.38
9 -5 -10 35.43 7.31
4 5 10 26.97 6.98
5 4 10 29.78 8.28
9 -4 -10 29.8 6.66
-9 5 -10 37.49 7.15
-5 -4 -10 28.94 7.18
-4 -5 -10 33.02 7.74
4 -9 10 43.43 7.2
4 -9 -10 14.06 5.02
5 -9 -10 6.33 3.63
5 -9 10 39.59 6.92
-9 4 -10 34.72 6.74
5 4 -10 32.71 9.19
-5 9 11 37.17 6.61
-4 9 11 42.87 6.72
-4 9 -11 52.5 8.66
-5 9 -11 45.08 7.63
4 5 11 48.3 7.27
9 -5 11 49.69 7.24
9 -4 11 51.15 6.72
5 -9 -11 39.37 8.71
4 -9 -11 27.04 6.5
-9 5 -11 74.81 13.06
9 -4 -11 46.87 8.11
5 4 11 52.59 11.54
-5 -4 11 54.77 9.64
4 5 11 33.19 8.24
9 -5 -11 40.13 7.9
-4 -5 11 56.73 9.86
-9 4 -11 67.2 12.4
-9 5 -11 41.9 8.29
-5 -4 -11 46.13 9.56
-9 4 -11 57.76 8.88
-4 -5 -11 41.87 8.86
4 -9 11 56.18 8.59
4 5 -11 51.5 10.94
4 -9 -11 18.15 6.24
5 -9 11 58.73 8.55
5 4 -11 45.36 10.31
-9 4 11 45.73 9.18
-9 5 11 43.62 8.66
-9 4 -12 5.94 4.19
4 5 -12 3.59 3.46
-9 4 12 3.16 1.99
-9 5 12 4.32 3.01
-5 9 12 3.44 1.6
-4 9 12 4.34 2.28
-4 9 -12 -1.18 2.04
-5 9 -12 0.99 1.77
-5 -4 12 1.67 2.34
-4 -5 12 3.28 2.75
9 -5 12 4.09 1.37
9 -4 12 3.24 1.59
4 -9 -12 4.37 1.71
-9 4 12 4.04 1.61
5 -9 -12 1.07 1.87
-9 5 -12 1.22 2.59
4 5 12 0.88 1.98
9 -5 -12 5.59 3.08
5 4 12 1.79 2.3
9 -4 -12 1.13 1.05
4 -9 12 1.5 0.55
9 -4 12 3.95 2.33
4 -9 12 3.95 2.71
-5 -4 -12 3.55 2.1
-4 -5 -12 0.27 1.63
5 -9 12 1.86 1.01
4 -9 -12 1.56 2.31
5 -9 -12 2.27 3.14
-9 5 -12 0.19 1.81
-9 4 -12 3.1 2.7
5 4 -12 2.05 3.36
4 5 -13 1.58 2.35
-9 4 13 0.99 2.17
-9 5 13 3.95 2.35
-5 9 13 1.75 1.76
-4 9 13 -1.48 0.23
-9 4 -13 1.94 2.18
-4 9 -13 -1.21 0.52
-5 9 -13 0.8 1.44
-5 -4 13 -2.18 3.05
-4 -5 13 3.85 2.6
9 -5 13 0.24 0.09
9 -4 13 1.27 1.09
4 -9 -13 0.78 1.26
5 -9 -13 -0.86 1.39
4 5 13 -0.53 3.23
5 4 13 4.65 3.43
9 -5 -13 1.96 1.6
9 -4 -13 -2.62 2.06
-9 5 -13 1.92 1.85
9 -4 13 0.31 1.41
9 -5 13 1.41 1.3
4 -9 13 0.82 1.21
5 -9 13 0.09 1.02
-5 -4 -13 0.16 1.89
-4 -5 -13 0.96 0.99
4 -9 -13 1.08 0.77
5 -9 -13 1.02 2.14
-9 5 -13 1.16 1.91
-9 4 -13 0.46 1.6
5 4 -13 -0.9 2.54
-9 5 14 3.43 1.06
-5 9 14 2.94 1.25
-4 9 14 2.74 2.49
-4 9 -14 3.24 1.84
-5 9 -14 3.01 1.24
-5 -4 14 7.57 3.99
-4 -5 14 5.56 3.4
9 -5 14 5.45 2.51
4 -9 -14 1.05 1.41
5 -9 -14 5.6 3.05
-9 4 -14 4.32 3.55
4 5 14 3.65 2.52
5 4 14 2.81 3.12
9 -5 -14 1.53 1.91
9 -4 -14 3.81 1.52
9 -4 14 7.5 3.24
4 -9 14 5.76 2.77
5 -9 14 2.42 0.71
9 -5 14 3.32 3.22
5 -9 14 5.74 2.54
-5 -4 -14 6.77 3.91
-4 -5 -14 4.13 3.78
-9 5 -14 9.88 4.54
4 -9 -14 2.87 3.98
5 -9 -14 -2.05 2.17
-9 5 -14 4.58 2.92
-9 4 -14 1.97 1.23
5 4 -14 0.85 2.85
4 5 -14 8.15 5.37
-9 5 -15 45.45 9.98
-9 4 15 19.7 6.33
-5 9 15 17.34 4.74
-4 9 15 23.38 5.8
-4 9 -15 23.83 6.03
-5 9 -15 20.36 5.83
-5 -4 15 27.44 7.78
-4 -5 15 31.55 8.13
9 -5 15 20.68 4.36
4 -9 -15 18.6 6.01
5 -9 -15 14.54 5.14
4 5 15 26.51 8.59
5 4 15 25.41 8.78
4 -9 15 25.59 6.48
5 -9 15 24.83 5.94
5 -9 15 31.59 6.63
-5 -4 -15 22.78 7.16
-9 4 -15 37.84 9.84
-4 -5 -15 23.79 7.5
4 -9 -15 7.72 3.64
5 -9 -15 13.32 7.78
-9 5 -15 26.03 6.78
-9 4 -15 20.89 6.39
5 4 -15 29.88 9.17
4 5 -15 22.67 6.98
-5 9 16 3.55 1.17
-4 9 -16 -0.98 0.98
-4 9 16 -1.23 2.69
-5 9 -16 -0.77 1.32
-9 4 -16 5.74 4.54
-5 -4 16 1.21 1.69
-9 5 -16 0.22 1.93
5 -9 -16 3.32 3.03
4 5 16 2.37 3.82
5 4 16 3.99 4.31
4 -9 16 -0.06 0.67
5 -9 16 3.12 2.66
5 4 -16 2.87 2.72
-5 9 -17 8.21 3.89
-5 9 17 6.02 3.68
-4 9 17 1.06 1.47
5 -9 -17 0.14 2
-9 5 -17 17.67 6.64
4 5 17 11.64 5.85
4 -9 17 7.23 1.95
5 4 17 9.78 5.44
5 -9 17 11.45 4.23
-5 9 -18 4.44 2.5
-5 9 18 -2.56 2.49
-4 9 18 2.74 3.08
4 -9 18 3.01 2.55
4 5 18 -4.47 4.66
5 4 18 4.9 3.16
5 -9 18 -0.35 2.01
-5 9 19 -1.97 2.57
5 -9 19 -1.97 2.75
3 6 0 30.46 6.33
-6 -3 0 28.71 5.22
-9 3 0 37.26 10.01
-6 9 0 30.52 6.3
6 -9 0 21.91 5.8
-3 9 0 26.71 6.14
9 -6 0 31.83 6.31
9 -3 0 26.17 5.08
6 3 0 15.63 4.84
-9 6 0 23.72 3.53
-3 -6 0 24.55 5.8
3 -9 0 21.6 4.81
-6 -3 0 23.64 4.45
6 -9 0 16.51 5.24
-3 -6 0 25.03 5.34
-6 9 0 24.52 4.52
-9 3 0 26.06 5.54
-9 6 0 25.39 5.64
6 3 0 22.32 5.76
-9 6 1 -0.22 0.41
6 3 1 -1.1 1.49
3 -9 1 -1.65 1.75
3 6 -1 -2.85 3.11
3 -9 -1 -0.26 0.69
-6 -3 1 1.35 1.2
3 6 1 0.49 1.54
-9 3 -1 -3.03 3.47
-6 -3 -1 2.51 2.32
6 -9 1 0.56 1.15
6 -9 -1 1.16 1.95
-3 9 -1 0.17 1.01
-3 9 1 1.8 1.91
-6 9 -1 1.22 0.81
9 -6 1 0.17 0.6
-6 9 1 -0.04 1.38
9 -6 -1 -0.85 1.62
9 -3 1 -0.5 0.7
9 -3 -1 -0.06 0.44
6 3 -1 0.03 1.33
6 3 1 -0.61 2.26
-3 -6 1 0.66 1.37
-6 -3 1 0.3 0.74
-3 -6 -1 0.65 0.5
3 -9 1 1.52 0.8
3 -9 -1 -0.23 1.29
-3 -6 1 -1.05 0.39
6 -9 1 1.16 1.47
6 -9 -1 1.74 2.62
-6 -3 -1 1.95 0.92
-6 -3 1 1.38 1.24
-6 9 -1 0.4 0.97
-9 3 -1 1.51 1.81
-3 -6 -1 3.7 2.6
-9 6 -1 -0.09 0.1
-9 6 -1 3.02 2.39
-6 9 1 0.71 1.27
-9 3 1 -0.03 2.07
6 3 -1 -0.51 1.05
-6 9 2 7.8 2.47
6 3 2 6.88 3.55
-9 6 2 6.94 2.72
-3 -6 -2 5.02 2.33
3 -9 2 8.55 3.25
3 6 -2 7.71 3.54
-6 -3 2 7.29 2.58
3 6 2 7.7 3.58
3 -9 -2 6.35 3.14
-6 -3 -2 7.2 2.8
-9 3 -2 6.8 3.71
6 -9 2 9.95 4.32
6 -9 -2 9.13 4
-3 9 -2 10.61 3.6
-6 9 -2 6.27 2.17
-3 9 2 6.43 2.75
9 -6 2 8.63 3.1
-6 9 2 9.01 3.75
9 -6 -2 9.7 3.75
-9 6 -2 6.91 2.06
9 -3 2 6.62 2.68
9 -3 -2 6.27 2.76
6 3 2 1.91 1.14
-6 -3 2 5.05 1.84
6 3 2 5.51 2
-3 -6 -2 6.71 3
-3 -6 2 6.71 2.74
3 -9 2 7.17 2.59
3 -9 -2 4.9 2.52
6 -9 2 5.4 1.85
6 -9 -2 3.18 1.41
-6 -3 2 6.66 2.23
-6 9 -2 7.92 2.56
-9 6 -2 9.44 2.56
-6 -3 -2 7.13 2.34
-9 3 -2 6.37 3.12
-9 6 -2 6.9 2.4
6 3 -2 4.59 2.57
-9 3 2 7.18 3.31
-9 3 3 0.28 1.09
6 3 3 0.93 0.92
-6 9 3 -0.05 0.61
-9 6 3 2.24 1.87
-3 -6 -3 2.26 1.49
-6 -3 -3 0.99 1.4
3 -9 3 3.14 2.89
-9 3 3 1.37 0.86
-3 -6 -3 1.89 1.65
3 6 -3 -0.14 0.88
3 6 3 1.44 0.52
3 -9 -3 -1.65 2.32
-6 -3 -3 1.91 1.71
6 -9 3 2.06 2.41
6 -9 -3 -0.64 1.13
-3 9 -3 2.43 2.52
-9 3 -3 1.86 2.57
-6 9 -3 4.28 2.9
9 -6 3 0.82 0.44
-3 9 3 4.43 2.84
-9 6 -3 2.93 1.66
-6 9 3 1.69 0.79
9 -3 3 1.38 1.7
9 -3 -3 1.9 1.01
-6 -3 3 3.88 2.19
6 3 3 -1.79 1.3
6 3 3 1.53 1.19
-3 -6 3 2.28 2.03
-3 -6 -3 5.93 3.64
3 -9 3 2.76 1.17
3 -9 -3 1.18 1.24
6 -9 3 -1.08 1.94
6 -9 -3 -0.46 2.38
-6 -3 3 2.14 1.67
-6 9 -3 1.52 1.54
-9 6 -3 1.31 1.01
-9 3 -3 2.09 2.51
-9 6 -3 2.93 2.49
6 3 -3 0.2 1.69
-6 -3 -4 53.8 6.38
-3 -6 -4 52.32 7.57
-3 -6 -4 45.91 6.17
3 6 4 58.02 8.89
-6 -3 -4 56.23 7.38
-3 9 -4 51.14 8.3
3 -9 -4 36.19 7.65
-6 9 -4 56.64 8.18
6 -9 4 49.88 8.61
6 -9 -4 56.66 9.65
-9 6 -4 57.07 5.76
-3 9 4 54.82 9.18
9 -6 4 57.12 8.34
9 -3 4 54.65 7.28
9 -6 -4 64.27 9.31
-6 9 4 60.99 9.45
9 -3 -4 55.06 7.93
-9 3 -4 80.08 14.5
6 3 4 47.6 5.41
6 3 4 34.37 8.68
-9 6 -4 54.37 6.7
-3 -6 -4 52.69 8.97
-6 -3 4 49.35 7.18
3 -9 4 45.93 6.13
6 -9 4 42.89 6.2
-3 -6 4 53.53 8.25
6 3 -4 45.68 9.12
3 -9 -4 33.5 6.92
6 3 4 38.94 6.63
6 -9 -4 34.93 8.6
-6 9 -4 50.66 6.61
-9 3 -4 48.33 7.65
-6 -3 4 51.88 6.19
-9 6 -4 51.17 7.91
-9 3 4 58.17 8.8
-6 9 4 49.3 6.7
-9 6 4 47.43 7.84
3 6 -4 54.33 9.24
3 -9 4 54.99 8.19
6 3 5 1.85 1.72
-9 3 5 4.53 3.53
-9 6 5 3.49 3.34
-6 9 5 2.99 1.75
3 6 -5 1.09 0.71
-3 -6 -5 4.61 2.22
3 -9 -5 1.23 1.62
3 6 5 6.28 3.37
6 -9 5 2.04 2.52
-6 -3 -5 7.82 3.52
-3 9 -5 5.05 3.21
6 -9 -5 3.64 2.4
-6 9 -5 4.1 2.35
-9 6 -5 2.13 0.86
9 -6 5 3.7 2.15
-3 9 5 7.07 3.74
-6 -3 5 5.34 2.56
9 -3 5 5.9 2.63
9 -6 -5 -0.75 1.86
-6 9 5 4.17 3.03
3 6 5 -1.96 1.51
-9 3 -5 2.4 1.05
9 -3 -5 5.92 2.51
6 3 5 1.99 1.47
6 3 5 3.69 1.36
-3 -6 5 2.28 2.44
-3 -6 -5 8.88 4.7
3 -9 5 4.5 2.15
3 -9 -5 3.42 2.89
6 -9 5 4.57 2.07
6 -9 -5 -0.15 2.67
-6 9 -5 3.11 2.97
-9 6 -5 3.15 2.01
-9 3 -5 3.59 2.84
-9 6 -5 2 2.79
3 -9 5 6.7 3.53
-6 -3 5 2.5 2.19
6 3 -5 1.68 3.07
-3 -6 -6 117.22 9.64
3 6 6 149.42 14.46
-3 9 -6 138.68 14.17
-9 6 -6 148.13 8.67
-6 -3 -6 138.14 11.6
-6 9 -6 138.68 12.64
-9 3 6 168.36 13.02
3 -9 -6 87.68 11.73
6 -9 6 120.51 13.8
6 -9 -6 138.11 15.46
9 -6 6 145.7 13.49
-3 9 6 132.85 14.76
9 -3 6 140.64 11.63
9 -6 -6 161.09 15.2
3 6 6 130.83 11.47
9 -3 -6 133.57 13.02
6 3 6 107.91 16.77
-9 3 -6 191.84 22.35
-6 -3 6 131.01 12.91
-9 6 -6 137.5 12.02
-3 -6 -6 117.08 13.99
3 -9 6 112.22 8.57
-3 -6 6 136.59 13.88
3 -9 -6 80.9 11.87
6 -9 6 121.45 8.81
6 -9 -6 69.34 13.74
6 3 -6 102.44 14.85
-9 3 -6 131.15 13.22
-9 6 -6 136.05 13.14
3 -9 6 151.65 14.02
-6 -3 6 126.41 10.12
3 6 -6 125.06 14.76
-9 3 6 127.19 13.6
-9 6 6 136.97 13.98
-6 9 6 122.89 11.02
-9 3 -7 1.36 1.1
-9 3 7 2.98 3.52
-9 6 7 1.41 1.46
-6 9 7 3.47 2.46
3 6 -7 2.09 2.16
6 -9 7 0.69 0.83
6 -9 7 0.42 2.46
3 -9 -7 -0.09 0.76
-3 -6 -7 6.11 2.81
-3 9 -7 1.88 2.21
3 6 7 0.39 0.9
-6 9 -7 2.56 1.64
-9 3 7 5.05 2.51
-6 -3 -7 9.38 3.64
-6 -3 7 0.78 0.25
6 -9 -7 2.59 3.09
9 -6 7 2.62 2.09
9 -3 7 0.9 0.99
-3 9 7 2.54 2.46
9 -6 -7 0.9 1.23
3 6 7 2.69 1.77
-3 -6 7 2.67 1.65
9 -3 -7 1.37 1.78
6 3 7 2.18 2.62
3 -9 7 1.72 1.4
-3 -6 -7 1.01 1.35
-9 3 -7 -2.76 4.22
3 -9 -7 0.44 1.88
3 -9 7 2.65 2.71
6 -9 -7 -1.11 3.13
-9 6 -7 1.06 0.95
-9 3 -7 0.62 1.17
-9 6 -7 1.26 1.37
6 3 -7 -2.81 3.61
-6 -3 7 2.4 1.82
-6 -3 8 0.21 0.87
-9 3 -8 -0.35 0.87
-9 3 8 1.94 2
-9 6 8 0.54 1.54
-6 9 8 -0.49 0.64
3 6 -8 -0.19 1.54
6 -9 8 -0.47 1.41
-3 9 -8 0.84 1.57
6 -9 8 0.76 1.56
3 -9 -8 -0.17 0.87
-3 -6 -8 -0.69 0.93
-6 9 -8 2.02 1.96
-6 -3 8 1.36 2.13
3 6 8 4.14 2.56
-9 3 8 -1.15 0.52
9 -6 8 2.27 1.1
6 -9 -8 4.68 3.29
9 -3 8 1.43 1.13
-3 9 8 -0.3 1.47
-3 -6 8 0.2 0.37
9 -6 -8 -1.61 1.79
3 6 8 3.94 1.96
6 3 8 4.41 3.95
9 -3 -8 -0.05 1.43
-3 -6 -8 0.55 0.84
3 -9 8 -0.8 1.47
3 -9 -8 1.39 2.43
6 -9 -8 0.2 2.77
-9 6 -8 0.48 0.67
-9 3 -8 0.42 1.19
-9 6 -8 1.4 1.51
6 3 -8 0.22 1.21
-9 3 -8 4.58 3.35
-9 3 -9 0.67 0.83
-6 -3 9 -0.18 1.43
6 -9 9 1.15 1.6
-9 3 9 2.52 2.79
-9 6 9 3.21 2.87
-6 9 9 0.32 1.37
3 6 -9 0.47 1.43
-9 3 -9 -0.86 1.16
-3 9 -9 -3.02 2.71
6 -9 9 -0.65 1.01
3 -9 -9 0.96 1.79
-6 -3 9 -0.14 0.8
-6 9 -9 1.32 0.78
-9 3 9 1.23 1.38
-3 -6 -9 0.01 0.73
3 6 9 -0.4 0.96
9 -6 9 -0.9 1.56
6 -9 -9 2.38 1.14
9 -3 9 2.77 1.62
-3 -6 9 0.45 0.82
-3 9 9 1.17 2.29
9 -6 -9 2.52 1.77
3 6 9 1.84 1.71
6 3 9 1.81 3.36
9 -3 -9 1.96 2.17
3 -9 9 0.93 1.51
-3 -6 -9 -0.18 0.85
3 -9 -9 -1.42 2
6 -9 -9 5.85 4.08
-9 6 -9 -0.64 0.84
-9 6 -9 0.1 1.53
6 3 -9 -0.9 1.87
-6 9 10 35.5 6.59
-3 9 -10 34.14 7.22
-6 9 -10 40.28 7.07
-9 3 10 42.57 6.37
3 6 10 42.8 7.82
-3 -6 -10 28.66 4.9
6 -9 10 32.59 7.3
9 -6 10 37.34 6.67
-6 -3 10 31.61 7.15
9 -3 10 37.67 5.63
3 -9 -10 23.11 6.05
-3 9 10 45.32 9.36
6 -9 -10 40.35 8.63
9 -6 -10 40.1 7.97
3 6 10 33.56 7.09
6 3 10 48.1 12.12
9 -3 -10 34.84 7.12
-3 -6 10 39.07 8.04
9 -3 10 36.06 9.28
-6 -3 -10 37.39 8.01
-9 3 -10 45.51 7.69
-3 -6 -10 34.23 8.12
3 -9 10 53.31 8.74
-9 3 -10 58.28 12.09
3 -9 -10 18.1 6.17
6 -9 -10 14.68 6.89
-9 6 -10 39.96 7.61
3 6 -10 45.62 9.46
6 3 -10 32.63 9.05
6 -9 10 47.12 7.03
-6 -3 10 35.5 5.88
-9 3 10 36.45 7.87
-9 6 10 37.92 8.22
-6 -3 11 2.8 1.51
-9 3 11 4.94 2.27
3 6 -11 -0.53 1.97
-9 6 11 3.64 3.13
-6 9 11 2.62 2.08
-3 9 -11 4.49 2.61
-6 -3 11 0.56 2.31
-6 9 -11 3.36 1.69
3 -9 -11 2.19 0.74
-9 3 11 4.87 2.58
9 -6 11 3.03 1.64
9 -3 11 0.51 0.68
3 6 11 3.22 2.37
6 -9 -11 3.5 2.56
-3 -6 11 4.03 3.05
-3 9 11 3.25 3.35
9 -6 -11 2.13 2.22
-9 3 -11 -0.6 3.82
3 6 11 0.23 0.7
6 3 11 0.38 3.56
9 -3 -11 2.67 1.04
9 -3 11 4.11 3.25
-6 -3 -11 -0.8 3.21
3 -9 11 1.58 2.56
-3 -6 -11 2.35 2.9
3 -9 -11 -1.86 3.68
6 -9 -11 -4.41 5.24
-9 6 -11 4.71 1.82
6 3 -11 -0.64 3.61
6 -9 11 3.97 1.74
-9 3 -11 1.78 1.1
3 6 -12 1.78 0.83
-9 3 12 5.98 3.53
-9 6 12 2.68 2.28
-6 9 12 1.25 0.84
-3 9 -12 3.24 1.77
-6 -3 12 7.53 3.41
-6 9 -12 0.68 1.31
-9 6 -12 7.84 3.27
-9 3 12 6.31 2.49
3 -9 -12 1.1 1.9
9 -6 12 3.05 2.13
-3 -6 12 3.84 3.34
3 6 12 1.81 0.76
6 -9 -12 0.6 2.18
9 -6 -12 3.45 2.64
3 6 12 2.04 1.66
6 3 12 3.69 1.72
9 -3 -12 3.85 2.15
9 -3 12 0.25 1.81
3 -9 12 6.76 3.29
-6 -3 -12 -0.13 1.56
-3 -6 -12 0.57 0.79
3 -9 -12 3.99 3.82
-9 3 -12 6.37 4.51
6 -9 -12 0.86 3.28
-9 6 -12 2.41 1.97
6 -9 12 3.73 2.23
6 3 -12 3.79 3.44
-9 3 -12 4.7 2.24
3 6 -13 4.3 2.61
-9 3 13 3.59 2.61
-9 6 13 1.57 2.24
-6 9 13 3.68 3.08
-3 9 -13 -0.42 2.46
-6 -3 13 3.25 1.96
-6 9 -13 1.97 1.64
-9 3 -13 3.08 3.04
-9 6 -13 7.51 4.22
-9 3 13 3.42 1.73
3 -9 -13 -0.42 1.04
9 -6 13 3.03 2.12
-3 -6 13 3.1 2.28
3 6 13 3.29 2.18
6 -9 -13 3.43 2.4
9 -6 -13 0.78 1.23
3 6 13 0.05 3.43
6 3 13 3.17 2.04
9 -3 -13 3.01 1.12
3 -9 13 3.78 2.45
9 -3 13 -2.87 4
-6 -3 -13 5.64 3.43
-3 -6 -13 1.88 0.79
3 -9 -13 2.7 2.47
6 -9 13 2.72 1.75
6 -9 -13 -1.85 1.69
-9 6 -13 3.43 2.34
6 3 -13 1.92 2.09
-9 3 -13 3.04 2.28
3 6 -14 7.55 4.38
-9 3 14 7.79 4.37
-9 6 14 6.79 3.49
-6 9 14 7.98 3.58
-3 9 -14 9.27 3.84
-6 9 -14 9.99 3.88
-6 -3 14 11.17 3.66
-9 3 14 8.34 2.36
9 -6 14 8.16 2.53
-3 -6 14 11.16 4.44
-9 6 -14 14.26 5.44
6 -9 -14 6.92 3.41
3 6 14 6.57 3.98
9 -6 -14 4.66 2.96
6 3 14 14.18 6.58
3 -9 14 11.17 4.11
9 -3 -14 6.01 3.05
-9 3 -14 15 6.16
9 -3 14 5.64 2.27
9 -6 14 10.18 4.62
-6 -3 -14 8.41 2.32
-3 -6 -14 5.89 2.08
6 -9 14 13.77 4.26
3 -9 -14 -1.06 1.74
-9 6 -14 12.13 4.54
6 -9 -14 1.6 3.88
6 3 -14 7.51 3.9
-9 3 -14 6.32 2.63
-9 3 15 -0.36 1.04
-6 9 15 -0.84 2.38
-3 9 -15 -1.01 1.25
-6 9 -15 0.32 0.59
-6 -3 15 4.26 3.38
9 -6 15 0.77 0.52
6 -9 -15 0.75 1.55
-9 6 -15 3.43 2.83
3 6 15 -4.04 4.74
3 -9 15 0.18 1.22
6 3 15 -6.08 4.56
6 -9 15 2.83 2.5
-6 -3 -15 0.48 1.19
6 -9 15 1.86 1.85
-9 6 -15 0.25 1.42
6 3 -15 1.05 3.36
-6 9 16 22.25 6.69
-6 9 -16 26.14 5.86
-6 -3 16 36.22 8.76
9 -6 16 30.79 6.23
6 -9 -16 24.67 7.08
3 6 16 27.19 8.75
3 -9 16 42.23 8.66
6 3 16 48.71 13.35
-9 6 -16 64.14 11.58
6 -9 16 33.06 6.95
6 -9 16 37.17 6.74
6 3 -16 31.48 9.13
-6 9 -17 4.72 2.47
-6 9 17 0.89 0.75
6 -9 -17 -1.32 0.81
3 6 17 -0.61 1.67
6 -9 17 3.99 2.66
-9 6 -17 3.51 2.92
-6 9 -18 5.74 1.74
-6 9 18 13.09 5.29
6 -9 -18 5.42 3.13
3 6 18 7.31 4.67
6 -9 18 7.6 3.56
-6 9 -19 2.34 2.43
2 -9 0 17.57 4.94
2 7 0 18.56 5.51
-7 -2 0 23.86 5.14
7 -9 0 21.33 5.8
-2 9 0 15.29 4.85
9 -7 0 19.21 5.23
-7 9 0 17.86 4.62
9 -2 0 18.97 4.26
7 2 0 20.23 5.79
7 2 0 15.49 3.73
-9 2 0 19.77 6.92
-2 -7 0 19.54 5.22
-7 -2 0 17.59 3.67
2 -9 0 16.07 4.55
7 2 0 6.48 3.48
-7 -2 0 16.59 4.28
-9 7 0 16.46 2.98
-9 2 0 16.24 5.35
-2 -7 0 20.95 5.43
-7 9 0 18.67 4.27
-9 7 0 18.79 5.12
2 -9 1 60.03 8.63
2 7 -1 50.73 9.1
2 7 1 52.69 8.76
-7 -2 1 55.41 7.59
-7 -2 -1 59.81 7.85
-2 9 -1 54.19 8.95
-2 9 1 51.84 8.9
7 -9 1 50.84 8.94
7 -9 -1 48.83 8.84
-7 9 -1 56.19 8.03
9 -7 1 71.78 10.26
9 -7 -1 61.23 9.69
-7 9 1 62.59 8.84
-9 7 -1 52.95 6.62
9 -2 1 48.33 6.95
9 -2 -1 49.6 7.11
7 2 1 48.03 9.52
7 2 -1 53.4 9.31
7 2 1 43.39 6.09
7 2 -1 56.95 7.7
-9 2 -1 62.01 12.94
-9 2 1 56.44 12.25
-2 -7 1 43.9 7.34
-2 -7 -1 45.32 8.17
-9 7 -1 46.29 5.47
2 -9 1 46.35 7.17
2 -9 -1 41.43 7.22
-9 7 1 49.28 4.89
-7 -2 1 48.86 6.24
-7 -2 -1 46.59 6.8
-7 -2 -1 51.22 6.1
-7 -2 1 48.8 6.76
7 2 1 29.09 6.34
7 2 -1 24.35 6.4
-9 2 -1 46.96 7.82
-7 9 -1 45.82 6.54
-2 -7 1 54.68 8.56
-9 2 1 52.32 8.27
-9 7 -1 52.16 7.82
-7 9 1 49.46 6.96
-9 7 1 52.35 8.26
-2 -7 -1 51.67 8.01
-7 9 2 3.89 1.69
-9 7 2 1.6 2.2
2 -9 2 2.55 1.78
-2 -7 -2 4.97 2.91
2 7 -2 0.63 0.29
-7 -2 2 1.58 0.48
2 7 2 4.2 2.73
-7 -2 -2 5.11 3.22
7 -9 2 3.74 2.22
-2 9 -2 3 2.28
7 -9 -2 0.95 1.22
-2 9 2 3.98 1.79
9 -7 2 4.99 1.87
-7 9 -2 1.86 2.26
9 -7 -2 4.08 1.59
-9 7 -2 2.48 1.24
-7 9 2 3.34 2.47
9 -2 2 1.43 1.46
9 -2 -2 2.16 1.9
-9 2 2 4.6 3.5
-7 -2 2 1.94 1.19
7 2 2 2.86 3.67
7 2 2 3.38 1.8
7 2 -2 0.08 0.43
7 2 -2 3.02 1.65
-2 -7 2 3.66 2.23
-2 -7 -2 3.09 2.75
2 -9 2 3.55 1.88
2 -9 -2 0.79 1.7
-2 -7 2 1.76 1.23
7 2 -2 -0.08 0.46
-9 7 -2 2.35 1.2
-7 -2 2 5.44 2.54
-9 2 -2 1.78 1.9
-9 2 -2 4.89 3.12
-7 9 -2 4.42 2.06
-9 7 -2 1.05 0.33
-9 2 2 2.82 2.79
-7 -2 -2 3.9 1.81
-7 9 3 3.99 2.07
-9 7 3 3.03 2.65
2 -9 3 2.18 0.97
-9 2 -3 -0.28 0.94
-7 -2 -3 2.46 1.3
-2 -7 -3 3.12 2.02
2 7 -3 2.55 2.28
-7 -2 3 4 1.95
2 7 3 1.58 1.48
-7 -2 -3 3.73 2.35
7 -9 3 1.53 1.52
-2 9 -3 -0.75 2.56
-9 2 3 2.65 1.74
7 -9 -3 1.2 0.57
9 -7 3 2.58 1.49
-2 9 3 3.17 2.2
-7 9 -3 3.25 1.89
-9 7 -3 3.32 1.56
9 -7 -3 2.2 1.77
-7 9 3 3.34 2.74
9 -2 3 4.28 1.93
-7 -2 3 1.87 1.19
-9 2 3 3.78 2.88
9 -2 -3 2.84 1.6
7 2 3 1.58 0.67
7 2 3 1.98 2.05
7 2 -3 1.04 1.52
-2 -7 -3 3.83 2.6
2 -9 3 3.06 1.71
-2 -7 3 3.21 2.14
2 -9 -3 4.42 2.37
7 -9 3 2.25 1.91
7 2 -3 1.83 1.42
-9 7 -3 2.62 1.45
-9 2 -3 1.81 1.78
-7 9 -3 2.02 1.45
-7 -2 3 2.22 1.44
-9 7 -3 2.52 2.1
-9 2 3 2.36 2.64
-9 2 4 18.23 4.9
-7 9 4 18.27 4.44
-9 7 4 21.03 5.38
-2 -7 -4 16.21 3.5
-9 2 -4 24.69 8.01
2 7 -4 23.23 6.17
-7 -2 4 18.21 4.68
2 7 4 17.18 5.22
-2 9 -4 19.24 5.42
7 -9 4 19.2 5.29
-7 -2 -4 21.95 4.82
-9 2 4 24.6 5.09
7 -9 -4 19.14 5.4
9 -7 4 18.68 4.84
-7 9 -4 18.04 4.56
-2 9 4 16.76 5.18
-9 7 -4 22 3.96
9 -7 -4 23.98 5.85
-7 -2 4 17.22 4.07
-9 2 4 20.57 7.7
9 -2 4 16.82 3.95
-7 9 4 21.65 5.63
9 -2 -4 17.21 4.6
7 2 4 17.08 3.13
7 2 4 20.31 7.14
7 2 -4 11.06 3.1
-2 -7 4 20.14 5.37
-2 -7 -4 16.49 4.98
2 -9 4 17.98 4.3
2 -9 -4 11.24 4
7 -9 4 20.49 4.72
-9 7 -4 20.54 4.18
7 2 -4 14.9 5.98
-7 9 -4 17.38 4.29
-9 2 -4 18.72 4.82
-9 7 -4 18.79 5.06
-7 -2 4 17.38 4.1
2 -9 4 20.26 5.43
-7 -2 5 41.94 6.87
-2 -7 -5 37.3 5.26
-2 9 -5 45.64 8.39
2 7 5 44.71 8.21
-9 2 5 42.12 6.46
-7 -2 -5 51.13 7.32
-7 9 -5 44.29 6.92
-9 7 -5 41.81 5.35
7 -9 5 41.38 7.91
-2 9 5 43.82 8.74
9 -7 5 40.36 7.35
-9 2 -5 52.97 11.76
9 -7 -5 42.76 8.22
9 -2 5 40.69 6.05
7 -9 -5 40.91 8.5
-9 2 5 34.29 5.1
-9 2 5 43.67 10.86
7 2 5 35.73 4.43
9 -2 -5 43.25 7.18
7 2 5 33.97 8.87
-9 7 -5 45.16 6.7
-7 -2 5 37.43 6.18
2 -9 5 39.01 5.67
-2 -7 -5 32.99 7.33
-2 -7 5 47.55 8.32
2 -9 -5 32.87 7.62
7 -9 5 30.95 5.39
-7 9 -5 39.03 6.25
-9 2 -5 34.46 6.6
-9 7 -5 42.61 7.28
7 2 -5 26.51 7.68
-7 -2 5 43.04 6.58
2 -9 5 44.9 7.94
-9 2 5 38.6 7.45
-9 7 5 35.57 7.23
-7 9 5 41.92 6.67
2 7 -5 41.78 8.18
-9 2 6 12.34 4.49
-9 7 6 13.75 4.73
-7 9 6 12.55 3.67
-9 2 6 10.74 3.18
2 7 -6 9.81 3.77
-2 -7 -6 12.15 2.98
-2 9 -6 16.61 4.96
7 -9 6 14.51 4.72
-9 2 6 14.68 3.93
2 7 6 13.33 4.38
-7 -2 -6 19.89 4.77
-7 -2 6 11.37 3.55
9 -7 6 15.16 4.65
-9 7 -6 14.92 3.13
-7 9 -6 17.66 4.25
7 -9 -6 15.59 5.07
-9 2 6 17.61 6.8
-2 9 6 13.48 4.56
9 -2 6 11.66 3.17
-9 2 -6 16.64 6.54
9 -7 -6 16.9 5.18
9 -2 -6 9.55 3.41
7 2 6 10.3 5.35
-2 -7 6 13.7 4.93
2 -9 6 14.9 3.42
-2 -7 -6 15.28 5.12
2 -9 -6 8.38 4.28
2 -9 6 17.53 5.16
-9 7 -6 12.41 3
7 2 -6 8.16 4.25
-7 9 -6 11.3 3.23
-9 2 -6 9.27 3.46
-9 7 -6 14.83 4.72
-7 -2 6 10.68 3.37
-9 2 7 3.16 2.61
-9 7 7 6.39 3.12
-7 9 7 2 1.07
2 7 -7 4.38 2.72
-2 9 -7 4.75 2.83
-2 -7 -7 4.32 1.65
7 -9 7 4.47 2.72
-9 2 7 6.32 2.5
-7 -2 7 3.95 2.37
-9 7 -7 4.68 1.79
-7 9 -7 5.08 2.38
9 -7 7 3.64 2.47
2 7 7 5.81 2.85
-9 2 7 4.58 2.01
-9 2 7 6.69 3.84
7 -9 -7 5.67 3.3
9 -2 7 4.17 1.34
-2 9 7 1.29 1.34
9 -7 -7 2.14 1.12
9 -2 -7 3.29 2.25
7 2 7 4.75 3.99
-2 -7 7 7.1 3
9 -2 7 4.96 3.12
-9 2 -7 2.97 2.08
2 -9 7 2.4 1.18
-2 -7 -7 5.71 3.2
2 -9 -7 1.66 0.44
2 -9 7 4.65 1.21
-9 7 -7 5.76 2.06
7 2 -7 1.4 0.83
-9 2 -7 3.7 1.3
-9 7 -7 3.93 2.52
-7 -2 7 4.04 2.05
-7 -2 8 1.28 0.7
-9 2 -8 -0.27 0.73
-9 2 8 2.9 2.74
-9 7 8 1.06 1.3
-7 9 8 -0.46 1.07
2 7 -8 4.11 3.3
-2 9 -8 0.8 0.35
7 -9 8 0.2 1.42
-7 -2 8 1.74 1.87
-2 -7 -8 1.18 0.38
-9 2 8 -0.15 1.2
-7 9 -8 -0.17 1.47
9 -7 8 3.59 2.49
-9 2 8 0.94 1.16
2 7 8 1.72 0.49
7 -9 -8 -2.02 2.31
9 -2 8 -1.36 1.1
-2 9 8 -0.91 1.23
9 -7 -8 3.38 2.32
-2 -7 8 1.37 0.32
7 2 8 3.62 4.42
9 -2 -8 2.01 1.88
9 -2 8 2.82 3.18
-2 -7 -8 4.65 3.34
2 -9 8 1.7 1.93
2 -9 -8 -1.71 2.2
-9 7 -8 0.59 1.16
7 2 -8 3.25 2.27
-9 7 -8 3.45 2.61
-7 -2 9 12.26 3.7
-9 2 9 14.52 4.74
-9 7 9 12.66 4.46
-7 9 9 13.75 4.09
2 7 -9 13.57 4.83
-2 9 -9 15.85 4.89
-7 -2 9 14.29 4.27
7 -9 9 15.53 5.08
-9 2 9 13.48 3.61
-7 9 -9 14.54 4.19
-9 2 -9 19.26 7.49
-2 -7 -9 12.37 2.85
9 -7 9 13.64 4.23
-9 2 9 14.36 5.23
2 7 9 16.53 5.05
9 -2 9 13.75 3.32
7 -9 -9 14.37 4.98
-2 9 9 11.51 4.55
9 -7 -9 15.06 4.86
-2 -7 9 20.33 5.5
7 2 9 14.24 6.45
9 -2 -9 11.4 3.93
9 -2 9 18.48 6.85
2 -9 9 16.51 4.85
-2 -7 -9 14.64 4.83
2 -9 -9 9.07 3.94
-9 7 -9 14.82 4.38
7 2 -9 10 4.31
-9 7 -9 17.14 4.87
-7 -2 10 0.56 0.98
-9 2 10 1.38 2.3
-9 7 10 1.48 0.97
-7 9 10 0.68 1.45
2 7 -10 3.74 3.01
-2 9 -10 5.21 2.48
-7 -2 10 -0.85 1.49
-7 9 -10 2.05 1.59
-9 2 10 2.99 1.31
7 -9 10 2.03 1.94
9 -7 10 1.65 1.52
-9 2 10 4.44 3.73
-2 -7 -10 1.89 0.57
2 7 10 -0.02 1.24
7 -9 -10 2.09 0.94
2 7 10 1.6 1.03
-2 9 10 -1.23 1.72
9 -7 -10 2.22 1.39
-2 -7 10 2.92 0.56
7 2 10 -0.6 2.88
9 -2 -10 0.99 0.56
9 -2 10 4.98 3.09
-9 2 -10 1.22 0.91
2 -9 10 1.16 1.98
-2 -7 -10 0.78 0.54
2 -9 -10 -1.26 1.61
-9 7 -10 1.82 2.35
7 2 -10 0.16 1.87
7 -9 11 34.37 6.03
-9 2 -11 28.93 6.47
-7 -2 11 23.2 5.26
-9 2 11 24.27 6.76
-9 7 11 25.99 6.62
-7 9 11 20.73 5.72
2 7 -11 23.71 6.77
-2 9 -11 27.08 6.97
-7 -2 11 24.2 6.78
-7 9 -11 28.62 5.63
7 -9 11 21.71 5.97
-9 2 11 32.09 5.76
9 -7 11 25.07 5.61
-9 2 11 31.93 8.3
2 7 11 30.57 7.02
7 -9 -11 24.99 7.08
-9 2 -11 41.7 10.89
-2 9 11 26.24 7.35
-2 -7 11 31.81 7.47
9 -7 -11 30.24 7.57
2 7 11 26.15 6.43
-9 7 -11 43.21 9.12
7 2 11 32.09 10.82
9 -2 -11 18.35 5.02
9 -2 11 31.01 8.65
2 -9 11 28.69 6.46
-2 -7 -11 22.71 6.13
2 -9 -11 21.99 6.86
7 2 -11 33.64 8.99
-9 2 -12 7.52 3.76
-7 -2 12 5.7 2.9
-9 2 12 3.23 0.46
-9 7 12 6.24 2.97
2 7 -12 4.65 2.79
-7 9 12 2.56 1.55
-2 9 -12 6.52 3.11
-7 -2 12 4.62 2.36
7 -9 12 5.47 3.53
-7 9 -12 6.89 2.73
-9 2 12 6.7 2.22
9 -7 12 6.18 2.55
-9 2 12 2.02 1.99
2 7 12 9.19 4.13
7 -9 -12 2.02 0.43
-2 -7 12 6.11 3.83
-2 9 12 3.84 1.65
9 -7 -12 8.52 3.89
2 7 12 1.87 1.13
7 2 12 6.03 3.5
9 -2 -12 5.55 3.19
9 -2 12 5.42 3.91
2 -9 12 11.62 4.42
-9 2 -12 8.87 5.05
-2 -7 -12 2.24 1.56
2 -9 -12 2.38 2.65
-9 7 -12 6.27 2.51
7 2 -12 3.86 2.97
-9 2 -13 2.35 1.89
-7 -2 13 3.88 2.56
-9 2 13 0.12 1.12
2 7 -13 0.43 0.41
-9 7 13 0.36 1.65
-7 9 13 3.91 2.47
-2 9 -13 2.49 3.29
-7 -2 13 2 1.7
-7 9 -13 2.41 0.4
-9 2 13 5.77 2.52
9 -7 13 2.99 1.13
2 7 13 4.81 3.76
7 -9 -13 -3.73 3.27
-2 -7 13 0.9 1.42
-2 9 13 2.36 2.57
9 -7 -13 1.21 1.2
2 7 13 1.93 1.72
7 2 13 6.55 5.46
2 -9 13 3.28 2.14
9 -2 -13 0.64 1.89
9 -2 13 -0.69 2.42
2 -9 -13 -0.23 2.3
-9 7 -13 2.28 0.82
7 2 -13 5.13 2.71
-9 2 -13 10.17 6.17
-7 -2 14 5.07 3.19
-9 2 14 -0.39 1.5
-7 9 14 2.29 1.79
-7 -2 14 2.17 1.46
-7 9 -14 1.05 1.61
-9 2 14 1.54 1.55
9 -7 14 -0.29 1.48
2 7 14 3.22 1.8
7 -9 -14 0.13 1.85
-2 9 14 -3.51 3.41
2 7 14 0.64 1.01
2 -9 14 1.26 2.63
7 2 14 7.23 6.19
9 -2 14 0.28 2.66
-9 7 -14 4.87 2.89
7 2 -14 3.84 2.67
-9 2 15 10.14 4.22
-7 9 15 13.48 4.65
-7 -2 15 14.16 5.41
-7 9 -15 16.16 5.22
-9 2 15 16.91 4
-9 7 -15 31.63 8.12
9 -7 15 13.51 4.21
2 7 15 15.74 5.42
7 -9 -15 13.65 5.32
-2 9 15 18.24 5.94
2 7 15 15.96 6.93
7 2 15 18.47 8.58
7 -9 15 13.08 4.84
-9 7 -15 19.25 6.65
7 2 -15 17.12 6.26
-7 9 16 10.74 3.57
-7 -2 16 20.65 6.95
-7 9 -16 18.39 5.05
9 -7 16 14.35 4.32
-9 2 16 18.47 4.5
-9 7 -16 37.55 9.03
7 -9 -16 7.9 4.42
2 7 16 14.34 5.88
7 2 16 23.44 9.49
7 -9 16 17.86 5.52
7 2 -16 15.24 6.58
-7 9 -17 11.36 3.33
7 -9 -17 10.73 4.81
2 7 17 4.25 3.77
-9 7 -17 20.66 6.16
7 -9 17 6.9 3.09
7 -9 18 -0.9 2.05
1 -9 0 30.99 6.98
-8 -1 0 34.88 6.52
1 8 0 29.47 7.58
-1 9 0 34.65 7.78
-9 8 0 34.96 6.03
8 -9 0 29.7 7.34
9 -8 0 36.74 7.66
-8 9 0 29.3 5.99
9 -1 0 27.14 5.19
8 1 0 22.35 4.54
8 1 0 28.93 7.17
-1 -8 0 28.23 6.22
1 -9 0 20.62 5.04
-8 -1 0 27.31 4.11
-8 -1 0 28.01 6.15
-9 1 0 29.59 6.56
-9 1 0 25.76 8.25
-9 8 0 27.61 6.5
-1 -8 0 30.54 6.73
-8 9 0 28.03 5.77
-1 -8 -1 55.93 8.71
1 -9 -1 62.01 9.33
1 8 -1 54.9 9.71
1 8 1 46.97 9.01
-8 -1 1 68.86 8.94
-1 9 -1 55.9 9.73
-8 -1 -1 59.58 8.18
-1 9 1 52.64 9.4
-9 1 1 57.55 8.28
8 -9 1 51.65 9.37
8 -9 -1 53.35 9.61
9 -8 1 53.75 9.27
9 -8 -1 57.6 9.65
-8 9 -1 58.36 8.25
-9 8 -1 53.22 7.25
-8 9 1 52.09 8.14
9 -1 1 46.03 6.88
9 -1 -1 38.92 6.43
8 1 1 48.17 6.46
-9 8 1 50.02 7.19
8 1 1 58.94 10.58
8 1 -1 45.39 7.01
8 1 -1 54.42 10.01
-8 9 -1 66.16 7.66
-9 8 -1 55.03 6
-1 -8 1 46.94 7.83
-1 -8 -1 44.33 7.91
1 -9 1 40.5 7.12
1 -9 -1 42.79 7.99
-9 1 1 52.79 11.76
-8 -1 1 48.29 5.84
-8 -1 -1 44.53 7.19
-8 -1 1 52.3 7.95
-9 1 -1 52.03 8.69
-9 1 1 46.12 8.13
-8 9 -1 52.65 7.72
-9 8 -1 50.56 7.86
-8 9 1 47.91 7.45
-9 8 1 54.23 8.18
-1 -8 1 54.03 8.71
-9 1 -1 60.09 13.37
1 -9 1 53 8.55
-8 9 2 19.55 4.9
-9 8 2 20.62 5.37
1 -9 2 22.87 5.77
-1 -8 -2 26.15 5.85
-9 1 -2 26.11 8.9
1 8 -2 23.52 6.56
-8 -1 2 20.39 4.75
1 8 2 24.54 6.39
-1 9 -2 21.93 6.4
-8 -1 -2 29.31 5.81
-9 1 2 24.92 5.45
8 -9 2 29.33 7.3
8 -9 -2 20.81 5.86
-1 9 2 18.93 5.6
9 -8 2 25.32 6.23
9 -8 -2 26.15 6.43
-8 9 -2 23.27 5.03
-9 8 -2 25.08 4.95
-8 9 2 24.22 5.71
9 -1 2 16.07 3.72
9 -1 -2 21.97 5.15
8 1 2 19.74 3.75
-8 -1 2 20 3.87
-9 1 2 21.37 7.39
8 1 -2 19.13 4.39
8 1 2 22.06 6.93
8 1 -2 20.24 6.17
-8 9 -2 23.71 4.57
-1 -8 2 22.11 5.47
-1 -8 -2 15.33 4.59
1 -9 2 19.15 4.79
1 -9 -2 15.79 4.7
-9 8 -2 19.85 3.84
-8 -1 -2 18.18 4.45
-1 -8 2 21.47 5.7
-9 1 -2 22.34 5.57
-8 -1 2 19.42 5.09
-8 9 -2 19.28 4.91
-9 8 -2 19.67 5.12
-9 1 2 21.45 5.62
-8 9 3 8.91 3.22
-9 8 3 10.19 3.98
1 8 -3 8.68 3.68
-8 -1 3 11.74 3.6
-1 9 -3 10.34 4.22
-9 1 3 15.39 4.24
1 8 3 8.83 3.27
8 -9 3 7.53 3.42
-8 -1 -3 14.11 4.26
9 -8 3 7.68 4.03
8 -9 -3 14.9 5.54
-1 9 3 10.89 4.59
-8 9 -3 12.6 3.82
9 -8 -3 8.72 3.55
-9 8 -3 9.72 2.92
-9 1 -3 9.97 6.59
-8 9 3 8.73 3.13
-8 9 -3 7.47 2.77
-9 1 3 9.46 4.33
-8 -1 3 9.55 2.61
9 -1 3 10.24 2.97
8 1 3 7.62 2.36
9 -1 -3 9.04 2.85
8 1 3 7.95 4.63
8 1 -3 9.76 3.3
8 1 -3 9.74 2.89
-1 -8 3 9.09 3.31
1 -9 3 10.82 3.59
-1 -8 -3 8.13 2.95
1 -9 -3 13.25 4.81
8 1 -3 2.66 1.36
-9 8 -3 9.67 2.81
-8 -1 -3 10.81 3.9
-1 -8 3 10.22 4.04
-9 1 -3 11.81 4.06
-8 9 -3 12.15 3.69
-9 8 -3 11.17 3.74
-8 -1 3 10.3 3.67
-9 1 3 8.39 3.29
1 -9 3 10.37 3.65
-8 9 4 3 2.1
-9 8 4 1.13 1.18
1 8 -4 -1.58 2.35
-8 -1 4 0.05 2.14
-1 9 -4 0.19 0.92
-9 1 4 1.72 1.32
8 -9 4 0.66 2.24
1 8 4 -0.54 1.29
9 -8 4 3.12 2.24
8 -9 -4 -0.66 2.07
-1 9 4 2.04 2.77
-8 9 -4 0.72 1.24
-9 8 -4 -1.68 1.46
9 -8 -4 0.84 1.79
-9 1 4 -0.43 1.01
-8 -1 4 0.05 0.61
-8 9 -4 3.08 0.32
9 -1 4 0.4 0.63
8 1 4 0.67 1.16
9 -1 -4 0.66 0.73
8 1 4 1.14 0.65
8 1 -4 -1.26 0.76
9 -1 4 -2.21 3.42
-1 -8 4 2.05 1.6
1 -9 4 -0.7 1.18
-1 -8 -4 0.47 2
1 -9 -4 -1.72 1.02
8 1 -4 -0.31 1.84
-1 -8 4 1.02 1.65
-9 1 -4 5.01 3.68
-9 8 -4 -0.31 0.51
-9 1 -4 0.99 1.38
1 -9 4 -0.65 0.49
-8 9 -4 1.7 1.7
-9 8 -4 -0.95 0.64
-8 -1 4 0.22 1.63
-9 1 4 -3.67 2.7
-9 1 5 23.09 5.74
-8 9 5 20.86 5.12
-9 8 5 24.2 5.4
-9 1 -5 24.01 8.39
-1 -8 -5 21.73 4.05
1 8 -5 26 6.77
-8 -1 5 26.5 5.43
-1 9 -5 21.32 5.92
-9 1 5 24.75 5.5
8 -9 5 20.68 5.72
1 8 5 23.22 5.88
9 -8 5 24.94 6.39
-9 1 5 25.32 7.82
-8 9 -5 24.97 5.17
-9 8 -5 24.23 4.48
8 -9 -5 27.25 6.75
-8 -1 5 23.47 4.92
-1 9 5 27.72 7.74
9 -8 -5 31.82 7.4
9 -1 5 22.41 4.19
9 -1 -5 19.11 4.56
8 1 5 30.84 9.15
8 1 -5 23.85 5.44
9 -1 5 24.79 7.33
1 -9 5 24.81 5.05
-1 -8 -5 21.24 6.06
-1 -8 5 26.63 6.34
1 -9 -5 22.27 6.16
8 1 -5 16.55 4.68
-9 8 -5 30.51 5.79
1 -9 5 28.45 6.53
-9 1 -5 20.03 5.12
-8 9 -5 22.24 4.83
-9 8 -5 28.3 5.84
-8 -1 5 22.54 5.14
-9 1 6 2.09 1.93
-9 8 6 6.39 3.24
-8 9 6 3.58 2.14
-9 1 -6 3.71 3.52
1 8 -6 3.1 1.5
1 -9 -6 2.46 1.07
-8 -1 6 6.1 3.1
-1 -8 -6 4 1.02
-1 9 -6 5.5 2.76
-9 1 6 2.4 1.84
8 -9 6 3.96 1.87
-8 -1 6 5.85 2.84
9 -8 6 6.13 3.3
-9 1 6 3.4 0.82
1 8 6 3.54 1.5
-9 8 -6 5.96 2.4
-8 9 -6 4.38 2.09
8 -9 -6 3.93 3.25
-1 9 6 2.6 1.67
9 -8 -6 8.18 2.75
9 -1 6 2.04 1
9 -1 -6 4.61 2.67
8 1 6 3.61 3.65
8 1 -6 4.59 2.31
9 -1 6 6.51 4.16
-1 -8 6 5.86 1.82
1 -9 6 2.01 1.03
-1 -8 -6 1.99 0.73
1 -9 -6 4.06 2.87
8 1 -6 3.48 2.52
-9 8 -6 2.04 1.15
1 -9 6 3.82 2.67
-9 1 -6 4.18 1.69
-8 9 -6 2.68 2.04
-9 8 -6 3.17 2.31
-8 -1 6 -0.3 1.14
-8 -1 7 2.29 1.17
-9 1 7 0.48 0.96
-9 8 7 0.29 1.01
-8 9 7 3.56 1.65
-9 1 7 2.14 1.72
-9 1 -7 4.35 3.83
1 8 -7 -2.94 2.7
-8 -1 7 1.33 1.85
-1 9 -7 3.11 2.48
-1 -8 -7 1.01 0.67
-9 1 7 4.79 2.29
-8 -1 7 1.66 0.49
8 -9 7 -2.25 2.17
-9 1 7 5.28 4.44
9 -8 7 0.59 0.67
-9 8 -7 2.89 1.59
-8 9 -7 5.51 3.05
1 8 7 1.22 0.62
8 -9 -7 3.15 1.59
-1 9 7 4.72 3.37
9 -8 -7 2 2.86
9 -1 -7 3.46 2
8 1 7 2.66 2.43
9 -1 7 0.53 1.88
8 1 -7 3.07 2.75
-1 -8 7 3.48 2.41
-1 -8 -7 -1.93 3.12
1 -9 -7 -0.18 2.41
1 -9 7 2.19 2.08
8 1 -7 -1.75 1.76
-9 8 -7 2.93 2.76
-8 9 -7 1.01 0.5
-9 8 -7 2.96 1.33
-8 -1 8 13.36 4.11
-9 1 8 11.9 4.36
-9 8 8 11.08 3.75
-8 9 8 12 4.05
-9 1 8 10.26 3.19
1 8 -8 13.7 4.61
-8 -1 8 14.81 4.16
-1 9 -8 11.62 4.61
-8 -1 8 12.36 4.01
-9 1 8 11.41 3.54
-1 -8 -8 12.43 2.95
8 -9 8 13.75 4.76
-9 8 -8 9.3 2.63
-9 1 8 14.8 6.38
-8 9 -8 10.78 3.46
9 -8 8 11.25 3.53
1 8 8 10.47 4.01
8 -9 -8 9.47 4.2
-1 9 8 14.08 5.28
9 -8 -8 20.26 6.06
9 -1 -8 12.71 4.45
8 1 8 13.15 5.24
9 -1 8 15.46 6.77
8 1 -8 11.07 4.2
-1 -8 8 16.41 5.25
1 -9 8 13.38 4.68
-1 -8 -8 8.21 4.11
-9 1 -8 16.72 7.65
1 -9 -8 5.08 3.75
-9 8 -8 14.59 4.52
8 1 -8 7.95 3.89
-9 8 -8 13.37 4.24
-8 -1 9 1.6 1.47
-9 1 9 4.59 2.84
-8 -1 9 3.85 1.19
-9 8 9 3.88 2.47
-8 9 9 0.63 0.9
-9 1 9 2.38 0.63
1 8 -9 3.51 3.32
-1 9 -9 1.29 0.96
-8 -1 9 1 2
-9 1 9 2.92 0.27
8 -9 9 0.76 1.07
-8 9 -9 3.79 2.22
-1 -8 -9 3.64 1.33
-9 1 9 4.02 2.4
9 -8 9 1.68 1.37
1 8 9 2.81 2.08
8 -9 -9 5.19 2.58
-1 9 9 3.6 1.93
9 -8 -9 7.03 4.18
8 1 9 3.55 4.53
9 -1 -9 0.77 1.13
9 -1 9 7.7 4.27
-1 -8 9 3.86 2.29
8 1 -9 0.53 1.14
1 -9 9 5.7 2.87
-1 -8 -9 2.63 2.33
1 -9 -9 -0.03 1.99
-9 8 -9 3.97 1.91
8 1 -9 1.3 2.21
-9 8 -9 3.74 2.02
-8 -1 10 10.93 4.03
-9 1 10 10.79 3.91
-9 8 10 14.85 5.08
-8 9 10 18.16 5.43
-9 1 10 17.06 4.95
1 8 -10 14.65 5.45
-1 9 -10 11.77 4.1
-8 -1 10 10 4.1
-9 1 10 19.82 4.87
-8 9 -10 15.46 3.97
8 -9 10 17.89 5.53
9 -8 10 18.96 5.33
-9 1 10 15.63 4.93
-1 -8 -10 14.6 2.87
1 8 10 17.34 5.7
8 -9 -10 13.31 5.37
-1 9 10 11.9 4.69
9 -8 -10 19.8 5.75
-1 -8 10 12.03 3.98
8 1 10 19.99 8.16
9 -1 -10 10.03 3.87
9 -1 10 21.25 7.87
8 1 -10 6.23 2.75
1 -9 10 15.84 5.11
-1 -8 -10 11.62 5.19
1 -9 -10 5.7 2.65
-9 8 -10 17.56 5.28
8 1 -10 10.46 3.56
-8 -1 11 20.42 5.43
-9 1 11 24.67 6.59
-8 9 -11 33.76 6.2
-9 8 11 27.02 6.96
-8 9 11 24.97 6.52
1 8 -11 27.56 6.86
-8 -1 11 24.45 6.51
-9 1 11 35.1 6.37
8 -9 11 26.48 6.57
9 -8 11 33.35 7.01
-9 1 11 25.03 6.49
1 8 11 28.61 7.86
8 -9 -11 32.95 8.52
-1 9 11 30.51 8.23
9 -8 -11 25.15 6.97
8 1 11 40.49 13.14
9 -1 -11 24.5 6.23
9 -1 11 43.05 11.64
8 1 -11 21.52 5.93
1 -9 11 39.58 8.21
-1 -8 -11 23.73 7.38
1 -9 -11 19.12 6.94
-9 8 -11 33.33 7.2
8 1 -11 23.64 6.9
-8 -1 12 -0.44 3
-9 1 12 6.92 3.06
-8 9 12 7.01 3.54
-8 -1 12 10.81 4.69
-8 9 -12 7.65 2.92
-9 1 12 7.96 2.76
8 -9 12 5.98 3.17
9 -8 12 7.78 2.72
1 8 12 4.67 3.19
8 -9 -12 2.97 3.6
-1 9 12 8.36 4.67
8 1 12 10.92 7.01
9 -1 12 9.41 5.57
8 1 -12 4.89 2.35
-9 8 -12 10.26 3.6
8 1 -12 7.97 4.12
-8 -1 13 1.81 0.12
-9 1 13 2.63 2.26
-8 9 13 4.24 1.61
-8 -1 13 5.19 3.59
-8 9 -13 3.89 2.03
-9 1 13 1.85 0.65
9 -8 13 2.04 1.81
1 8 13 1.62 1.8
8 -9 -13 7.36 4.26
-1 9 13 1.64 2.12
8 1 13 -0.28 6.66
9 -1 13 -1.22 5.27
-9 8 -13 11.46 5.55
8 1 -13 2.51 2.43
-8 -1 14 -0.11 2.3
-9 1 14 1.03 1.13
-8 -1 14 0.18 1.26
9 -8 14 1.59 1.13
1 8 14 5.62 3.81
-1 9 14 4.44 3.51
8 1 14 1.64 0.38
8 1 -14 2.45 2.18
-8 -1 15 18.14 5.42
-9 1 15 15.91 5.5
-8 -1 15 18.48 6.39
-9 1 15 27.26 5.58
9 -8 15 14.34 4.23
1 8 15 19.69 6.48
8 1 -15 17.33 6.28
-8 -1 16 3.98 3.82
-8 -1 16 3.88 4.55
-9 1 16 3.35 0.85
1 8 16 0.34 2.93
0 -9 0 67.39 9.78
0 9 0 55.45 9.99
-9 0 0 64.89 8.84
9 -9 0 64.76 10.62
-9 9 0 62.45 8.74
9 0 0 47.62 6.9
9 0 0 70.27 12.53
0 -9 0 45.64 7.97
-9 0 0 52.53 8.21
-9 9 0 56.96 8.5
0 -9 1 1.16 2.17
0 -9 -1 2.64 2.22
0 9 -1 0.25 1.33
0 9 1 3.05 2.31
-9 0 1 1.49 1.57
-9 0 -1 9.39 4.06
9 -9 1 -0.71 1.55
9 -9 -1 2.07 1.43
-9 9 -1 -1.55 1.56
-9 9 1 2.45 2.16
9 0 1 1.17 1.95
9 0 -1 0.44 1.35
9 0 1 1.63 3.05
0 -9 1 4.25 1.95
0 -9 -1 -0.9 1.88
-9 0 -1 2.35 1.64
-9 0 1 1.99 3.05
-9 9 -1 1.42 0.42
-9 9 1 1.46 1.03
0 -9 2 10.55 3.81
0 9 -2 9.56 3.97
-9 0 2 8.19 3.04
0 9 2 10.85 3.8
9 -9 2 12.3 4.56
9 -9 -2 8.56 3.01
-9 9 -2 10.69 3.35
-9 9 2 11.36 3.62
9 0 2 9.56 2.83
9 0 -2 9.81 3.22
9 0 2 16.2 6.47
0 -9 2 8.31 2.98
0 -9 -2 9.25 3.73
-9 0 -2 7.39 3.08
-9 0 2 10.2 3.75
-9 9 -2 8.37 3.08
-9 9 2 11.34 3.86
-9 9 3 1.16 1.81
0 9 -3 0.6 2.5
-9 0 3 0.6 1.79
0 9 3 1.67 2.26
9 -9 3 3.81 2.73
9 -9 -3 -2.89 3.06
-9 9 -3 2.68 0.64
-9 9 3 1.34 1.57
9 0 3 2.59 1.78
9 0 -3 0.23 1.97
9 0 3 0.1 0.38
0 -9 3 2.79 1.91
0 -9 -3 5.41 2.54
-9 0 -3 0.7 1.34
-9 9 -3 1.75 2.03
-9 0 3 2.64 2.53
0 -9 3 2.16 1.71
-9 9 4 14.42 4.29
0 9 -4 15.73 4.85
-9 0 4 17.6 4.67
9 -9 4 16.28 5.23
0 9 4 18.92 6.27
9 -9 -4 15.69 5.09
-9 9 -4 14.75 3.94
9 0 -4 10.9 3.91
9 0 4 17.31 7.58
0 -9 4 14.39 3.99
0 -9 -4 15.39 5.51
-9 9 -4 24.88 5.21
-9 0 -4 13.33 4.35
0 -9 4 17.41 5.35
-9 9 -4 14.55 4.25
-9 0 4 11.69 3.98
-9 9 5 1.63 1.93
0 -9 -5 1.8 1.12
0 9 -5 -0.22 1.23
-9 0 5 0.89 0.65
9 -9 5 -0.07 0.91
0 9 5 2.18 1.84
-9 9 -5 4.22 2.63
9 -9 -5 2.44 2.2
9 0 -5 -1.49 2.82
9 0 5 4.6 3.04
0 -9 5 1.71 1.32
0 -9 -5 4.15 3.62
-9 9 -5 3.21 1.83
0 -9 5 0.19 0.14
-9 9 -5 -0.45 1.57
-9 0 5 3.13 2.75
-9 9 6 14.52 4.41
0 9 -6 21.38 6.52
0 -9 -6 15.85 3.22
-9 0 6 25 5.64
9 -9 6 25.08 6.46
-9 9 -6 19.6 4.55
0 9 6 15.81 5.41
9 -9 -6 15.34 5.42
9 0 -6 14.05 4.44
9 0 6 21.69 8
0 -9 -6 11.91 4.35
-9 9 -6 19.45 5.22
0 -9 6 23.34 5.89
-9 9 -6 20.65 5.14
-9 0 6 15.08 4.64
-9 0 7 0.93 1.61
-9 9 7 -0.02 0.83
0 9 -7 -1.33 0.41
-9 0 7 1.67 0.45
9 -9 7 -1.31 0.65
-9 9 -7 2 2.22
0 9 7 1.35 0.52
9 -9 -7 -2.87 2.25
9 0 -7 -1.07 1.57
9 0 7 -0.52 4.15
0 -9 -7 3.25 3.12
-9 9 -7 1.23 1.36
-9 9 -7 0.16 0.72
-9 0 8 1.27 1.36
-9 9 8 -0.41 0.77
-9 0 8 -0.06 1.67
-9 9 -8 0.17 1
9 -9 8 0.08 0.53
0 9 8 2.94 3.12
9 0 8 2.44 1.52
9 0 -8 -0.43 0.35
-9 9 -8 1.32 1.74
0 -9 -8 -0.12 2.13
-9 9 -8 2.16 1.91
-9 0 9 1.75 0.24
-9 9 9 1.53 0.12
-9 0 9 1.25 1.08
0 9 9 -0.35 2.68
9 0 9 1.89 2.55
9 0 -9 -1.33 2.65
9 0 -9 0.97 2.11
-9 9 -9 -0.79 0.9
-9 0 10 23.95 5.99
-9 9 10 26.63 6.58
-9 0 10 28.03 5.34
0 9 10 29.19 8.49
9 0 10 34.85 11.47
9 0 -10 23.42 6.82
9 0 -10 12.16 4.33
-9 9 -10 45.92 9.76
-9 0 11 0.81 1.08
-9 0 11 0.63 1.01
-9 0 11 4.22 2.91
0 9 11 4.06 3.67
9 0 11 2.87 4.07
9 0 -11 -2.23 2.52
-9 9 -11 -1.43 2.52
-9 0 12 10.3 3.8
-9 0 12 11.59 4.38
-9 0 12 16.1 4.67
0 9 12 12.5 4.46
9 0 12 16.97 7.88
9 0 -12 9.32 4
-9 9 -12 24.21 5.96
-9 0 13 -0.53 2.79
-9 0 13 -1.77 1.7
0 9 13 -0.51 1.95
9 0 -13 -1.58 3.09
-9 9 -13 -0.11 3.64
-9 0 14 3.34 2.29
-9 0 14 -1.46 2.64
9 0 -14 1.43 2.65
5 5 0 3.48 2.15
-5 -5 0 2.49 1.05
5 -10 0 2.25 1.62
-5 10 0 3.33 1.67
10 -5 0 4.64 2.92
5 -10 0 3.49 2.08
-5 -5 0 4.67 2.49
-10 5 0 2.91 1.55
5 5 -1 0.54 2.23
5 5 1 1.43 1.36
-5 -5 -1 -1.93 1.94
5 -10 1 -0.65 1.66
5 -10 -1 -0.84 1.97
-5 10 -1 0.23 1.97
-5 10 1 -0.65 1.61
10 -5 1 -0.4 1.25
10 -5 -1 1.46 0.59
5 -10 1 -0.99 1.49
5 -10 -1 1.22 1.57
-5 -5 1 0.56 1.59
-10 5 -1 0.53 0.92
-5 -5 -1 0.3 0.94
-10 5 1 -1.12 1.54
-5 -5 -2 0.75 1.43
5 5 -2 3.75 2.59
5 5 2 0.21 2.89
-5 -5 -2 1.11 1.06
5 -10 2 1.88 2.4
5 -10 -2 -2.32 2.12
-5 10 -2 3.34 1.61
-5 10 2 1.98 1.53
10 -5 2 2.97 2.39
10 -5 -2 4.7 1.76
-5 -5 2 3.54 2.53
5 -10 2 2.01 1.8
5 -10 -2 2.01 2.12
-10 5 -2 2.56 1.94
-10 5 2 3.83 2.72
-10 5 3 0.63 2.79
5 5 -3 4.29 4.01
5 5 3 0.46 2.28
-5 -5 -3 -1.09 1.64
-5 -5 -3 1.5 1.38
5 -10 3 -0.24 1
5 -10 -3 -1.84 2.73
-5 10 -3 0.92 1.03
-5 10 3 1.49 1.64
10 -5 3 0.94 0.21
10 -5 -3 -1.15 1.62
-5 -5 3 0.09 1.14
5 -10 3 0.96 0.46
5 -10 -3 -3.22 3.2
-10 5 -3 0.17 1.24
-5 -5 -4 43.46 6.67
-5 10 -4 45.74 8.32
5 -10 4 40.87 8.54
5 -10 -4 36.28 8.22
-5 10 4 44.73 8.6
10 -5 4 48.91 8.13
10 -5 -4 42.96 7.55
-10 5 -4 38.42 6.06
-5 -5 4 40 7.35
5 -10 -4 25.18 6.5
5 5 -4 48.24 9.78
-10 5 -4 45.15 7.98
-10 5 4 47.02 8.58
5 5 4 48.01 8.48
-10 5 -5 0.56 0.95
-10 5 5 3.55 4.82
5 5 -5 -3.42 2.51
5 5 5 3.7 3.04
5 -10 5 1.33 2.8
5 -10 5 -0.55 2.21
-5 -5 -5 8.06 3.34
5 -10 -5 0.98 0.57
-5 10 -5 4.28 2.84
10 -5 5 -0.35 0.73
-5 10 5 0.61 1.46
10 -5 -5 1.31 1.72
-5 -5 5 2.63 2.99
5 -10 -5 -6.49 4.06
-10 5 -5 4.33 5.32
5 -10 6 163.45 15.06
-5 10 -6 141.09 14.43
-5 -5 -6 136.8 11.71
5 -10 -6 109.47 14.61
10 -5 6 152.53 13.86
-5 10 6 165.92 17.4
10 -5 -6 163.62 15.96
-5 -5 -6 133.83 15.76
-5 -5 6 147.49 14.87
5 -10 -6 78.73 13.26
-10 5 -6 144.57 12.48
5 5 -6 138.52 17.31
-10 5 -6 148.37 14.91
-10 5 6 147.64 15.59
5 5 -7 -2.57 3.65
-10 5 7 0.83 4.73
5 -10 7 1.48 2.18
-5 10 -7 -0.81 0.94
5 -10 -7 -2.53 2.19
-10 5 -7 -4.47 4.62
-5 -5 -7 12.21 4.66
10 -5 7 1.97 1.78
-5 10 7 -0.28 2.59
-5 -5 7 1.11 2.03
10 -5 -7 0.64 1.8
-5 -5 -7 -1.65 1.51
5 -10 -7 -2.59 2.66
-10 5 -7 1.15 2.46
-10 5 -7 0.37 1.56
5 5 -8 3.14 2.32
-10 5 8 5.35 2.68
5 -10 8 -0.14 1.23
-5 10 -8 -0.56 1.53
-10 5 -8 3.46 3.16
5 -10 -8 2.46 2.52
-5 -5 -8 -0.88 0.8
10 -5 8 -0.18 1.28
-5 10 8 0.3 1.55
-5 -5 8 1.26 1.6
10 -5 -8 0.2 1.9
-5 -5 -8 0.89 1.65
5 -10 -8 1.02 1.85
-10 5 -8 0.43 1.39
-10 5 -8 0.91 1.41
5 -10 9 0.43 0.5
5 5 -9 0.28 1.91
-10 5 9 -0.86 0.71
-5 10 -9 0.1 1.07
5 -10 -9 -2.92 2.39
-5 -5 -9 -2.33 1.62
10 -5 9 -0.33 0.29
-10 5 -9 3.19 3.73
-5 -5 9 -0.48 1.61
-5 10 9 0.35 1.74
10 -5 -9 -1.16 2.87
-5 -5 -9 -0.65 1.71
5 -10 -9 -2.44 3.98
-10 5 -9 -2.3 1
-10 5 -9 0.25 0.73
5 5 -10 22.32 7.98
-10 5 10 15.18 5.63
-5 10 -10 20.98 5.84
5 -10 -10 15.24 5.5
10 -5 10 20.18 4.71
-5 -5 10 16.95 5.44
-10 5 -10 28.63 8.73
5 -10 -10 4.94 4.08
5 -10 10 23.85 5.58
-10 5 -10 19.86 4.91
-5 10 -11 -2.17 2.02
5 -10 -11 1.63 1.24
10 -5 11 -2.75 1.79
-5 -5 11 0.59 0.65
5 5 11 -1.73 2.89
5 -10 -11 -0.67 1.86
5 -10 11 2.1 2.74
-10 5 -11 -3.11 2.07
5 5 -11 2.56 3.13
-5 10 -12 -1.24 1.85
10 -5 12 -0.18 1.13
5 -10 -12 1.8 2.78
-5 -5 12 -1.41 3.62
5 5 12 0.89 2.47
5 -10 12 2.48 2.28
-10 5 -12 -1.49 2.36
5 5 -12 1.33 2.2
5 -10 -13 2.11 2.35
5 -10 13 0.11 0.17
5 5 -13 -0.9 2.86
5 -10 -14 -0.02 2.69
5 5 14 12.08 6.56
5 -10 14 8.91 3.6
5 5 15 -2.88 4.18
5 -10 15 0.3 2.63
5 -10 16 31.53 7.56
6 4 0 1.5 1.84
4 6 0 4.29 3.01
4 -10 0 2.7 2.65
-6 -4 0 3.78 1.83
6 -10 0 5.92 2.99
-4 10 0 2.2 1.71
-6 10 0 3.91 2.43
10 -6 0 8.24 3.12
10 -4 0 0.82 0.46
4 -10 0 4.42 2.21
6 -10 0 0.81 0.92
-6 -4 0 4 1.79
-4 -6 0 2.96 1.88
-6 10 0 2.21 1.85
-10 4 0 5.29 3.57
-10 6 0 7.61 3.73
-4 -6 -1 8.7 2.94
6 4 -1 9.57 4.57
6 4 1 9.91 4.32
-4 -6 -1 8.68 3.28
4 6 -1 13.77 4.88
4 6 1 11.28 4.16
-6 -4 1 10.7 3.7
-10 4 -1 12.02 6.13
-6 -4 -1 10.74 3.19
4 -10 -1 6.53 3.27
6 -10 1 8.98 3.53
6 -10 -1 7.04 2.94
-4 10 -1 12.58 4.33
-4 10 1 11.44 4.03
-6 10 -1 6.84 2.83
-6 10 1 13.51 4.7
10 -6 1 13.18 4.45
10 -6 -1 13.31 4.29
10 -4 1 12.54 3.96
10 -4 -1 11.6 3.71
4 -10 1 10.86 3.57
-6 -4 1 7.81 2.65
4 -10 -1 5.23 2.01
6 -10 1 6.49 3.14
6 -10 -1 5.14 1.51
-4 -6 1 12.85 4.05
-6 10 -1 13.78 3.63
-6 -4 -1 8.34 2.44
-6 10 1 9.31 3.02
-10 4 -1 13.27 5.15
-10 6 -1 9.7 4.23
-10 4 1 10.35 4.46
-10 6 1 10.36 3.55
6 4 -2 11.47 4.72
-10 6 -2 15.94 3.34
6 4 2 12.86 4.45
-6 -4 -2 20.1 4.45
-4 -6 -2 22.81 5.21
4 6 -2 17.38 5.95
4 6 2 21.53 6.1
-6 -4 2 20.81 4.87
-4 -6 -2 14.81 3.9
-6 -4 -2 17.8 4.57
4 -10 -2 14.65 5.25
6 -10 2 16.07 5.47
-10 4 -2 26.55 9.64
6 -10 -2 15.19 4.77
-4 10 -2 18.83 5.53
-6 10 -2 16.37 4.41
-4 10 2 15.11 4.69
10 -6 2 25.9 6.14
-6 10 2 16.18 4.94
10 -6 -2 22.03 5.83
10 -4 2 15.56 4.48
10 -4 -2 20.75 5.07
-4 -6 -2 15.79 4.9
-6 -4 2 17.18 4.38
4 -10 2 15.49 4.19
4 -10 -2 4.61 1.09
-4 -6 2 17.93 4.71
6 -10 2 15.01 3.41
6 -10 -2 8.6 3.42
-6 10 -2 18.42 3.83
-10 4 -2 18.88 5.55
-10 6 -2 22.67 5.67
-6 10 2 19.31 4.24
-10 4 2 17.15 5.29
-10 6 2 16.34 4.62
6 4 -3 6.59 2.16
-10 6 3 10.7 4.05
-10 6 -3 8.08 2.91
4 6 -3 7.01 3.34
-6 -4 -3 8.12 2.88
-4 -6 -3 12.07 4.09
4 6 3 7.33 2.87
4 -10 3 14.35 5.37
-4 -6 -3 8.9 3.05
-10 4 -3 6.79 4.35
4 -10 -3 4.71 2.38
-6 -4 -3 16.65 4.89
6 -10 3 10.25 4.45
6 -10 -3 11.31 4.76
-4 10 -3 11.87 5.06
-6 10 -3 10.32 3.72
10 -6 3 9.57 4.08
-4 10 3 10.19 4.07
-6 10 3 9.97 4.56
10 -4 3 9.8 3.54
10 -6 -3 10.09 3.99
10 -4 -3 6.71 2.95
-6 -4 3 9.61 3.44
-4 -6 -3 10.35 4.05
-4 -6 3 10.19 4.29
4 -10 3 5.82 2.06
4 -10 -3 6.71 3.05
6 -10 3 8.57 2.87
6 -10 -3 -0.01 2.89
-6 10 -3 8.24 2.73
-10 4 -3 12.97 4.59
-10 6 -3 11.48 4.57
-6 10 3 8.85 2.89
-10 4 3 9.68 4.21
4 6 4 65.58 10.11
4 -10 4 71.31 10.42
-4 -6 -4 58.09 7.82
-6 -4 -4 62.97 8.38
-4 10 -4 68.31 10.28
-6 10 -4 65.49 9.59
6 -10 4 57.3 10.12
6 -10 -4 52.66 9.99
4 -10 -4 36.35 8.1
-4 10 4 64.05 10.93
10 -6 4 66.88 9.65
10 -4 4 61.87 8.72
-6 10 4 59.36 10.21
10 -6 -4 67.18 9.94
-10 4 -4 80.13 15.63
10 -4 -4 66.46 9.69
-4 -6 -4 59.17 9.83
-10 6 -4 59.83 7.4
-6 -4 4 58.32 8.64
-4 -6 4 62.09 9.61
6 4 -4 53.19 10.6
4 -10 -4 37.62 8.24
6 -10 -4 33.55 7.9
-10 4 -4 60.05 9.73
-10 6 -4 60.76 9.52
4 6 -4 59.47 10.71
-6 10 4 58.66 7.52
-10 4 4 55.56 9.32
-10 6 4 65.04 10.3
4 -10 5 81.26 10.71
4 6 5 70.75 10.47
-4 -6 -5 66.6 8.06
-4 10 -5 74.81 10.94
-6 -4 -5 74.47 9.19
-6 10 -5 62.19 9.28
6 -10 5 55.88 10.31
6 -10 -5 55.6 10.45
4 -10 -5 40.12 8.59
10 -6 5 65.08 9.35
-4 10 5 64.01 10.81
10 -4 5 68.59 9.2
-6 10 5 76.59 11.44
10 -6 -5 66.23 10.03
10 -4 -5 70.25 9.93
-10 4 -5 87.99 16.47
-4 -6 -5 55.76 10.21
-10 6 -5 59.49 7.65
-6 -4 5 60.05 9
-4 -6 5 65.53 10.11
4 -10 -5 33.56 7.26
6 -10 -5 38.28 8.82
-10 4 -5 59.15 9.4
-10 6 -5 62.69 9.41
4 6 -5 60.07 11.05
-10 4 5 64.03 10.47
-6 10 5 62.6 7.9
-10 6 5 66.93 10.79
6 4 -5 44.61 9.97
-10 4 6 17.5 6.34
-6 10 6 19.67 4.41
-10 6 6 22.07 6.31
4 -10 6 26.31 6.16
4 6 -6 23.93 7.51
4 6 6 27.25 6.85
6 -10 6 17.75 6.14
4 -10 -6 10.55 4.34
-4 -6 -6 26.05 5.41
-4 10 -6 22.18 5.79
-6 -4 -6 25.15 5.15
6 -10 -6 17.54 5.42
-6 10 -6 22.66 5.9
10 -6 6 25.47 5.94
10 -4 6 24.9 5.17
-4 10 6 21.37 6.59
-6 10 6 21.25 6.6
10 -6 -6 25.43 5.98
-10 4 -6 22.92 7.66
-6 -4 6 21.45 5.43
10 -4 -6 20.94 5.76
-4 -6 6 24.93 6.54
-4 -6 -6 20.44 6.23
4 -10 -6 9.69 3.55
6 -10 -6 7.95 4.03
-10 4 -6 21.64 5.96
-10 6 -6 17.72 5.34
-10 6 -6 19.31 4.58
6 4 -6 15.33 5.36
4 -10 7 20.64 5.62
-10 4 7 20.72 6.16
-10 4 -7 14.45 4.12
-10 6 7 18.57 5.67
-6 10 7 17.56 4.02
4 6 -7 17.71 6.27
4 6 7 20.37 5.88
6 -10 7 14.35 5.36
4 -10 -7 9.77 4.05
-4 10 -7 22.17 5.94
-4 -6 -7 19.64 4.45
-6 10 -7 17.34 4.98
6 -10 -7 17.86 5.76
-6 -4 -7 17.88 4.6
10 -6 7 21.91 5.36
10 -4 7 19.72 4.5
-4 10 7 17.8 5.98
-6 -4 7 17.06 4.86
-6 10 7 18.89 6.24
10 -6 -7 19.62 4.97
10 -4 -7 14.22 4.3
-4 -6 7 19.45 5.85
-10 4 -7 27.44 8.87
-4 -6 -7 16.6 5.79
4 -10 -7 7.69 1.17
-10 4 -7 20.21 5.82
-10 6 -7 19.65 5.32
-10 6 -7 21.31 4.74
6 4 -7 18.67 6.7
-10 4 -8 17.13 4.82
-10 4 8 28.59 6.91
-10 6 8 25.56 6.5
-6 10 8 13.96 3.63
4 6 -8 18.29 7
6 -10 8 23.57 5.42
6 -10 8 18.64 6.23
4 6 8 20.33 5.4
-4 10 -8 19.52 5.56
4 -10 -8 10.78 4.46
-6 10 -8 23.59 5.84
-4 -6 -8 13.6 3.35
6 -10 -8 15.29 5.3
10 -6 8 21.72 5.55
10 -4 8 15.46 3.8
-6 -4 8 21.43 5.52
-4 10 8 20.79 6.57
-6 10 8 19.91 6.4
10 -6 -8 19.99 5.42
-4 -6 8 23.9 6.58
10 -4 -8 18.82 5.34
-10 4 -8 30.02 9.55
-4 -6 -8 23.8 6.77
4 -10 -8 7.69 3.59
6 -10 -8 4.91 2.78
-10 4 -8 17.27 4.93
-10 6 -8 21.36 5.4
-10 6 -8 19.33 4.91
6 4 -8 14.3 6.11
4 -10 8 26.26 6.57
6 -10 9 44.74 7.89
-10 4 9 34.3 7.57
-10 6 9 35.04 8.1
4 6 -9 38.72 9.42
-6 10 9 36.42 6.36
-4 10 -9 48.43 8.81
-6 10 -9 43.13 7.86
-4 -6 -9 36.5 5.81
10 -6 9 48.29 7.95
10 -4 9 43.01 6.88
4 -10 -9 24.81 6.39
6 -10 -9 37.34 8.78
10 -4 -9 45.88 8.68
-4 10 9 40.89 9.55
-4 -6 9 43.06 8.56
10 -6 -9 40.94 8.49
6 4 9 39.9 9.33
-6 -4 9 44.74 8.5
-10 6 -9 45.86 8.03
-10 4 -9 43.88 7.39
-4 -6 -9 41.1 9.71
4 -10 -9 16.74 5.91
6 -10 -9 8.61 4.21
-10 4 -9 59.5 13.2
-10 4 -9 43.55 8.58
-10 6 -9 43.3 8.31
4 -10 9 47.69 8.42
6 4 -9 28.55 9.03
-10 4 -10 0.77 1.38
4 6 -10 2.35 1.19
-10 4 10 0.93 2.17
-6 10 10 2.53 1.04
6 -10 10 -0.39 2.07
-4 10 -10 3.34 2.23
-6 10 -10 2.4 1.99
-10 6 -10 3.95 3.72
4 -10 -10 -2.06 2.53
10 -6 10 4.72 2.45
6 -10 -10 -0.55 2.02
10 -4 10 1.47 0.82
-6 -4 10 -0.48 2.1
-4 -6 10 0.5 2.53
6 4 10 -0.7 1.38
4 -10 -10 2.07 1.45
6 -10 -10 -1.58 3.62
4 -10 10 4.13 3.33
-10 6 -10 0.88 1.73
6 4 -10 5.31 4.65
6 -10 11 8.77 3.33
4 6 -11 3.47 1.69
-6 10 11 3.54 1.9
-6 10 -11 5.45 1.89
4 -10 -11 -1.16 2.49
10 -6 11 8.82 3.52
-6 -4 11 6.65 2.89
6 -10 -11 0.96 1.48
-4 -6 11 7.34 3.49
6 4 11 4 3.09
4 -10 -11 -2.73 5.27
4 -10 11 9.8 3.52
6 -10 -11 0.12 1.91
-10 6 -11 6.66 2.89
6 4 -11 4.42 0.84
-10 4 -11 11.11 3.48
4 6 -12 1.22 2.4
-6 10 12 3.02 1.69
-6 10 -12 -1.13 2.32
4 -10 -12 -0.01 1.3
10 -6 12 0.52 0.39
-6 -4 12 1.67 2.95
6 -10 -12 -2.97 3.84
6 4 12 4.41 4.52
4 -10 12 -0.12 0.29
-10 6 -12 5.8 3.53
6 4 -12 1.38 0.88
6 -10 12 0.9 1.83
-10 4 -12 -2.69 3.2
-6 10 13 1.18 1
-6 10 -13 -2.57 2.13
10 -6 13 -0.03 0.77
-6 -4 13 -0.18 1.29
6 -10 -13 0.48 0.92
6 4 13 -2 3.68
4 -10 13 -0.75 1.66
-10 6 -13 -3.09 2.91
6 4 -13 0.52 2.17
6 -10 13 3.2 1.67
-6 10 14 17.07 5.3
-6 10 -14 21.59 6.16
10 -6 14 17.91 4.91
6 -10 -14 16.71 5.82
6 4 14 22.35 8.32
6 -10 14 20.6 5.38
-6 10 15 1.74 2.04
6 -10 -15 0.56 2.64
6 4 15 6.03 4.86
-3 -7 0 30.2 6.56
3 7 0 22.18 6.3
-7 -3 0 28.78 6.09
7 -10 0 17.73 5.45
-10 7 0 28.95 4.89
-3 10 0 22.82 6.53
10 -7 0 28.6 6.73
-7 10 0 26.43 6.21
10 -3 0 19.62 4.66
-10 3 0 40.05 11.06
7 3 0 22.53 5.06
-3 -7 0 21.43 6.06
3 -10 0 16.69 4.98
7 -10 0 19.64 5.92
-7 -3 0 24.49 4.93
-7 10 0 25.03 5.3
-10 3 0 23.32 6.68
-10 7 0 28.72 7.12
-7 -3 1 48.41 7.69
-7 -3 -1 48.15 7.53
3 7 1 44.77 8.66
-3 10 1 42.59 8.46
-7 10 -1 48.96 8.52
-7 10 1 47.02 8.43
10 -7 1 39.55 8.13
7 -10 1 38.27 8.36
10 -7 -1 47.17 8.68
7 -10 -1 36 8.07
-10 7 -1 41.02 5.78
-3 10 -1 40.7 8.31
10 -3 -1 44 7.28
-10 3 1 47.32 11.99
10 -3 1 34.72 6.23
7 3 1 36.97 5.97
-10 3 -1 45.02 11.88
7 3 -1 35.16 6.26
-10 7 -1 34.34 4.91
-3 -7 -1 34.27 7.41
3 -10 1 30.5 5.97
3 -10 -1 26.98 6.11
-7 -3 1 40.13 6.19
7 -10 1 24.37 6.12
7 -10 -1 26.48 7.4
-7 10 -1 42.78 6.8
-10 3 -1 36.65 7.56
-7 10 1 39.64 6.23
-10 7 -1 39.19 7.38
-10 3 1 41.67 8.04
-10 7 1 37.97 7.76
-3 -7 1 40.68 7.55
-7 -3 -1 40.53 5.99
-3 -7 -1 41.39 7.38
3 7 -1 44.26 9.21
-3 -7 -2 28 5.6
-7 -3 -2 25.09 4.57
-3 -7 -2 25.74 6.04
3 7 -2 26.51 7.21
3 -10 2 28.8 6.81
3 7 2 26.22 6.5
-7 -3 2 25.37 5.74
-7 -3 -2 32.03 6.17
7 -10 2 21.18 6.39
7 -10 -2 19.73 6.07
-3 10 -2 27.13 6.96
-3 10 2 27.32 7.19
-10 3 2 24.82 8.22
-7 10 -2 26.74 5.97
10 -7 2 24.97 6.43
10 -7 -2 21.91 5.71
-7 10 2 23.82 6.21
10 -3 2 20.36 4.69
10 -3 -2 19.18 4.89
-10 3 -2 29.82 9.34
7 3 -2 19.25 4.92
-7 -3 2 22.94 4.76
-3 -7 -2 23.49 6.04
3 -10 2 22.88 4.99
3 -10 -2 16.78 4.99
7 -10 2 19.51 5.49
7 -10 -2 10.03 4.83
-3 -7 2 30.8 6.8
7 3 -2 11.79 4.92
-7 10 -2 26.48 5.44
-10 3 -2 25.1 6.33
-10 7 -2 26.56 6.3
-10 7 -2 22.83 4
-10 3 2 22.65 6.07
-7 10 2 21.47 4.49
-10 7 2 24.98 6.32
-10 7 3 17.3 5.6
3 -10 3 15.71 5.06
3 7 -3 17.03 5.71
-7 -3 -3 13.41 3.4
-3 -7 -3 11.84 3.94
-3 -7 -3 13.7 3.71
-7 -3 3 18.06 5
3 7 3 14.29 4.96
-7 -3 -3 16.72 4.43
7 -10 3 16.11 5.92
-3 10 -3 14.2 5.07
7 -10 -3 11.96 4.83
-10 3 3 5.8 2.41
-7 10 -3 14.92 4.37
10 -7 3 13.5 4.47
-3 10 3 18.16 5.88
10 -7 -3 10.63 4.64
-7 10 3 9.62 3.81
10 -3 3 11.57 3.34
10 -3 -3 8.27 2.92
-7 -3 3 9.49 2.91
-3 -7 -3 10.82 3.98
-10 3 -3 13.27 4.79
3 -10 3 10.32 2.98
3 -10 -3 10.91 4.05
-3 -7 3 19.06 5.39
7 -10 -3 -5.77 4.42
7 3 -3 4.1 2.7
-7 10 -3 12.54 3.83
-10 3 -3 14.45 4.9
-10 7 -3 11.25 4.36
-10 7 -3 11.95 2.84
-10 3 3 11.36 4.26
-7 10 3 11 3.63
-7 10 4 1.38 1.66
-10 7 4 2.44 2.59
3 -10 4 -4.54 2.83
3 7 -4 3.08 2.02
-7 -3 4 4.48 2.29
-3 -7 -4 0.12 1.21
3 7 4 -0.39 1.75
7 -10 4 -0.18 1.83
-10 3 4 -1.74 3.71
-7 -3 -4 -0.26 0.79
-3 10 -4 -0.82 0.82
7 -10 -4 -4.32 3.21
-7 10 -4 0.61 1
10 -7 4 0.81 2.09
-3 10 4 0.83 1.73
10 -7 -4 3.28 1.62
10 -3 4 4.7 2.67
-7 10 4 0.34 1.39
10 -3 -4 -1.67 2.03
-7 -3 4 0.77 1.34
-3 -7 -4 -1.86 2.96
3 -10 4 0.92 0.23
-3 -7 4 1.51 1.26
3 -10 -4 0.2 0.5
7 -10 -4 -1.72 2.85
-10 3 -4 3.36 1.56
-7 10 -4 1.38 2.33
7 3 -4 -1.24 1.65
-10 3 -4 1.17 2.06
-10 7 -4 1.76 0.59
-10 7 -4 0.91 1.24
-10 3 4 1.16 2.16
-10 3 5 14.14 4.64
-7 10 5 15.62 4.29
-10 3 -5 24.34 8.62
-10 7 5 16.37 4.87
3 -10 5 18.46 5.14
-7 -3 5 18.75 4.86
3 7 -5 22.02 6.7
-3 -7 -5 15.16 3.64
3 7 5 21.09 6.13
-10 3 5 19.7 6.95
7 -10 5 17.3 5.39
-3 10 -5 17.71 5.6
-7 -3 -5 17.48 4.6
7 -10 -5 11.74 4.75
-7 10 -5 18.57 4.61
10 -7 5 25.55 5.94
-3 10 5 20.51 6.09
10 -3 5 19.22 4.54
10 -7 -5 17.24 5.05
-7 10 5 20.23 5.89
-7 -3 5 17.6 4.82
10 -3 -5 14.3 4.65
-3 -7 5 16.88 5.05
-3 -7 -5 14.31 5.67
3 -10 -5 12.36 4.79
7 -10 -5 9.14 4.44
-7 10 -5 20.22 4.83
7 3 -5 10.58 4.59
-10 3 -5 13.12 4.45
-10 7 -5 18.61 4.3
-10 7 -5 19.61 5.36
-10 3 6 0.7 1.85
-7 10 6 1.38 2.06
-10 7 6 3.71 2.56
-10 3 -6 8.23 5.93
3 7 -6 2.8 2.16
-10 3 6 -1.58 3.25
-3 -7 -6 0.89 0.47
3 7 6 2.74 2.12
7 -10 6 6.37 3.8
-3 10 -6 -0.14 1.68
-7 10 -6 3.85 2.45
-7 -3 -6 3.77 2.2
7 -10 -6 2.86 2.08
10 -7 6 4.6 3.17
-3 10 6 2.36 2.04
10 -3 6 4.08 2.27
10 -7 -6 3.19 2.46
-7 -3 6 3.3 2.28
-7 10 6 4.27 2.74
10 -3 -6 0.61 1.31
-3 -7 6 2.05 2.4
-3 -7 -6 -2.16 2.92
3 -10 -6 2.45 3.06
7 -10 -6 -3.13 5.09
7 3 -6 -0.84 3.24
-10 3 -6 1.08 0.7
-10 7 -6 3.02 0.68
-10 7 -6 1.81 1.74
3 -10 6 1.81 1.67
-10 3 7 0.86 0.48
-10 7 7 0.85 1.18
-7 10 7 1.41 1.46
3 7 -7 1.76 2.46
-10 3 -7 5.66 3.3
-3 10 -7 2.07 2.48
7 -10 7 0.08 0.79
3 7 7 0.65 0.91
-3 -7 -7 2.6 1.94
-10 3 7 5.18 4.2
-7 10 -7 2.18 1.47
7 -10 -7 0.91 1.51
10 -7 7 -0.07 1.63
10 -3 7 3.72 2.22
-3 10 7 1.26 1.36
-7 -3 7 0.79 1.1
10 -7 -7 1.51 0.82
-7 10 7 1.23 1.27
10 -3 -7 3.2 2.56
7 3 7 7.37 5.55
-3 -7 7 3.33 3.05
-3 -7 -7 3.99 3.03
3 -10 -7 0.29 1.89
7 -10 -7 -0.68 2.4
7 3 -7 0.54 2.12
-10 7 -7 1 1.84
-10 3 -7 0.2 1.55
-10 7 -7 3.34 2.64
3 -10 7 3.61 3.05
-10 3 8 14.33 4.85
-10 7 8 15.64 5.19
-7 10 8 12.67 3.8
3 7 -8 16.06 6.2
3 -10 -8 8.52 3.64
-3 10 -8 9.54 3.56
3 7 8 15.31 4.81
-10 3 8 13.68 6.39
-3 -7 -8 8.13 2.31
-7 10 -8 11.37 4.23
10 -7 8 15.48 4.81
-10 3 8 16.55 4.24
7 -10 -8 15.28 5.75
-10 3 -8 15.58 6.73
-7 -3 8 8.8 3.63
-3 10 8 15.05 5.63
10 -3 -8 11.25 4.2
7 3 8 15.88 7.33
-3 -7 8 12.04 4.4
10 -3 8 12.32 5.25
-3 -7 -8 9.19 4.04
3 -10 -8 8.42 4.31
7 -10 -8 5.41 3.51
-10 3 -8 7.69 2.4
-10 7 -8 14.25 4.57
7 3 -8 12.53 5.86
3 -10 8 13.25 5.07
-10 7 -8 15.79 4.81
-10 3 9 -1.06 1.64
-7 10 9 0.03 0.2
3 7 -9 1.35 1.49
3 -10 -9 1.65 0.8
-10 3 9 1.58 2.69
-7 10 -9 -0.02 1.26
3 7 9 0.78 1.37
-3 -7 -9 2.69 0.68
10 -7 9 0.27 0.42
-10 3 9 0.2 1.01
7 -10 -9 6.13 3.94
-7 -3 9 1.84 2.88
-3 -7 9 -0.65 1.23
10 -3 -9 1.67 0.69
7 3 9 6.12 5.88
10 -3 9 2.72 3.26
3 -10 -9 -4.85 4.36
7 -10 -9 -2.29 2.48
3 -10 9 3.59 3.28
7 3 -9 6.76 5.99
-10 7 -9 3.9 2.07
-10 3 10 17.18 5.8
-7 10 10 18.84 5.16
3 7 -10 22.05 7.45
3 -10 -10 9.77 4.35
-7 10 -10 23.3 5.76
-10 3 10 12.09 5.55
3 7 10 25.25 7.13
10 -7 10 18.83 4.67
-10 3 10 16.91 4.51
-7 -3 10 18.63 5.58
-3 -7 -10 18.22 3.93
7 -10 -10 26.62 7.44
7 3 10 23.63 8.21
10 -3 10 25.07 7.9
3 -10 -10 11.26 4.85
3 -10 10 23.28 6.47
7 -10 -10 6.33 6.07
-10 7 -10 17.03 4.7
7 3 -10 20.78 7.52
-7 10 11 16.97 4.32
-7 10 -11 26.77 5.93
-10 3 11 26.49 8.42
-7 -3 11 28.58 7.27
10 -7 11 29.87 6.64
-10 3 11 25.77 5.16
7 -10 -11 24.7 7.38
7 3 11 33.62 11.32
7 -10 -11 10.37 2.66
-10 7 -11 34.62 7.35
7 3 -11 30.72 9.32
-7 10 12 6.72 2.98
-7 10 -12 1.71 1.76
-10 3 12 8.62 5.4
-7 -3 12 3.21 0.75
10 -7 12 7.44 3.6
-10 3 12 6.41 1.78
7 -10 -12 10.01 4.29
7 3 12 8.28 6.08
7 3 -12 6.08 4.62
-10 7 -12 4.36 1.9
-7 10 13 1.55 1.52
-7 10 -13 3.72 2.38
-7 -3 13 2.5 1.3
10 -7 13 -0.33 1.47
7 -10 -13 6.48 4.47
7 3 13 3.6 4.23
7 3 -13 0.07 2.7
-7 10 14 -0.54 2.36
-7 10 -14 1.77 1.76
10 -7 14 -0.07 2.52
7 -10 -14 -1.53 3.42
7 3 14 -0.28 1.16
-7 10 15 14.08 5.42
-7 10 -15 17.76 5.44
2 8 0 191.21 19.06
-8 -2 0 218.89 16.8
-2 10 0 202.56 19.68
8 -10 0 191.49 19.46
-8 10 0 215.58 17.72
10 -8 0 228.06 20.11
-10 8 0 208.16 14.62
10 -2 0 174.53 14.64
8 2 0 175.07 13.4
-2 -8 0 156.27 15.55
2 -10 0 143.38 13.95
-10 2 0 245.12 28.47
-8 -2 0 182.93 14.88
-10 2 0 189.35 17.01
-8 10 0 201.05 15.43
-10 8 0 191.14 16.79
-2 -8 0 208.18 17.71
-2 -8 1 3.87 4
-2 -8 -1 9.98 5.02
-8 -2 -1 31.54 7.27
-10 2 1 -2.99 1.51
2 -10 1 8.43 5.79
2 8 -1 3.53 3.29
2 8 1 7.62 5.29
-8 -2 1 7.65 4.89
8 -10 1 2.21 2.58
-2 10 -1 5.19 5.75
8 -10 -1 2.09 3.89
-10 2 -1 -3.69 4.87
-2 10 1 10.84 5.73
10 -8 1 0.09 1.1
10 -8 -1 1.13 2.45
-8 10 -1 0.97 2.38
-8 10 1 4.45 3.92
-10 8 -1 1.61 1.4
-10 8 1 1.45 0.44
10 -2 1 2.76 1.18
10 -2 -1 -3.47 2.54
8 2 1 6.74 2.86
8 2 -1 2.43 1.55
-2 -8 1 12.58 4.61
-2 -8 -1 -0.52 1
2 -10 1 14.15 4.6
2 -10 -1 -1.98 3.23
8 -10 1 1.36 2.62
-8 -2 1 4.57 5.75
-10 2 -1 11.07 7.61
-8 10 -1 1.44 2.02
-10 2 1 0.91 2.97
-10 8 -1 6.52 6.17
-8 10 1 4.03 3.49
-10 8 1 -0.45 0.41
-10 2 2 16.38 7.39
2 -10 2 18.85 5.76
-2 -8 -2 14.39 4.23
2 8 -2 18.58 6.44
2 8 2 14.61 5.2
-8 -2 2 15.56 4.15
-2 10 -2 13.44 5.06
-8 -2 -2 14.44 4.52
8 -10 2 12.44 4.64
8 -10 -2 14.35 5.41
-2 10 2 15.31 5.46
10 -8 2 14.41 5.2
-8 10 -2 15.65 4.27
10 -8 -2 15.04 4.86
-10 8 -2 14.08 3.66
-8 10 2 17.45 5.1
-10 2 -2 18.24 8.95
10 -2 2 11.52 3.59
10 -2 -2 13.64 3.96
8 2 -2 13.43 4.06
-2 -8 -2 9.09 3.86
2 -10 2 11.1 3.59
2 -10 -2 10.69 4.34
-8 -2 2 14.68 4.24
-10 2 -2 15.37 4.65
-8 10 -2 12.38 3.62
-2 -8 2 17.61 5.26
-10 8 -2 16.38 5.02
-10 2 2 12.56 4.15
-8 10 2 12.47 3.59
-10 8 2 17.16 4.94
-10 8 3 3.6 2.77
-2 -8 -3 1.63 0.71
-10 2 3 -1.06 2.18
2 -10 3 -2.24 1.25
2 8 -3 1.36 0.75
-8 -2 3 0.61 0.5
2 8 3 0.1 0.83
-2 10 -3 1.36 2.66
8 -10 3 -0.03 0.84
-8 -2 -3 0.15 2.1
8 -10 -3 6.46 4.13
10 -8 3 4.03 2.23
-2 10 3 0.37 1.92
-8 10 -3 0.17 0.95
10 -8 -3 1.09 1.24
-8 10 3 2.46 2.32
10 -2 3 -0.62 1.93
10 -2 -3 0.68 0.89
8 2 -3 -0.41 2.1
-8 -2 3 -0.07 1.15
-10 2 -3 0.71 1.36
-2 -8 -3 -0.07 2.05
2 -10 3 0.36 0.82
2 -10 -3 -4.59 4.12
-2 -8 3 2.37 2.12
-10 2 -3 1.49 1.48
-8 -2 3 -1.35 0.9
-8 10 -3 -1.21 1.27
-10 8 -3 1.72 2.12
-10 2 3 2.71 3.1
-8 10 3 1.61 1.61
-8 10 4 8.86 3.36
-10 8 4 9.74 4.07
-10 2 4 8.8 4.02
2 -10 4 6.9 2.46
2 8 -4 5.76 3.21
-2 -8 -4 4.75 1.54
-8 -2 4 7.91 2.85
2 8 4 5.61 3.45
-2 10 -4 6.78 3.75
8 -10 4 5.81 2.8
-8 -2 -4 13.13 4.44
8 -10 -4 4.35 3.51
10 -8 4 10.44 4.13
-8 10 -4 5.76 2.77
-2 10 4 5.08 2.96
10 -8 -4 11.65 4.55
-8 10 4 10.15 4.26
10 -2 4 5.5 2.34
10 -2 -4 4.54 2.32
-8 -2 4 5.7 2.3
8 2 -4 5.1 2.64
-2 -8 -4 7.85 3.44
2 -10 -4 7.35 3.68
-2 -8 4 10.56 4.09
-10 2 -4 7.41 4.58
-10 8 -4 9.76 3.01
-10 2 -4 4.77 3.03
-8 10 -4 5.99 2.65
-10 8 -4 5.03 2.57
-10 2 4 3.87 2.47
2 -10 5 -1.39 2.42
-8 10 5 1.98 0.65
-10 8 5 1.93 2.26
-10 2 -5 -1.4 2.07
2 8 -5 2.04 1.31
-2 -8 -5 0.93 1.21
-8 -2 5 -0.07 0.39
2 8 5 0.58 0.99
-10 2 5 0.43 0.94
10 -8 5 -1.56 2.27
8 -10 -5 2.86 1.21
-8 10 -5 1.11 0.77
-2 10 5 -0.71 2.32
10 -2 5 -1.22 1.13
-8 10 5 -0.07 1.57
-8 -2 5 0.44 1.02
10 -2 -5 0.36 0.55
8 2 -5 -1.89 1.58
-2 -8 -5 -0.28 2.17
2 -10 -5 3.35 3.87
-2 -8 5 0.38 2.18
-10 8 -5 1.81 0.82
-8 10 -5 1.26 2.12
-10 2 -5 0.95 1.64
-10 8 -5 -1.48 1.55
-10 2 5 -5.01 5.16
-10 2 5 2.59 3.08
-10 2 6 4.46 2.69
-8 10 6 1.5 0.65
-10 8 6 2.14 1.16
2 8 -6 -0.23 3.12
-8 -2 6 3.68 2.24
-2 -8 -6 2.35 1.84
2 8 6 2.59 2.67
-10 2 6 6.09 3.13
10 -8 6 4.14 2.47
-8 10 -6 2.72 1.23
8 -10 -6 7.5 4.43
-2 10 6 3.58 2.44
-8 -2 6 3.65 2.38
-8 10 6 2.38 0.79
10 -2 -6 2.14 2.47
10 -2 6 4.32 2.88
8 2 -6 -0.16 2.31
-2 -8 6 2.78 2.31
-2 -8 -6 0.68 2.57
2 -10 -6 -3.44 3.38
-10 8 -6 5.24 1.67
-8 10 -6 6.55 2.97
-10 2 -6 4.8 3.27
-10 2 6 4.15 2.77
-10 8 -6 4.67 2.65
2 -10 6 2.69 1.34
-10 2 7 3.54 2.74
-8 10 7 -0.68 1.1
2 8 -7 -1.22 3.17
-2 -8 -7 1.15 1.53
2 8 7 2.98 2.19
-10 2 7 4 3.21
-8 10 -7 -0.95 1.63
10 -8 7 -0.95 2.29
8 -10 -7 -0.32 1.49
-2 10 7 0.68 1.51
-8 -2 7 -1.31 1.66
10 -2 -7 -1.1 2.27
8 2 7 -2.74 1.93
10 -2 7 -0.8 4.19
8 2 -7 1.81 3.06
2 -10 -7 2.18 1.47
8 2 -7 -1.15 1.24
-10 8 -7 -0.88 1.39
-10 2 7 5.12 3.65
-10 8 -7 -0.06 2.15
-10 2 8 3.17 3.11
-8 10 8 0.09 0.36
-2 -8 -8 1.43 1.4
-8 10 -8 0.34 0.35
-10 2 8 2.97 2.04
10 -8 8 2.24 0.65
2 8 8 -2.1 2.64
-8 -2 8 3.27 1.13
10 -2 -8 4.95 2.9
8 2 8 0.25 3.29
10 -2 8 9.46 5.52
8 2 -8 -0.32 1.21
2 -10 -8 2.26 2.32
8 2 -8 0.97 2.37
-10 8 -8 5.65 2.43
-10 2 8 -0.82 2.53
-10 2 9 -2.01 2.1
-8 10 9 -1.03 2.66
-8 10 -9 2.95 1.63
-10 2 9 -5.28 3.51
-2 -8 -9 -0.59 1.45
10 -8 9 3.06 2.65
-8 -2 9 -3.44 3.35
2 8 9 0.51 1.06
8 2 9 4.45 3.98
10 -2 9 -0.08 2.34
8 2 -9 -4.71 3.24
8 2 -9 1.4 3.11
-10 2 9 -3.97 5.1
-10 8 -9 -1.39 2.66
-10 2 10 35.28 8.07
-8 10 10 27 6.3
-8 10 -10 39.93 7.39
-10 2 10 37.94 6.46
10 -8 10 37.99 7.97
-8 -2 10 23.64 5.98
2 8 10 40.58 8.98
8 2 10 38.11 12.67
8 2 -10 22.37 6.13
8 2 -10 27.62 8.36
-10 2 10 52.83 12.13
-10 8 -10 47.84 8.7
-8 10 11 0.57 1.4
-8 10 -11 -2.47 3.18
-8 -2 11 1.91 1.97
-10 2 11 -1.31 2.67
2 8 11 -0.01 2.68
8 2 11 -4.6 8.53
8 2 -11 1.55 1.48
-10 8 -11 -3.92 4.03
-8 10 -12 61.57 9.31
-8 10 12 45.28 8.5
-10 2 12 72.09 9.64
2 8 12 72.11 12.26
-8 -2 12 52.17 9.98
8 2 12 75.57 18.04
-10 8 -12 71.3 11.39
8 2 -12 48.24 10.41
-8 10 -13 5.12 2.55
-8 -2 13 2.29 2.66
-10 2 13 1.08 1.08
8 2 13 -4.77 9.64
8 2 -13 1.51 3.15
1 9 0 11.8 4.96
-10 1 0 14.11 6.38
-9 10 0 14.34 4.26
-10 9 0 16.55 4.51
10 -1 0 10.8 3.35
9 1 0 8.69 2.79
-1 -9 0 16.95 5.51
1 -10 0 14.34 4.23
-9 -1 0 10.59 4.19
-10 1 0 15.2 4.62
-9 10 0 11.5 4.35
-10 9 0 12.06 4.36
-10 1 1 20.02 8.69
1 9 -1 22.57 7.13
1 9 1 22.39 6.93
-9 10 -1 18.71 5
-10 9 -1 21.28 4.95
-9 10 1 18.74 4.92
-10 9 1 15.71 4.1
10 -1 1 16.03 4.28
10 -1 -1 14.89 3.94
9 1 -1 15.87 4.05
-10 1 -1 16.52 6.8
-1 -9 1 16.9 5.2
-1 -9 -1 18.33 5.3
1 -10 1 17.42 5.06
1 -10 -1 7.83 3.12
-9 -1 -1 19.62 5.45
-9 -1 1 15.44 4.84
-10 1 -1 24.75 6.4
-10 1 1 14.84 5.25
-9 10 -1 16.42 4.78
-10 9 -1 19.53 4.95
-9 10 1 13.66 4.22
-10 9 1 16.99 5.14
1 9 -2 9.09 4.04
1 9 2 11.67 4.82
-10 1 -2 9.69 5.46
-9 10 -2 14.68 4.5
-10 9 -2 11.06 3.3
-9 10 2 16.73 5.31
-10 9 2 16.57 4.63
10 -1 2 8.24 2.64
10 -1 -2 9.94 3.51
9 1 -2 8.84 2.31
10 -1 2 14.66 6.78
-1 -9 2 7.72 3.28
-1 -9 -2 5.08 1.53
1 -10 2 10.83 3.07
1 -10 -2 10.07 3.93
-9 -1 -2 12.48 4.65
-10 1 2 9.33 4.07
-10 1 -2 13.03 5.12
-9 -1 2 9.98 3.9
-9 10 -2 12.57 4.49
-10 9 -2 12.23 4.54
-10 1 2 14.28 5.31
-9 10 2 8.61 3.55
-10 9 2 8.42 3.88
1 9 -3 4.62 2.88
1 9 3 8.66 3.93
-10 1 3 7.75 2.84
-9 10 -3 4.84 2.95
-10 9 -3 8.07 2.83
-9 10 3 9.96 3.85
-10 9 3 7.62 3.92
10 -1 -3 2.69 1.49
-10 1 3 2.32 1.15
9 1 -3 8.3 2.64
10 -1 3 1.86 3.02
-1 -9 3 4.52 2.05
1 -10 3 4.35 2.09
-1 -9 -3 3.81 2.73
1 -10 -3 4.98 2.1
-10 1 -3 8.48 3.2
-9 10 -3 5.92 2.95
-9 -1 3 9.8 4.02
-10 9 -3 9.95 4.37
-10 1 3 5.22 3.12
-9 10 3 6.6 2.88
-10 9 3 11.38 4.62
-9 10 4 6.98 3.38
-1 -9 -4 0.16 0.96
1 9 4 1.26 0.42
-10 1 4 1.88 1.85
-9 10 -4 2.09 1.92
-9 10 4 -0.6 1.5
-10 1 4 4.57 3.22
10 -1 -4 2.91 1.72
9 1 -4 1.89 0.6
10 -1 4 -2.72 2.22
-1 -9 -4 3.5 1.32
1 -10 -4 2.22 2.35
-10 1 -4 0.57 1.59
-9 10 -4 4.78 2.9
-10 9 -4 3.46 2.58
-9 -1 4 4.8 3.79
-10 1 4 0.11 1.07
-9 10 5 16.63 5.12
-1 -9 -5 13.15 3.17
1 9 5 12.24 5.01
-10 1 5 19.99 5.26
-9 10 -5 13.96 3.98
-10 1 5 8 4.93
-9 10 5 12.98 5.46
10 -1 -5 9.35 3.52
9 1 -5 8.55 2.2
10 -1 5 15.97 6.64
1 -10 -5 4.99 3.52
-10 1 -5 12.33 4.2
-9 10 -5 12.84 3.63
-9 -1 5 13.34 4.53
-10 1 5 11.12 4.4
-9 10 6 2.99 2.33
-10 1 6 3.58 1.94
1 9 6 5.31 3.35
-9 10 -6 1.29 0.66
10 -1 -6 1.2 1.17
9 1 6 3.55 1.7
9 1 -6 3.56 1.12
10 -1 6 5.22 1.38
1 -10 -6 5.78 3.68
-9 10 -6 2.74 1.53
-9 -1 6 2.05 2.15
-10 1 6 3.29 2.77
-9 10 7 3.83 2.35
-10 1 7 2.57 0.98
-9 10 -7 6.7 2.91
1 9 7 6.1 3.82
-10 1 7 0.01 2.41
10 -1 -7 -2.27 2.22
9 1 7 3.54 1.8
9 1 -7 0.95 1.4
10 -1 7 2.68 1.53
-9 10 -7 4.29 1.78
-10 1 7 3.54 1.19
-10 1 8 2.46 1.11
-9 10 8 0.34 1.38
-9 10 -8 4.24 2.37
1 9 8 5.38 4.18
-10 1 8 10.64 5.93
9 1 8 1.77 2.92
10 -1 8 5.06 4.95
9 1 -8 3.96 2.3
-9 10 -8 5.51 2.71
-10 9 -8 -3.7 2.9
-10 1 9 4.21 3.62
1 9 9 3.44 3.48
9 1 9 5.15 2.21
10 -1 9 -5.48 6.38
-9 10 -9 -3.51 3.61
-10 9 -9 -4.03 4
-10 1 10 18.85 6.22
1 9 10 21.76 7.47
9 1 10 17.37 5.72
-9 10 -10 35.94 7.86
-10 9 -10 24.63 6.74
1 9 11 12.37 4.18
-10 10 0 0.67 0.93
0 -10 0 -0.62 2.37
-10 0 0 1.24 2.76
-10 10 -1 5.95 3.16
-10 10 1 2.23 1.38
0 -10 1 4.47 2.76
0 -10 -1 -0.03 2.28
-10 0 -1 8.57 4.33
-10 0 1 3.57 2.17
-10 10 -2 4.69 2.65
-10 10 2 6.19 2.84
10 0 -2 6.56 3.05
0 -10 2 4.97 2.71
0 -10 -2 4.54 2.14
-10 0 -2 6.49 3.42
-10 0 2 7.03 3.42
-10 10 -3 1.14 0.95
-10 10 3 4.33 2.23
10 0 -3 1.45 0.21
0 -10 3 1.72 0.72
-10 0 -3 5.99 4.06
-10 0 3 -0.83 1.32
-10 10 4 18.51 5.19
10 0 -4 12.69 3.97
-10 0 4 9.08 3.18
10 0 -5 21.01 5.44
-10 0 5 19.4 5.92
-10 0 6 5.64 3.44
-5 -6 0 13.71 4.46
5 6 0 9.55 4.89
5 -11 0 10.09 5.06
11 -6 0 12.75 4.91
11 -5 0 12.04 4.57
5 -11 0 4.78 1.76
-6 -5 0 15.68 4.38
-6 -5 -1 22.42 5.51
-5 -6 -1 25.55 5.9
5 6 -1 18.07 5.86
5 6 1 24.59 7.05
5 -11 1 21.31 6.22
5 -11 -1 21.51 6.52
6 -11 -1 22.02 6.6
11 -6 1 30.14 6.84
11 -6 -1 28.15 7.11
11 -5 1 19.25 5.59
11 -5 -1 23.37 5.82
5 -11 -1 16.42 4.44
6 -11 -1 12.19 3.97
-6 -5 1 16.59 4.7
-5 -6 1 21.01 4.88
5 6 -2 3.46 3.79
-6 -5 -2 6.22 3.16
-5 -6 -2 1.17 0.92
-5 -6 -2 6.45 2.76
5 -11 -2 1.16 0.87
6 -11 -2 2.91 2.2
11 -6 2 2.32 0.48
11 -5 2 1.83 1.47
11 -6 -2 7.82 3.97
11 -5 -2 -0.11 1.14
5 -11 -2 2.59 2.08
6 -11 -2 2.62 2.26
-6 -5 2 5.21 2.86
-5 -6 2 3.3 1.77
6 5 -3 3.3 3.11
5 6 -3 2.57 3.97
-5 -6 -3 2 1.73
5 -11 -3 -0.01 1
6 -11 -3 3.71 2.99
11 -6 3 2.08 1.57
11 -5 3 -0.25 2.44
11 -5 -3 1.34 1.26
-6 -5 3 1.53 1.92
5 -11 -3 0.75 1.08
-5 -6 3 1.89 1.1
6 -11 -3 5.61 3.44
6 5 -4 4.34 3.22
5 6 -4 7.83 3.94
-5 -6 -4 4.51 2.88
5 -11 -4 -1.94 3.24
6 -11 -4 1.43 1.15
11 -6 4 3.43 1.86
11 -5 4 -0.5 2.15
-6 -5 4 5.8 2.3
-5 -6 4 4.13 2.06
5 -11 -4 0.04 2.76
6 -11 -4 0.63 1.91
6 5 -5 12.46 6.38
-11 6 -5 12.27 3.54
5 6 -5 12.87 5.47
5 -11 -5 6.31 3.76
-5 -6 -5 12.75 3.98
6 -11 -5 14.55 5.53
11 -6 5 15.55 3.86
11 -5 5 12.79 4.23
-6 -5 5 15.55 4.55
-5 -6 5 12.48 4.54
5 -11 -5 8.38 3.89
6 -11 -5 4.87 1.89
-11 6 -6 4.04 2.05
5 6 -6 0.55 3.08
5 -11 -6 2.67 2.71
6 -11 -6 2.89 2.51
-5 -6 -6 5.21 2.3
11 -6 6 2.92 1.02
11 -5 6 3.22 1.89
-6 -5 6 -0.97 2.45
-5 -6 6 2.87 2.14
5 -11 -6 -1.09 2.59
6 -11 -6 3.12 3.86
6 5 -6 0.12 1.74
-11 6 -7 2.22 4.34
5 6 -7 0.41 1.78
5 -11 7 1.14 1.89
5 -11 -7 0.65 2.28
6 -11 -7 0.79 2.35
11 -6 7 2.39 1.94
11 -5 7 0.86 1.48
-6 -5 7 -0.47 1.57
5 -11 -7 -2.81 3.03
6 -11 -7 -0.19 1.1
6 5 -7 -2.26 2.81
5 6 -8 -1.4 4.54
-11 5 -8 1.6 1.47
5 -11 8 -0.89 2.01
5 -11 -8 -1.39 2.89
6 -11 -8 7.23 4.21
11 -6 8 2.73 1.27
11 -5 8 3.75 2.23
-6 -5 8 0.37 1.09
5 -11 -8 -0.22 2.17
6 -11 -8 1.96 1.4
6 5 -8 2.07 2.82
-11 6 -8 -1.54 1.71
5 6 -9 -0.63 4.13
6 -11 9 3.8 2.99
5 -11 -9 6.83 3.69
6 -11 -9 -1.86 1.76
11 -6 9 1.42 1.01
6 5 -9 1.27 1.58
-11 6 -9 1.26 1.08
6 -11 10 3.6 2.46
5 -11 -10 2.61 2.07
6 -11 -10 2.7 3.26
11 -6 10 0.83 1.74
6 5 -10 6.81 4.08
6 -11 -11 11.12 4.91
-4 -7 0 26.68 5.51
-4 -7 0 28.47 6.46
4 7 0 21.89 6.76
11 -4 0 27.07 6.01
4 -11 0 21.99 5.42
-7 -4 0 29.8 5.69
-7 -4 -1 2.6 2.09
-4 -7 -1 3.5 3.05
4 7 -1 -1.35 3.33
4 7 1 1.53 2.7
-4 -7 -1 3.35 2.61
11 -4 1 2.26 1.63
11 -4 -1 3.32 2.07
4 -11 -1 -0.72 0.38
7 -11 -1 3.55 3.16
-7 -4 1 1.41 1.35
-4 -7 1 0.32 2.71
4 7 -2 7.03 4
4 7 2 4.11 3.84
-4 -7 -2 3.8 1.99
-4 -7 -2 7.88 2.84
11 -4 2 2.22 1.28
11 -4 -2 3.72 2.51
4 -11 -2 0.85 0.3
-7 -4 2 5.3 2.3
7 -11 -2 2.76 1.18
-4 -7 2 6.45 3.52
4 7 -3 -0.38 0.32
4 7 3 1.93 3.16
-4 -7 -3 -0.77 1.37
-11 4 3 0.54 0.93
11 -7 3 2.17 3.15
11 -4 3 0.54 1.38
11 -4 -3 0.18 0.85
-7 -4 3 1.5 1.1
4 -11 -3 -2.54 3.37
7 -11 -3 -1.63 2.95
-4 -7 3 3.54 2.57
4 7 -4 13.47 5.34
4 7 4 14.31 4.45
-4 -7 -4 10.44 2.84
-11 4 4 15.28 7.25
11 -7 4 16.65 5.34
11 -4 4 5.42 2.32
-7 -4 4 12.71 4.03
4 -11 -4 7.12 2.95
7 -11 -4 4.31 2.35
4 7 -5 3.82 1.19
-4 -7 -5 5.02 2.28
-11 4 5 1.86 2.96
11 -7 5 0.82 1.75
11 -4 5 -0.44 0.83
-7 -4 5 4.65 2.07
4 -11 -5 0.02 1.35
7 -11 -5 2.12 2.95
-11 7 -5 0.01 1.28
4 7 -6 20.69 7.63
4 -11 -6 7.63 3.89
-11 4 6 23.79 9.66
-4 -7 -6 18.5 4.51
11 -7 6 14.67 4.79
11 -4 6 16.83 4.08
-7 -4 6 13.1 4.26
4 -11 -6 9.67 4.38
7 -11 -6 8.31 4.69
-11 7 -6 17.5 4.64
4 7 -7 -1 3.36
4 -11 -7 -1.38 0.3
-11 4 7 5.72 3.81
-4 -7 -7 1.83 1.55
11 -7 7 -3.08 2.63
-7 -4 7 0.94 1.68
4 -11 -7 -0.21 2.57
7 -11 -7 2.2 3.85
7 4 -7 -3.57 3.13
-11 7 -7 -1 2.1
4 -11 -8 0.14 0.69
-4 -7 -8 0.96 1.49
11 -7 8 -3.21 2.61
-7 -4 8 2.5 3.29
7 4 -8 2.1 1.78
-11 7 -8 -0.07 2.13
4 -11 -9 -1.83 3.06
11 -7 9 -2.46 2.15
-4 -7 -9 2.21 1.17
-7 -4 9 3.03 1.11
7 4 -9 -2.55 3.96
-11 7 -9 -0.78 1.99
11 -7 10 14.11 3.97
-11 7 -10 17.27 4.85
3 8 0 12.28 4.97
11 -3 0 3.63 1.63
3 -11 0 8.8 2.69
-3 -8 -1 10.14 3.89
3 8 -1 10.17 3.25
3 8 1 11.64 6.23
11 -3 1 6.37 2.31
11 -3 -1 7.29 2.71
3 -11 -1 8.17 3.66
3 8 -2 3.88 2.3
-3 -8 -2 5.71 2.37
3 8 2 8.1 3.85
11 -3 2 3.74 1.16
11 -3 -2 -0.39 1.6
3 -11 -2 2.26 2.88
8 -11 -2 -0.22 3.05
3 8 -3 8.12 4.73
3 8 3 3.06 3.42
11 -3 3 5.8 3.46
11 -3 -3 -1.7 1.66
8 3 -3 5.25 3.47
3 -11 -3 5.24 2.41
8 -11 -3 1.73 3.23
3 8 4 0.58 2.06
-3 -8 -4 4.04 2.54
8 3 -4 -3.67 3.17
3 -11 -4 -2.01 1.49
8 -11 -4 -1.32 2.58
3 8 5 10.56 5.41
-3 -8 -5 12.27 3.31
8 3 -5 6.45 0.91
-11 3 5 9.61 6.02
3 -11 -5 7.85 2.86
8 -11 -5 3.59 1.89
3 8 6 0.44 1.89
-3 -8 -6 4.31 2.6
-11 3 6 -5.84 5.75
8 3 -6 -1.75 3.96
8 -11 -6 1.1 4.53
-3 -8 -7 2.99 0.84
-11 3 7 3.15 3.4
8 3 -7 2.74 2.46
-11 3 8 2.15 2.51
11 -2 0 -3.71 3.52
-9 11 0 3.33 1.65
11 -2 -1 4.02 2.15
2 -11 -1 1.53 1.24
-9 11 1 2.32 1.47
-2 -9 -2 -0.11 0.4
11 -2 -2 0.59 2.23
2 -11 -2 -0.47 0.38
-9 11 -2 -0.58 1.34
-2 -9 -3 0.42 1.5
11 -2 3 3.32 4.98
2 -11 -3 -3.7 3.27
-9 11 3 -2.06 2.17
