#------------------------------------------------------------------------------
#$Date: 2019-11-23 16:12:58 +0200 (Sat, 23 Nov 2019) $
#$Revision: 233959 $
#$URL: file:///home/coder/svn-repositories/cod/cif/7/23/61/7236143.cif $
#------------------------------------------------------------------------------
#
# This file is available in the Crystallography Open Database (COD),
# http://www.crystallography.net/
#
# All data on this site have been placed in the public domain by the
# contributors.
#
data_7236143
loop_
_publ_author_name
'Liu, Qiangqiang'
'Jin, Bo'
'Peng, Rufang'
'Guo, Zhicheng'
'Zhao, Jun'
'Zhang, Qingchun'
'Shang, Yu'
_publ_section_title
;
 Synthesis, characterization and properties of nitrogen-rich compounds
 based on cyanuric acid: a promising design in the development of new
 energetic materials
;
_journal_issue                   13
_journal_name_full               'Journal of Materials Chemistry A'
_journal_page_first              4971
_journal_paper_doi               10.1039/C5TA10688E
_journal_volume                  4
_journal_year                    2016
_chemical_formula_moiety         'C4 H8 N8 O4'
_chemical_formula_sum            'C4 H8 N8 O4'
_chemical_formula_weight         232.18
_space_group_crystal_system      triclinic
_space_group_IT_number           2
_space_group_name_Hall           '-P 1'
_space_group_name_H-M_alt        'P -1'
_atom_sites_solution_hydrogens   difmap
_atom_sites_solution_primary     direct
_atom_sites_solution_secondary   difmap
_audit_creation_method           SHELXL-2014/7
_audit_update_record
;
2015-11-06 deposited with the CCDC.
2016-03-01 downloaded from the CCDC.
;
_cell_angle_alpha                66.29(2)
_cell_angle_beta                 75.35(3)
_cell_angle_gamma                72.33(3)
_cell_formula_units_Z            2
_cell_length_a                   5.4748(11)
_cell_length_b                   9.655(2)
_cell_length_c                   9.881(2)
_cell_measurement_reflns_used    1163
_cell_measurement_temperature    113(2)
_cell_measurement_theta_max      27.50
_cell_measurement_theta_min      4.00
_cell_volume                     450.50(19)
_computing_cell_refinement       'CrystalClear-SM Expert 2.1 b42'
_computing_data_collection
'CrystalClear-SM Expert 2.1 b42 (Rigaku, 2015)'
_computing_data_reduction        'CrystalClear-SM Expert 2.1 b42'
_computing_molecular_graphics    'CrystalStructure 4.1'
_computing_publication_material  'CrystalStructure 4.1 (Rigaku, 2014)'
_computing_structure_refinement  'SHELXL-2014/7 (Sheldrick, 2014)'
_computing_structure_solution    'SHELXS2013 (Sheldrick, 2008)'
_diffrn_ambient_temperature      113(2)
_diffrn_detector_area_resol_mean 5.814
_diffrn_measured_fraction_theta_full 0.993
_diffrn_measured_fraction_theta_max 0.988
_diffrn_measurement_device_type  'Rigaku XtaLAB P200'
_diffrn_measurement_method       \w
_diffrn_radiation_type           MoK\a
_diffrn_radiation_wavelength     0.71075
_diffrn_reflns_av_R_equivalents  0.0800
_diffrn_reflns_av_unetI/netI     0.0762
_diffrn_reflns_Laue_measured_fraction_full 0.993
_diffrn_reflns_Laue_measured_fraction_max 0.988
_diffrn_reflns_limit_h_max       7
_diffrn_reflns_limit_h_min       -6
_diffrn_reflns_limit_k_max       12
_diffrn_reflns_limit_k_min       -12
_diffrn_reflns_limit_l_max       12
_diffrn_reflns_limit_l_min       -12
_diffrn_reflns_number            5846
_diffrn_reflns_point_group_measured_fraction_full 0.993
_diffrn_reflns_point_group_measured_fraction_max 0.988
_diffrn_reflns_theta_full        25.242
_diffrn_reflns_theta_max         27.483
_diffrn_reflns_theta_min         3.821
_exptl_absorpt_coefficient_mu    0.150
_exptl_absorpt_correction_T_max  0.968
_exptl_absorpt_correction_T_min  0.536
_exptl_absorpt_correction_type   multi-scan
_exptl_absorpt_process_details   'REQAB (Rigaku, 1998)'
_exptl_crystal_colour            colorless
_exptl_crystal_density_diffrn    1.712
_exptl_crystal_density_method    'not measured'
_exptl_crystal_description       prism
_exptl_crystal_F_000             240
_exptl_crystal_size_max          0.260
_exptl_crystal_size_mid          0.240
_exptl_crystal_size_min          0.220
_refine_diff_density_max         0.667
_refine_diff_density_min         -0.511
_refine_diff_density_rms         0.160
_refine_ls_extinction_method     none
_refine_ls_goodness_of_fit_ref   1.046
_refine_ls_hydrogen_treatment    refall
_refine_ls_matrix_type           full
_refine_ls_number_parameters     177
_refine_ls_number_reflns         2036
_refine_ls_number_restraints     0
_refine_ls_restrained_S_all      1.046
_refine_ls_R_factor_all          0.0823
_refine_ls_R_factor_gt           0.0729
_refine_ls_shift/su_max          0.000
_refine_ls_shift/su_mean         0.000
_refine_ls_structure_factor_coef Fsqd
_refine_ls_weighting_details
'w=1/[\s^2^(Fo^2^)+(0.1443P)^2^+0.0955P] where P=(Fo^2^+2Fc^2^)/3'
_refine_ls_weighting_scheme      calc
_refine_ls_wR_factor_gt          0.1961
_refine_ls_wR_factor_ref         0.2125
_reflns_Friedel_coverage         0.000
_reflns_number_gt                1665
_reflns_number_total             2036
_reflns_threshold_expression     'I > 2\s(I)'
_cod_data_source_file            c5ta10688e2.cif
_cod_data_source_block           shelxl
_cod_database_code               7236143
_shelx_shelxl_version_number     2014/7
_shelx_space_group_comment
; 
The symmetry employed for this shelxl refinement is uniquely defined 
by the following loop, which should always be used as a source of 
symmetry information in preference to the above space-group names. 
They are only intended as comments. 
;
_shelx_estimated_absorpt_t_min   0.962
_shelx_estimated_absorpt_t_max   0.968
_shelx_res_file
; 
  
    shelxl.res created by SHELXL-2014/7 
  
  
TITL m20150618j 
CELL  0.71075 5.47480 9.65500 9.88100 66.29000 75.35000 72.33000 
ZERR  2 0.00110 0.00200 0.00200 0.02000 0.03000 0.03000 
LATT 1 
SFAC C  H  N  O 
UNIT 8 16 16 8 
L.S. 5 
ACTA 
BOND $H 
FMAP 2 
PLAN -5 
LIST 4 
WPDB -2 
HTAB 
CONF 
EQIV $1 -x+1, -y, -z+1 
HTAB N1 O2_$1 
EQIV $2 -x, -y+1, -z 
HTAB N3 O3_$2 
EQIV $3 x-1, y-1, z 
HTAB N2 N7_$3 
HTAB N4 O1 
EQIV $4 -x+1, -y+2, -z 
HTAB N4 N8_$4 
EQIV $5 -x+1, -y+1, -z+1 
HTAB N5 O4_$5 
EQIV $6 x-1, y, z 
HTAB O4 N6_$6 
HTAB O4 O1_$5 
  
SIZE 0.260 0.240 0.220 
TEMP -160.0 
WGHT    0.144300    0.095500 
FVAR       1.40477 
O1    4    0.421686    0.425836    0.277986    11.00000    0.03943    0.01782 = 
         0.03476   -0.00686   -0.01543   -0.01623 
O2    4    0.295924   -0.062682    0.431331    11.00000    0.03245    0.01245 = 
         0.03021   -0.00240   -0.01230   -0.01215 
O3    4   -0.089913    0.322297    0.047744    11.00000    0.03103    0.01695 = 
         0.02984   -0.00483   -0.01384   -0.01251 
O4    4    0.202439    0.605384    0.558326    11.00000    0.04538    0.01868 = 
         0.04821    0.00080   -0.02519   -0.02061 
N1    3    0.371627    0.179283    0.351578    11.00000    0.03021    0.01575 = 
         0.02983   -0.00622   -0.01378   -0.01267 
N2    3    0.099815    0.128747    0.239536    11.00000    0.02949    0.01569 = 
         0.02935   -0.00630   -0.01254   -0.01332 
N3    3    0.177400    0.375654    0.155014    11.00000    0.03275    0.01213 = 
         0.02894   -0.00345   -0.01460   -0.01256 
N4    3    0.491349    0.762917    0.108317    11.00000    0.03519    0.01807 = 
         0.03381   -0.00643   -0.01195   -0.01731 
N5    3    0.766025    0.697144    0.289061    11.00000    0.03061    0.01451 = 
         0.03005   -0.00548   -0.01089   -0.01345 
N6    3    0.904160    0.774082    0.319799    11.00000    0.03137    0.01794 = 
         0.03254   -0.00732   -0.01184   -0.01293 
N7    3    0.862206    0.914016    0.225041    11.00000    0.02978    0.01837 = 
         0.03282   -0.00720   -0.01105   -0.01369 
N8    3    0.700266    0.934681    0.131167    11.00000    0.02968    0.01521 = 
         0.03070   -0.00594   -0.01067   -0.01290 
C1    1    0.329055    0.333259    0.262149    11.00000    0.02790    0.01717 = 
         0.02862   -0.00847   -0.00902   -0.01058 
C2    1    0.258000    0.072496    0.345850    11.00000    0.02625    0.01758 = 
         0.02604   -0.00695   -0.00718   -0.01291 
C3    1    0.053561    0.278803    0.140682    11.00000    0.02738    0.01469 = 
         0.02503   -0.00708   -0.00616   -0.01143 
C4    1    0.642794    0.796968    0.173811    11.00000    0.02696    0.01574 = 
         0.02474   -0.00672   -0.00540   -0.01258 
H1    2    0.481196    0.144570    0.430329    11.00000    0.03059 
H2    2    0.140865    0.467328    0.092545    11.00000    0.03162 
H3    2    0.029715    0.073541    0.232703    11.00000    0.02248 
H4    2    0.446367    0.672494    0.161672    11.00000    0.03349 
H5    2    0.402529    0.836472    0.037476    11.00000    0.01821 
H6    2    0.771406    0.587897    0.349433    11.00000    0.04467 
H7    2    0.147169    0.670203    0.475265    11.00000    0.04904 
H8    2    0.331687    0.631799    0.576503    11.00000    0.05479 
HKLF 4 
  
REM  m20150618j 
REM R1 =  0.0729 for    1665 Fo > 4sig(Fo)  and  0.0823 for all    2036 data 
REM    177 parameters refined using      0 restraints 
  
END 
  
WGHT      0.1421      0.0999 
  
REM Instructions for potential hydrogen bonds 
HTAB N1 O2_$1 
HTAB N3 O3_$2 
HTAB N2 N7_$3 
HTAB N4 O1 
HTAB N4 N8_$4 
HTAB N5 O4_$5 
HTAB O4 N6_$6 
HTAB O4 O1_$5 
  
REM Highest difference peak  0.667,  deepest hole -0.511,  1-sigma level  0.160 
Q1    1   0.6372  0.7553  0.2609  11.00000  0.05    0.67 
Q2    1   0.7935  0.7263  0.1979  11.00000  0.05    0.65 
Q3    1   0.1850  0.1059  0.2860  11.00000  0.05    0.56 
Q4    1   0.3028  0.6030  0.4791  11.00000  0.05    0.53 
Q5    1   0.3593 -0.0200  0.3270  11.00000  0.05    0.52 
;
_shelx_res_checksum              79644
_shelx_hkl_file
; 
   0   0   2 3980.89  293.72 
   0   0   2 4384.30  325.40 
   0   0   2 3799.30  281.63 
   0   0  -2 4472.36  329.62 
   0   0   3   25.12    2.78 
   0   0   3   33.38    3.17 
   0   0   3   26.42    2.66 
   0   0  -3   30.91    3.04 
   0   0  -3   33.62    3.13 
   0   0  -3   29.61    3.09 
   0   0   4   66.26    9.50 
   0   0   4   67.65    9.58 
   0   0   4   65.35    9.27 
   0   0  -4   73.95   10.56 
   0   0  -4   75.48   10.65 
   0   0  -4   64.07    9.18 
   0   0   5  197.65   25.72 
   0   0   5  194.07   24.97 
   0   0   5  176.80   22.80 
   0   0  -5  201.38   26.09 
   0   0  -5  201.25   25.92 
   0   0  -5  211.03   27.23 
   0   0   6   18.86    3.32 
   0   0   6   18.52    2.99 
   0   0  -6   19.86    3.29 
   0   0  -6   14.85    2.66 
   0   0   7  274.28   28.53 
   0   0   7  259.82   26.84 
   0   0  -7  319.73   32.88 
   0   0  -7  260.28   27.02 
   0   0   8   -0.34    1.69 
   0   0  -8    2.62    1.39 
   0   0  -8    2.02    1.35 
   0   0   9    8.75    2.88 
   0   0  -9   12.26    3.56 
   0   1 -11  179.75   40.35 
   0   1 -10   15.07    4.45 
   0   1  -9  986.94  244.58 
   0   1  -8   62.83   10.03 
   0   1  -8   56.55    9.07 
   0  -1   8   46.34    7.53 
   0   1  -7  154.94   23.36 
   0   1  -7  156.07   23.43 
   0  -1   7  154.19   23.18 
   0  -1   7  148.47   22.27 
   0   1  -6  116.03   14.73 
   0   1  -6  113.17   14.25 
   0  -1   6  114.08   14.45 
   0  -1   6  132.02   16.52 
   0   1  -5  575.29   70.34 
   0   1  -5  490.91   59.48 
   0  -1   5  485.84   58.85 
   0  -1   5  514.66   62.29 
   0  -1   5  565.80   68.37 
   0   1  -4  218.43   30.58 
   0   1  -4  201.25   28.02 
   0  -1   4  190.51   26.58 
   0  -1   4  218.89   30.47 
   0  -1   4  229.12   31.71 
   0   1  -3    1.29    1.37 
   0   1  -3   -2.29    1.27 
   0  -1   3   -0.43    1.43 
   0  -1   3   -1.31    1.28 
   0  -1   3   -1.37    0.96 
   0   1  -2  372.45   28.26 
   0   1  -2  360.04   27.28 
   0  -1   2  420.13   31.56 
   0  -1   2  354.13   26.68 
   0  -1   2  347.07   26.13 
   0   1  -1    1.41    1.57 
   0  -1   1    1.65    3.62 
   0  -1   1    1.54    1.76 
   0  -1   1    3.74    1.61 
   0   1   2    2.09    1.94 
   0   1   2   -2.45    2.26 
   0   1   2    1.24    1.26 
   0  -1  -2    3.07    1.27 
   0   1   3  150.31   11.85 
   0   1   3  180.30   14.02 
   0   1   3  138.43   10.75 
   0  -1  -3  204.80   15.81 
   0  -1  -3  179.09   13.77 
   0   1   4  300.52   22.93 
   0   1   4  265.72   21.02 
   0   1   4  231.58   17.69 
   0  -1  -4  294.39   22.57 
   0  -1  -4  261.81   19.94 
   0  -1  -4  286.51   21.95 
   0   1   5   18.48    3.04 
   0   1   5   15.03    2.48 
   0   1   5   11.06    1.84 
   0  -1  -5   14.33    2.44 
   0  -1  -5   19.66    2.93 
   0  -1  -5   14.21    2.54 
   0   1   6  155.78   19.15 
   0   1   6  136.00   16.74 
   0  -1  -6  121.65   15.09 
   0  -1  -6  141.92   17.53 
   0  -1  -6  153.80   18.86 
   0   1   7  142.54   17.89 
   0   1   7  130.13   16.33 
   0  -1  -7  158.72   19.85 
   0  -1  -7  165.11   20.66 
   0  -1  -7  172.98   21.45 
   0   1   8    2.20    1.84 
   0  -1  -8    0.94    1.32 
   0  -1  -8    0.14    1.30 
   0   1   9   -2.37    1.79 
   0  -1  -9    0.57    1.50 
   0   1  10   -1.69    1.82 
   0   2 -10    4.51    2.93 
   0   2  -9   34.25    4.86 
   0   2  -9   27.27    7.35 
   0   2  -8  192.71   20.54 
   0   2  -8  165.22   17.77 
   0   2  -7   13.59    2.36 
   0   2  -7   11.26    1.85 
   0  -2   7   15.10    2.45 
   0   2  -6    9.17    1.87 
   0   2  -6    8.16    1.63 
   0  -2   6    9.39    1.97 
   0  -2   6   12.28    1.99 
   0   2  -5   10.49    2.24 
   0   2  -5    7.84    1.71 
   0  -2   5   10.19    2.24 
   0  -2   5    9.13    1.87 
   0   2  -4  848.62  109.45 
   0  -2   4  755.82   96.81 
   0  -2   4  800.49  101.93 
   0  -2   4  950.55  121.52 
   0  -2   4  700.83   89.82 
   0   2  -3 1177.49  162.22 
   0  -2   3 1054.57  144.71 
   0  -2   3 1150.01  157.95 
   0  -2   3 1222.71  168.76 
   0  -2   3 1129.22  155.35 
   0   2  -2  462.75   34.86 
   0  -2   2  591.94   44.43 
   0  -2   2  410.43   31.74 
   0  -2   2  542.47   40.71 
   0  -2   2  519.59   39.01 
   0   2  -1 5754.02  425.02 
   0  -2   1 5613.50  462.74 
   0  -2   1 6607.78  489.20 
   0  -2   1 5917.87  440.58 
   0   2   0 2114.18  159.28 
   0  -2   0 2425.26  179.34 
   0  -2   0 1962.88  147.25 
   0  -2   0 2077.98  169.84 
   0   2   1  298.74   22.55 
   0  -2  -1  334.21   25.44 
   0  -2  -1  342.48   25.73 
   0  -2  -1  300.79   25.54 
   0   2   2 3839.64  294.52 
   0   2   2 3895.56  289.03 
   0   2   2 3539.90  271.53 
   0  -2  -2 3752.61  282.73 
   0  -2  -2 3718.84  284.54 
   0   2   3  263.14   20.13 
   0   2   3  223.41   17.20 
   0  -2  -3  252.91   19.70 
   0  -2  -3  264.44   20.16 
   0   2   4  254.21   19.51 
   0   2   4  210.96   16.27 
   0  -2  -4  290.79   22.28 
   0  -2  -4  245.23   18.95 
   0  -2  -4  244.02   18.66 
   0  -2  -4  314.06   26.33 
   0   2   5 1673.67  230.81 
   0   2   5 1274.22  175.74 
   0  -2  -5 1464.70  202.38 
   0  -2  -5 1573.47  216.19 
   0  -2  -5 1545.25  213.59 
   0   2   6  940.43  113.72 
   0   2   6  673.61   81.87 
   0  -2  -6 1088.63  131.53 
   0  -2  -6  802.91   97.17 
   0  -2  -6 1224.04  147.26 
   0   2   7   34.34    4.89 
   0   2   7   27.48    3.84 
   0  -2  -7   52.79    6.92 
   0  -2  -7   52.75    6.95 
   0  -2  -7   45.78    6.03 
   0   2   8  409.89   61.19 
   0  -2  -8  353.94   52.74 
   0  -2  -8  325.61   48.48 
   0   2   9   31.36    5.07 
   0  -2  -9   33.09    5.01 
   0  -2  -9   33.28    5.15 
   0  -2  -9   33.95    5.19 
   0   2  10    1.87    1.92 
   0  -2 -10    2.08    1.51 
   0  -2 -10    0.17    1.57 
   0   2  11    3.40    2.28 
   0  -2 -11    1.77    1.84 
   0   3 -10  102.93   23.26 
   0   3  -9   92.38   15.11 
   0   3  -8    5.30    1.93 
   0   3  -8    2.21    1.78 
   0   3  -7  312.32   33.20 
   0   3  -7  336.09   35.48 
   0   3  -6  210.16   23.74 
   0   3  -6  242.72   27.11 
   0  -3   6  206.48   23.00 
   0  -3   6  186.23   20.92 
   0   3  -5   23.40    3.53 
   0   3  -5   28.63    4.05 
   0  -3   5   20.03    3.10 
   0  -3   5   23.18    3.39 
   0  -3   5   23.41    3.28 
   0   3  -4  430.81   59.66 
   0  -3   4  357.60   49.35 
   0  -3   4  341.40   47.18 
   0  -3   4  404.62   56.02 
   0   3  -3  439.36   56.45 
   0  -3   3  379.91   48.58 
   0  -3   3  370.37   47.32 
   0  -3   3  425.89   54.58 
   0  -3   3  366.93   47.04 
   0   3  -2   -0.36    1.09 
   0   3  -2   -2.40    1.31 
   0  -3   2   -0.25    0.99 
   0  -3   2    0.02    1.37 
   0  -3   2   -0.48    1.14 
   0   3  -1 2602.18  192.76 
   0  -3   1 2317.73  187.29 
   0  -3   1 2656.78  196.35 
   0  -3   1 2567.05  190.65 
   0  -3   1 2412.07  191.57 
   0   3   0  985.31   75.44 
   0  -3   0  915.73   73.66 
   0  -3   0 1075.62   81.06 
   0  -3   0  970.97   75.39 
   0   3   1 1139.66   84.76 
   0  -3  -1 1086.56   88.36 
   0  -3  -1 1221.93   90.43 
   0  -3  -1  990.84   79.99 
   0   3   2 1895.22  142.05 
   0  -3  -2 1741.55  134.66 
   0  -3  -2 1687.91  128.14 
   0   3   3  109.77    9.07 
   0   3   3  111.07    9.04 
   0  -3  -3   92.81    7.52 
   0  -3  -3  109.29    8.70 
   0  -3  -3   93.08    7.65 
   0   3   4  326.88   45.20 
   0  -3  -4  290.82   40.27 
   0  -3  -4  383.26   54.23 
   0  -3  -4  334.05   46.20 
   0   3   5   34.21    4.91 
   0  -3  -5   29.02    4.22 
   0  -3  -5   40.19    5.49 
   0  -3  -5   38.58    5.64 
   0  -3  -5   42.56    5.78 
   0   3   6   51.23    6.69 
   0  -3  -6   33.52    4.57 
   0  -3  -6   41.62    5.34 
   0  -3  -6   39.79    5.38 
   0  -3  -6   43.43    5.59 
   0   3   7  120.27   15.24 
   0  -3  -7  133.73   16.62 
   0  -3  -7  150.64   18.88 
   0  -3  -7  157.55   19.58 
   0   3   8   10.42    2.62 
   0  -3  -8   14.85    2.59 
   0  -3  -8   15.35    2.93 
   0  -3  -8   18.59    3.28 
   0   3   9   15.41    3.10 
   0  -3  -9   15.12    2.52 
   0  -3  -9   26.02    4.17 
   0  -3  -9   17.70    3.15 
   0   3  10   15.32    4.51 
   0  -3 -10   13.02    3.67 
   0  -3 -10   17.73    4.89 
   0   3  11    5.21    2.52 
   0  -3 -11    8.04    2.71 
   0   3  12   98.17   22.19 
   0  -3 -12   88.63   20.06 
   0   4  -9    7.87    4.45 
   0   4  -8    5.42    2.24 
   0   4  -8   -1.72    1.81 
   0   4  -7   86.90   10.91 
   0   4  -7   65.17    8.34 
   0   4  -6  338.37   52.42 
   0   4  -6  364.42   56.35 
   0   4  -5  433.14   64.83 
   0   4  -5  439.19   65.46 
   0  -4   5  390.10   58.03 
   0  -4   5  416.39   62.06 
   0   4  -4   11.41    2.32 
   0   4  -4   11.84    2.22 
   0  -4   4    8.72    1.66 
   0  -4   4    9.59    2.10 
   0   4  -3   93.93   13.34 
   0   4  -3   75.29   10.72 
   0  -4   3   73.71   10.52 
   0  -4   3   71.03   10.16 
   0  -4   3   79.55   11.18 
   0   4  -2  783.40   99.81 
   0   4  -2  826.02  105.31 
   0  -4   2  827.81  105.79 
   0  -4   2  788.87  100.54 
   0  -4   2  841.52  107.32 
   0  -4   2 1146.85  148.34 
   0   4  -1   33.35    4.99 
   0   4  -1   42.73    6.36 
   0  -4   1   29.74    4.46 
   0  -4   1   37.05    5.54 
   0  -4   1   41.28    6.12 
   0  -4   1   40.60    6.18 
   0   4   0  820.15  113.76 
   0   4   0  997.00  136.88 
   0  -4   0  784.84  111.95 
   0  -4   0  882.64  122.68 
   0  -4   0  992.84  136.48 
   0   4   1 1526.93  212.09 
   0   4   1 1372.23  189.33 
   0   4   1 1429.68  198.10 
   0  -4  -1 1382.82  197.57 
   0  -4  -1 1605.68  222.85 
   0  -4  -1 1766.84  243.37 
   0   4   2  488.78   67.68 
   0  -4  -2  402.05   57.12 
   0  -4  -2  468.77   64.82 
   0   4   3    7.72    1.74 
   0  -4  -3    8.56    1.91 
   0  -4  -3   13.94    2.58 
   0   4   4 1862.69  256.30 
   0  -4  -4 1748.21  240.12 
   0  -4  -4 1833.47  252.39 
   0  -4  -4 2177.78  310.88 
   0  -4  -4 2098.54  289.60 
   0   4   5   27.51    4.10 
   0  -4  -5   29.86    4.21 
   0  -4  -5   36.86    5.34 
   0  -4  -5   29.40    4.18 
   0   4   6   91.94   13.06 
   0  -4  -6   77.28   10.90 
   0  -4  -6   83.11   12.19 
   0  -4  -6   88.42   12.47 
   0   4   7   98.80   12.63 
   0  -4  -7   91.63   11.50 
   0  -4  -7   90.90   11.71 
   0  -4  -7  122.13   15.34 
   0   4   8   12.04    2.83 
   0  -4  -8    5.66    1.41 
   0  -4  -8   10.27    2.25 
   0  -4  -8   11.65    2.42 
   0   4   9    4.73    2.16 
   0  -4  -9    5.59    1.35 
   0  -4  -9    4.88    1.77 
   0  -4  -9    7.40    2.03 
   0   4  10  205.36   51.10 
   0  -4 -10  181.42   45.14 
   0  -4 -10  206.29   51.35 
   0   4  11   17.91    5.23 
   0  -4 -11   16.02    4.61 
   0   4  12   -0.41    2.24 
   0  -4 -12   -2.95    1.98 
   0   5  -8   20.06    2.65 
   0   5  -8   22.17    3.08 
   0   5  -7   26.83    7.19 
   0   5  -7   18.23    5.13 
   0   5  -6  124.39   15.40 
   0   5  -6  121.54   15.04 
   0   5  -5   31.12    4.95 
   0   5  -5   26.86    4.40 
   0   5  -4   25.56    4.37 
   0   5  -4   25.75    4.38 
   0   5  -3  236.23   24.49 
   0  -5   3  191.83   19.90 
   0  -5   3  187.01   19.28 
   0  -5   3  258.43   27.31 
   0   5  -2   -0.95    1.20 
   0   5  -2    2.15    1.78 
   0  -5   2    0.75    1.06 
   0  -5   2    1.65    1.39 
   0  -5   2    3.02    2.08 
   0   5  -1 2023.31  243.41 
   0   5  -1 1979.49  238.32 
   0  -5   1 1800.31  217.85 
   0  -5   1 2247.34  270.12 
   0  -5   1 1928.59  232.30 
   0  -5   1 1945.53  235.97 
   0   5   0   22.17    3.35 
   0  -5   0   20.39    3.09 
   0  -5   0   23.18    3.47 
   0  -5   0   14.18    2.35 
   0  -5   0   22.43    3.64 
   0   5   1  358.71   46.35 
   0   5   1  321.91   41.56 
   0   5   1  391.87   50.55 
   0  -5  -1  318.41   42.31 
   0  -5  -1  328.31   42.42 
   0  -5  -1  390.92   50.11 
   0   5   2  232.64   30.39 
   0   5   2  261.73   33.96 
   0   5   2  235.97   30.46 
   0  -5  -2  205.43   27.20 
   0  -5  -2  266.31   34.69 
   0   5   3  243.80   31.43 
   0   5   3  236.48   30.58 
   0  -5  -3  196.59   25.63 
   0  -5  -3  211.83   27.36 
   0  -5  -3  233.36   29.94 
   0   5   4  630.00   76.35 
   0   5   4  719.33   87.12 
   0  -5  -4  608.00   73.43 
   0  -5  -4  627.28   75.91 
   0  -5  -4  740.60   89.26 
   0   5   5   79.24   11.34 
   0  -5  -5   73.30   10.40 
   0  -5  -5   75.48   11.08 
   0  -5  -5   68.51    9.77 
   0   5   6  171.87   21.46 
   0  -5  -6  155.95   19.40 
   0  -5  -6  173.65   22.47 
   0  -5  -6  158.07   19.71 
   0   5   7    4.25    1.94 
   0  -5  -7   -1.64    1.08 
   0  -5  -7    0.62    1.69 
   0  -5  -7   -0.42    1.32 
   0   5   8  108.26   12.47 
   0  -5  -8   79.93    8.60 
   0  -5  -8   78.93    8.77 
   0  -5  -8  107.34   12.20 
   0   5   9    2.22    2.18 
   0  -5  -9    2.68    1.11 
   0  -5  -9    0.64    1.59 
   0  -5  -9    4.08    1.73 
   0   5  10  133.73   33.39 
   0  -5 -10  109.50   27.34 
   0  -5 -10  158.93   39.62 
   0   5  11   19.31    5.62 
   0  -5 -11   18.44    5.20 
   0  -5 -11   22.47    6.16 
   0   5  12   23.73    5.94 
   0  -5 -12   22.43    5.44 
   0   6  -7   21.33    2.80 
   0   6  -7    7.72    4.34 
   0   6  -6    3.72    1.98 
   0   6  -5    5.59    2.24 
   0  -6   5   -0.32    2.58 
   0   6  -4   52.97    8.54 
   0  -6   4   57.59    9.50 
   0   6  -3   64.30    7.20 
   0  -6   3   51.49    5.89 
   0  -6   3   68.82    8.04 
   0   6  -2   39.88    4.62 
   0   6  -2   42.37    4.94 
   0  -6   2   38.49    4.36 
   0  -6   2   46.73    5.62 
   0   6  -1    4.39    1.57 
   0   6  -1    9.75    2.08 
   0  -6   1    5.30    1.52 
   0  -6   1    4.80    2.28 
   0   6   0  563.00   77.54 
   0  -6   0  463.50   64.52 
   0  -6   0  504.98   69.88 
   0   6   1  506.98   70.14 
   0   6   1  504.68   69.92 
   0   6   1  525.20   72.59 
   0  -6  -1  453.22   63.43 
   0  -6  -1  586.18   81.27 
   0   6   2  562.48   78.06 
   0   6   2  574.45   79.54 
   0   6   2  584.25   80.49 
   0  -6  -2  436.50   61.85 
   0  -6  -2  612.92   84.95 
   0   6   3  358.47   49.63 
   0   6   3  309.33   43.02 
   0   6   3  283.01   39.34 
   0  -6  -3  271.72   38.20 
   0  -6  -3  301.46   41.84 
   0   6   4   80.87   11.53 
   0   6   4   95.34   13.53 
   0  -6  -4   81.36   11.60 
   0  -6  -5   94.04   12.43 
   0  -6  -5   93.53   11.85 
   0   6   6    3.21    1.88 
   0  -6  -6    1.63    1.87 
   0  -6  -6    3.62    1.50 
   0   6   7  228.28   34.16 
   0  -6  -7  248.45   37.53 
   0  -6  -7  215.85   32.32 
   0   6   8   -0.12    2.07 
   0  -6  -8    1.77    1.94 
   0  -6  -8   -3.19    1.34 
   0   6   9  189.23   23.15 
   0  -6  -9  167.84   20.63 
   0  -6  -9  174.61   21.32 
   0   6  10    4.43    2.42 
   0  -6 -10    8.69    2.31 
   0  -6 -10   10.34    2.54 
   0   6  11    4.00    2.87 
   0  -6 -11    6.26    3.13 
   0  -6 -11    2.49    2.18 
   0   6  12    3.97    3.10 
   0  -6 -12    0.50    2.10 
   0   7  -6   16.37    2.59 
   0  -7   6   19.62    3.52 
   0   7  -5   21.18    5.87 
   0  -7   5   30.94    5.21 
   0   7  -4  710.21  176.09 
   0  -7   4  866.13  214.99 
   0   7  -3   47.24    6.64 
   0  -7   3   51.31   13.41 
   0   7  -2    6.22    1.77 
   0   7  -2    3.48    1.74 
   0  -7   2    4.68    2.48 
   0   7  -1    1.28    1.44 
   0   7  -1    0.95    1.73 
   0  -7   1   -3.91    2.15 
   0   7   0  292.07   43.59 
   0   7   0  304.78   45.55 
   0  -7   0  258.30   38.65 
   0  -7   0  372.19   55.70 
   0   7   1    1.30    1.49 
   0  -7  -1   -3.19    1.19 
   0  -7  -1   -1.62    2.08 
   0   7   2   30.22    3.82 
   0   7   2   22.45    3.15 
   0   7   3   85.12    9.18 
   0   7   3   87.63    9.45 
   0  -7  -3   80.17    8.81 
   0   7   4   30.21    3.85 
   0   7   4   24.88    3.30 
   0  -7  -4   18.65    2.88 
   0   7   5   44.93    5.37 
   0  -7  -5   54.21    6.06 
   0  -7  -6  553.73   83.83 
   0  -7  -6  582.30   86.74 
   0   7   7   35.39    4.53 
   0  -7  -7   53.72    6.35 
   0  -7  -7   48.13    5.48 
   0   7   8  215.56   22.96 
   0  -7  -8  214.41   23.07 
   0  -7  -8  219.40   23.26 
   0   7   9  163.08   20.05 
   0  -7  -9  140.55   17.42 
   0  -7  -9  163.80   20.13 
   0   7  10    8.05    3.11 
   0  -7 -10    2.30    1.86 
   0  -7 -10    3.69    1.95 
   0   7  11   -1.40    2.40 
   0  -7 -11   -3.99    1.66 
   0  -7 -11    2.54    2.26 
   0   8  -5   12.57    6.57 
   0  -8   5    2.02    2.95 
   0   8  -4   46.38    6.70 
   0  -8   4   76.79   10.92 
   0   8  -3   45.04    6.14 
   0  -8   3   63.12    8.67 
   0   8  -2   22.88    6.07 
   0   8  -2   26.98    7.21 
   0  -8   2   24.36    6.88 
   0   8  -1  245.11   25.83 
   0   8  -1  266.97   28.21 
   0  -8   1  261.60   28.03 
   0   8   0  356.27   54.98 
   0   8   0  325.14   50.25 
   0  -8   0  357.53   55.61 
   0   8   1   94.56   10.86 
   0  -8  -1   85.13   12.60 
   0   8   2   -1.54    1.58 
   0   8   2    0.88    1.59 
   0  -8  -2   -3.67    2.12 
   0   8   3  300.34   33.45 
   0   8   3  297.77   33.31 
   0  -8  -3  346.48   38.65 
   0   8   4   77.18    8.60 
   0   8   4   76.02    8.48 
   0  -8  -4   71.43    8.05 
   0   8   5   74.56    8.28 
   0   8   5  104.13   12.02 
   0  -8  -5   96.77   11.14 
   0   8   6   32.12    5.25 
   0  -8  -6   31.89    5.20 
   0  -8  -6   40.39    6.27 
   0  -8  -7   17.15    3.27 
   0  -8  -7   11.60    2.51 
   0   8   8   49.54    6.66 
   0  -8  -8   57.54    7.65 
   0  -8  -8   52.31    6.75 
   0   8   9   38.37    5.54 
   0  -8  -9   22.39    6.34 
   0  -8  -9   27.35    7.36 
   0   8  10   -4.58    2.09 
   0  -8 -10    2.58    2.31 
   0  -8 -10   -0.67    1.82 
   0   8  11   20.35    3.21 
   0  -8 -11    8.08    4.47 
   0  -8 -11    9.67    5.27 
   0   9  -4    2.12    1.95 
   0  -9   4    1.11    3.04 
   0   9  -3   -0.47    1.91 
   0  -9   3    3.11    3.09 
   0   9  -2    2.06    1.91 
   0  -9   2    4.78    3.06 
   0   9  -1  178.04   44.28 
   0   9  -1  178.09   44.29 
   0  -9   1  184.89   46.15 
   0   9   0   21.26    5.75 
   0   9   0   11.70    3.54 
   0  -9   0   25.33    7.15 
   0   9   1    6.82    2.43 
   0  -9  -1    5.87    2.91 
   0   9   2  324.06   34.02 
   0   9   2  322.20   34.20 
   0  -9  -2  311.47   32.96 
   0   9   3  356.74   37.45 
   0   9   3  362.96   38.33 
   0  -9  -3  455.41   47.69 
   0   9   4 1089.91  113.70 
   0   9   4 1187.64  123.77 
   0  -9  -4 1050.89  109.77 
   0   9   5   61.45    7.16 
   0   9   5   55.67    6.65 
   0  -9  -5   63.30    7.28 
   0   9   6   24.84    6.81 
   0  -9  -6   29.25    4.36 
   0  -9  -6   28.49    5.17 
   0   9   7   44.04   11.29 
   0  -9  -7   46.48   11.93 
   0  -9  -7   45.35   11.54 
   0  -9  -8   30.36    8.43 
   0  -9  -8   24.90    6.76 
   0   9   9   19.61    5.69 
   0  -9  -9   13.06    4.31 
   0  -9  -9   14.45    4.19 
   0   9  10   35.14    4.35 
   0  -9 -10   25.05    3.51 
   0  -9 -10   22.54    3.08 
   0  10  -2    2.17    2.24 
   0 -10   2    1.33    3.29 
   0  10  -1    8.03    3.85 
   0 -10   1    2.68    3.06 
   0  10   0   12.63    3.79 
   0  10   0   16.13    4.72 
   0 -10   0    0.66    2.74 
   0  10   1   -0.41    1.92 
   0  10   1    5.05    2.40 
   0 -10  -1    0.10    2.62 
   0  10   2   31.49    8.46 
   0 -10  -2   39.12    5.75 
   0  10   3  102.69   25.69 
   0  10   3   99.93   25.04 
   0 -10  -3   90.26   22.68 
   0  10   4   32.52    8.73 
   0  10   4   35.98    9.41 
   0 -10  -4   26.04    5.04 
   0  10   5  584.04   72.85 
   0  10   5  618.24   77.41 
   0 -10  -5  562.04   70.21 
   0  10   6    8.51    3.26 
   0 -10  -6    2.23    2.39 
   0 -10  -6    4.78    2.45 
   0  10   7   67.10    9.54 
   0 -10  -7   86.69   12.07 
   0 -10  -7   79.18   10.98 
   0  10   8  130.43   21.18 
   0 -10  -8  156.28   25.38 
   0 -10  -8  148.67   23.98 
   0 -10  -9   17.63    3.32 
   0 -10  -9   25.44    3.27 
   0  10  10   -5.07    2.39 
   0 -10 -10   -3.66    2.31 
   0 -10 -10    1.40    1.98 
   0  11   0   50.23   11.57 
   0 -11   0   34.53    8.43 
   0  11   1    4.79    3.12 
   0  11   1    3.27    2.64 
   0 -11  -1    7.75    4.88 
   0  11   2   83.70    8.26 
   0 -11  -2   77.08    7.96 
   0  11   3  303.34   48.58 
   0  11   3  335.64   53.85 
   0 -11  -3  312.27   50.06 
   0  11   4   14.42    3.23 
   0  11   4   28.87    5.38 
   0 -11  -4   15.88    3.60 
   0  11   5   29.49    5.60 
   0 -11  -5   46.49    8.01 
   0  11   6  195.08   18.32 
   0 -11  -6  182.16   17.18 
   0 -11  -6  193.60   18.12 
   0  11   7   -3.84    2.42 
   0 -11  -7    3.68    2.92 
   0 -11  -7   -2.94    2.26 
   0  11   8   58.01   13.39 
   0 -11  -8   47.20   11.07 
   0 -11  -8   61.71   14.10 
   1 -11  -6    5.07    3.13 
   1 -11  -6    5.72    3.62 
  -1  11   6   -3.88    2.60 
   1 -11  -5   37.80    8.94 
  -1  11   5   51.41   11.88 
   1 -11  -4   21.38    5.47 
   1 -11  -4   18.81    4.95 
  -1  11   4   14.85    6.23 
   1 -11  -3    0.52    2.36 
   1 -11  -3    1.78    2.35 
  -1  11   3    5.69    3.11 
   1 -11  -2    3.30    2.78 
   1 -11  -2   -0.95    2.13 
  -1  11   2   -0.60    2.07 
   1 -10  -8    7.61    4.07 
   1 -10  -8    7.61    3.61 
   1 -10  -7   58.10    6.05 
   1 -10  -7   47.03    5.46 
  -1  10   7   32.73    4.27 
   1 -10  -6  617.14  306.63 
   1 -10  -6  486.03   77.94 
  -1  10   6  473.16   75.66 
   1 -10  -5  258.91   41.57 
  -1  10   5  190.32   30.73 
   1 -10  -4  163.88   22.22 
   1 -10  -4  154.96   21.07 
  -1  10   4  150.95   20.50 
   1 -10  -3   -4.07    2.04 
  -1  10   3   -2.13    1.95 
   1 -10  -2    4.01    2.60 
   1 -10  -2    0.31    2.14 
  -1  10   2    8.65    3.08 
   1 -10  -1  150.86   24.51 
  -1  10   1  123.92   20.14 
  -1  10   0    6.68    3.91 
  -1  10   0    1.02    2.09 
   1 -10   1    4.69    3.26 
  -1  10  -1   -1.09    2.07 
   1  -9  -9    6.78    4.01 
   1  -9  -9    3.58    3.06 
  -1   9   9    8.41    4.79 
   1  -9  -8   -0.63    2.37 
   1  -9  -8    0.15    1.94 
   1  -9  -7   51.67    7.64 
   1  -9  -7   58.30    8.30 
   1  -9  -6   48.86    6.68 
   1  -9  -6   47.43    6.72 
  -1   9   6   50.70    7.07 
   1  -9  -5  131.47   32.81 
  -1   9   5  135.66   33.83 
   1  -9  -4   -0.65    2.18 
  -1   9   4    2.40    2.05 
   1  -9  -3   14.42    3.44 
   1  -9  -3   19.71    3.87 
  -1   9   3   18.34    3.70 
   1  -9  -2  190.80   47.45 
  -1   9   2  193.33   48.11 
   1  -9  -1  113.96   28.83 
  -1   9   1  151.61   37.81 
  -1   9   1  135.41   33.75 
   1  -9   0   36.81    5.92 
  -1   9   0   33.70    4.99 
  -1   9   0   44.76    6.22 
   1  -9   1   34.41    5.61 
  -1   9  -1   35.10    5.36 
  -1   9  -1   32.68    5.00 
   1  -9   2   54.67    9.50 
  -1   9  -2   47.43    8.02 
  -1   9  -2   47.26    7.97 
   1  -9   3   20.55    3.70 
  -1   9  -3   15.69    2.50 
   1  -8 -10   58.10    6.09 
   1  -8 -10   51.84    5.73 
  -1   8  10   72.21    7.51 
   1  -8  -9   11.80    6.23 
   1  -8  -9   16.78    3.76 
  -1   8   9   22.54    4.43 
   1  -8  -8  168.24   21.31 
   1  -8  -8  131.59   17.02 
  -1   8   8  142.31   18.23 
   1  -8  -7   37.24    9.72 
   1  -8  -7   40.42   10.32 
   1  -8  -6   22.29    6.17 
   1  -8  -6    9.05    3.02 
   1  -8  -5   30.73    4.75 
   1  -8  -5   22.58    3.82 
  -1   8   5   24.96    4.05 
   1  -8  -4    0.88    2.08 
  -1   8   4    6.33    2.15 
   1  -8  -3    2.08    2.17 
   1  -8  -3    2.81    1.89 
  -1   8   3   -1.64    1.64 
   1  -8  -2  193.68   30.08 
  -1   8   2  202.39   31.37 
   1  -8  -1   10.05    2.83 
  -1   8   1    2.68    1.79 
   1  -8   0   -1.56    2.25 
  -1   8   0    7.16    2.27 
  -1   8   0    4.89    1.88 
   1  -8   1   17.78    5.29 
  -1   8  -1   19.21    5.35 
  -1   8  -1   15.72    4.52 
   1  -8   2  674.21  167.66 
  -1   8  -2  790.99  196.09 
  -1   8  -2  619.89  153.68 
   1  -8   3   21.45    6.30 
  -1   8  -3   11.16    3.54 
   1  -8   4   16.85    4.12 
  -1   8  -4   20.70    3.89 
   1  -8   5    3.32    3.06 
  -1   8  -5    1.60    1.95 
   1  -7 -11   60.62   13.87 
   1  -7 -11   42.02    9.79 
  -1   7  11   69.93   15.97 
   1  -7 -10    2.62    2.13 
   1  -7 -10   -0.05    1.90 
  -1   7  10   -1.92    2.21 
   1  -7  -9   29.34    7.90 
   1  -7  -9   32.01    8.66 
  -1   7   9   38.77    5.59 
   1  -7  -8    1.46    1.69 
   1  -7  -8   -1.02    2.09 
  -1   7   8    4.73    2.31 
   1  -7  -7   29.32    4.51 
   1  -7  -7   37.45    5.60 
  -1   7   7   24.76    4.11 
   1  -7  -6   43.03    6.59 
   1  -7  -6   42.89    6.72 
  -1   7   6   44.18    6.38 
   1  -7  -5   89.67   10.54 
   1  -7  -5   89.72   10.36 
   1  -7  -4  189.77   21.33 
  -1   7   4  164.46   18.50 
   1  -7  -3  197.62   29.73 
   1  -7  -3  197.58   29.79 
  -1   7   3  216.49   32.39 
   1  -7  -2  175.51   26.65 
  -1   7   2  199.04   29.82 
   1  -7  -1    8.87    2.68 
  -1   7   1   17.26    3.15 
   1  -7   0   26.12    3.72 
  -1   7   0   26.39    3.55 
  -1   7   0   31.46    3.88 
   1  -7   1   64.95   10.56 
  -1   7  -1   81.51   12.89 
  -1   7  -1   72.49   11.55 
   1  -7   2   54.63    6.66 
  -1   7  -2   52.37    6.06 
  -1   7  -2   63.22    7.14 
   1  -7   3   -2.34    2.49 
  -1   7  -3    1.96    1.73 
  -1   7  -3    0.39    1.43 
   1  -7   4   14.58    4.80 
  -1   7  -4   10.97    3.32 
   1  -7   5   23.07    6.70 
  -1   7  -5   16.59    4.75 
   1  -7   6    1.37    2.80 
  -1   7  -6    4.57    2.84 
   1  -6 -11    1.69    2.13 
   1  -6 -11    0.51    1.82 
  -1   6  11    2.37    2.57 
   1  -6 -10   29.01    4.54 
   1  -6 -10   29.93    4.66 
  -1   6  10   29.74    4.79 
   1  -6  -9    5.23    1.98 
   1  -6  -9    3.58    1.84 
  -1   6   9    2.43    2.22 
   1  -6  -8   51.66   13.28 
   1  -6  -8   53.24    6.16 
  -1   6   8   47.48    6.83 
   1  -6  -7   56.59    9.07 
   1  -6  -7   55.04    8.97 
  -1   6   7   50.86    8.31 
   1  -6  -6  206.44   23.15 
   1  -6  -6  202.34   22.90 
  -1   6   6  198.26   22.28 
   1  -6  -5   45.84    7.21 
   1  -6  -5   52.31    6.08 
  -1   6   5   49.14    7.76 
   1  -6  -4  113.99   12.10 
   1  -6  -3  138.56   17.53 
   1  -6  -3  120.48   15.47 
  -1   6   3  111.04   14.01 
   1  -6  -2   25.58    3.95 
  -1   6   2   23.45    3.53 
  -1   6   2   19.15    3.31 
   1  -6  -1  993.37  124.00 
  -1   6   1 1015.76  124.61 
  -1   6   1 1122.90  114.30 
   1  -6   0    0.01    1.27 
   1  -6   0   -3.87    2.25 
  -1   6   0   -2.46    1.38 
  -1   6   0    4.31    1.73 
   1  -6   1  181.99   18.78 
   1  -6   1  207.79   21.93 
  -1   6  -1  227.12   23.55 
  -1   6  -1  211.38   21.92 
   1  -6   2   20.56    3.38 
   1  -6   2   19.38    3.82 
  -1   6  -2   18.81    3.47 
  -1   6  -2   18.92    3.42 
   1  -6   3   34.67    5.69 
  -1   6  -3   25.39    4.16 
  -1   6  -3   26.53    4.28 
   1  -6   4  157.68   17.23 
  -1   6  -4  160.01   17.06 
   1  -6   5   25.87    5.09 
  -1   6  -5   20.57    3.85 
   1  -6   6   14.44    4.77 
  -1   6  -6   29.52    4.45 
   1  -6   7    5.19    3.72 
  -1   6  -7    9.00    4.79 
   1  -5 -11    2.85    2.45 
   1  -5 -11   -1.42    1.76 
  -1   5  11    2.51    2.76 
   1  -5 -10    5.02    2.27 
   1  -5 -10    6.88    2.63 
  -1   5  10    8.66    3.15 
   1  -5  -9   23.38    6.26 
   1  -5  -9   17.05    4.80 
  -1   5   9   32.16    4.63 
   1  -5  -8    7.74    1.98 
   1  -5  -8   10.51    2.25 
  -1   5   8   11.64    2.67 
   1  -5  -7   13.75    2.25 
   1  -5  -7   10.73    2.10 
  -1   5   7    8.25    2.02 
   1  -5  -6  350.48   36.12 
   1  -5  -6  389.81   40.28 
  -1   5   6  333.86   34.35 
   1  -5  -5    0.18    1.30 
   1  -5  -5    0.41    1.61 
  -1   5   5   -3.15    1.53 
   1  -5  -4  119.32   16.75 
  -1   5   4  120.01   16.92 
  -1   5   4  113.25   16.04 
   1  -5  -3  384.96   53.41 
  -1   5   3  384.88   53.18 
   1  -5  -2  205.39   26.05 
   1  -5  -2  189.66   23.18 
   1  -5  -2  180.96   22.23 
  -1   5   2  212.53   25.90 
  -1   5   2  175.45   21.59 
   1  -5  -1   38.99    5.51 
   1  -5  -1   39.22    5.14 
  -1   5   1   39.17    5.17 
  -1   5   1   37.64    5.24 
   1  -5   0  317.46   43.79 
   1  -5   0  385.28   53.42 
   1  -5   0  459.28   63.80 
  -1   5   0  459.64   63.41 
   1  -5   1  117.32   16.68 
   1  -5   1   90.57   12.77 
   1  -5   1   95.89   13.52 
  -1   5  -1  116.88   16.40 
  -1   5  -1  112.51   15.79 
   1  -5   2    9.25    2.70 
   1  -5   2    5.08    1.29 
   1  -5   2    3.25    1.31 
  -1   5  -2    4.58    1.70 
  -1   5  -2    5.56    1.70 
   1  -5   3  504.60   75.02 
   1  -5   3  673.76  100.98 
  -1   5  -3  469.96   69.91 
  -1   5  -3  521.54   77.56 
   1  -5   4  394.99   43.97 
   1  -5   4  519.05   57.71 
  -1   5  -4  432.37   47.87 
   1  -5   5   97.80   10.69 
  -1   5  -5  122.96   13.19 
  -1   5  -6    1.51    1.46 
  -1   5  -6   -2.73    1.52 
  -1   5  -7    7.60    2.51 
  -1   5  -7    8.23    2.82 
  -1   5  -8   73.28    7.32 
   1  -4 -11    5.42    2.90 
   1  -4 -11    2.72    2.01 
  -1   4  11    5.34    3.01 
   1  -4 -10    1.91    1.79 
   1  -4 -10    4.73    2.24 
  -1   4  10    0.10    2.12 
   1  -4  -9   30.47    4.24 
   1  -4  -9   27.43    7.29 
  -1   4   9   25.97    7.00 
   1  -4  -8    4.99    1.68 
   1  -4  -8    4.24    1.81 
  -1   4   8    1.31    1.74 
   1  -4  -7    1.96    1.37 
   1  -4  -7    0.95    1.54 
  -1   4   7    2.86    1.92 
   1  -4  -6  149.57   18.64 
   1  -4  -6  119.89   15.14 
  -1   4   6  118.30   14.93 
   1  -4  -5   29.64    4.69 
   1  -4  -5   25.87    3.95 
   1  -4  -5   29.32    4.42 
  -1   4   5   25.76    4.15 
  -1   4   5   17.49    2.96 
   1  -4  -4  502.59   60.61 
   1  -4  -4  463.43   56.00 
   1  -4  -4  596.67   72.18 
   1  -4  -4  593.36   73.73 
  -1   4   4  537.47   65.03 
  -1   4   4  416.85   50.44 
   1  -4  -3  241.95   31.21 
   1  -4  -3  208.73   26.84 
  -1   4   3  214.57   27.66 
  -1   4   3  183.99   23.80 
   1  -4  -2  210.55   27.17 
   1  -4  -2  215.27   27.65 
   1  -4  -2  250.03   33.52 
   1  -4  -2  199.51   25.83 
  -1   4   2  205.26   26.57 
   1  -4  -1 1314.26  167.52 
   1  -4  -1 1140.78  145.97 
   1  -4  -1 1337.32  172.16 
  -1   4   1 1115.64  142.09 
  -1   4   1 1163.13  148.63 
   1  -4   0   49.21    6.66 
   1  -4   0   39.47    5.45 
   1  -4   0   45.36    6.53 
  -1   4   0   41.64    5.73 
  -1   4   0   48.87    6.81 
   1  -4   1  493.74   63.84 
   1  -4   1  489.25   62.78 
   1  -4   1  511.08   65.27 
   1  -4   1  497.42   63.51 
  -1   4  -1  564.36   72.14 
  -1   4  -1  577.01   73.69 
   1  -4   2  345.30   42.14 
   1  -4   2  342.05   41.68 
   1  -4   2  337.81   40.87 
   1  -4   2  400.88   48.51 
  -1   4  -2  404.59   48.93 
  -1   4  -2  369.77   44.96 
   1  -4   3    6.87    1.56 
   1  -4   3    9.37    2.22 
   1  -4   3    4.84    1.41 
   1  -4   3    6.92    1.83 
   1  -4   3    7.41    2.27 
  -1   4  -3   10.89    2.17 
   1  -4   4  282.81   29.22 
   1  -4   4  301.86   31.37 
   1  -4   4  332.92   34.43 
  -1   4  -4  371.14   38.15 
  -1   4  -4  358.44   36.98 
   1  -4   5  353.39   39.24 
   1  -4   5  402.86   44.90 
  -1   4  -5  397.28   44.20 
  -1   4  -5  370.19   41.27 
   1  -4   6    9.76    2.21 
  -1   4  -6    8.44    1.83 
  -1   4  -6   10.33    2.21 
  -1   4  -7   83.70   20.91 
  -1   4  -7   91.46   22.89 
  -1   4  -8  151.93   20.55 
  -1   4  -8  179.69   24.31 
  -1   4  -9   25.04    3.36 
   1  -3 -11    5.72    3.01 
   1  -3 -11    5.16    2.67 
  -1   3  11   12.84    2.91 
   1  -3 -10  114.90   14.71 
   1  -3 -10  120.66   15.42 
  -1   3  10  136.92   17.51 
   1  -3  -9    6.57    2.37 
   1  -3  -9   10.38    3.20 
  -1   3   9   12.98    3.87 
   1  -3  -8  254.50   28.34 
   1  -3  -8  274.34   30.67 
  -1   3   8  323.83   35.96 
   1  -3  -7  216.45   32.56 
   1  -3  -7  249.14   37.15 
  -1   3   7  239.34   35.83 
  -1   3   7  164.38   24.74 
   1  -3  -6   37.26    5.13 
   1  -3  -6   42.14    5.54 
  -1   3   6   37.65    5.19 
  -1   3   6   21.96    3.22 
   1  -3  -5   74.82    9.49 
   1  -3  -5   80.01   10.00 
   1  -3  -5   82.08   10.20 
  -1   3   5   80.35   10.14 
  -1   3   5   55.96    7.12 
   1  -3  -4  681.87   86.92 
   1  -3  -4  782.25  102.58 
  -1   3   4  708.85   90.52 
  -1   3   4  540.96   69.11 
   1  -3  -3   65.16    9.25 
   1  -3  -3   61.44    8.76 
   1  -3  -3   68.28    9.70 
  -1   3   3   53.53    7.72 
  -1   3   3   53.55    7.73 
   1  -3  -2  533.24   76.43 
   1  -3  -2  429.93   59.28 
   1  -3  -2  413.59   57.08 
  -1   3   2  432.49   59.68 
  -1   3   2  385.61   53.20 
   1  -3  -1 2689.32  199.89 
   1  -3  -1 2971.94  221.24 
   1  -3  -1 2881.13  247.54 
   1  -3  -1 2581.89  194.13 
  -1   3   1 2631.96  196.97 
   1  -3   0  595.80   82.05 
   1  -3   0  576.58   79.66 
   1  -3   0  557.63   77.03 
  -1   3   0  588.69   80.98 
  -1   3   0  608.90   84.04 
   1  -3   1 1123.47  156.37 
   1  -3   1 1306.12  179.86 
   1  -3   1 1159.72  159.14 
   1  -3   1 1351.40  185.70 
  -1   3  -1 1369.58  188.68 
  -1   3  -1 1471.17  201.99 
   1  -3   2 1627.87  207.94 
   1  -3   2 1458.72  186.01 
   1  -3   2 1496.53  190.30 
   1  -3   2 1629.28  207.32 
  -1   3  -2 1493.09  189.93 
  -1   3  -2 1587.18  202.51 
   1  -3   3   22.00    3.05 
   1  -3   3   17.36    2.85 
   1  -3   3   19.44    2.90 
   1  -3   3   18.21    2.59 
  -1   3  -3   17.05    2.55 
  -1   3  -3   15.89    2.57 
   1  -3   4    2.18    1.09 
   1  -3   4    0.85    1.53 
   1  -3   4    3.15    1.30 
   1  -3   4    3.34    1.15 
  -1   3  -4    0.87    1.23 
  -1   3  -4    0.08    1.26 
   1  -3   5   17.71    2.31 
   1  -3   5   12.89    2.37 
   1  -3   5   15.88    2.38 
  -1   3  -5   17.03    2.35 
  -1   3  -5   22.49    2.96 
   1  -3   6  228.67   25.58 
  -1   3  -6  242.99   27.09 
  -1   3  -6  257.57   28.83 
   1  -3   7   18.95    3.25 
  -1   3  -7   21.32    3.27 
  -1   3  -7   18.19    3.13 
  -1   3  -8   14.65    2.82 
  -1   3  -8   21.11    3.99 
  -1   3  -9   33.97    5.97 
  -1   3 -10   -1.74    2.02 
   1  -2 -11   -1.69    1.77 
   1  -2 -10    5.61    2.15 
   1  -2 -10    1.13    1.59 
  -1   2  10   -4.78    1.64 
   1  -2  -9   49.31    6.37 
   1  -2  -9   50.62    6.58 
  -1   2   9   48.00    6.29 
   1  -2  -8   49.75    5.63 
   1  -2  -8   47.63    5.53 
  -1   2   8   42.75    5.06 
   1  -2  -7   19.13    2.71 
   1  -2  -7   18.83    2.62 
  -1   2   7   16.69    2.66 
  -1   2   7   12.24    2.04 
   1  -2  -6   69.29    9.89 
   1  -2  -6   61.62    8.89 
   1  -2  -6   62.75    8.90 
  -1   2   6   50.58    7.42 
  -1   2   6   62.99    9.04 
   1  -2  -5   91.55   11.49 
   1  -2  -5   95.73   11.90 
   1  -2  -5   90.36   11.18 
  -1   2   5   63.20    8.21 
  -1   2   5   95.09   11.82 
  -1   2   5   64.97    8.19 
   1  -2  -4    1.15    1.16 
   1  -2  -4    1.71    1.23 
   1  -2  -4    1.76    1.17 
  -1   2   4    1.30    1.22 
  -1   2   4   -0.24    1.37 
  -1   2   4    0.89    0.97 
   1  -2  -3   86.78   12.20 
  -1   2   3   73.95   10.73 
  -1   2   3   96.22   13.53 
  -1   2   3   83.00   11.69 
   1  -2  -2   68.53    5.70 
   1  -2  -2   57.75    4.85 
  -1   2   2   56.97    4.94 
  -1   2   2   51.05    4.52 
  -1   2   2   59.28    5.06 
   1  -2  -1   68.21    6.01 
   1  -2  -1   57.21    4.88 
   1  -2  -1   52.92    4.68 
  -1   2   1   62.31    5.27 
  -1   2   1   47.67    4.42 
   1  -2   0  229.01   17.51 
   1  -2   0  241.44   18.40 
   1  -2   0  223.10   19.21 
   1  -2   0  197.79   15.61 
  -1   2   0  222.83   17.32 
   1  -2   1   30.63    3.29 
   1  -2   1   29.55    2.91 
   1  -2   1   30.57    2.96 
   1  -2   1   27.94    2.75 
  -1   2  -1   32.73    3.19 
  -1   2  -1   26.68    2.81 
   1  -2   2  553.43   76.13 
   1  -2   2  527.60   72.59 
   1  -2   2  596.13   82.03 
  -1   2  -2  604.04   83.33 
  -1   2  -2  583.18   80.22 
  -1   2  -2  557.44   76.84 
   1  -2   3  988.80  135.96 
   1  -2   3 1040.09  143.38 
   1  -2   3 1001.32  137.89 
   1  -2   3  919.14  126.46 
  -1   2  -3 1025.32  141.22 
  -1   2  -3 1127.94  155.15 
   1  -2   4  375.63   45.50 
   1  -2   4  314.67   38.54 
   1  -2   4  342.82   41.81 
   1  -2   4  353.45   42.83 
  -1   2  -4  361.31   43.74 
  -1   2  -4  442.81   53.53 
   1  -2   5  248.47   34.38 
   1  -2   5  250.54   34.80 
   1  -2   5  256.81   35.63 
   1  -2   5  201.48   28.05 
  -1   2  -5  238.59   33.02 
  -1   2  -5  233.22   32.42 
   1  -2   6   48.22    5.37 
   1  -2   6   36.69    4.46 
   1  -2   6   45.62    5.15 
  -1   2  -6   45.22    5.03 
  -1   2  -6   52.55    5.84 
   1  -2   7 1513.44  168.07 
  -1   2  -7 1667.25  183.20 
  -1   2  -7 1687.82  186.41 
   1  -2   8    4.55    2.37 
  -1   2  -8    4.90    1.70 
  -1   2  -8    8.70    2.92 
  -1   2  -9  455.37   57.16 
  -1   2 -10    9.67    5.22 
   1  -1 -11    0.85    1.76 
   1  -1 -10    3.17    1.80 
   1  -1 -10    2.63    1.78 
  -1   1  10    3.81    2.00 
   1  -1  -9   91.66   11.34 
   1  -1  -9   91.10   11.37 
  -1   1   9   92.65   11.54 
   1  -1  -8   -2.83    1.16 
   1  -1  -8    1.13    1.44 
  -1   1   8    3.85    1.73 
   1  -1  -7   76.96    8.30 
   1  -1  -7   63.79    7.10 
   1  -1  -7   73.37    7.86 
  -1   1   7   53.04    5.98 
  -1   1   7   68.25    7.45 
   1  -1  -6   63.33    9.07 
   1  -1  -6   56.68    8.25 
   1  -1  -6   71.87   10.16 
  -1   1   6   55.16    7.98 
  -1   1   6   50.93    7.39 
   1  -1  -5    2.95    1.41 
   1  -1  -5    4.88    1.65 
   1  -1  -5    3.08    1.32 
  -1   1   5   -0.46    1.12 
  -1   1   5    2.37    1.41 
  -1   1   5   -0.48    1.01 
   1  -1  -4 1025.05  141.88 
   1  -1  -4  879.58  121.28 
   1  -1  -4 1064.15  146.30 
  -1   1   4  826.07  115.78 
  -1   1   4  963.08  132.51 
  -1   1   4  760.18  104.61 
   1  -1  -3   81.83    6.81 
   1  -1  -3   65.09    5.41 
   1  -1  -3   74.83    6.08 
  -1   1   3   72.56    6.27 
  -1   1   3   72.67    6.01 
  -1   1   3   68.71    5.58 
   1  -1  -248006.27 6593.43 
  -1   1   246075.97 6464.05 
  -1   1   243549.57 3217.59 
  -1   1   242127.78 3118.80 
   1  -1  -1  204.53   15.74 
   1  -1  -1  180.67   13.77 
  -1   1   1  194.09   14.91 
  -1   1   1  193.92   16.09 
  -1   1   1  195.59   14.90 
   1  -1   0 6181.36  482.84 
   1  -1   0 4196.14  312.04 
  -1   1   0 4471.56  331.84 
  -1   1   0 4330.46  318.85 
   1  -1   1  290.84   21.98 
   1  -1   1  299.04   22.68 
   1  -1   1  336.02   27.28 
   1  -1   1  268.36   20.34 
  -1   1  -1  382.75   29.02 
   1  -1   2   29.51    3.00 
   1  -1   2   35.28    3.50 
   1  -1   2   31.66    2.99 
   1  -1   2   33.15    3.11 
  -1   1  -2   35.81    3.35 
   1  -1   3  285.04   39.48 
   1  -1   3  322.59   44.84 
   1  -1   3  294.60   22.35 
   1  -1   3  289.38   22.03 
  -1   1  -3  339.13   46.80 
  -1   1  -3  309.19   42.66 
   1  -1   4   96.92   13.64 
   1  -1   4  118.43   16.78 
   1  -1   4  101.33   14.36 
   1  -1   4  103.17   14.44 
  -1   1  -4  114.00   15.90 
  -1   1  -4  126.05   17.62 
   1  -1   5  580.70   70.48 
   1  -1   5  569.69   68.98 
   1  -1   5  553.05   67.09 
  -1   1  -5  651.93   78.51 
  -1   1  -5  695.87   84.00 
  -1   1  -5  678.79   82.02 
   1  -1   6    1.31    1.88 
   1  -1   6    1.67    1.19 
  -1   1  -6    1.52    1.03 
  -1   1  -6    0.66    1.26 
  -1   1  -6    1.00    1.30 
   1  -1   7   45.32    7.34 
   1  -1   7   62.87    9.60 
  -1   1  -7   61.33    9.34 
  -1   1  -7   48.55    7.58 
  -1   1  -7   68.57   10.52 
   1  -1   8  594.68   92.12 
  -1   1  -8  502.16   77.39 
  -1   1  -8  692.28  106.36 
  -1   1  -8  561.71   87.02 
   1  -1   9   15.08    3.33 
  -1   1  -9   15.48    3.19 
  -1   1 -10   -2.94    1.81 
  -1   1 -11   39.72    9.23 
   1   0 -11  364.87   81.58 
   1   0 -10   44.02    6.41 
   1   0 -10   46.08    6.61 
   1   0  -9   84.45   21.13 
   1   0  -9   76.03   19.09 
  -1   0   9   77.49   19.41 
   1   0  -8   23.83    4.04 
   1   0  -8   24.71    3.99 
   1   0  -8   31.79    4.93 
  -1   0   8   24.92    4.04 
   1   0  -7  148.64   22.47 
   1   0  -7  131.13   19.78 
   1   0  -7  152.64   22.89 
  -1   0   7  125.85   18.98 
  -1   0   7  162.28   24.33 
   1   0  -6   27.67    3.95 
   1   0  -6   17.20    2.89 
   1   0  -6   30.80    4.18 
  -1   0   6   25.95    3.63 
  -1   0   6   28.20    3.96 
   1   0  -5    2.45    1.41 
   1   0  -5    2.26    1.41 
   1   0  -5    3.98    1.26 
  -1   0   5    6.72    1.54 
  -1   0   5    6.49    1.63 
   1   0  -4  138.74   19.41 
   1   0  -4  108.74   15.28 
   1   0  -4  139.26   19.37 
  -1   0   4  129.38   18.12 
  -1   0   4  124.60   17.37 
   1   0  -3   21.74    2.47 
   1   0  -3   21.63    2.43 
   1   0  -3   26.61    2.65 
  -1   0   3   22.34    2.43 
  -1   0   3   22.30    2.35 
   1   0  -2  389.72   29.23 
   1   0  -2  484.30   36.28 
  -1   0   2  399.65   30.17 
  -1   0   2  427.36   33.77 
   1   0  -1  554.33   41.21 
  -1   0   1  555.16   43.37 
  -1   0   1  494.37   37.33 
   1   0   0   83.67    6.85 
   1   0   0   75.55    6.20 
  -1   0   0   84.38    6.99 
  -1   0   0  101.80    8.29 
  -1   0   0   69.12    5.67 
   1   0   1   50.40    4.60 
   1   0   1   49.41    4.15 
  -1   0  -1   44.90    4.14 
  -1   0  -1   55.65    4.71 
   1   0   2  624.38   47.70 
   1   0   2  548.54   40.81 
  -1   0  -2  586.51   43.66 
   1   0   3   -0.08    1.84 
   1   0   3   -1.58    1.49 
   1   0   3   -1.21    1.84 
   1   0   3    0.29    1.03 
  -1   0  -3   -1.28    1.05 
  -1   0  -3    2.19    1.75 
   1   0   4  371.71   51.41 
   1   0   4  526.21   72.37 
   1   0   4  344.90   47.57 
   1   0   4  381.87   52.71 
  -1   0  -4  403.88   55.77 
  -1   0  -4  360.79   50.02 
   1   0   5  366.99   47.35 
   1   0   5  401.43   51.19 
   1   0   5  370.72   47.46 
  -1   0  -5  372.58   47.83 
  -1   0  -5  448.88   57.47 
   1   0   6   -0.24    1.69 
   1   0   6    0.35    1.00 
   1   0   6   -0.28    0.91 
  -1   0  -6   -0.14    1.30 
  -1   0  -6   -1.38    1.08 
   1   0   7    6.89    2.15 
  -1   0  -7    5.36    1.73 
  -1   0  -7    7.91    1.66 
   1   0   8    4.71    2.23 
  -1   0  -8    4.54    1.63 
   1   0   9   37.95    5.64 
  -1   0  -9   44.52    6.34 
   1   0  10   10.85    3.62 
  -1   0 -10   14.46    4.15 
  -1   0 -11   15.71    2.53 
   1   1 -10   68.47   11.31 
   1   1  -9   12.25    3.76 
   1   1  -9   13.85    4.03 
   1   1  -8    5.99    1.78 
   1   1  -8    7.94    2.08 
  -1  -1   8    5.59    1.76 
   1   1  -7   -0.86    1.50 
   1   1  -7    1.85    1.42 
   1   1  -7    0.31    1.34 
  -1  -1   7   -0.19    1.13 
  -1  -1   7   -0.18    1.36 
   1   1  -6  247.39   25.95 
   1   1  -6  208.07   21.58 
   1   1  -6  256.23   26.47 
  -1  -1   6  225.37   23.32 
  -1  -1   6  242.46   24.95 
   1   1  -5  403.45   55.93 
   1   1  -5  304.08   42.39 
   1   1  -5  474.14   65.24 
  -1  -1   5  395.19   54.62 
  -1  -1   5  419.91   57.87 
   1   1  -4  125.33   16.34 
   1   1  -4  116.64   15.26 
   1   1  -4  139.45   18.03 
  -1  -1   4  130.85   17.00 
  -1  -1   4  125.93   16.30 
   1   1  -3 2988.87  382.23 
   1   1  -3 2364.03  324.74 
   1   1  -3 3119.92  397.82 
  -1  -1   3 2677.58  368.65 
  -1  -1   3 2813.12  386.23 
   1   1  -2 1265.28   93.79 
   1   1  -2 1569.35  116.65 
  -1  -1   2 1320.90   97.96 
  -1  -1   2 1297.79   96.79 
   1   1  -1  142.31   12.40 
   1   1  -1  205.91   15.88 
   1   1  -1  197.68   15.09 
  -1  -1   1  174.48   13.96 
  -1  -1   1  164.21   13.07 
   1   1   0 9825.87  722.61 
  -1  -1   0 8323.81  618.21 
   1   1   1  461.05   35.21 
   1   1   1  421.48   31.54 
  -1  -1  -1  504.50   37.96 
   1   1   2 1208.34   93.66 
   1   1   2 1069.81   79.44 
   1   1   2 1119.35   85.19 
  -1  -1  -2 1147.32   87.36 
  -1  -1  -2 1346.01  100.11 
   1   1   3 5202.53  387.08 
   1   1   3 4313.90  319.12 
   1   1   3 4864.84  368.62 
  -1  -1  -3 4568.57  336.67 
   1   1   4 3229.98  241.81 
   1   1   4 2993.47  222.61 
  -1  -1  -4 3553.01  264.52 
   1   1   5   95.97   12.67 
   1   1   5   81.78   10.69 
  -1  -1  -5  102.27   14.32 
  -1  -1  -5   89.50   11.87 
   1   1   6  674.75   82.37 
   1   1   6  786.63   94.98 
  -1  -1  -6  919.33  110.70 
  -1  -1  -6  742.98   90.00 
   1   1   7  153.91   19.61 
  -1  -1  -7  116.40   14.77 
  -1  -1  -7  162.32   20.33 
   1   1   8    3.39    2.21 
  -1  -1  -8   -0.14    1.39 
   1   1   9    5.46    2.46 
  -1  -1  -9    5.24    1.72 
   1   1  10   -0.06    2.10 
  -1  -1 -10   -1.09    1.72 
   1   1  11   26.27    4.94 
  -1  -1 -11   29.90    5.39 
  -1  -1 -12   32.25    7.63 
   1   2 -10    4.51    2.97 
   1   2  -9  200.19   26.98 
   1   2  -9  187.87   25.35 
   1   2  -8   84.59   10.73 
   1   2  -8   79.55    9.96 
   1   2  -7   58.21    9.40 
   1   2  -7   36.33    5.58 
   1   2  -7   52.16    8.37 
  -1  -2   7   55.43    8.83 
   1   2  -6  264.73   39.74 
   1   2  -6  191.36   28.66 
   1   2  -6  276.65   41.24 
  -1  -2   6  263.90   39.43 
  -1  -2   6  271.45   40.46 
   1   2  -5  123.14   15.69 
   1   2  -5   96.71   12.22 
   1   2  -5  136.92   17.16 
  -1  -2   5  124.36   15.64 
  -1  -2   5  118.56   14.81 
   1   2  -4   39.85    5.37 
   1   2  -4   30.97    4.26 
   1   2  -4   49.59    6.35 
  -1  -2   4   41.11    5.39 
  -1  -2   4   42.35    5.46 
  -1  -2   4   29.19    3.90 
   1   2  -3 1169.53  161.20 
   1   2  -3 1538.41  211.13 
   1   2  -3 1319.02  181.53 
  -1  -2   3 1171.75  161.23 
  -1  -2   3 1141.93  156.96 
  -1  -2   3  936.49  129.08 
   1   2  -2  854.70   65.11 
   1   2  -2  839.65   62.50 
   1   2  -2 1035.63   77.33 
  -1  -2   2  897.92   67.59 
  -1  -2   2  850.98   63.49 
   1   2  -1 1106.75   81.90 
   1   2  -1 1136.49   84.03 
   1   2   0 2609.20  192.36 
  -1  -2   0 3827.50  282.01 
  -1  -2   0 2692.90  199.82 
   1   2   1  418.99   31.45 
  -1  -2  -1  526.39   39.29 
   1   2   2  381.80   31.51 
   1   2   2  404.08   30.82 
   1   2   2  477.88   38.23 
  -1  -2  -2  397.21   31.06 
  -1  -2  -2  368.26   28.06 
   1   2   3  283.67   21.77 
   1   2   3  293.37   22.33 
   1   2   3  270.85   21.51 
  -1  -2  -3  254.49   19.85 
  -1  -2  -3  271.30   20.52 
   1   2   4  152.94   12.11 
   1   2   4  173.82   13.55 
   1   2   4  160.94   12.48 
   1   2   5  683.18   94.43 
   1   2   5  557.16   76.72 
  -1  -2  -5  608.50   84.04 
  -1  -2  -5  611.14   85.15 
  -1  -2  -5  748.92  102.89 
   1   2   6   27.28    4.03 
   1   2   6   30.20    3.97 
  -1  -2  -6   34.73    4.82 
  -1  -2  -6   38.81    5.11 
  -1  -2  -6   38.90    5.15 
   1   2   7  108.94   13.92 
  -1  -2  -7  132.36   16.65 
   1   2   8   21.94    4.08 
  -1  -2  -8   29.98    4.87 
   1   2   9   11.38    2.74 
  -1  -2  -9   12.33    2.46 
   1   2  10  237.21   29.10 
  -1  -2 -10  266.25   32.25 
   1   2  11  111.58   15.33 
  -1  -2 -11  108.15   14.80 
  -1  -2 -12    2.84    2.33 
   1   3  -9   32.43    5.73 
   1   3  -8  195.68   24.87 
   1   3  -8  182.75   23.25 
   1   3  -7  163.18   17.51 
   1   3  -7  177.02   19.05 
   1   3  -6    4.15    1.88 
   1   3  -6   11.22    2.08 
   1   3  -5   10.32    2.17 
   1   3  -5   13.71    2.15 
  -1  -3   5   13.60    2.10 
   1   3  -4  528.72   73.12 
   1   3  -4  688.52   94.84 
  -1  -3   4  639.31   88.24 
   1   3  -3    1.12    1.39 
   1   3  -3   -1.73    1.18 
  -1  -3   3   -1.01    1.25 
  -1  -3   3   -0.74    1.04 
   1   3  -2  864.95  119.22 
   1   3  -2  820.58  113.38 
  -1  -3   2  691.36   95.11 
  -1  -3   2  745.91  102.70 
   1   3  -1 1751.23  129.52 
   1   3  -1 1697.53  125.27 
  -1  -3   1 1322.56   98.50 
  -1  -3   1 1445.54  107.84 
   1   3   0  659.64   49.07 
   1   3   0  675.00   52.00 
  -1  -3   0  605.34   45.12 
  -1  -3   0  639.49   48.24 
  -1  -3   0  693.51   51.59 
   1   3   1   98.61    7.97 
   1   3   1   99.08    8.04 
  -1  -3  -1  111.13    8.96 
  -1  -3  -1   83.25    6.82 
   1   3   213900.95 1035.19 
   1   3   2 9822.41  723.34 
  -1  -3  -211884.58  880.49 
   1   3   3  104.00    8.86 
   1   3   3  102.61    8.47 
   1   3   3  123.15   10.47 
  -1  -3  -3   98.04    8.25 
  -1  -3  -3   95.34    7.73 
   1   3   4  268.00   37.46 
   1   3   4  277.06   38.32 
   1   3   4  283.29   39.43 
  -1  -3  -4  313.37   43.36 
  -1  -3  -4  280.21   38.73 
   1   3   5  529.34   73.14 
   1   3   5  379.87   52.61 
  -1  -3  -5  499.00   68.67 
   1   3   6   27.30    3.99 
   1   3   6   22.83    3.20 
  -1  -3  -6   30.31    4.22 
  -1  -3  -6   26.91    3.83 
  -1  -3  -6   24.83    3.47 
   1   3   7    9.81    2.40 
  -1  -3  -7    9.61    1.89 
  -1  -3  -7   10.26    1.95 
   1   3   8  568.29   84.92 
  -1  -3  -8  550.45   81.72 
  -1  -3  -8  554.16   82.27 
   1   3   9   11.83    2.76 
  -1  -3  -9   10.67    2.08 
  -1  -3  -9    9.47    2.08 
   1   3  10    3.89    2.61 
  -1  -3 -10    5.79    2.22 
   1   3  11  173.51   22.14 
  -1  -3 -11  204.37   25.84 
   1   3  12    1.35    2.49 
  -1  -3 -12    6.84    3.88 
   1   4  -8   84.47   11.77 
   1   4  -7   20.47    4.05 
   1   4  -6   22.69    3.67 
   1   4  -5   85.13   12.58 
   1   4  -5   91.06   10.44 
   1   4  -4    3.65    1.86 
   1   4  -4   -0.67    1.50 
   1   4  -3 1661.17  228.78 
   1   4  -3 1477.05  203.89 
  -1  -4   3 1378.31  189.63 
   1   4  -2   17.29    2.89 
   1   4  -2   21.73    3.26 
  -1  -4   2   18.43    3.03 
  -1  -4   2   13.06    2.28 
   1   4  -1  685.62   94.49 
  -1  -4   1  565.35   77.76 
  -1  -4   1  539.98   74.42 
  -1  -4   1  534.91   73.73 
  -1  -4   1  846.71  126.74 
   1   4   0  401.86   57.33 
   1   4   0  332.62   46.21 
  -1  -4   0  323.29   44.64 
  -1  -4   0  407.97   56.47 
  -1  -4   0  364.19   50.38 
   1   4   1  563.99   42.12 
   1   4   1  507.40   37.89 
   1   4   2 2859.23  218.66 
   1   4   2 3035.45  227.65 
   1   4   2 2770.35  204.30 
  -1  -4  -2 3662.81  269.70 
   1   4   3   69.87   10.34 
   1   4   3   74.74   10.71 
  -1  -4  -3   70.65   10.28 
  -1  -4  -3   70.99   10.05 
  -1  -4  -3   70.35   10.03 
   1   4   4  422.57   58.43 
   1   4   4  449.47   63.27 
   1   4   4  456.07   63.04 
  -1  -4  -4  457.34   63.27 
  -1  -4  -4  415.83   58.54 
  -1  -4  -4  455.29   62.80 
   1   4   5   34.42    4.97 
   1   4   5   33.01    4.67 
   1   4   5   34.32    4.81 
  -1  -4  -5   31.51    4.51 
  -1  -4  -5   32.13    4.56 
  -1  -4  -5   35.82    5.01 
   1   4   6  273.86   33.61 
  -1  -4  -6  303.41   36.79 
  -1  -4  -6  244.43   31.40 
   1   4   7    9.18    2.42 
  -1  -4  -7   13.37    2.25 
   1   4   8  461.94   68.87 
  -1  -4  -8  354.20   52.74 
  -1  -4  -8  346.87   51.77 
   1   4   9   84.28   13.42 
  -1  -4  -9   70.61   11.15 
  -1  -4  -9   77.16   12.19 
   1   4  10   43.73    6.05 
  -1  -4 -10   32.85    4.38 
   1   4  11   -5.76    2.36 
   1   4  12   12.72    6.86 
   1   5  -8    3.20    2.61 
   1   5  -7    3.94    2.28 
   1   5  -6   66.06    8.54 
   1   5  -5   19.17    3.51 
   1   5  -4   58.83    9.25 
   1   5  -3    0.75    1.61 
   1   5  -2  707.99   97.59 
  -1  -5   2  703.44  103.29 
   1   5  -1  748.28   90.04 
  -1  -5   1  544.05   65.55 
  -1  -5   1  678.41   81.64 
  -1  -5   1  654.99   79.23 
  -1  -5   1  704.82   96.57 
   1   5   0 1208.46  159.60 
  -1  -5   0  926.85  117.86 
  -1  -5   0 1061.23  135.42 
  -1  -5   0  931.15  119.09 
  -1  -5   0 1377.39  193.02 
   1   5   1 1539.32  196.98 
   1   5   1 1179.14  156.87 
   1   5   1 1147.47  146.09 
  -1  -5  -1 1101.20  143.95 
  -1  -5  -1 1147.35  158.34 
  -1  -5  -1 1108.66  142.21 
   1   5   2  192.95   27.84 
   1   5   2  185.15   25.76 
   1   5   2  150.49   21.34 
  -1  -5  -2  258.58   35.81 
  -1  -5  -2  203.76   31.50 
   1   5   3  339.93   45.50 
   1   5   3  402.67   53.29 
   1   5   3  340.65   43.75 
  -1  -5  -3  364.05   48.16 
  -1  -5  -3  308.46   42.53 
  -1  -5  -3  347.73   44.53 
   1   5   4  157.18   20.85 
   1   5   4  138.39   18.09 
  -1  -5  -4  132.66   17.37 
  -1  -5  -4  126.96   16.80 
  -1  -5  -4  142.99   18.57 
   1   5   5 1052.28  127.17 
   1   5   5 1072.29  130.52 
   1   5   5 1010.36  122.40 
  -1  -5  -5  992.84  120.21 
  -1  -5  -5 1107.76  135.97 
  -1  -5  -5 1109.92  133.75 
   1   5   6    2.75    2.01 
   1   5   6    2.84    1.40 
  -1  -5  -6    4.70    1.54 
  -1  -5  -6    2.97    1.48 
   1   5   7  563.76   69.73 
  -1  -5  -7  590.71   72.51 
  -1  -5  -7  639.47   80.96 
  -1  -5  -7  678.41   83.38 
   1   5   8   47.29    7.58 
  -1  -5  -8   52.47    8.12 
  -1  -5  -8   48.52    7.69 
   1   5   9    3.60    2.47 
  -1  -5  -9    3.84    1.34 
  -1  -5  -9    2.77    1.42 
   1   5  10    5.84    2.81 
  -1  -5 -10    3.43    1.73 
   1   5  11   15.93    4.89 
   1   5  12   46.08    5.17 
   1   6  -7   15.55    2.79 
   1   6  -7    5.76    3.48 
   1   6  -6  537.16   67.33 
   1   6  -5   68.00    8.81 
   1   6  -4    6.72    2.38 
  -1  -6   4    1.48    2.24 
   1   6  -3    7.96    2.22 
  -1  -6   3   -0.72    2.29 
   1   6  -2  360.46   37.25 
  -1  -6   2  367.28   43.08 
   1   6  -1    2.10    1.26 
   1   6  -1    2.42    1.79 
  -1  -6   1    1.92    1.38 
  -1  -6   1    6.13    2.31 
   1   6   0   50.21    7.32 
  -1  -6   0   42.78    6.27 
  -1  -6   0   37.26    6.51 
   1   6   1  163.31   20.59 
   1   6   1  194.11   23.94 
  -1  -6  -1  160.21   20.13 
  -1  -6  -1  160.65   22.43 
   1   6   2   40.08    5.52 
   1   6   2   34.77    4.81 
  -1  -6  -2   42.39    5.68 
  -1  -6  -2   44.10    6.40 
   1   6   3   34.79    5.06 
   1   6   3   40.98    5.75 
   1   6   3   36.84    5.03 
  -1  -6  -3   30.50    4.43 
  -1  -6  -3   34.69    4.96 
  -1  -6  -3   34.21    4.59 
   1   6   4 2217.70  272.18 
   1   6   4 2464.56  339.27 
  -1  -6  -4 2196.16  273.00 
  -1  -6  -4 2318.88  279.30 
  -1  -6  -4 2106.21  264.99 
   1   6   5   69.68   10.02 
  -1  -6  -5   75.21   10.73 
  -1  -6  -5   78.04   11.19 
   1   6   6  770.70   95.20 
  -1  -6  -6  841.58  103.32 
  -1  -6  -6  787.68   97.46 
   1   6   7  514.57   52.61 
  -1  -6  -7  504.31   51.44 
  -1  -6  -7  477.43   52.43 
  -1  -6  -7  467.45   47.89 
   1   6   8    0.83    2.18 
  -1  -6  -8    0.01    0.98 
  -1  -6  -8    1.78    1.80 
  -1  -6  -8   -0.39    1.32 
   1   6   9   -4.24    2.09 
  -1  -6  -9    4.87    1.42 
  -1  -6  -9    3.21    1.64 
  -1  -6  -9   -3.03    1.54 
   1   6  10   95.94   12.16 
  -1  -6 -10   68.56    8.65 
  -1  -6 -10   89.14   11.07 
   1   6  11    0.00    2.62 
   1   6  12  126.88   12.27 
   1   7  -6   34.74    4.12 
  -1  -7   6   33.81    4.33 
   1   7  -5   48.60    7.08 
  -1  -7   5   47.68    7.07 
   1   7  -4   15.84    3.57 
  -1  -7   4   13.00    3.50 
   1   7  -3  418.19   43.83 
  -1  -7   3  346.17   37.73 
   1   7  -2  412.26   45.67 
  -1  -7   2  407.26   46.05 
   1   7  -1  189.18   28.30 
   1   7  -1  203.59   30.53 
  -1  -7   1  198.35   31.40 
   1   7   0    0.84    1.33 
  -1  -7   0   -1.61    1.28 
  -1  -7   0    2.39    2.19 
   1   7   1  453.36   56.80 
   1   7   1  467.80   58.49 
  -1  -7  -1  376.77   47.20 
  -1  -7  -1  450.84   60.06 
   1   7   2  126.54   16.40 
   1   7   2  156.84   19.71 
  -1  -7  -2  117.70   15.38 
  -1  -7  -2  114.49   15.94 
   1   7   3   69.49    9.24 
   1   7   3   65.77    8.67 
  -1  -7  -3   64.34    8.62 
  -1  -7  -3   62.27    8.37 
   1   7   4  227.06   28.57 
   1   7   4  227.12   28.33 
  -1  -7  -4  214.94   26.85 
   1   7   5   22.47    3.26 
   1   7   5   23.48    3.23 
  -1  -7  -5   26.04    3.54 
   1   7   6  131.56   13.98 
  -1  -7  -6  128.17   13.48 
  -1  -7  -7   76.42    8.39 
   1   7   8    0.44    2.13 
  -1  -7  -8   -1.44    1.87 
  -1  -7  -8    0.35    1.41 
   1   7   9   21.60    6.06 
  -1  -7  -9   15.57    4.55 
  -1  -7  -9   21.83    5.85 
   1   7  10   87.89   22.09 
  -1  -7 -10   55.63   14.09 
  -1  -7 -10   60.07   15.11 
   1   7  11  255.34   34.40 
  -1  -7 -11  201.37   27.04 
  -1  -7 -11  238.16   32.02 
   1   7  12  154.35   14.74 
  -1  -7 -12  136.87   12.97 
   1   8  -5    0.83    2.22 
  -1  -8   5    6.57    4.41 
   1   8  -4   -0.86    1.92 
  -1  -8   4    1.92    2.79 
   1   8  -3  197.02   49.01 
  -1  -8   3  176.38   44.20 
   1   8  -2   34.47    4.83 
  -1  -8   2   33.81    5.34 
   1   8  -1   25.36    4.09 
   1   8  -1   37.46    5.91 
  -1  -8   1   30.77    5.35 
   1   8   0  459.89   50.78 
  -1  -8   0  453.29   51.59 
   1   8   1  464.64   51.53 
  -1  -8  -1  499.30   58.15 
   1   8   2 1926.99  288.24 
   1   8   2 2125.50  317.08 
  -1  -8  -2 1673.67  253.49 
  -1  -8  -2 2017.06  302.26 
   1   8   3   59.31    9.34 
   1   8   3   65.00   10.13 
  -1  -8  -3   59.67    9.41 
   1   8   4   65.52   10.22 
   1   8   4   65.59   10.22 
  -1  -8  -4   59.33    9.31 
   1   8   5  147.44   16.90 
   1   8   5  150.13   22.71 
  -1  -8  -5  160.01   18.15 
   1   8   6   41.82    5.09 
   1   8   6   34.12    4.29 
  -1  -8  -6   34.21    4.20 
   1   8   7   37.21    5.83 
  -1  -8  -7   32.42    5.07 
  -1  -8  -8   36.69    5.59 
  -1  -8  -8   51.17   13.13 
   1   8   9    2.90    2.01 
  -1  -8  -9    0.85    2.06 
  -1  -8  -9    1.35    1.57 
   1   8  10  186.30   23.64 
  -1  -8 -10  150.38   19.22 
  -1  -8 -10  130.37   16.59 
   1   8  11   -2.07    2.76 
  -1  -8 -11    0.09    1.61 
  -1  -8 -11   -0.86    1.89 
   1   8  12  674.26  150.56 
  -1  -8 -12  509.02  113.86 
   1   9  -4    7.13    3.54 
  -1  -9   4    9.19    4.71 
   1   9  -3   -0.26    2.04 
  -1  -9   3    3.69    3.28 
   1   9  -2   27.08    7.37 
  -1  -9   2   38.42    5.88 
   1   9  -1    5.32    1.65 
   1   9  -1    1.66    2.10 
  -1  -9   1    0.65    2.65 
   1   9   0   68.90    8.71 
   1   9   0   66.98    8.58 
  -1  -9   0   68.41    9.02 
   1   9   1  178.17   18.96 
  -1  -9  -1  177.78   19.24 
   1   9   2  134.26   21.01 
   1   9   2  134.39   21.08 
  -1  -9  -2  125.46   19.85 
   1   9   3 1300.39  200.76 
   1   9   3 1316.72  203.31 
  -1  -9  -3 1315.35  203.21 
   1   9   4    1.09    2.04 
   1   9   4    0.28    1.90 
  -1  -9  -4    7.56    2.61 
   1   9   5  211.89   33.03 
   1   9   5  240.18   37.24 
  -1  -9  -5  222.70   34.66 
   1   9   6  373.55   39.22 
   1   9   6  352.43   37.14 
  -1  -9  -6  341.29   36.02 
   1   9   7   74.64    9.59 
   1   9   7   82.99   10.52 
  -1  -9  -7   79.47    9.97 
  -1  -9  -8    4.52    2.39 
  -1  -9  -8    1.08    1.67 
  -1  -9  -9    0.92    2.15 
  -1  -9  -9    3.60    1.95 
   1   9  10    0.14    2.16 
  -1  -9 -10    8.92    4.31 
  -1  -9 -10    2.73    1.99 
   1   9  11   46.96    5.47 
  -1  -9 -11   31.40    3.80 
  -1  -9 -11   31.51    3.68 
   1  10  -2   82.90    8.17 
  -1 -10   2   82.97    8.68 
   1  10  -1    6.33    3.24 
  -1 -10   1    9.37    4.84 
   1  10   0   76.82   10.00 
   1  10   0   93.35   12.11 
  -1 -10   0   85.35   11.42 
   1  10   1  476.28   59.49 
  -1 -10  -1  529.91   67.18 
   1  10   2   21.11    4.08 
   1  10   2   28.07    5.15 
  -1 -10  -2   26.27    5.15 
   1  10   3   71.62   18.00 
   1  10   3   62.89   15.89 
  -1 -10  -3   84.58   21.28 
   1  10   4  449.91   54.44 
   1  10   4  514.60   62.10 
  -1 -10  -4  481.55   57.96 
   1  10   5   10.62    2.87 
   1  10   5   12.58    3.04 
  -1 -10  -5    7.23    2.53 
   1  10   6  109.66   27.43 
   1  10   6  117.56   29.39 
  -1 -10  -6  114.01   28.48 
   1  10   7    6.63    2.91 
   1  10   7    1.32    2.39 
  -1 -10  -7    1.17    2.05 
   1  10   8  386.94  157.77 
  -1 -10  -8  319.48   43.35 
  -1 -10  -8  418.30  170.48 
   1  10   9    6.18    3.51 
  -1 -10  -9    3.45    2.88 
  -1 -10  -9   -1.01    1.76 
  -1 -10 -10   64.08    6.92 
  -1 -10 -10   71.13    7.03 
   1  11  -1  121.22   27.28 
  -1 -11   1  141.72   32.03 
   1  11   0    4.93    3.30 
  -1 -11   0    1.84    3.18 
  -1 -11  -1   83.38   13.86 
   1  11   2   -5.97    1.66 
   1  11   2   -3.14    2.02 
  -1 -11  -2    0.94    2.59 
   1  11   3   40.42    6.03 
   1  11   3   37.78    5.60 
  -1 -11  -3   37.92    5.91 
   1  11   4   41.30    6.09 
   1  11   4   46.75    6.85 
  -1 -11  -4   39.14    6.03 
   1  11   5   11.51    3.68 
   1  11   5    6.17    2.89 
  -1 -11  -5   -0.19    2.25 
   1  11   6   -1.40    2.02 
   1  11   6    6.47    2.81 
  -1 -11  -6   -1.22    2.27 
   1  11   7   30.48    5.63 
   1  11   7   32.85    5.98 
  -1 -11  -7   27.90    5.15 
   1  11   8   54.86    5.88 
  -1 -11  -8   49.18    5.48 
  -1 -11  -8   45.66    4.93 
   1  11   9   -1.36    2.55 
  -1 -11  -9    4.30    3.00 
  -1 -11  -9    4.54    2.73 
  -1 -12  -2   64.92   14.93 
   1  12   3   66.60   15.15 
   1  12   3   59.37   13.63 
  -1 -12  -3   64.08   14.74 
   1  12   4   24.34    5.97 
   1  12   4   22.66    5.76 
  -1 -12  -4   22.36    5.78 
   1  12   5   37.66    8.85 
   1  12   5   42.24    9.94 
  -1 -12  -5   46.84   10.91 
   1  12   6  141.19   31.73 
   1  12   6  140.89   31.71 
  -1 -12  -6  138.73   31.20 
   1  12   7  135.80   30.56 
   1  12   7  136.46   30.76 
  -1 -12  -7  116.32   26.19 
   2 -10  -6    9.83    4.42 
   2 -10  -6    7.30    4.00 
  -2  10   6    5.63    3.28 
   2 -10  -5    1.85    2.14 
  -2  10   5    2.37    2.47 
   2 -10  -4   99.90   22.58 
   2 -10  -4   79.60   18.14 
  -2  10   4   97.53   22.07 
   2 -10  -3   42.57    5.07 
   2 -10  -3   48.74    5.66 
  -2  10   3   40.46    4.67 
   2 -10  -2   37.73    9.04 
   2 -10  -2   44.54   10.40 
  -2  10   2   38.28    9.00 
   2 -10  -1   18.32    4.79 
  -2  10   1   25.92    6.35 
   2  -9  -8    5.83    3.01 
   2  -9  -8   -2.68    2.59 
  -2   9   8    8.41    4.18 
   2  -9  -7    1.99    2.67 
   2  -9  -7    6.56    3.82 
   2  -9  -6    4.27    2.77 
   2  -9  -6   -2.45    2.23 
  -2   9   6   -0.59    2.31 
   2  -9  -5    1.68    2.14 
  -2   9   5   -3.83    2.05 
   2  -9  -4  106.15   14.62 
   2  -9  -4  100.73   13.84 
  -2   9   4  121.21   16.55 
   2  -9  -3   11.52    3.93 
   2  -9  -3    3.37    2.69 
  -2   9   3    3.23    2.40 
   2  -9  -2    6.78    2.82 
   2  -9  -2    6.22    2.72 
  -2   9   2    1.51    2.16 
   2  -9  -1    1.43    2.32 
   2  -9  -1   -1.91    1.97 
  -2   9   1    2.69    2.20 
   2  -9   0  409.06   65.57 
   2  -9   0  433.37   69.47 
  -2   9   0  397.74   63.64 
   2  -9   1    5.93    3.62 
  -2   9  -1    1.80    2.19 
   2  -9   2    8.77    4.03 
  -2   9  -2    7.63    3.59 
   2  -8  -9    4.56    2.70 
   2  -8  -9    1.12    2.36 
  -2   8   9   -0.36    2.38 
   2  -8  -8   15.50    2.57 
   2  -8  -8   14.65    6.17 
  -2   8   8   15.78    2.97 
   2  -8  -7   33.59    5.11 
   2  -8  -7   31.44    5.02 
  -2   8   7   31.75    5.12 
   2  -8  -6   57.10    7.83 
   2  -8  -6   50.63    6.81 
   2  -8  -5   54.46   13.78 
  -2   8   5   62.97   15.92 
   2  -8  -4   52.78   13.42 
   2  -8  -4   47.64   12.18 
  -2   8   4   49.97   12.69 
   2  -8  -3   11.90    2.85 
   2  -8  -3   19.00    3.87 
  -2   8   3   19.95    3.95 
   2  -8  -2   29.12    5.43 
   2  -8  -2   14.49    3.36 
  -2   8   2   21.22    4.13 
   2  -8  -1   47.30   12.15 
   2  -8  -1   40.72   10.45 
  -2   8   1   53.85   13.63 
   2  -8   0   55.73   14.31 
   2  -8   0   83.33   20.89 
  -2   8   0   65.91   16.63 
   2  -8   1   -3.32    2.76 
   2  -8   1   -4.82    1.81 
  -2   8  -1   -2.45    1.82 
   2  -8   2    6.50    3.36 
   2  -8   2    7.50    2.76 
  -2   8  -2    1.34    2.10 
   2  -8   3   10.30    5.01 
   2  -8   3    7.14    3.56 
  -2   8  -3    8.36    3.91 
   2  -8   4    2.69    2.18 
   2  -8   4    7.34    4.10 
   2  -7  -9   36.61    4.20 
   2  -7  -9   27.00    3.63 
  -2   7   9   39.89    4.63 
   2  -7  -8   50.48    7.27 
   2  -7  -8   59.39    8.49 
  -2   7   8   57.32    8.24 
   2  -7  -7    1.98    1.81 
   2  -7  -7    2.64    2.31 
  -2   7   7    4.57    2.59 
   2  -7  -6   39.62   10.12 
   2  -7  -6   32.78    8.80 
  -2   7   6   36.73    9.49 
   2  -7  -5   56.22    7.23 
   2  -7  -4   24.19    3.81 
  -2   7   4   26.71    4.20 
   2  -7  -3  293.79   31.08 
   2  -7  -3  310.77   32.79 
  -2   7   3  268.01   28.27 
   2  -7  -2    0.05    1.89 
   2  -7  -2    3.92    1.75 
  -2   7   2   -0.58    1.83 
   2  -7  -1   96.37   10.73 
   2  -7  -1   92.05   10.15 
  -2   7   1   93.21   10.21 
   2  -7   0    5.30    2.57 
   2  -7   0   18.68    3.14 
  -2   7   0   14.18    2.74 
   2  -7   1   22.04    6.23 
   2  -7   1   15.53    4.39 
  -2   7  -1   15.50    4.44 
   2  -7   2   97.73   24.62 
   2  -7   2  133.67   33.34 
  -2   7  -2  124.21   31.01 
   2  -7   3   13.55    4.45 
   2  -7   3   10.67    3.48 
  -2   7  -3    5.56    2.30 
   2  -7   4   21.41    5.94 
   2  -7   4   16.76    5.15 
   2  -7   5    8.26    4.56 
   2  -7   5    5.40    4.03 
   2  -6 -10    0.75    1.88 
   2  -6 -10    4.56    2.83 
  -2   6  10    1.72    2.44 
   2  -6  -9   -1.96    1.75 
   2  -6  -9   -2.44    1.95 
  -2   6   9    5.74    3.23 
   2  -6  -8   57.76    7.69 
   2  -6  -8   72.04    9.52 
  -2   6   8   64.09    8.66 
   2  -6  -7    1.11    1.57 
   2  -6  -7   -0.36    1.88 
  -2   6   7   -1.53    2.13 
   2  -6  -6   22.07    3.45 
   2  -6  -6   23.97    3.90 
  -2   6   6   22.79    3.78 
   2  -6  -5   46.33    7.52 
   2  -6  -5   43.66    6.76 
  -2   6   5   46.36    7.63 
   2  -6  -4   35.67    4.28 
   2  -6  -3   10.21    2.07 
   2  -6  -3    9.40    1.97 
   2  -6  -2  127.76   19.34 
   2  -6  -2  109.85   16.74 
  -2   6   2  107.17   16.24 
  -2   6   2  118.60   18.08 
   2  -6  -1   49.26    7.89 
   2  -6  -1   55.05    8.62 
  -2   6   1   57.75    8.97 
  -2   6   1   60.51    9.50 
   2  -6   0    1.20    1.16 
   2  -6   0    1.71    1.54 
   2  -6   0    0.83    2.29 
  -2   6   0    1.73    1.66 
   2  -6   1  395.41   44.45 
   2  -6   1  370.14   41.95 
  -2   6  -1  410.80   45.69 
   2  -6   2  261.10   40.58 
   2  -6   2  293.77   45.61 
  -2   6  -2  299.88   46.55 
   2  -6   3  125.33   13.85 
   2  -6   3  132.80   14.60 
  -2   6  -3  149.08   16.06 
   2  -6   4    2.78    1.84 
   2  -6   4    1.14    1.49 
   2  -6   4    0.58    2.48 
   2  -6   5   -3.20    1.48 
   2  -6   5    2.31    2.71 
   2  -6   6  126.45   20.72 
   2  -6   7    7.70    4.13 
   2  -5 -10    3.66    2.51 
   2  -5 -10   -0.59    1.90 
  -2   5  10    1.14    2.07 
   2  -5  -9   -1.38    1.58 
   2  -5  -9   -1.53    1.79 
  -2   5   9   -2.00    1.98 
   2  -5  -8   43.11   10.92 
   2  -5  -8   40.46   10.33 
  -2   5   8   45.06   11.51 
   2  -5  -7   13.19    2.43 
   2  -5  -7    5.51    2.02 
  -2   5   7    3.12    2.00 
   2  -5  -6  129.63   20.18 
   2  -5  -6  137.70   21.52 
  -2   5   6  131.52   20.60 
   2  -5  -5   30.34    3.67 
   2  -5  -5   33.01    4.15 
  -2   5   5   35.88    4.41 
   2  -5  -4   36.99    5.88 
  -2   5   4   31.03    5.13 
  -2   5   4   25.54    4.60 
   2  -5  -3  322.37   33.44 
   2  -5  -3  328.49   33.99 
  -2   5   3  310.69   32.17 
   2  -5  -2   48.35    6.46 
   2  -5  -2   44.35    5.99 
  -2   5   2   45.32    6.32 
   2  -5  -1  208.25   26.10 
   2  -5  -1  211.93   26.67 
  -2   5   1  218.20   27.09 
  -2   5   1  224.22   28.05 
   2  -5   0  131.74   13.84 
   2  -5   0  153.22   16.29 
   2  -5   0  150.70   16.10 
  -2   5   0  156.89   16.41 
   2  -5   1    3.11    1.17 
   2  -5   1    0.50    1.53 
   2  -5   1    3.10    2.28 
  -2   5  -1    2.10    1.80 
   2  -5   2  217.30   32.47 
   2  -5   2  215.19   32.64 
   2  -5   2  229.87   34.63 
  -2   5  -2  238.85   35.82 
   2  -5   3  262.99   29.74 
   2  -5   3  268.84   30.23 
  -2   5  -3  284.86   31.77 
   2  -5   4   15.40    2.97 
   2  -5   4    7.32    1.83 
   2  -5   4   17.68    3.54 
   2  -5   5   47.93    6.36 
   2  -5   5   76.34    9.61 
   2  -5   5   78.99   10.28 
   2  -5   6  277.50   35.18 
   2  -5   7   49.23    8.55 
   2  -4 -10   62.87   10.44 
   2  -4 -10   58.11    9.73 
  -2   4  10   59.55   10.00 
   2  -4  -9   43.73    5.94 
   2  -4  -9   34.13    4.90 
  -2   4   9   50.67    6.87 
   2  -4  -8    9.05    2.80 
   2  -4  -8    6.00    2.40 
  -2   4   8    4.03    2.17 
   2  -4  -7   20.02    3.33 
   2  -4  -7   23.53    4.00 
  -2   4   7   21.02    3.70 
   2  -4  -6  194.10   21.68 
   2  -4  -6  192.43   21.73 
  -2   4   6  192.36   21.58 
   2  -4  -5    8.65    1.60 
   2  -4  -5   14.22    2.28 
  -2   4   5   11.24    2.15 
   2  -4  -4   81.69   10.32 
  -2   4   4   92.79   11.78 
  -2   4   4   86.58   11.09 
   2  -4  -3  553.01   76.09 
   2  -4  -3  552.77   76.70 
  -2   4   3  575.93   79.46 
  -2   4   3  507.56   70.24 
   2  -4  -2  257.05   35.87 
   2  -4  -2  250.76   34.81 
  -2   4   2  225.14   31.36 
   2  -4  -1  406.66   57.08 
   2  -4  -1  377.30   52.33 
  -2   4   1  371.04   51.36 
   2  -4   0  866.78  122.11 
   2  -4   0  824.93  113.48 
   2  -4   0  842.58  116.79 
  -2   4   0  854.57  117.76 
   2  -4   1    9.35    1.96 
   2  -4   1    7.48    1.66 
   2  -4   1    2.90    2.06 
   2  -4   1    7.91    1.67 
  -2   4  -1    7.37    2.05 
   2  -4   2    4.39    2.05 
   2  -4   2    2.16    1.25 
   2  -4   2    0.62    1.11 
   2  -4   2   -0.58    1.25 
   2  -4   2    0.83    1.01 
  -2   4  -2   -2.32    1.65 
   2  -4   3   19.37    3.09 
   2  -4   3   16.02    2.11 
   2  -4   3   20.38    2.70 
   2  -4   3   12.73    2.04 
   2  -4   3   18.25    2.34 
  -2   4  -3   23.86    3.19 
   2  -4   4  206.71   23.25 
   2  -4   4  192.02   21.53 
   2  -4   4  220.28   24.62 
   2  -4   4  190.85   21.68 
   2  -4   5    6.08    2.07 
   2  -4   5   15.32    2.76 
   2  -4   6   35.56    4.96 
   2  -4   6   41.32    5.48 
  -2   4  -6   33.30    4.62 
  -2   4  -7   48.12    6.52 
  -2   4  -8    9.16    4.16 
  -2   4  -9   10.75    4.62 
   2  -3 -11   11.08    4.69 
   2  -3 -11   11.10    4.75 
  -2   3  11   12.58    5.34 
   2  -3 -10   20.64    3.80 
   2  -3 -10   18.85    3.66 
  -2   3  10   18.96    3.76 
   2  -3  -9    8.20    2.71 
   2  -3  -9   10.65    3.37 
  -2   3   9   12.42    3.78 
   2  -3  -8   12.91    3.61 
   2  -3  -8    8.78    2.93 
  -2   3   8   16.87    4.74 
   2  -3  -7   33.29    5.10 
   2  -3  -7   29.57    4.72 
  -2   3   7   39.92    6.11 
   2  -3  -6   -0.70    1.48 
  -2   3   6   -1.15    1.54 
   2  -3  -5   20.15    2.97 
   2  -3  -5   15.81    2.62 
  -2   3   5   19.93    3.13 
   2  -3  -4   15.67    2.58 
   2  -3  -4   22.62    3.65 
  -2   3   4   16.76    3.08 
  -2   3   4   13.62    2.57 
   2  -3  -3   69.82    8.69 
  -2   3   3   75.07    9.42 
  -2   3   3   52.97    6.88 
   2  -3  -2   36.14    4.83 
   2  -3  -2   33.81    4.53 
   2  -3  -2   32.67    4.31 
  -2   3   2   25.42    3.45 
  -2   3   2   37.18    4.93 
  -2   3   2   25.89    3.83 
   2  -3  -1   48.01    6.51 
   2  -3  -1   48.74    6.55 
   2  -3  -1   44.04    6.28 
   2  -3  -1   40.72    5.62 
  -2   3   1   38.07    5.53 
   2  -3   0  344.12   44.04 
   2  -3   0  301.39   38.60 
   2  -3   0  347.10   45.43 
   2  -3   0  286.53   37.19 
  -2   3   0  327.75   42.14 
   2  -3   1  579.37   70.57 
   2  -3   1  531.09   64.25 
   2  -3   1  481.61   58.07 
   2  -3   1  536.92   68.56 
   2  -3   1  483.49   58.52 
  -2   3  -1  609.28   73.76 
   2  -3   2  423.76   51.69 
   2  -3   2  428.54   51.85 
   2  -3   2  362.23   43.80 
   2  -3   2  440.29   56.36 
   2  -3   2  429.56   51.89 
  -2   3  -2  490.12   59.51 
   2  -3   3  162.33   22.92 
   2  -3   3  164.57   22.82 
   2  -3   3  158.37   21.99 
   2  -3   3  161.74   22.81 
   2  -3   3  159.82   22.21 
  -2   3  -3  156.82   21.86 
   2  -3   4    4.24    1.22 
   2  -3   4    5.87    1.85 
   2  -3   4    0.76    1.19 
   2  -3   4    4.40    1.34 
   2  -3   4    3.42    1.15 
  -2   3  -4    3.35    1.50 
   2  -3   5 1770.85  262.80 
   2  -3   5 1908.24  285.24 
   2  -3   5 1885.83  280.46 
   2  -3   5 2418.93  250.79 
  -2   3  -5 2060.40  307.81 
   2  -3   6   -3.01    1.73 
   2  -3   6    2.34    1.43 
  -2   3  -6   -2.92    1.36 
   2  -3   7  585.53   70.92 
  -2   3  -7  697.04  112.72 
  -2   3  -8    9.89    3.17 
  -2   3  -9   22.89    4.29 
   2  -2 -10    2.37    1.81 
   2  -2 -10    3.52    2.28 
  -2   2  10    6.59    3.26 
   2  -2  -9   16.67    4.61 
   2  -2  -9   23.03    6.31 
  -2   2   9   22.56    6.21 
   2  -2  -8   41.00    5.73 
   2  -2  -8   36.67    5.35 
  -2   2   8   42.54    6.05 
   2  -2  -7    3.88    1.43 
   2  -2  -7    5.31    1.84 
  -2   2   7    7.65    2.02 
   2  -2  -6  233.35   34.81 
   2  -2  -6  204.67   30.75 
  -2   2   6  205.88   30.84 
   2  -2  -5   33.80    4.52 
   2  -2  -5   37.90    5.11 
  -2   2   5   37.67    5.11 
   2  -2  -4 8070.24 1115.08 
   2  -2  -4 8654.25 1060.05 
   2  -2  -4 9094.70 1113.61 
  -2   2   4 7641.73 1051.70 
  -2   2   4 9143.34 1120.71 
  -2   2   4 7058.70  970.90 
   2  -2  -3  156.26   20.17 
   2  -2  -3  179.31   23.05 
  -2   2   3  151.03   19.57 
  -2   2   3  150.40   19.54 
  -2   2   3  162.51   20.99 
   2  -2  -2 1274.67  164.11 
   2  -2  -2 1064.67  135.60 
  -2   2   2 1016.39  129.92 
  -2   2   2  863.41  111.38 
  -2   2   2  930.85  119.06 
   2  -2  -1  227.87   32.29 
   2  -2  -1  242.76   33.56 
   2  -2  -1  206.81   28.62 
  -2   2   1  209.48   29.06 
  -2   2   1  199.47   27.83 
   2  -2   0   -0.24    1.10 
   2  -2   0    3.45    1.30 
   2  -2   0    1.91    1.29 
  -2   2   0    0.38    0.97 
  -2   2   0    0.92    1.61 
   2  -2   1   85.24   11.98 
   2  -2   1  102.05   14.31 
   2  -2   1  114.49   16.42 
   2  -2   1   79.75   11.21 
   2  -2   1   84.27   12.07 
   2  -2   2   89.76   11.96 
   2  -2   2   95.64   12.46 
   2  -2   2  100.65   13.09 
   2  -2   2  118.39   15.94 
   2  -2   2   96.37   12.55 
  -2   2  -2  112.59   14.72 
   2  -2   3  612.54   73.85 
   2  -2   3  616.81   75.24 
   2  -2   3  486.05   58.95 
   2  -2   3  681.91   85.32 
   2  -2   3  555.61   67.17 
  -2   2  -3  563.53   68.54 
   2  -2   4    8.39    1.73 
   2  -2   4    6.53    2.05 
   2  -2   4   14.90    2.53 
   2  -2   4   14.98    2.67 
   2  -2   4   12.01    2.08 
  -2   2  -4   15.88    2.78 
   2  -2   5  143.84   14.94 
   2  -2   5  160.75   17.10 
   2  -2   5  145.95   15.33 
   2  -2   5  186.27   19.61 
   2  -2   5  144.91   15.05 
  -2   2  -5  156.94   16.43 
   2  -2   6  990.70  146.99 
   2  -2   6 1018.86  152.07 
   2  -2   6 1092.60  162.88 
  -2   2  -6  906.01  135.11 
   2  -2   7   44.20    6.48 
  -2   2  -7   44.19    6.32 
   2  -2   8    0.57    2.14 
  -2   2  -8   -1.31    1.63 
  -2   2  -9   53.81    7.68 
  -2   2 -10   30.61    3.62 
   2  -1 -10    5.44    2.91 
   2  -1 -10    0.50    1.61 
   2  -1  -9   23.26    6.28 
   2  -1  -9   33.56    4.76 
  -2   1   9   29.36    7.84 
   2  -1  -8   -0.18    1.36 
   2  -1  -8   -0.03    1.47 
  -2   1   8    3.26    1.71 
   2  -1  -7    5.99    1.51 
   2  -1  -7    6.88    1.73 
  -2   1   7    5.04    1.53 
   2  -1  -6   37.39    5.87 
   2  -1  -6   30.22    4.96 
  -2   1   6   32.20    5.20 
   2  -1  -5    8.18    1.84 
   2  -1  -5    8.15    1.91 
   2  -1  -5    8.84    1.69 
  -2   1   5    9.07    2.02 
   2  -1  -4  209.77   25.77 
   2  -1  -4  206.94   25.23 
   2  -1  -4  247.13   29.94 
  -2   1   4  164.46   20.28 
  -2   1   4  207.89   25.29 
  -2   1   4  152.88   18.71 
   2  -1  -3  142.12   18.35 
   2  -1  -3  169.48   21.83 
  -2   1   3  153.13   19.80 
  -2   1   3  133.45   17.40 
  -2   1   3  122.20   15.82 
   2  -1  -2  100.18   14.13 
   2  -1  -2  100.96   14.14 
   2  -1  -2  121.99   17.00 
  -2   1   2   91.45   13.03 
  -2   1   2  103.70   14.59 
  -2   1   2   92.80   13.01 
   2  -1  -1    0.10    1.23 
   2  -1  -1    0.05    1.05 
  -2   1   1   -0.28    1.32 
  -2   1   1    0.13    1.18 
  -2   1   1    0.80    1.12 
   2  -1   0  358.02   51.50 
   2  -1   0  344.59   47.48 
   2  -1   0  349.67   48.21 
  -2   1   0  384.78   53.15 
  -2   1   0  387.43   53.42 
   2  -1   1   17.48    2.96 
   2  -1   1   17.34    3.02 
   2  -1   1   13.60    2.65 
   2  -1   1   13.87    2.35 
  -2   1  -1   15.65    2.67 
   2  -1   2  368.58   50.80 
   2  -1   2  450.21   63.72 
   2  -1   2  371.61   51.15 
  -2   1  -2  353.90   48.86 
  -2   1  -2  332.34   45.76 
   2  -1   3  368.71   47.24 
   2  -1   3  347.32   45.17 
   2  -1   3  328.40   41.98 
   2  -1   3  454.40   59.59 
   2  -1   3  363.37   46.46 
  -2   1  -3  362.91   46.64 
   2  -1   4    2.93    1.30 
   2  -1   4    2.12    1.69 
   2  -1   4    1.96    1.09 
   2  -1   4    2.85    1.30 
   2  -1   4    0.50    0.88 
  -2   1  -4    2.74    1.12 
   2  -1   5   35.81    5.32 
   2  -1   5   38.16    5.89 
   2  -1   5   30.27    4.64 
   2  -1   5   41.46    6.08 
   2  -1   5   28.93    4.29 
  -2   1  -5   33.59    5.01 
   2  -1   6   41.04    4.66 
   2  -1   6   37.26    4.72 
   2  -1   6   34.95    4.17 
   2  -1   6   43.94    4.92 
   2  -1   6   30.15    3.52 
  -2   1  -6   34.25    4.05 
   2  -1   7   51.61    6.10 
  -2   1  -7   67.31    7.50 
   2  -1   8   20.15    3.63 
  -2   1  -8   16.23    2.76 
   2  -1   9   13.52    3.27 
  -2   1  -9   11.94    2.63 
  -2   1 -10   91.73   15.07 
  -2   1 -11   56.91   13.02 
   2   0 -10   -0.44    1.90 
   2   0 -10    5.80    3.36 
   2   0  -9    2.38    1.92 
   2   0  -9    7.77    2.63 
   2   0  -8   55.15    7.05 
   2   0  -8   58.25    7.56 
  -2   0   8   59.84    7.69 
   2   0  -7   93.34   14.69 
   2   0  -7   63.88   10.18 
   2   0  -7   87.07   13.64 
  -2   0   7   99.66   15.59 
   2   0  -6   25.17    4.29 
   2   0  -6   16.86    3.12 
   2   0  -6   23.59    3.92 
  -2   0   6   29.84    4.85 
   2   0  -5  614.65   76.04 
   2   0  -5  538.95   66.46 
   2   0  -5  672.61   82.48 
  -2   0   5  472.01   58.46 
  -2   0   5  546.63   67.20 
   2   0  -4  490.93   59.61 
   2   0  -4  354.02   42.84 
   2   0  -4  435.15   52.49 
  -2   0   4  344.99   42.19 
  -2   0   4  385.83   46.71 
  -2   0   4  325.49   39.53 
   2   0  -3   12.77    2.22 
   2   0  -3   14.48    2.36 
  -2   0   3    7.29    1.65 
  -2   0   3   10.74    2.06 
  -2   0   3    9.47    1.74 
   2   0  -2 2061.39  282.89 
   2   0  -2 2168.41  297.85 
  -2   0   2 1962.13  269.98 
  -2   0   2 1651.16  230.62 
  -2   0   2 1658.27  227.90 
   2   0  -1   79.09    6.43 
   2   0  -1   85.14    6.83 
  -2   0   1   79.26    6.55 
  -2   0   1   68.14    5.99 
  -2   0   1   72.11    5.85 
   2   0   0  826.00   61.37 
   2   0   0  997.39   81.13 
  -2   0   0  914.79   68.60 
  -2   0   0  831.11   61.74 
   2   0   1 5111.18  420.11 
   2   0   1 4532.14  336.18 
  -2   0  -1 4673.31  346.07 
  -2   0  -1 4250.36  346.59 
   2   0   2 3396.41  251.05 
   2   0   2 3184.88  252.24 
   2   0   2 3409.70  283.06 
   2   0   2 3125.53  231.75 
  -2   0  -2 3055.65  225.79 
  -2   0  -2 2992.66  253.37 
   2   0   3   37.67    5.69 
   2   0   3   35.21    5.30 
   2   0   3   41.62    6.07 
   2   0   3   34.21    4.96 
  -2   0  -3   36.03    5.28 
  -2   0  -3   36.66    5.39 
   2   0   4 1179.87  150.25 
   2   0   4 1293.73  166.16 
   2   0   4 1001.83  127.57 
   2   0   4 1457.46  185.97 
   2   0   4 1239.93  157.95 
  -2   0  -4 1301.56  165.79 
   2   0   5  376.38   45.44 
   2   0   5  362.11   44.38 
   2   0   5  453.98   54.80 
   2   0   5  424.71   51.20 
   2   0   5  363.00   43.96 
  -2   0  -5  423.52   51.26 
   2   0   6   -3.50    1.66 
   2   0   6    1.19    1.07 
  -2   0  -6    1.94    1.32 
  -2   0  -6    3.63    1.46 
   2   0   7   35.62    6.00 
  -2   0  -7   21.40    3.73 
   2   0   8   12.20    2.94 
  -2   0  -8    7.34    1.89 
   2   0   9   49.61    6.68 
  -2   0  -9   50.47    6.55 
   2   0  10   61.50    8.42 
  -2   0 -10   65.38    8.72 
  -2   0 -11   12.50    6.55 
   2   1 -10   15.53    4.15 
   2   1 -10   14.65    6.00 
   2   1  -9   43.17    6.39 
   2   1  -9   39.80    5.82 
   2   1  -8   95.98   24.04 
   2   1  -8   94.74   23.65 
   2   1  -7   18.50    3.37 
   2   1  -7   13.57    2.62 
   2   1  -7   16.11    2.89 
  -2  -1   7   14.61    2.66 
   2   1  -6   45.90    7.31 
   2   1  -6   38.69    6.20 
   2   1  -6   39.98    6.31 
  -2  -1   6   43.79    6.85 
   2   1  -5  294.50   36.56 
   2   1  -5  212.00   26.32 
   2   1  -5  272.65   33.71 
  -2  -1   5  252.65   31.25 
   2   1  -4  284.26   39.54 
   2   1  -4  219.85   30.49 
   2   1  -4  355.35   48.97 
  -2  -1   4  286.47   39.79 
  -2  -1   4  293.41   40.57 
  -2  -1   4  224.38   31.14 
   2   1  -3  140.09   18.21 
   2   1  -3  140.45   18.15 
   2   1  -3  166.26   21.50 
  -2  -1   3  119.36   15.64 
  -2  -1   3  145.92   18.94 
  -2  -1   3  132.68   17.19 
   2   1  -2  384.65   53.00 
  -2  -1   2  363.63   50.30 
  -2  -1   2  341.78   47.68 
  -2  -1   2  341.74   47.15 
   2   1  -1  217.11   17.81 
   2   1  -1  172.82   13.25 
   2   1  -1  186.29   14.39 
  -2  -1   1  169.46   13.64 
  -2  -1   1  172.30   13.50 
  -2  -1   1  150.95   11.71 
   2   1   0   64.86    5.43 
  -2  -1   0   70.22    5.92 
  -2  -1   0   64.91    5.44 
   2   1   1  354.57   27.94 
  -2  -1  -1  250.88   20.51 
  -2  -1  -1  278.34   21.33 
   2   1   2  134.14   10.57 
   2   1   2  157.33   12.66 
   2   1   2  152.20   12.07 
   2   1   2  145.00   11.50 
  -2  -1  -2  133.09   10.34 
  -2  -1  -2  156.40   12.65 
   2   1   3 1304.93  179.58 
   2   1   3 1161.54  159.64 
   2   1   3 1136.76  156.92 
  -2  -1  -3 1224.70  168.59 
  -2  -1  -3 1208.84  171.80 
   2   1   4    9.79    2.19 
   2   1   4    9.75    1.81 
   2   1   4   12.46    2.23 
  -2  -1  -4   16.00    2.90 
  -2  -1  -4   16.61    2.75 
  -2  -1  -4   13.16    2.28 
   2   1   5  389.60   49.88 
   2   1   5  268.07   34.39 
   2   1   5  256.83   32.99 
   2   1   5  361.12   46.28 
  -2  -1  -5  469.39   60.01 
  -2  -1  -5  382.45   49.14 
   2   1   6   36.47    5.66 
   2   1   6   36.02    5.23 
  -2  -1  -6   40.18    5.94 
  -2  -1  -6   44.22    6.57 
   2   1   7   14.83    2.86 
  -2  -1  -7   12.46    2.16 
   2   1   8  628.36   69.36 
  -2  -1  -8  494.62   54.89 
   2   1   9  202.32   22.02 
  -2  -1  -9  207.71   22.19 
   2   1  10    6.50    2.73 
  -2  -1 -10    9.08    2.30 
   2   1  11   56.86    9.73 
  -2  -1 -11   43.10    7.39 
  -2  -1 -12   -3.11    1.99 
   2   2  -9   62.25   10.40 
   2   2  -9   61.30   10.12 
   2   2  -8    2.90    2.24 
   2   2  -8    0.55    1.69 
   2   2  -7   -3.92    1.59 
   2   2  -7   -4.50    1.43 
   2   2  -6  223.10   25.25 
   2   2  -6  169.26   19.05 
   2   2  -6  258.36   28.77 
  -2  -2   6  202.79   22.59 
   2   2  -5    6.42    2.05 
   2   2  -5    5.16    1.66 
   2   2  -5    2.87    1.47 
  -2  -2   5    5.39    1.37 
   2   2  -4  259.51   36.02 
   2   2  -4  170.54   23.78 
   2   2  -4  283.28   39.14 
  -2  -2   4  226.48   31.49 
  -2  -2   4  216.73   30.00 
   2   2  -3  273.77   33.40 
   2   2  -3  246.97   29.98 
   2   2  -3  324.58   39.40 
  -2  -2   3  264.00   32.28 
  -2  -2   3  272.01   33.01 
  -2  -2   3  248.99   30.30 
   2   2  -2  152.72   19.72 
   2   2  -2  167.87   21.68 
  -2  -2   2  139.59   18.09 
  -2  -2   2  140.79   18.41 
  -2  -2   2  123.52   16.04 
   2   2  -1   45.44    6.69 
   2   2  -1   36.58    5.40 
   2   2  -1   31.51    4.74 
  -2  -2   1   34.29    5.23 
  -2  -2   1   31.75    4.80 
  -2  -2   1   29.57    4.47 
   2   2   0 5114.99  377.55 
  -2  -2   0 5819.74  442.92 
  -2  -2   0 4822.17  358.04 
  -2  -2   0 5512.91  430.15 
   2   2   1   89.90    7.32 
   2   2   1  118.93    9.37 
   2   2   1   95.01    7.86 
  -2  -2  -1  100.07    8.31 
   2   2   2  305.56   23.29 
   2   2   2  275.58   21.17 
  -2  -2  -2  347.29   26.75 
  -2  -2  -2  285.08   22.02 
  -2  -2  -2  297.38   23.26 
   2   2   3  802.35  113.90 
   2   2   3  927.03  127.77 
   2   2   3  852.85  117.35 
  -2  -2  -3  778.18  107.76 
  -2  -2  -3  893.28  124.33 
  -2  -2  -3  880.49  121.73 
   2   2   4  128.73   18.09 
   2   2   4  119.23   16.73 
   2   2   4  114.10   16.07 
  -2  -2  -4  123.72   17.32 
  -2  -2  -4  127.78   17.84 
   2   2   5   17.00    3.10 
   2   2   5   13.92    2.20 
   2   2   5   13.39    2.94 
  -2  -2  -5   11.49    2.23 
  -2  -2  -5   12.32    2.12 
  -2  -2  -5   12.29    2.50 
   2   2   6 1452.45  201.19 
   2   2   6 1282.87  176.68 
  -2  -2  -6 1639.58  225.46 
  -2  -2  -6 1328.92  182.94 
   2   2   7    0.08    2.06 
  -2  -2  -7    2.03    1.32 
   2   2   8   21.77    4.12 
  -2  -2  -8   28.25    4.65 
   2   2   9  348.23   54.37 
  -2  -2  -9  374.27   57.87 
   2   2  10    6.03    2.69 
  -2  -2 -10   -0.55    1.70 
   2   2  11  235.84   31.91 
  -2  -2 -11  183.83   24.95 
   2   2  12   13.61    6.06 
  -2  -2 -12    3.92    2.52 
   2   3  -9   13.95    5.85 
   2   3  -9   16.75    4.37 
   2   3  -8   27.61    4.48 
   2   3  -8   29.20    4.57 
   2   3  -7   24.83    4.64 
   2   3  -7   28.48    5.08 
   2   3  -6   -2.64    2.24 
   2   3  -6   -0.45    1.72 
   2   3  -6    0.78    1.51 
   2   3  -5  650.46   97.16 
   2   3  -5  474.71   70.50 
   2   3  -5  601.91   89.43 
  -2  -3   5  502.03   74.53 
   2   3  -4   16.57    2.78 
   2   3  -4   23.10    3.64 
   2   3  -4   21.88    3.31 
   2   3  -3  267.89   37.00 
   2   3  -3  305.59   42.18 
   2   3  -3  357.30   49.36 
  -2  -3   3  284.84   39.47 
   2   3  -2  145.83   18.83 
   2   3  -2  125.77   16.67 
   2   3  -2  144.70   18.84 
  -2  -3   2  127.82   16.67 
  -2  -3   2  115.95   15.07 
   2   3  -1   86.74   12.19 
   2   3  -1  113.98   16.11 
   2   3  -1   87.68   12.73 
   2   3  -1   89.98   12.67 
  -2  -3   1   86.69   12.31 
  -2  -3   1   78.95   11.19 
   2   3   0 1362.27  186.85 
   2   3   0 1472.96  201.98 
  -2  -3   0 1233.06  169.97 
  -2  -3   0 1245.68  171.34 
  -2  -3   0 1321.29  191.42 
   2   3   1   47.70    7.00 
   2   3   1   40.94    6.04 
   2   3   1   28.47    4.60 
  -2  -3  -1   27.63    4.43 
  -2  -3  -1   35.79    5.65 
   2   3   2  560.63   43.72 
   2   3   2  670.33   50.61 
  -2  -3  -2  619.28   46.81 
  -2  -3  -2  622.37   48.76 
  -2  -3  -2  550.63   41.63 
   2   3   3  116.80   16.99 
   2   3   3   88.79   12.62 
  -2  -3  -3  117.49   16.54 
  -2  -3  -3  127.55   18.02 
  -2  -3  -3   91.17   12.87 
   2   3   4  512.97   72.52 
   2   3   4  541.20   76.01 
   2   3   4  532.93   73.40 
  -2  -3  -4  484.72   67.36 
  -2  -3  -4  600.84   83.99 
  -2  -3  -4  509.08   70.10 
   2   3   5   49.42    6.83 
   2   3   5   51.09    7.00 
   2   3   5   48.58    6.57 
  -2  -3  -5   62.78    8.39 
  -2  -3  -5   39.60    5.42 
   2   3   6  807.91  111.33 
   2   3   6  670.41   92.04 
   2   3   6  697.99   96.36 
  -2  -3  -6  918.28  111.03 
  -2  -3  -6  757.26  104.14 
   2   3   7  273.57   34.21 
  -2  -3  -7  318.34   39.29 
   2   3   8   85.70   13.30 
  -2  -3  -8   75.06   11.47 
   2   3   9    7.36    2.52 
  -2  -3  -9   -0.64    1.50 
   2   3  10   13.77    4.42 
  -2  -3 -10   18.15    5.00 
   2   3  11   59.01    8.08 
  -2  -3 -11   63.02    8.39 
   2   3  12   39.33    4.93 
  -2  -3 -12   24.65    3.40 
   2   4  -8   54.32    5.78 
   2   4  -8   48.73    5.24 
   2   4  -7    0.28    2.05 
   2   4  -7   12.48    3.73 
   2   4  -6   52.46    6.92 
   2   4  -6   39.01    5.25 
   2   4  -5    1.81    1.94 
   2   4  -5   -3.44    1.49 
   2   4  -4  276.54   41.46 
   2   4  -4  306.31   45.75 
   2   4  -3  379.28   46.95 
   2   4  -3  354.90   43.77 
   2   4  -2  680.83   93.51 
   2   4  -2  620.71   85.31 
   2   4  -2  545.14   75.36 
   2   4  -2  664.57   92.01 
   2   4  -1  948.13  120.63 
   2   4  -1  817.62  104.15 
  -2  -4   1  880.03  113.00 
  -2  -4   1  932.72  119.12 
   2   4   0   72.08    9.86 
   2   4   0  105.59   13.90 
  -2  -4   0   90.86   11.91 
  -2  -4   0   72.42    9.63 
   2   4   1  481.03   66.17 
   2   4   1  372.96   51.40 
   2   4   1  565.11   77.78 
  -2  -4  -1  479.46   65.98 
  -2  -4  -1  446.85   62.15 
   2   4   2  923.13  126.71 
   2   4   2  879.31  121.00 
   2   4   2  673.16   92.52 
  -2  -4  -2  766.31  105.28 
  -2  -4  -2  748.03  106.11 
  -2  -4  -2  568.49   78.14 
   2   4   3 3079.91  405.91 
   2   4   3 3029.32  395.50 
   2   4   3 2692.41  371.20 
  -2  -4  -3 2953.55  378.92 
  -2  -4  -3 3609.10  459.19 
  -2  -4  -3 2319.89  318.78 
   2   4   4   34.81    5.32 
   2   4   4   39.52    5.60 
  -2  -4  -4   34.23    4.88 
  -2  -4  -4   48.17    6.54 
  -2  -4  -4   32.36    4.55 
   2   4   5 1837.65  222.02 
   2   4   5 1735.68  212.02 
   2   4   5 1826.89  219.87 
  -2  -4  -5 1538.45  186.15 
  -2  -4  -5 1937.92  235.88 
  -2  -4  -5 1560.08  187.64 
   2   4   6  288.46   40.14 
   2   4   6  276.93   38.24 
   2   4   6  244.87   34.02 
  -2  -4  -6  311.90   43.16 
  -2  -4  -6  235.07   32.52 
   2   4   7    0.47    2.26 
  -2  -4  -7    3.30    1.36 
  -2  -4  -7    2.44    1.57 
   2   4   8   23.04    4.30 
  -2  -4  -8   23.89    4.27 
  -2  -4  -8   17.96    3.52 
  -2  -4  -8   27.84    4.59 
   2   4   9   32.03    5.47 
  -2  -4  -9   46.81    7.59 
   2   4  10   97.35   12.46 
  -2  -4 -10   98.98   12.28 
   2   4  11  197.07   25.05 
  -2  -4 -11  151.04   19.23 
   2   4  12   16.78    3.26 
  -2  -4 -12   12.55    6.57 
   2   5  -8  258.46   57.92 
   2   5  -8  215.06   48.17 
   2   5  -7   38.22    6.75 
   2   5  -7   24.56    4.54 
   2   5  -6   -3.65    1.93 
   2   5  -6   -0.64    1.75 
   2   5  -5    5.28    2.25 
   2   5  -5    3.47    1.81 
   2   5  -4  204.68   23.21 
   2   5  -4  213.29   23.75 
   2   5  -3    3.99    1.94 
   2   5  -3    4.37    1.60 
   2   5  -2    7.18    1.96 
   2   5  -1   71.74   10.17 
   2   5  -1   80.16   11.40 
   2   5   0   15.96    2.70 
   2   5   0   17.64    2.91 
  -2  -5   0   22.68    3.32 
  -2  -5   0   17.26    2.82 
  -2  -5   0   17.34    2.75 
   2   5   1    3.30    1.69 
   2   5   1    0.60    1.67 
  -2  -5  -1    0.64    1.42 
   2   5   210230.71 1226.12 
   2   5   2 6556.44  785.92 
   2   5   210511.71 1259.81 
  -2  -5  -2 8844.88 1060.05 
  -2  -5  -2 6489.55  777.84 
   2   5   3   72.92    9.73 
   2   5   3   64.75    8.75 
   2   5   3   66.75    9.09 
  -2  -5  -3   77.18   10.21 
  -2  -5  -3   60.75    8.13 
   2   5   4 2182.12  270.22 
   2   5   4 2797.99  389.73 
   2   5   4 2286.28  275.20 
  -2  -5  -4 2136.37  262.94 
  -2  -5  -4 3246.57  444.71 
  -2  -5  -4 1840.17  222.80 
   2   5   5 1246.23  150.29 
   2   5   5 1161.79  142.50 
  -2  -5  -5 1236.37  151.13 
  -2  -5  -5  907.35  109.45 
   2   5   6   38.89    5.98 
   2   5   6   35.32    5.32 
  -2  -5  -6   30.10    4.55 
  -2  -5  -6   39.08    5.79 
   2   5   7   16.18    2.68 
   2   5   7   20.20    2.61 
  -2  -5  -7   24.81    3.12 
  -2  -5  -7   28.54    3.56 
   2   5   8  105.61   16.16 
  -2  -5  -8   88.05   13.35 
  -2  -5  -8   74.81   11.76 
  -2  -5  -8  131.50   19.76 
   2   5   9   23.39    4.33 
  -2  -5  -9   12.74    2.41 
  -2  -5  -9   13.51    2.49 
  -2  -5  -9   16.01    2.95 
   2   5  10  200.31   24.74 
  -2  -5 -10  209.10   25.39 
   2   5  11  105.77   13.81 
  -2  -5 -11   81.41   10.71 
   2   5  12    4.90    3.59 
  -2  -5 -12    2.11    2.22 
   2   6  -7   29.51    7.18 
   2   6  -7   22.69    5.57 
   2   6  -6    6.38    2.64 
   2   6  -6    4.34    2.22 
   2   6  -5  296.20   73.59 
   2   6  -5  214.10   53.23 
   2   6  -4  232.15   24.57 
  -2  -6   4  219.44   23.77 
   2   6  -3  167.20   18.84 
  -2  -6   3  163.40   18.62 
   2   6  -2    3.81    1.97 
   2   6  -1  514.82   52.46 
   2   6   0  147.38   18.47 
   2   6   0  133.41   17.11 
  -2  -6   0  136.57   17.18 
   2   6   1   21.18    3.82 
   2   6   1   25.12    4.11 
  -2  -6  -1   26.39    4.20 
   2   6   2 1228.93  168.56 
   2   6   2  710.86   97.67 
  -2  -6  -2  938.18  128.73 
   2   6   3   24.20    4.01 
   2   6   3   14.17    2.80 
  -2  -6  -3   21.57    3.44 
  -2  -6  -3   16.58    2.94 
   2   6   4  432.34   61.27 
   2   6   4  404.03   55.78 
  -2  -6  -4  362.58   50.28 
  -2  -6  -4  307.21   42.53 
   2   6   5  132.07   18.91 
   2   6   5  153.51   21.51 
  -2  -6  -5  116.72   16.39 
   2   6   6    1.35    1.48 
  -2  -6  -6    0.18    1.24 
   2   6   7   31.91    4.14 
   2   6   7   20.15    2.70 
  -2  -6  -7   21.98    2.84 
  -2  -6  -7   22.33    2.92 
   2   6   8   81.59    9.27 
  -2  -6  -8   80.13    8.70 
  -2  -6  -8   87.88   12.77 
   2   6   9  691.47   72.32 
  -2  -6  -9  585.84   61.05 
  -2  -6  -9  505.78   54.01 
  -2  -6  -9  663.71   69.06 
   2   6  10  323.59   39.34 
  -2  -6 -10  213.16   25.88 
  -2  -6 -10  317.79   38.37 
   2   6  11   29.88    8.29 
  -2  -6 -11   15.56    4.45 
   2   6  12   -5.41    2.79 
  -2  -6 -12    2.35    2.25 
   2   7  -6    0.83    2.34 
  -2  -7   6   11.40    6.22 
   2   7  -5  124.04   16.98 
  -2  -7   5  104.07   14.53 
   2   7  -4   28.47    5.31 
  -2  -7   4   36.88    9.59 
   2   7  -3   28.55    5.25 
  -2  -7   3   29.48    4.69 
   2   7  -2  374.89   58.04 
  -2  -7   2  369.64   58.59 
   2   7  -1  443.90   49.00 
  -2  -7   1  408.40   50.93 
   2   7   0 2231.66  234.40 
  -2  -7   0 1889.36  280.41 
  -2  -7   0 2389.97  281.33 
   2   7   1   38.14    4.68 
   2   7   1   26.79    3.77 
  -2  -7  -1   26.56    3.43 
  -2  -7  -1   29.40    3.99 
   2   7   2  177.70   22.16 
   2   7   2  125.13   15.80 
  -2  -7  -2  146.33   18.35 
   2   7   3  689.94   84.91 
   2   7   3  578.12   71.01 
  -2  -7  -3  754.94   92.47 
   2   7   4   56.70    7.70 
   2   7   4   57.20    7.64 
   2   7   5   46.85    5.68 
   2   7   5   41.93    5.10 
   2   7   6  138.26   20.90 
   2   7   6  123.08   18.66 
   2   7   7    5.69    1.63 
   2   7   8  441.32   68.43 
   2   7   8  393.10   60.74 
  -2  -7  -8  387.48   59.67 
   2   7   9    6.76    2.75 
  -2  -7  -9   -0.22    1.77 
   2   7  10 1631.67  417.95 
  -2  -7 -10 1071.91  266.12 
  -2  -7 -10 1480.74  378.90 
   2   7  11   26.96    4.82 
  -2  -7 -11   20.90    5.80 
   2   7  12   61.97    6.76 
  -2  -7 -12   45.42    4.93 
   2   8  -5    7.26    3.73 
  -2  -8   5   -4.11    2.67 
   2   8  -4   57.23    9.75 
  -2  -8   4   43.80    7.79 
   2   8  -3    3.97    2.61 
  -2  -8   3    5.53    2.76 
   2   8  -2   78.96   10.03 
  -2  -8   2   72.31    9.61 
   2   8  -1   55.81    6.17 
   2   8   0  351.25   54.37 
  -2  -8   0  366.89   60.69 
   2   8   1 2416.23  272.20 
   2   8   1 2433.89  270.10 
  -2  -8  -1 2262.63  286.83 
   2   8   2   65.55   10.22 
   2   8   2   59.07    9.35 
  -2  -8  -2   52.68    8.24 
  -2  -8  -2   54.63    8.75 
   2   8   3  684.59  102.48 
   2   8   3  624.66   92.79 
  -2  -8  -3  714.04  111.43 
   2   8   4  837.27  126.98 
   2   8   4  810.88  120.50 
  -2  -8  -4 1086.67  163.01 
   2   8   5  277.25   41.94 
   2   8   5  272.99   40.87 
   2   8   6    4.61    2.16 
   2   8   6    4.62    2.02 
   2   8   7   73.73   11.77 
   2   8   7   52.68    8.55 
   2   8   8   23.14    3.65 
  -2  -8  -9   48.54    6.91 
   2   8  10   64.40    8.79 
  -2  -8 -10   41.14    5.83 
   2   8  11   21.68    4.64 
   2   8  12    9.74    4.94 
  -2  -8 -12   12.28    5.18 
   2   9  -4  112.95   25.51 
  -2  -9   4   77.06   17.57 
   2   9  -3    0.32    2.47 
  -2  -9   3    2.93    3.26 
   2   9  -2   60.16    8.67 
  -2  -9   2   60.39    8.72 
   2   9  -1  591.50  146.69 
  -2  -9   1  421.61  106.23 
   2   9   0   12.26    3.59 
  -2  -9   0   11.09    4.06 
   2   9   1   91.40   10.05 
   2   9   1   93.65   10.50 
  -2  -9  -1  114.65   13.69 
   2   9   2  899.12   96.94 
   2   9   2  951.97   99.16 
  -2  -9  -2 1217.11  146.26 
   2   9   3   41.27    6.55 
   2   9   3   51.09    8.41 
  -2  -9  -3   41.13    7.06 
   2   9   4  183.10   28.89 
   2   9   4  188.30   29.34 
  -2  -9  -4  218.94   35.39 
   2   9   5   -1.37    2.07 
   2   9   5    2.17    1.87 
  -2  -9  -5    0.08    2.25 
   2   9   6  768.03   80.51 
   2   9   6  677.60   70.98 
  -2  -9  -6  743.96   80.37 
   2   9   7    1.38    2.32 
   2   9   7    2.27    1.91 
  -2  -9  -7    2.05    1.80 
   2   9   8  190.26   23.27 
   2   9   8  176.72   21.69 
   2   9  10   16.16    4.97 
  -2  -9 -10    9.38    3.27 
   2   9  11   17.11    3.40 
  -2  -9 -11    8.69    4.77 
   2  10  -2    6.91    4.25 
  -2 -10   2   -2.41    3.12 
   2  10  -1   81.75   13.48 
  -2 -10   1   74.46   12.78 
  -2 -10   0    5.86    3.18 
   2  10   1   93.34   12.04 
  -2 -10  -1  108.57   15.53 
   2  10   2   44.72   11.42 
   2  10   2   66.03   16.68 
  -2 -10  -2   47.41   13.07 
   2  10   3    8.68    2.91 
   2  10   3    7.56    3.06 
  -2 -10  -3   14.60    4.56 
   2  10   4   -5.31    2.18 
  -2 -10  -4   -0.59    2.48 
   2  10   5   71.49    9.31 
   2  10   5   75.32    9.62 
  -2 -10  -5   84.24   10.80 
   2  10   6  144.83   36.19 
   2  10   6  152.83   38.10 
  -2 -10  -6  159.66   39.74 
   2  10   7    4.91    2.54 
   2  10   7    3.67    2.15 
  -2 -10  -7    5.45    2.32 
   2  10   8   37.77    5.60 
   2  10   8   37.25    5.37 
  -2 -10  -8   31.20    8.39 
   2  10   9  104.45   14.35 
   2  10   9  125.57   17.17 
  -2 -10  -9  106.53   14.49 
  -2 -10 -10   11.42    6.16 
  -2 -10 -11    6.34    3.25 
   2  11  -1   17.18    4.60 
  -2 -11   1    5.63    4.02 
   2  11   0   89.93    8.90 
  -2 -11   0   71.45    7.88 
  -2 -11  -1  135.79   23.22 
   2  11   2   55.45    9.27 
   2  11   2   61.02   10.29 
  -2 -11  -2   75.45   12.84 
   2  11   3   47.14    6.84 
   2  11   3   49.40    7.29 
  -2 -11  -3   53.66    7.99 
   2  11   4  255.51   34.52 
   2  11   4  272.03   36.63 
  -2 -11  -4  281.45   38.05 
   2  11   5  186.33   25.30 
   2  11   5  196.19   26.61 
  -2 -11  -5  228.53   30.86 
   2  11   6   40.90    6.22 
   2  11   6   35.85    5.51 
  -2 -11  -6   43.46    6.50 
   2  11   7    8.70    4.48 
   2  11   7    6.42    3.49 
  -2 -11  -7   12.51    6.70 
   2  11   8  288.22   46.29 
   2  11   8  334.35   53.54 
  -2 -11  -8  346.00   55.36 
   2  11   9   28.30    3.90 
   2  11   9   34.02    4.23 
  -2 -11  -9   28.12    3.34 
   2  11  10   73.27   16.74 
  -2 -11 -10   51.29   11.95 
  -2 -11 -10   69.55   15.77 
   2  12   2   -1.92    1.95 
  -2 -12  -2   -1.79    2.66 
   2  12   3    2.28    2.08 
   2  12   3    5.09    2.89 
  -2 -12  -3    6.39    3.67 
   2  12   4    5.01    3.27 
   2  12   4   12.93    5.50 
  -2 -12  -4   14.75    3.21 
   2  12   5    9.80    5.41 
   2  12   5    5.20    3.58 
  -2 -12  -5    9.05    5.16 
   2  12   6   36.14    4.30 
   2  12   6   44.64    5.04 
  -2 -12  -6   39.77    4.76 
   2  12   7    2.10    2.40 
   2  12   7    8.34    4.06 
  -2 -12  -7    6.95    3.65 
   2  12   8   -0.99    2.53 
   2  12   8    0.54    2.22 
  -2 -12  -8   -0.50    2.27 
   3  -9  -4   10.24    4.67 
  -3   9   4   11.41    5.09 
   3  -9  -3   18.84    4.87 
  -3   9   3   21.60    5.48 
   3  -9  -2   63.40   14.49 
  -3   9   2   58.96   13.53 
  -3   9   1    2.51    2.40 
   3  -8  -7   16.58    4.51 
  -3   8   7   28.14    6.84 
   3  -8  -6    6.97    4.03 
   3  -8  -4    4.75    2.96 
  -3   8   4   -0.01    2.20 
   3  -8  -3   21.96    4.27 
  -3   8   3   25.01    4.71 
   3  -8  -2    5.47    3.09 
  -3   8   2   -0.44    2.17 
   3  -8  -1   10.91    5.01 
  -3   8   1   11.35    5.19 
   3  -8   0   91.15   14.92 
  -3   8   0   75.25   12.48 
   3  -8   1    2.19    2.37 
  -3   8  -1   10.88    5.94 
   3  -8   2   21.11    5.30 
  -3   8  -2   29.35    7.13 
   3  -7  -8    6.37    3.06 
   3  -7  -8    1.23    2.47 
  -3   7   8   -5.16    2.40 
   3  -7  -7    7.70    4.18 
   3  -7  -7    3.67    2.82 
  -3   7   7   10.79    5.89 
   3  -7  -6    4.46    2.36 
   3  -7  -6    0.54    2.18 
  -3   7   6    1.39    2.34 
   3  -7  -5   -1.90    1.32 
  -3   7   5    7.60    3.00 
   3  -7  -4   27.69    7.52 
   3  -7  -4   21.04    5.69 
   3  -7  -3   14.44    4.11 
   3  -7  -3   20.42    5.66 
  -3   7   3   16.73    4.85 
   3  -7  -2    4.26    2.10 
  -3   7   2    7.12    2.41 
   3  -7  -1  160.43   40.00 
  -3   7   1  177.30   44.12 
   3  -7   0  105.74   13.75 
  -3   7   0  121.01   15.53 
   3  -7   1  132.82   17.00 
  -3   7  -1  147.78   18.87 
   3  -7   2   -7.95    1.89 
  -3   7  -2   -4.92    2.00 
   3  -7   3   -1.39    2.17 
  -3   7  -3   -1.80    2.06 
   3  -7   4  110.61   24.98 
   3  -6  -8   27.76    3.29 
   3  -6  -8   36.20    4.30 
  -3   6   8   35.54    4.29 
   3  -6  -7    7.38    2.38 
   3  -6  -7    0.80    2.06 
  -3   6   7    9.03    3.29 
   3  -6  -6    8.12    2.60 
   3  -6  -6    0.64    2.04 
  -3   6   6    3.02    2.14 
   3  -6  -5   60.87   15.28 
  -3   6   5   89.91   22.52 
   3  -6  -4   15.84    4.31 
   3  -6  -4   18.91    5.21 
  -3   6   4   23.94    6.51 
   3  -6  -3   67.71    8.56 
   3  -6  -3   67.29    8.43 
   3  -6  -2   55.49    6.25 
   3  -6  -2   48.83    6.90 
  -3   6   2   51.20   13.23 
   3  -6  -1    5.34    1.85 
   3  -6  -1    8.12    2.12 
  -3   6   1    7.20    2.19 
   3  -6   0   75.39    9.58 
   3  -6   0   91.95   11.47 
  -3   6   0   88.84   11.18 
   3  -6   1  168.09   20.86 
   3  -6   1  188.76   23.06 
  -3   6  -1  176.00   21.56 
   3  -6   2    6.06    2.30 
  -3   6  -2    9.54    2.65 
   3  -6   3   26.93    7.33 
  -3   6  -3   24.55    6.72 
   3  -6   4  170.80   23.11 
   3  -6   4  195.72   26.52 
   3  -5  -9    9.21    3.98 
   3  -5  -9    2.33    2.30 
  -3   5   9    7.54    3.66 
   3  -5  -8   59.80    9.89 
   3  -5  -8   55.21    9.32 
  -3   5   8   63.30   10.55 
   3  -5  -7   -0.96    1.52 
   3  -5  -7    5.27    2.46 
  -3   5   7    4.89    2.43 
   3  -5  -6   33.58    8.53 
   3  -5  -6   44.88   11.45 
  -3   5   6   38.63    9.91 
   3  -5  -5  103.49   12.70 
   3  -5  -5  118.78   14.71 
  -3   5   5  127.22   15.70 
   3  -5  -4   65.18    7.17 
  -3   5   4   70.55    7.93 
   3  -5  -3   79.40   12.45 
   3  -5  -3   96.38   15.16 
  -3   5   3   93.94   14.80 
  -3   5   3   89.82   14.26 
   3  -5  -2  285.76   31.84 
   3  -5  -2  264.88   29.40 
  -3   5   2  293.21   32.80 
   3  -5  -1   -1.15    1.31 
  -3   5   1   -3.71    1.66 
   3  -5   0   12.04    2.18 
  -3   5   0   12.61    2.32 
   3  -5   1   17.59    3.35 
   3  -5   1   10.68    2.32 
  -3   5  -1   17.71    3.36 
   3  -5   2  110.09   12.07 
   3  -5   2  110.58   12.07 
  -3   5  -2  113.88   12.40 
   3  -5   3    1.95    2.23 
   3  -5   3    2.96    1.81 
  -3   5  -3    3.96    2.10 
   3  -5   4   47.78   12.19 
   3  -5   4   50.76   12.84 
   3  -5   4   48.35   12.40 
   3  -5   5   44.09    6.22 
   3  -5   5   73.78    9.62 
   3  -4  -9    9.24    4.86 
   3  -4  -9    4.08    2.90 
  -3   4   9   10.55    5.68 
   3  -4  -8   -3.54    1.33 
   3  -4  -8    2.42    2.11 
  -3   4   8    1.42    1.90 
   3  -4  -7    4.60    1.58 
   3  -4  -7    5.29    2.17 
  -3   4   7    3.80    2.02 
   3  -4  -6    7.37    2.36 
   3  -4  -6   10.44    3.51 
  -3   4   6    9.17    3.11 
   3  -4  -5   37.13    5.64 
   3  -4  -5   37.82    5.85 
  -3   4   5   40.67    6.28 
   3  -4  -4    3.83    1.27 
  -3   4   4    5.54    1.80 
  -3   4   4    4.93    1.82 
   3  -4  -3   27.65    3.29 
   3  -4  -3   22.26    3.04 
  -3   4   3   24.61    3.26 
  -3   4   3   20.68    3.25 
   3  -4  -2   72.23   10.94 
   3  -4  -2   79.51   12.13 
  -3   4   2   78.67   12.06 
  -3   4   2   82.62   12.76 
   3  -4  -1  120.11   18.16 
   3  -4  -1  107.21   16.11 
  -3   4   1  116.14   17.68 
   3  -4   0  179.36   26.88 
   3  -4   0  241.96   36.25 
   3  -4   0  217.04   32.46 
  -3   4   0  247.30   37.05 
   3  -4   1   51.66    8.14 
   3  -4   1   60.98    9.48 
  -3   4  -1   65.35   10.17 
   3  -4   2    7.00    1.88 
  -3   4  -2    4.59    2.04 
   3  -4   3 1301.51  200.71 
   3  -4   3 1512.13  234.02 
  -3   4  -3 1495.39  230.06 
   3  -4   4   11.40    2.46 
   3  -4   4   13.22    2.60 
   3  -4   4   16.33    3.27 
   3  -4   5  559.58   68.42 
   3  -4   5  682.10  110.22 
   3  -4   5  665.96  107.54 
   3  -4   6    8.69    2.95 
   3  -4   6    0.51    2.31 
   3  -3  -9    3.25    2.23 
   3  -3  -9   -0.15    1.85 
  -3   3   9    1.38    2.01 
   3  -3  -8   46.64    6.62 
   3  -3  -8   57.90    8.22 
  -3   3   8   57.55    8.13 
   3  -3  -7    7.73    1.98 
   3  -3  -7   12.31    2.93 
  -3   3   7   11.28    2.71 
   3  -3  -6 1517.04  158.01 
   3  -3  -6 1685.17  426.27 
  -3   3   6 1747.38  441.52 
   3  -3  -5   81.12    8.76 
   3  -3  -5   78.31    8.68 
  -3   3   5   89.21   10.29 
   3  -3  -4  271.37   40.41 
  -3   3   4  262.31   39.19 
  -3   3   4  204.03   30.67 
   3  -3  -3   83.84    8.84 
   3  -3  -3   89.80    9.54 
  -3   3   3   96.08   10.25 
  -3   3   3   82.71    8.94 
   3  -3  -2    1.16    0.98 
   3  -3  -2   -1.66    1.36 
  -3   3   2    2.38    1.58 
  -3   3   2   -1.04    1.95 
   3  -3  -1   10.49    1.70 
   3  -3  -1   12.70    2.27 
  -3   3   1   11.15    2.21 
  -3   3   1   12.04    2.63 
   3  -3   0   17.23    2.76 
   3  -3   0   14.32    2.27 
   3  -3   0   15.72    2.32 
   3  -3   1  180.79   22.42 
   3  -3   1  229.35   28.81 
   3  -3   1  197.56   24.57 
  -3   3  -1  225.13   28.04 
   3  -3   2   23.56    2.85 
   3  -3   2   31.56    3.82 
   3  -3   2   29.80    4.03 
  -3   3  -2   29.12    3.81 
   3  -3   3  146.77   22.02 
   3  -3   3  185.52   27.90 
   3  -3   3  151.72   22.88 
  -3   3  -3  166.51   25.04 
   3  -3   4 1039.31  115.27 
   3  -3   4 1043.67  116.11 
   3  -3   4  933.63  103.42 
   3  -3   5   69.18   11.10 
   3  -3   5   88.64   13.95 
   3  -3   5   78.13   12.51 
   3  -3   6    1.98    2.01 
   3  -3   6    1.47    1.45 
  -3   3  -6    1.62    1.64 
   3  -3   7   51.90    7.22 
  -3   3  -7   56.75    7.56 
  -3   3  -8   14.29    3.06 
  -3   3  -9   16.09    4.09 
   3  -2  -9    3.92    2.17 
   3  -2  -9   -0.42    1.83 
  -3   2   9   -1.61    1.85 
   3  -2  -8   10.03    3.01 
   3  -2  -8    5.20    2.39 
  -3   2   8    8.42    2.97 
   3  -2  -7    3.45    1.62 
   3  -2  -7    0.76    1.67 
  -3   2   7    2.84    1.81 
   3  -2  -6   97.52   15.26 
   3  -2  -6   96.38   10.65 
  -3   2   6   98.21   15.45 
   3  -2  -5   32.83    3.85 
   3  -2  -5   27.22    3.48 
  -3   2   5   28.33    3.56 
   3  -2  -4   59.73    9.13 
  -3   2   4   55.62    8.66 
  -3   2   4   41.34    6.48 
   3  -2  -3   -1.23    1.01 
  -3   2   3   -1.59    1.36 
  -3   2   3    1.56    1.32 
   3  -2  -2   99.00   12.41 
   3  -2  -2   91.10   11.55 
  -3   2   2  102.03   12.92 
  -3   2   2   70.59    9.11 
   3  -2  -1    8.92    1.71 
   3  -2  -1    4.46    1.50 
  -3   2   1    5.78    1.75 
  -3   2   1    6.19    2.10 
   3  -2   0  172.43   23.90 
   3  -2   0  174.90   24.59 
  -3   2   0  174.36   24.34 
   3  -2   1   97.03   13.72 
  -3   2  -1   66.11    9.46 
   3  -2   2    4.91    1.63 
   3  -2   2    2.30    1.31 
   3  -2   2    3.40    3.34 
   3  -2   2    2.64    1.60 
  -3   2  -2    4.99    1.70 
   3  -2   3   80.44   10.30 
   3  -2   3   52.67    6.75 
   3  -2   3   61.94    8.19 
   3  -2   3   70.66    8.94 
  -3   2  -3   64.40    8.33 
   3  -2   4   34.32    4.21 
   3  -2   4   24.61    2.91 
   3  -2   4   36.85    4.27 
   3  -2   4   29.58    3.41 
   3  -2   5   74.09    8.44 
   3  -2   5   87.65   12.75 
  -3   2  -5   80.58    8.89 
   3  -2   6   25.67    4.50 
   3  -2   6   17.36    2.94 
  -3   2  -6   16.70    3.05 
   3  -2   7    3.33    2.21 
  -3   2  -7    2.83    1.81 
   3  -2   8  149.75   19.26 
  -3   2  -8  106.50   13.75 
  -3   2  -9   49.13    8.28 
   3  -1  -9   20.80    2.90 
   3  -1  -9   15.71    2.36 
   3  -1  -8    7.45    2.44 
   3  -1  -8    9.31    3.03 
  -3   1   8    4.12    2.13 
   3  -1  -7  137.79   16.83 
   3  -1  -7  108.84   13.55 
  -3   1   7  133.90   16.43 
   3  -1  -6  121.17   18.85 
   3  -1  -6  127.21   19.97 
  -3   1   6  126.00   19.66 
   3  -1  -5    1.19    1.18 
   3  -1  -5    1.56    1.52 
  -3   1   5   -1.39    1.29 
   3  -1  -4  567.34   57.73 
   3  -1  -4  523.04   54.04 
  -3   1   4  550.34   56.25 
  -3   1   4  378.04   38.76 
   3  -1  -3   16.85    2.53 
  -3   1   3   17.10    2.81 
  -3   1   3   14.28    2.27 
   3  -1  -2  338.08   46.57 
   3  -1  -2  326.40   45.19 
  -3   1   2  295.66   40.92 
  -3   1   2  230.38   31.88 
   3  -1  -1 1180.10  144.51 
   3  -1  -1 1082.08  130.13 
   3  -1  -1 1281.82  153.92 
  -3   1   1 1315.88  158.84 
  -3   1   1  859.84  103.67 
   3  -1   0  837.65  102.23 
  -3   1   0  845.90  102.19 
  -3   1   0  742.19   90.64 
   3  -1   1   -1.66    1.27 
   3  -1   1   -0.62    1.14 
  -3   1  -1    0.08    1.53 
   3  -1   2  706.93   86.95 
  -3   1  -2  487.16   59.46 
   3  -1   3  507.18   70.21 
   3  -1   3  544.89   75.64 
   3  -1   3  386.39   53.12 
   3  -1   3  460.77   63.49 
   3  -1   4    8.10    1.97 
   3  -1   4    5.41    1.30 
   3  -1   4    9.26    1.78 
   3  -1   4    4.52    1.08 
  -3   1  -4    3.98    1.48 
   3  -1   5   31.37    4.08 
   3  -1   5   25.52    3.00 
   3  -1   5   35.19    4.06 
   3  -1   5   28.54    3.31 
  -3   1  -5   31.90    3.86 
   3  -1   6    7.35    2.13 
   3  -1   6    9.86    1.71 
  -3   1  -6    9.56    1.86 
   3  -1   7   52.17    6.25 
  -3   1  -7   39.97    5.66 
   3  -1   8   95.24   23.96 
  -3   1  -8  100.69   25.17 
   3  -1   9   29.88    4.89 
  -3   1  -9   31.64    4.76 
  -3   1 -10   60.71    6.19 
   3   0  -9    1.59    2.00 
   3   0  -9   -0.16    1.70 
   3   0  -8   27.26    4.24 
   3   0  -8   24.10   10.04 
   3   0  -7   46.09    5.99 
   3   0  -7   40.99    5.54 
  -3   0   7   53.76    6.91 
   3   0  -6   69.53   10.98 
   3   0  -6   68.46   10.92 
  -3   0   6   68.14   10.80 
   3   0  -5   12.17    2.03 
   3   0  -5    5.41    1.67 
  -3   0   5   14.13    2.30 
   3   0  -4   54.92    6.04 
   3   0  -4   44.20    5.09 
  -3   0   4   45.00    5.13 
  -3   0   4   33.96    3.91 
   3   0  -3   67.47    8.60 
   3   0  -3   65.82    8.44 
  -3   0   3   56.59    7.38 
  -3   0   3   43.97    5.75 
   3   0  -2    6.52    1.64 
   3   0  -2    4.99    1.59 
   3   0  -2    4.76    1.33 
  -3   0   2    4.40    1.57 
  -3   0   2    5.75    1.43 
   3   0  -1   47.68    6.15 
   3   0  -1   39.75    5.16 
   3   0  -1   45.28    5.82 
  -3   0   1   47.63    6.23 
  -3   0   1   37.61    4.88 
   3   0   0    5.06    1.54 
  -3   0   0    4.89    1.60 
  -3   0   0    2.06    1.33 
  -3   0   0    4.69    1.71 
   3   0   1  503.35   65.86 
  -3   0  -1  529.41   67.77 
  -3   0  -1  391.02   51.13 
   3   0   2    9.97    1.80 
   3   0   2    8.64    1.82 
  -3   0  -2    8.26    2.01 
  -3   0  -2    8.93    1.79 
   3   0   3  478.61   57.87 
   3   0   3  485.50   58.98 
   3   0   3  490.49   59.51 
   3   0   3  495.09   59.77 
  -3   0  -3  392.96   47.60 
  -3   0  -3  371.62   45.69 
   3   0   4   17.40    3.12 
   3   0   4   23.80    3.68 
   3   0   4   16.74    2.64 
  -3   0  -4   16.57    2.76 
  -3   0  -4   14.40    2.44 
   3   0   5    2.92    1.84 
   3   0   5    3.02    0.97 
   3   0   5    1.93    1.20 
   3   0   5    0.90    0.91 
  -3   0  -5    2.11    1.22 
   3   0   6  581.19   87.32 
   3   0   6  480.12   71.40 
   3   0   6  491.77   73.26 
   3   0   6  492.10   73.27 
  -3   0  -6  590.14   87.92 
   3   0   7  328.99   36.91 
  -3   0  -7  261.00   29.13 
   3   0   8    1.90    2.11 
  -3   0  -8    9.20    2.03 
   3   0   9  114.34   28.72 
  -3   0  -9   98.14   24.55 
   3   0  10    2.93    2.72 
  -3   0 -10   -7.71    1.68 
  -3   0 -11   -2.44    1.96 
   3   1  -9    2.46    2.19 
   3   1  -9    5.23    2.69 
   3   1  -8   82.80   11.51 
   3   1  -8   71.65    9.89 
   3   1  -7   10.02    2.69 
   3   1  -7   10.08    2.38 
   3   1  -6   34.66    5.08 
   3   1  -6   24.84    3.87 
   3   1  -6   32.86    4.73 
  -3  -1   6   25.65    3.88 
   3   1  -5   21.39    2.97 
   3   1  -5   23.86    3.08 
   3   1  -5   22.58    2.99 
  -3  -1   5   26.27    3.35 
   3   1  -4   19.74    2.66 
   3   1  -4   13.04    2.12 
  -3  -1   4   19.10    2.68 
   3   1  -3   12.05    2.07 
   3   1  -3   12.97    2.29 
  -3  -1   3   13.57    2.30 
  -3  -1   3    8.78    1.76 
   3   1  -2 1251.18  174.09 
   3   1  -2 1142.51  156.79 
   3   1  -2 1402.87  192.66 
  -3  -1   2 1283.54  176.58 
  -3  -1   2 1003.50  137.99 
   3   1  -1   26.45    3.66 
   3   1  -1   23.40    3.29 
   3   1  -1   21.17    3.01 
  -3  -1   1   20.15    2.97 
  -3  -1   1   26.54    3.81 
  -3  -1   1   21.82    3.02 
   3   1   0   59.07    7.95 
   3   1   0   42.73    5.78 
  -3  -1   0   57.44    7.81 
  -3  -1   0   42.97    5.81 
  -3  -1   0   46.62    6.51 
   3   1   1  291.34   38.02 
   3   1   1  256.26   32.84 
  -3  -1  -1  257.43   33.12 
  -3  -1  -1  233.68   30.49 
  -3  -1  -1  233.70   30.03 
  -3  -1  -1  328.55   42.15 
   3   1   2  156.20   20.62 
   3   1   2  173.91   22.84 
  -3  -1  -2  137.91   18.37 
  -3  -1  -2  171.05   22.04 
   3   1   3   24.74    3.71 
   3   1   3   22.40    3.35 
   3   1   3   23.56    3.33 
   3   1   3   19.06    3.28 
  -3  -1  -3   23.13    3.35 
  -3  -1  -3   19.11    2.96 
   3   1   4 1780.56  215.28 
   3   1   4 1831.03  220.27 
   3   1   4 1595.84  192.25 
  -3  -1  -4 1946.37  233.88 
  -3  -1  -4 1776.24  216.95 
   3   1   5    6.42    2.02 
   3   1   5    6.87    1.54 
   3   1   5    4.49    1.18 
  -3  -1  -5    5.30    1.53 
  -3  -1  -5    6.88    1.62 
   3   1   6   24.00    3.48 
   3   1   6   20.16    2.42 
   3   1   6   24.55    3.06 
   3   1   6   19.31    2.42 
  -3  -1  -6   24.71    3.13 
   3   1   7  627.47   69.99 
   3   1   7  406.67   45.11 
  -3  -1  -7  503.43   55.76 
   3   1   8    4.53    2.48 
  -3  -1  -8    6.35    1.74 
   3   1   9  288.43   35.15 
  -3  -1  -9  256.90   31.42 
   3   1  10   21.13    6.08 
  -3  -1 -10   28.57    4.43 
   3   1  11   16.06    3.07 
  -3  -1 -11   18.44    2.66 
   3   2  -9   15.98    4.31 
   3   2  -9   10.45    4.56 
   3   2  -8    3.63    2.44 
   3   2  -8   -2.35    1.72 
   3   2  -7  161.42   20.57 
   3   2  -7  155.05   19.63 
   3   2  -6   32.78    4.58 
   3   2  -6   15.33    4.33 
   3   2  -5  130.76   14.90 
   3   2  -5   95.80   11.01 
   3   2  -5  123.76   13.97 
  -3  -2   5  104.78   11.93 
   3   2  -4   43.87    7.00 
   3   2  -4   41.79    6.59 
   3   2  -4   47.93    7.47 
  -3  -2   4   39.88    6.29 
   3   2  -3    1.79    1.33 
  -3  -2   3    2.53    1.40 
  -3  -2   3    0.49    1.06 
   3   2  -2  316.68   43.77 
   3   2  -2  261.17   36.08 
  -3  -2   2  271.05   37.51 
  -3  -2   2  234.36   32.47 
   3   2  -1   10.73    1.97 
   3   2  -1   10.85    1.89 
   3   2  -1   10.32    1.81 
  -3  -2   1    7.16    1.68 
  -3  -2   1   12.37    2.19 
  -3  -2   1    8.40    1.66 
   3   2   0  176.30   22.70 
   3   2   0  195.80   25.50 
  -3  -2   0  171.16   22.11 
  -3  -2   0  188.15   24.38 
   3   2   1   39.57    5.50 
   3   2   1   36.37    5.22 
   3   2   1   44.07    6.07 
  -3  -2  -1   33.21    4.83 
  -3  -2  -1   32.03    4.50 
  -3  -2  -1   38.53    5.58 
   3   2   2  223.59   28.74 
   3   2   2  259.59   33.61 
   3   2   2  243.36   31.33 
  -3  -2  -2  225.53   29.00 
  -3  -2  -2  245.93   32.02 
   3   2   3   61.94    8.44 
   3   2   3   63.97    8.50 
   3   2   3   69.30    9.43 
  -3  -2  -3   67.71    8.97 
  -3  -2  -3   59.76    8.21 
   3   2   4  819.85   98.99 
   3   2   4  861.42  104.91 
   3   2   4  789.48   95.14 
   3   2   4  823.55   99.32 
  -3  -2  -4  935.48  112.94 
  -3  -2  -4  906.19  110.57 
   3   2   5  468.41   64.97 
   3   2   5  452.96   62.42 
   3   2   5  430.68   59.36 
  -3  -2  -5  562.61   77.58 
  -3  -2  -5  492.29   68.17 
   3   2   6  103.91   13.33 
   3   2   6   97.03   12.31 
   3   2   6   81.36   10.28 
  -3  -2  -6  118.39   14.88 
  -3  -2  -6  102.60   12.91 
   3   2   7   13.33    3.04 
   3   2   7    5.00    1.42 
  -3  -2  -7    7.59    1.91 
   3   2   8   48.28    6.03 
  -3  -2  -8   40.16    4.73 
   3   2   9   47.81    6.54 
  -3  -2  -9   43.17    5.78 
   3   2  10   52.57    7.33 
  -3  -2 -10   64.82    8.54 
   3   2  11   14.51    3.71 
  -3  -2 -11   12.31    6.41 
   3   2  12    0.03    2.53 
  -3  -2 -12   -2.83    1.91 
   3   3  -8   27.09    3.59 
   3   3  -8   29.22    3.54 
   3   3  -7    8.06    3.13 
   3   3  -7    5.33    2.28 
   3   3  -6   97.29   24.36 
   3   3  -6   95.61   23.89 
   3   3  -5   77.03    8.52 
   3   3  -5  111.30   12.12 
   3   3  -5  126.44   13.54 
   3   3  -4  207.79   23.20 
   3   3  -4  160.41   18.01 
   3   3  -4  215.01   23.94 
  -3  -3   4  143.96   16.13 
   3   3  -3  400.24   40.92 
   3   3  -3  332.42   34.01 
   3   3  -3  447.82   45.81 
  -3  -3   3  274.26   28.14 
   3   3  -2   12.87    2.12 
   3   3  -2    8.90    1.94 
  -3  -3   2    9.68    1.83 
   3   3  -1   52.81    7.57 
   3   3  -1   61.43    8.91 
   3   3  -1   54.60    7.94 
  -3  -3   1   49.57    7.18 
   3   3   0  200.13   24.37 
   3   3   0  248.84   30.73 
   3   3   0  211.41   26.02 
  -3  -3   0  190.69   23.29 
  -3  -3   0  212.05   26.30 
   3   3   1 1116.11  142.29 
   3   3   1 1509.72  194.50 
   3   3   1 1462.43  187.03 
  -3  -3  -1 1060.56  136.87 
  -3  -3  -1 1155.10  147.02 
  -3  -3  -1 1304.53  166.67 
   3   3   2   40.60    5.62 
   3   3   2   41.55    5.92 
   3   3   2   40.34    5.60 
   3   3   2   35.95    5.18 
  -3  -3  -2   32.61    4.87 
  -3  -3  -2   34.60    4.98 
   3   3   3 2422.21  291.69 
   3   3   3 2215.88  267.50 
  -3  -3  -3 2145.86  279.13 
  -3  -3  -3 2133.63  271.55 
  -3  -3  -3 1979.93  257.37 
   3   3   4  600.97   74.52 
   3   3   4  752.66   90.75 
   3   3   4  650.12   78.38 
  -3  -3  -4  583.19   70.64 
  -3  -3  -4  620.13   75.55 
  -3  -3  -4  624.08   76.18 
   3   3   5    1.77    1.79 
   3   3   5   -0.45    1.45 
   3   3   5   -0.92    1.52 
  -3  -3  -5    1.48    1.29 
  -3  -3  -5    4.17    1.36 
   3   3   6   57.16    7.65 
   3   3   6   50.99    6.76 
   3   3   6   50.45    6.55 
  -3  -3  -6   64.87    8.30 
  -3  -3  -6   55.29    7.26 
   3   3   7   66.36    7.73 
   3   3   7   65.03    7.11 
  -3  -3  -7   72.36    7.92 
  -3  -3  -7   80.54    8.68 
   3   3   8  138.98   15.80 
  -3  -3  -8  153.34   17.25 
   3   3   9  304.15   32.38 
  -3  -3  -9  273.17   28.82 
   3   3  10   43.19   11.16 
  -3  -3 -10   53.57   13.55 
   3   3  11  240.76   32.53 
  -3  -3 -11  204.25   27.62 
   3   3  12   40.90    9.75 
  -3  -3 -12   46.91   10.83 
   3   4  -8   -0.19    2.08 
   3   4  -8   -1.08    1.94 
   3   4  -7    7.75    4.02 
   3   4  -7   10.13    4.60 
   3   4  -6  113.27   14.71 
   3   4  -6  102.21   13.15 
   3   4  -5    7.30    2.85 
   3   4  -5    1.68    1.69 
   3   4  -4    1.50    1.29 
   3   4  -4   -0.65    1.65 
   3   4  -4    0.85    1.39 
   3   4  -3   13.99    2.69 
   3   4  -3   15.18    2.76 
   3   4  -3   15.95    3.19 
   3   4  -3   19.53    3.45 
   3   4  -2    2.94    1.26 
   3   4  -2    3.75    1.45 
   3   4  -2    3.53    1.42 
   3   4  -1    2.14    1.17 
   3   4  -1    2.94    1.46 
   3   4  -1    0.21    1.61 
  -3  -4   1    0.94    1.38 
  -3  -4   1    2.32    2.01 
   3   4   0 2359.07  323.60 
   3   4   0 3274.80  455.52 
   3   4   0 3083.48  424.30 
  -3  -4   0 2303.75  316.35 
  -3  -4   0 2644.78  370.26 
   3   4   1    0.67    1.20 
   3   4   1   -1.67    1.44 
   3   4   1    0.28    1.42 
  -3  -4  -1    3.31    1.34 
  -3  -4  -1    0.42    1.28 
  -3  -4  -1    4.80    2.16 
   3   4   2 3191.53  440.42 
   3   4   2 2532.63  347.64 
   3   4   2 2167.02  264.52 
  -3  -4  -2 2368.98  285.96 
  -3  -4  -2 1749.09  213.26 
   3   4   3 1237.92  154.61 
   3   4   3 1202.35  145.29 
   3   4   3 1095.84  132.63 
  -3  -4  -3 1145.28  139.42 
  -3  -4  -3 1061.42  128.91 
  -3  -4  -3  980.58  119.31 
   3   4   4  200.88   24.62 
   3   4   4  177.42   21.77 
  -3  -4  -4  147.63   18.29 
  -3  -4  -4  178.08   22.10 
  -3  -4  -4  159.75   19.69 
   3   4   5   44.83    6.63 
   3   4   5   57.26    8.44 
  -3  -4  -5   53.21    7.78 
  -3  -4  -5   50.67    7.31 
   3   4   6  112.21   14.35 
   3   4   6   78.59   10.08 
   3   4   6   85.94   11.01 
  -3  -4  -6  108.19   13.65 
  -3  -4  -6   98.97   12.47 
   3   4   7   65.12    7.34 
   3   4   7   58.64    6.50 
  -3  -4  -7   64.85    7.03 
  -3  -4  -7   75.20    8.13 
   3   4   8  321.38   35.65 
  -3  -4  -8  301.39   33.41 
   3   4   9  203.22   21.78 
  -3  -4  -9  185.74   19.73 
   3   4  10   11.29    3.39 
  -3  -4 -10   10.44    2.53 
   3   4  11    3.73    2.91 
  -3  -4 -11    6.97    2.61 
   3   4  12    5.58    3.94 
  -3  -4 -12   -0.51    1.92 
   3   5  -7  133.40   30.08 
   3   5  -7  119.49   26.90 
   3   5  -6  139.36   18.95 
   3   5  -6  107.04   14.57 
   3   5  -5   90.54   22.70 
   3   5  -5   83.21   20.83 
   3   5  -4    2.88    2.10 
   3   5  -4    7.33    1.91 
   3   5  -3  139.21   15.79 
   3   5  -2   78.35   11.91 
   3   5  -2   58.12    8.98 
  -3  -5   2   72.92   11.71 
   3   5  -1    1.26    1.11 
   3   5  -1    3.33    1.54 
  -3  -5   1   -1.00    2.23 
   3   5   0  321.26   39.58 
   3   5   0  345.09   43.38 
   3   5   0  392.45   48.58 
  -3  -5   0  333.01   44.68 
   3   5   1    0.20    1.13 
   3   5   1   -0.88    1.48 
   3   5   1   -0.87    1.53 
  -3  -5  -1    2.18    1.28 
  -3  -5  -1    1.56    2.17 
   3   5   2  788.51  108.26 
   3   5   2  581.34   79.93 
   3   5   2  507.12   70.41 
  -3  -5  -2  492.21   68.09 
  -3  -5  -2  548.01   76.79 
   3   5   3  135.42   19.07 
   3   5   3  113.81   16.12 
   3   5   3  113.23   15.97 
  -3  -5  -3   98.66   14.03 
  -3  -5  -3   93.03   13.55 
  -3  -5  -3   73.84   10.50 
   3   5   4    8.53    2.26 
   3   5   4    5.57    1.74 
   3   5   4    5.36    2.25 
  -3  -5  -4    3.05    1.69 
  -3  -5  -4    6.79    1.70 
   3   5   5    9.11    2.18 
   3   5   5    4.23    2.21 
  -3  -5  -5    6.53    1.77 
  -3  -5  -5    5.82    1.49 
   3   5   6   64.12    7.18 
  -3  -5  -6   59.44    6.49 
  -3  -5  -6   62.28    6.92 
   3   5   7 1413.89  210.65 
   3   5   7 1453.08  215.59 
  -3  -5  -7 1181.13  175.06 
  -3  -5  -7 1449.77  215.22 
   3   5   8  508.05   56.41 
   3   5   8  380.16   41.92 
  -3  -5  -8  463.36   51.10 
  -3  -5  -8  507.72   56.05 
   3   5   9   17.19    3.68 
  -3  -5  -9   17.24    3.14 
  -3  -5  -9   14.20    2.94 
  -3  -5  -9   21.04    3.41 
   3   5  10   -0.79    2.55 
  -3  -5 -10    0.10    1.73 
   3   5  11   22.11    6.45 
  -3  -5 -11   18.86    5.36 
   3   5  12    9.64    5.67 
  -3  -5 -12   -1.16    2.03 
   3   6  -6   26.66    3.59 
   3   6  -6   17.51    2.69 
   3   6  -5   11.88    3.80 
   3   6  -4  168.42   41.95 
  -3  -6   4  169.18   42.23 
   3   6  -3  220.19   23.31 
  -3  -6   3  198.94   21.67 
   3   6  -2 1166.76  179.82 
  -3  -6   2 1252.11  196.90 
   3   6  -1    0.53    1.17 
   3   6  -1    0.22    1.57 
  -3  -6   1    3.22    2.43 
   3   6   0   50.15    5.59 
   3   6   0   47.01    5.41 
   3   6   0   63.42    7.11 
  -3  -6   0   54.02    6.89 
   3   6   1  398.85   50.45 
   3   6   1  572.31   70.24 
  -3  -6  -1  439.98   58.36 
   3   6   2  164.13   20.43 
   3   6   2   99.35   12.60 
  -3  -6  -2  115.26   14.49 
  -3  -6  -2  118.30   15.30 
   3   6   3   40.40    5.56 
   3   6   3   28.86    4.32 
  -3  -6  -3   39.02    5.31 
  -3  -6  -3   30.23    4.57 
   3   6   4  458.89   57.17 
   3   6   4  315.24   38.96 
  -3  -6  -4  487.42   60.43 
   3   6   5  101.53   11.23 
   3   6   5   93.29   10.12 
  -3  -6  -5   79.75    8.52 
  -3  -6  -5  104.46   11.24 
   3   6   6 1019.47  104.03 
  -3  -6  -6  802.42   81.48 
  -3  -6  -6  946.68   97.09 
   3   6   7   30.12    5.08 
  -3  -6  -7   23.62    3.96 
  -3  -6  -7   27.97    4.69 
   3   6   8 3320.83  433.16 
   3   6   8 2605.53  400.29 
  -3  -6  -8 2449.30  375.83 
  -3  -6  -8 2969.16  386.80 
   3   6   9  124.49   13.70 
  -3  -6  -9  118.92   12.74 
   3   6  10  147.14   36.74 
  -3  -6 -10  138.01   34.36 
   3   6  11   -0.97    2.72 
  -3  -6 -11    4.63    2.29 
   3   6  12   -6.59    2.79 
  -3  -6 -12   -1.29    1.83 
   3   7  -5   -0.44    1.99 
  -3  -7   5    1.37    2.69 
   3   7  -4   72.51   10.16 
  -3  -7   4   53.69    7.83 
   3   7  -3   83.10   20.89 
  -3  -7   3   87.25   22.03 
   3   7  -2  338.25   35.50 
  -3  -7   2  383.70   41.56 
   3   7  -1 1477.88  226.75 
   3   7  -1 1384.06  212.53 
  -3  -7   1 1367.69  222.00 
   3   7   0   97.50   11.14 
   3   7   0  110.61   12.59 
   3   7   0  123.43   14.12 
  -3  -7   0   97.95   12.91 
   3   7   1  433.94   65.07 
   3   7   1  607.77   90.51 
  -3  -7  -1  710.69  105.44 
  -3  -7  -1  639.00   98.52 
   3   7   2 1149.76  172.73 
   3   7   2  898.49  133.25 
  -3  -7  -2 1240.64  183.80 
  -3  -7  -2 1158.27  174.20 
   3   7   3  997.46  101.09 
   3   7   3  608.27   61.87 
  -3  -7  -3  786.98   79.83 
  -3  -7  -3 1026.99  104.11 
   3   7   4   95.00   10.27 
   3   7   4   69.21    7.67 
  -3  -7  -4   98.95   10.59 
   3   7   5  344.11   51.92 
   3   7   5  365.12   54.53 
  -3  -7  -5  422.52   63.19 
   3   7   6   60.97    7.08 
   3   7   6   72.37    8.16 
  -3  -7  -6   64.91    7.39 
   3   7   7  143.45   16.26 
  -3  -7  -7  134.28   15.23 
   3   7   8   80.72    8.88 
  -3  -7  -8   93.92   10.13 
  -3  -7  -8   97.68   10.59 
   3   7   9   73.72    9.55 
  -3  -7  -9   60.92    7.71 
   3   7  10   20.00    5.99 
  -3  -7 -10    9.68    2.99 
  -3  -7 -10   17.12    4.80 
   3   7  11   -1.21    2.84 
  -3  -7 -11    3.75    2.35 
   3   7  12   70.52    7.40 
  -3  -7 -12   76.67    7.62 
   3   8  -4   33.43    4.35 
   3   8  -3  289.31   38.81 
   3   8  -2   -2.47    2.18 
  -3  -8   1   32.43    5.70 
   3   8   0  886.56   92.24 
   3   8   0  994.33  104.58 
  -3  -8   0  897.72  107.16 
   3   8   1   43.02    6.70 
   3   8   1   48.77    8.08 
  -3  -8  -1   39.80    6.97 
   3   8   2  197.87   22.96 
   3   8   2  159.07   17.91 
  -3  -8  -2  247.71   27.73 
   3   8   3   -2.51    1.72 
   3   8   3    4.99    2.10 
  -3  -8  -3    4.03    2.45 
   3   8   4 1585.55  174.00 
   3   8   4 1302.55  142.91 
  -3  -8  -4 1975.83  216.47 
   3   8   5    5.64    2.18 
   3   8   5   -1.99    2.06 
  -3  -8  -5    1.14    1.96 
   3   8   6  346.90   53.89 
   3   8   6  329.89   51.10 
  -3  -8  -6  362.80   56.03 
   3   8   7  562.76   60.50 
   3   8   7  646.81   67.66 
  -3  -8  -7  591.30   62.25 
   3   8   8   41.60    5.59 
  -3  -8  -8   44.09    5.80 
   3   8   9   20.05    3.80 
  -3  -8  -9   28.86    5.13 
   3   8  10  201.77   25.63 
  -3  -8 -10  186.25   23.45 
   3   8  11   30.60    5.93 
  -3  -8 -11   23.44    4.35 
   3   8  12   -4.35    3.05 
  -3  -8 -12    2.99    2.14 
   3   9  -3   31.36    3.96 
   3   9  -2    3.86    2.89 
   3   9  -1  130.90   16.91 
   3   9   1   12.40    3.67 
   3   9   1   17.18    5.00 
   3   9   2   12.34    2.61 
   3   9   2    6.99    2.66 
   3   9   3  342.08   35.79 
   3   9   3  239.19   25.26 
  -3  -9  -3  361.34   37.81 
   3   9   4  710.47   73.92 
   3   9   4  540.04   56.30 
  -3  -9  -4  774.44   80.43 
   3   9   5    2.85    2.29 
   3   9   5   11.69    2.84 
  -3  -9  -5   11.67    2.78 
   3   9   6   40.75    6.08 
   3   9   6   45.83    6.67 
  -3  -9  -6   43.97    6.35 
   3   9   7  299.86   36.58 
   3   9   7  297.61   36.13 
  -3  -9  -7  306.08   37.10 
   3   9   8   32.15    5.97 
   3   9   8   33.13    8.85 
  -3  -9  -8   31.02    5.49 
   3   9   9   10.74    3.82 
   3   9   9    6.33    2.38 
  -3  -9  -9    8.05    2.76 
  -3  -9 -10   33.28    5.74 
   3   9  11  139.35   13.40 
  -3  -9 -11   97.15    9.30 
   3  10  -2   51.42   11.93 
   3  10  -1  210.54   19.64 
   3  10   1   29.95    8.29 
   3  10   2  628.23   78.37 
   3  10   2  465.82   58.18 
   3  10   3  474.81  117.68 
   3  10   3  369.03   91.56 
   3  10   4  102.65   25.67 
   3  10   4  109.54   27.40 
   3  10   5   18.72    3.88 
   3  10   5   12.68    3.23 
   3  10   6  873.91  217.25 
   3  10   6  817.46  202.72 
  -3 -10  -6  934.38  231.55 
   3  10   7   78.87   10.54 
   3  10   7   75.61   10.00 
  -3 -10  -7   87.00   11.42 
   3  10   8  172.17   23.33 
   3  10   8  154.47   20.91 
  -3 -10  -8  162.13   21.90 
   3  10   9    5.72    3.51 
   3  10   9    1.02    1.99 
  -3 -10  -9    3.32    2.35 
   3  10  10    7.14    4.48 
  -3 -10 -10    1.33    1.94 
  -3 -10 -11    5.99    2.87 
   3  11   1   21.14    3.23 
   3  11   2    8.95    4.49 
   3  11   3   27.08    4.99 
   3  11   3   30.08    5.70 
   3  11   4   90.40   12.61 
   3  11   4  105.85   14.60 
   3  11   5   13.55    4.23 
   3  11   5    6.60    2.90 
   3  11   6   37.46    5.73 
   3  11   6   32.55    5.16 
   3  11   7    5.59    3.32 
   3  11   7    4.09    2.82 
   3  11   8   33.26    6.06 
   3  11   8   44.24    7.56 
  -3 -11  -8   53.16    8.93 
   3  11   9    6.24    4.09 
   3  11   9   -1.28    1.93 
  -3 -11  -9   -3.20    1.76 
   3  11  10    5.16    3.52 
  -3 -11 -10   -4.89    1.95 
   3  12   3   57.06   13.18 
   3  12   4  157.30   35.39 
   3  12   4  204.35   45.81 
   3  12   5   51.02    5.59 
   3  12   5   59.03    6.30 
   3  12   6   10.07    4.61 
   3  12   6    6.86    3.50 
   3  12   7   -1.24    2.28 
   3  12   7   -0.61    2.21 
   3  12   8   51.83   12.12 
   3  12   8   60.67   13.90 
  -4   7   5   20.69    5.44 
   4  -7  -4   12.66    5.44 
   4  -7  -3   -0.38    1.98 
  -4   7   3    7.32    4.34 
   4  -7  -2   16.06    2.80 
  -4   7   2   24.73    3.48 
   4  -7  -1   76.69    7.65 
  -4   7   1   98.29    9.69 
   4  -7   0    2.25    2.68 
  -4   7   0   -2.86    2.30 
   4  -7   1   14.05    5.87 
  -4   7  -1   13.84    5.93 
   4  -7   2   93.00   21.04 
  -4   7  -2   99.22   22.44 
   4  -6  -6   22.56    5.62 
  -4   6   6   22.01    5.62 
  -4   6   5   22.68    3.28 
   4  -6  -4   76.06   12.52 
  -4   6   4   88.65   14.59 
   4  -6  -2    9.00    3.04 
   4  -6  -1    7.15    2.60 
  -4   6   1    9.36    3.36 
   4  -6   0   36.12    5.42 
  -4   6   0   45.64    6.68 
   4  -6   1   -4.94    1.93 
  -4   6  -1   -1.09    2.20 
   4  -6   2   33.59    5.87 
  -4   6  -2   34.11    6.10 
   4  -6   3   25.93    3.40 
  -4   6  -3   31.87    4.12 
   4  -6   4   31.75    7.62 
   4  -6   4   30.98    7.28 
   4  -5  -7   19.91    5.09 
  -4   5   7   12.45    5.38 
   4  -5  -6    2.50    2.37 
  -4   5   6   -5.02    2.09 
  -4   5   5    7.04    2.78 
   4  -5  -4   15.88    4.56 
  -4   5   4   12.02    3.82 
   4  -5  -3   11.34    3.51 
  -4   5   3   25.96    7.10 
   4  -5  -2   64.44   16.22 
   4  -5  -1    9.34    3.07 
   4  -5   0   11.79    2.77 
  -4   5   0   19.62    4.01 
   4  -5   1  697.36  173.04 
  -4   5  -1  860.84  213.51 
  -4   5  -2   13.39    4.41 
   4  -5   3  361.65   48.59 
  -4   5  -3  396.45  161.62 
   4  -5   4   -4.24    2.12 
   4  -5   4   -0.10    1.93 
   4  -5   5    6.44    4.06 
   4  -4  -7   39.19    4.59 
  -4   4   7   35.85    4.26 
   4  -4  -6   69.33    9.74 
  -4   4   6   72.48   10.16 
  -4   4   5   23.53    6.56 
  -4   4   4    2.28    1.99 
   4  -4  -3    3.34    1.84 
  -4   4   3    0.24    1.86 
   4  -4  -2    0.90    1.61 
  -4   4   2    2.66    2.12 
   4  -4  -1   41.20    5.83 
   4  -4   0   13.84    2.68 
   4  -4   1  103.44   12.87 
  -4   4  -1  119.26   14.82 
   4  -4   2  500.09   60.63 
  -4   4  -2  569.56   68.86 
   4  -4   3   93.01   23.26 
  -4   4  -3   91.27   22.88 
   4  -4   4    0.81    2.23 
   4  -4   4    3.37    1.85 
   4  -4   5   27.64    4.57 
   4  -4   6    7.53    4.32 
   4  -4   7    9.01    4.23 
   4  -3  -8   44.14   10.11 
   4  -3  -8   45.91   10.67 
  -4   3   8   49.19   11.34 
   4  -3  -7    6.32    2.97 
   4  -3  -7    6.65    3.40 
  -4   3   7    3.82    2.52 
   4  -3  -6   20.31    5.50 
   4  -3  -6   27.17    4.39 
  -4   3   6   23.38    6.39 
   4  -3  -5    0.95    1.23 
   4  -3  -5   -3.92    1.75 
  -4   3   5    4.50    1.98 
   4  -3  -4   20.30    5.40 
  -4   3   4   25.22    6.73 
   4  -3  -3   -0.01    1.10 
   4  -3  -3    1.35    1.71 
  -4   3   3    3.52    1.87 
   4  -3  -2   56.41    9.05 
  -4   3   2   57.97    9.31 
  -4   3   2   48.23    8.03 
   4  -3  -1    7.98    2.15 
  -4   3   1    9.01    2.44 
   4  -3   0    0.98    1.64 
   4  -3   1   60.75    9.73 
   4  -3   2    2.39    1.49 
  -4   3  -2    9.72    2.49 
   4  -3   3   70.56    7.84 
  -4   3  -3   67.50    7.61 
   4  -3   4   14.04    4.20 
   4  -3   4   17.41    4.83 
   4  -3   5    3.84    2.20 
   4  -3   5   -2.00    1.34 
   4  -3   6  129.97   17.93 
   4  -3   7   30.55    5.61 
   4  -3   8   40.33    9.50 
   4  -2  -8   36.91    8.52 
   4  -2  -8   37.39    8.73 
  -4   2   8   35.36    8.31 
   4  -2  -7    1.78    1.58 
   4  -2  -7   10.91    4.84 
  -4   2   7    3.51    2.43 
   4  -2  -6  149.19   18.91 
   4  -2  -6  178.38   22.74 
  -4   2   6  172.34   21.86 
   4  -2  -5    6.61    2.21 
   4  -2  -5    6.87    2.52 
  -4   2   5   13.53    3.96 
   4  -2  -4   93.29   10.06 
  -4   2   4   98.40   10.72 
  -4   2   4   64.58    7.23 
   4  -2  -3  188.00   29.11 
   4  -2  -3  191.47   29.85 
  -4   2   3  220.10   34.14 
  -4   2   3  166.51   25.90 
   4  -2  -2  136.72   15.31 
   4  -2  -2  129.07   14.63 
  -4   2   2  142.49   16.15 
  -4   2   2  121.14   13.83 
   4  -2  -1    6.25    1.96 
  -4   2   1   11.26    2.31 
   4  -2   0  165.87   18.65 
  -4   2   0  154.75   17.50 
   4  -2   1  240.96   27.09 
  -4   2  -1  273.98   30.54 
   4  -2   2    8.01    1.90 
   4  -2   3   24.72    3.27 
   4  -2   4   -1.59    1.77 
   4  -2   4    0.77    1.55 
   4  -2   5   18.57    5.27 
   4  -2   5   20.09    5.36 
   4  -2   6  112.20   28.11 
   4  -2   7   51.44    7.57 
  -4   2  -7   49.83    7.03 
   4  -2   8   60.93    6.57 
  -4   2  -8   48.61    5.14 
   4  -2   9    6.75    3.59 
   4  -1  -8   12.34    5.21 
   4  -1  -8   11.41    4.84 
   4  -1  -7   -2.83    1.43 
   4  -1  -7   -3.09    1.53 
  -4   1   7    0.73    1.78 
   4  -1  -6    8.15    2.60 
   4  -1  -6   10.56    3.27 
  -4   1   6    9.31    3.05 
   4  -1  -5   17.57    4.79 
   4  -1  -5   16.38    4.62 
  -4   1   5   13.95    4.05 
   4  -1  -4    0.51    1.25 
  -4   1   4    1.78    1.57 
   4  -1  -3    4.08    1.36 
   4  -1  -3    0.95    1.54 
  -4   1   3    4.24    1.69 
  -4   1   3    0.48    1.01 
   4  -1  -2    2.47    1.21 
   4  -1  -2    6.62    1.65 
  -4   1   2    2.57    1.74 
  -4   1   2    0.38    1.26 
   4  -1  -1   77.04   11.68 
   4  -1  -1   83.41   12.75 
  -4   1   1  103.50   15.75 
  -4   1   1   77.05   11.81 
   4  -1   0   35.09    5.62 
  -4   1   0   44.40    7.12 
   4  -1   1  169.76   17.84 
  -4   1  -1  192.62   20.08 
   4  -1   2    1.58    1.43 
  -4   1  -2    3.04    1.76 
   4  -1   3    1.22    1.67 
   4  -1   3    1.54    1.49 
   4  -1   4  380.41   43.03 
   4  -1   4  402.12   44.72 
   4  -1   5  256.79   40.00 
   4  -1   5  263.04   40.80 
   4  -1   6   -0.56    2.02 
   4  -1   6   -0.11    1.35 
  -4   1  -6    6.98    2.36 
   4  -1   7  169.17   42.23 
  -4   1  -7  134.17   33.44 
   4  -1   8    4.11    2.53 
  -4   1  -8   -1.26    1.63 
   4  -1   9    1.83    2.54 
  -4   1  -9   -0.13    1.52 
   4   0  -8    1.11    1.82 
   4   0  -8    6.99    3.22 
   4   0  -7   -0.70    1.48 
   4   0  -7   -1.06    1.65 
  -4   0   7   -1.06    1.73 
   4   0  -6    5.73    2.12 
   4   0  -6    4.32    2.08 
  -4   0   6   10.96    3.37 
   4   0  -5    3.38    1.84 
  -4   0   5    5.06    2.22 
   4   0  -4  265.27   40.98 
  -4   0   4  261.14   40.40 
   4   0  -3    9.35    1.84 
  -4   0   3    5.71    1.75 
  -4   0   3    2.72    1.14 
   4   0  -2    2.65    1.28 
   4   0  -2    3.01    1.54 
  -4   0   2    8.23    2.17 
  -4   0   2    4.11    1.26 
   4   0  -1   20.80    2.64 
   4   0  -1   25.07    3.16 
  -4   0   1   27.14    3.58 
  -4   0   1   18.69    2.47 
   4   0   0   88.60    9.51 
  -4   0   0   93.40   10.05 
   4   0   1   24.38    3.09 
  -4   0  -1   17.44    2.70 
   4   0   2  913.44   93.79 
   4   0   3    1.52    1.71 
   4   0   3    2.97    1.38 
   4   0   4   13.19    2.64 
   4   0   4    7.74    1.89 
  -4   0  -4    6.70    1.76 
   4   0   5  453.93   50.99 
   4   0   5  409.14   45.44 
  -4   0  -5  447.71   49.51 
   4   0   6   -0.51    1.90 
   4   0   6    3.02    1.32 
  -4   0  -6   -0.17    1.31 
   4   0   7  254.23   31.52 
  -4   0  -7  240.41   29.20 
   4   0   8   44.62    6.36 
  -4   0  -8   40.92    5.61 
   4   0   9   23.89    4.81 
  -4   0  -9   22.70    4.15 
   4   0  10    3.70    2.94 
  -4   0 -10    1.94    1.78 
   4   1  -8   12.71    5.41 
   4   1  -8    9.00    4.00 
   4   1  -7   38.58    6.64 
   4   1  -7   32.20    5.63 
   4   1  -6   27.54    7.39 
   4   1  -6   24.55    6.66 
  -4  -1   6   24.28    6.56 
   4   1  -5    2.67    1.74 
   4   1  -5    2.51    1.83 
  -4  -1   5    1.10    1.54 
   4   1  -4   80.79    8.85 
   4   1  -4   74.67    8.27 
  -4  -1   4   67.66    7.57 
   4   1  -3    4.63    1.54 
  -4  -1   3    3.34    1.79 
  -4  -1   3    1.23    0.97 
   4   1  -2   63.17    9.67 
   4   1  -2   53.16    8.25 
  -4  -1   2   57.85    9.00 
  -4  -1   2   43.86    6.83 
   4   1  -1    0.00    1.36 
  -4  -1   1    2.82    1.73 
  -4  -1   1    0.67    1.02 
   4   1   0   46.64    6.16 
  -4  -1   0   50.91    6.75 
  -4  -1   0   41.29    5.39 
  -4  -1   0   43.70    6.05 
   4   1   1   16.15    2.69 
  -4  -1  -1   19.72    3.20 
  -4  -1  -1   24.03    3.35 
  -4  -1  -1   18.82    3.06 
   4   1   2  404.28   50.24 
   4   1   3  300.17   31.13 
   4   1   3  302.96   31.65 
  -4  -1  -3  271.01   28.18 
   4   1   4   88.69    9.53 
   4   1   4   83.99    8.94 
  -4  -1  -4   75.03    8.18 
  -4  -1  -4   65.73    7.24 
   4   1   5    2.60    1.91 
   4   1   5    5.30    1.60 
  -4  -1  -5    2.34    1.37 
  -4  -1  -5    2.77    1.24 
   4   1   6   69.81    7.95 
   4   1   6   57.03    6.33 
  -4  -1  -6   52.07    5.87 
   4   1   7   38.84    5.80 
  -4  -1  -7   31.80    4.61 
   4   1   8   53.03    7.19 
  -4  -1  -8   42.97    5.65 
   4   1   9   24.55    6.98 
  -4  -1  -9   22.81    6.17 
   4   1  10   -0.66    2.25 
  -4  -1 -10   -3.91    1.56 
   4   2  -7   37.20    4.31 
   4   2  -7   37.07    4.11 
   4   2  -6   52.24    7.60 
   4   2  -6   49.40    7.10 
   4   2  -5  120.56   30.04 
   4   2  -5  109.27   27.33 
  -4  -2   5  106.88   26.67 
   4   2  -4   -0.19    1.61 
   4   2  -4    1.77    1.67 
  -4  -2   4    2.02    1.42 
   4   2  -3    9.37    1.93 
  -4  -2   3    7.16    1.81 
   4   2  -2   26.97    4.44 
   4   2  -2   26.33    4.46 
  -4  -2   2   26.64    4.43 
  -4  -2   2   22.86    3.82 
   4   2  -1  231.34   24.07 
  -4  -2   1  207.86   21.49 
  -4  -2   1  171.33   17.79 
  -4  -2   1  254.00   26.32 
   4   2   0    5.00    1.79 
  -4  -2   0    3.76    1.29 
  -4  -2   0    3.24    2.05 
   4   2   1  890.55  112.56 
   4   2   1  952.74  117.97 
  -4  -2  -1  793.09   97.32 
  -4  -2  -1  794.73   97.90 
   4   2   2  390.69   48.45 
   4   2   2  376.89   46.81 
  -4  -2  -2  363.22   44.73 
  -4  -2  -2  370.53   45.66 
   4   2   3    7.90    1.84 
  -4  -2  -3    2.43    1.53 
  -4  -2  -3    5.55    1.53 
  -4  -2  -3    6.17    1.46 
   4   2   4   64.05    7.22 
   4   2   4   64.18    6.95 
   4   2   4   64.59    7.30 
  -4  -2  -4   63.63    6.88 
  -4  -2  -4   58.71    6.54 
   4   2   5   51.21    8.14 
   4   2   5   51.60    7.95 
   4   2   5   49.33    7.84 
  -4  -2  -5   55.98    8.62 
  -4  -2  -5   47.34    7.36 
   4   2   6  108.34   12.75 
   4   2   6  102.89   11.70 
  -4  -2  -6  107.15   12.19 
  -4  -2  -6  106.26   12.06 
   4   2   7  346.96   53.86 
  -4  -2  -7  315.15   48.69 
   4   2   8  135.33   16.88 
  -4  -2  -8  127.57   15.74 
   4   2   9  374.62   47.15 
  -4  -2  -9  278.36   35.34 
   4   2  10   67.62   11.44 
  -4  -2 -10   59.21    9.86 
   4   2  11   21.75    5.79 
  -4  -2 -11   19.99    4.97 
   4   3  -7    3.50    2.66 
   4   3  -7   -0.67    1.86 
   4   3  -6    7.76    2.94 
   4   3  -6   11.65    3.62 
   4   3  -5   -1.43    1.93 
   4   3  -5    5.21    1.91 
   4   3  -4    1.45    1.70 
   4   3  -4    5.05    2.30 
  -4  -3   4   -1.13    1.14 
   4   3  -3    1.24    1.26 
   4   3  -3    0.44    1.51 
   4   3  -2  598.90   65.90 
   4   3  -2  554.58   63.70 
   4   3  -2  615.86   68.57 
   4   3  -2  737.93   81.09 
   4   3  -1    6.96    1.72 
   4   3  -1    6.18    1.79 
   4   3  -1    2.41    1.68 
  -4  -3   1    8.95    1.98 
  -4  -3   1    9.87    2.73 
   4   3   0  686.02   72.19 
   4   3   0  691.47   71.11 
  -4  -3   0  636.40   64.78 
  -4  -3   0  659.61   67.50 
   4   3   1  319.01   40.59 
   4   3   1  330.78   41.21 
  -4  -3  -1  295.19   36.44 
  -4  -3  -1  307.52   38.08 
   4   3   2  128.91   16.99 
   4   3   2  143.24   18.00 
  -4  -3  -2  134.93   16.90 
  -4  -3  -2  118.40   14.99 
   4   3   3   27.40    4.11 
   4   3   3   26.45    3.74 
  -4  -3  -3   19.55    3.03 
  -4  -3  -3   27.17    3.95 
   4   3   4   48.74    5.44 
   4   3   4   50.07    5.92 
  -4  -3  -4   54.94    6.08 
  -4  -3  -4   49.50    5.62 
   4   3   5   54.76    6.57 
   4   3   5   60.56    6.64 
   4   3   5   61.56    6.98 
  -4  -3  -5   63.97    6.94 
  -4  -3  -5   59.13    6.55 
   4   3   6  273.60   41.07 
   4   3   6  234.60   35.06 
   4   3   6  257.17   38.40 
  -4  -3  -6  265.80   39.64 
  -4  -3  -6  254.36   38.02 
   4   3   7  203.28   31.63 
   4   3   7  178.61   27.75 
  -4  -3  -7  203.36   31.53 
  -4  -3  -7  207.96   32.20 
   4   3   8   50.34   13.10 
  -4  -3  -8   41.13    5.87 
   4   3   9    3.60    2.59 
  -4  -3  -9    1.97    1.72 
   4   3  10   -0.43    2.59 
  -4  -3 -10   -2.46    1.66 
   4   3  11    1.11    2.86 
  -4  -3 -11    0.53    1.90 
   4   4  -6    9.53    5.27 
   4   4  -6   11.37    5.97 
   4   4  -5   45.01    6.31 
   4   4  -5   44.03    6.03 
   4   4  -4   25.98    4.60 
   4   4  -4   36.65    9.48 
   4   4  -4   27.13    4.87 
   4   4  -3   -0.57    1.30 
   4   4  -3    1.17    1.75 
   4   4  -3    2.08    1.60 
   4   4  -2   68.71    7.53 
   4   4  -2   72.06    8.13 
  -4  -4   2   85.86   12.97 
   4   4  -1    2.85    1.27 
   4   4  -1    2.74    1.53 
   4   4  -1    0.98    1.61 
  -4  -4   1    3.05    2.34 
   4   4   0  177.19   18.30 
   4   4   0  183.25   19.70 
   4   4   0  205.55   21.31 
  -4  -4   0  156.01   16.28 
  -4  -4   0  186.98   19.71 
   4   4   1    9.71    2.20 
   4   4   1   13.70    2.32 
  -4  -4  -1   11.98    2.02 
  -4  -4  -1   16.40    2.97 
   4   4   2    5.17    1.83 
   4   4   2    8.51    1.97 
  -4  -4  -2    4.69    1.55 
  -4  -4  -2   12.20    2.80 
   4   4   3   -0.86    1.77 
   4   4   3   -0.93    1.42 
   4   4   3   -0.37    1.77 
  -4  -4  -3   -0.33    1.90 
   4   4   4   23.21    3.40 
   4   4   4   27.02    3.50 
   4   4   4   25.97    3.67 
  -4  -4  -4   23.87    3.19 
  -4  -4  -4   20.01    2.75 
   4   4   5 1314.67  133.96 
   4   4   5 1399.61  207.75 
  -4  -4  -5 1420.55  211.97 
  -4  -4  -5 1283.03  132.52 
   4   4   6  536.44   80.36 
   4   4   6  515.70   76.68 
   4   4   6  550.63   81.96 
  -4  -4  -6  568.91   84.58 
  -4  -4  -6  429.00   64.53 
   4   4   7    7.87    2.50 
   4   4   7    6.89    1.88 
  -4  -4  -7    6.24    1.46 
  -4  -4  -7    8.91    1.86 
   4   4   8    6.05    2.52 
  -4  -4  -8    7.81    1.91 
   4   4   9   28.35    5.49 
  -4  -4  -9   28.38    5.10 
   4   4  10    1.36    2.53 
  -4  -4 -10    3.89    2.06 
   4   4  11    4.85    3.70 
  -4  -4 -11    3.95    2.66 
   4   5  -6   56.91   13.11 
   4   5  -6   58.41   13.31 
   4   5  -5   63.76   10.65 
   4   5  -5   53.04    8.90 
   4   5  -4  541.43   67.63 
   4   5  -3    0.41    1.40 
   4   5  -3   -2.39    2.05 
  -4  -5   3   -1.37    2.75 
   4   5  -2   18.11    2.86 
   4   5  -2   19.55    3.19 
  -4  -5   2   21.11    3.97 
   4   5  -1  141.47   15.83 
   4   5  -1  126.55   14.62 
   4   5  -1  174.21   19.70 
  -4  -5   1  159.77   18.87 
   4   5   0   76.36    8.31 
   4   5   0   70.30    8.04 
   4   5   0   80.33    8.86 
  -4  -5   0   77.39    8.84 
   4   5   1    1.47    1.28 
   4   5   1    2.79    1.54 
   4   5   1    5.06    1.90 
  -4  -5  -1    3.02    2.11 
   4   5   2  330.77   35.30 
   4   5   2  271.23   28.04 
  -4  -5  -2  265.86   27.32 
  -4  -5  -2  310.37   31.97 
   4   5   3  153.14   16.55 
   4   5   3  151.92   16.06 
   4   5   3  119.21   12.71 
  -4  -5  -3  159.74   16.73 
   4   5   4 1090.04  115.51 
   4   5   4  748.05   76.91 
   4   5   4  996.15  101.40 
  -4  -5  -4  965.70   98.35 
   4   5   5   90.55   14.05 
   4   5   5   79.44   12.22 
   4   5   5   89.61   13.76 
  -4  -5  -5   82.93   12.81 
  -4  -5  -5   66.88   10.33 
   4   5   6 3493.29  383.42 
  -4  -5  -6 3718.38  410.04 
  -4  -5  -6 4154.80  591.34 
   4   5   7  343.92   53.50 
   4   5   7  293.37   45.43 
  -4  -5  -7  317.70   49.15 
  -4  -5  -7  346.68   53.49 
   4   5   8  258.84   27.63 
  -4  -5  -8  251.57   26.48 
   4   5   9   -1.30    2.46 
  -4  -5  -9    1.28    1.64 
   4   5  10   11.93    4.32 
  -4  -5 -10    8.49    2.94 
   4   5  11   62.68   10.69 
  -4  -5 -11   46.45    7.89 
   4   5  12   15.57    4.62 
  -4  -5 -12    6.65    3.37 
   4   6  -5   30.08    3.94 
  -4  -6   5   12.24    6.92 
   4   6  -4  263.76   35.39 
  -4  -6   4  191.89   26.15 
   4   6  -3  736.58   91.85 
  -4  -6   3  572.33   72.54 
   4   6  -2   86.67   10.78 
  -4  -6   2   88.55   11.67 
   4   6  -1  209.52   22.02 
   4   6  -1  216.64   22.85 
   4   6  -1  241.65   25.49 
  -4  -6   1  210.16   24.14 
   4   6   0  232.44   35.91 
   4   6   0  206.15   32.01 
   4   6   0  270.76   41.97 
  -4  -6   0  230.91   36.56 
   4   6   1  294.02   32.61 
   4   6   1  318.37   36.55 
   4   6   1  342.36   38.08 
  -4  -6  -1  312.84   35.36 
   4   6   2  117.50   17.74 
   4   6   2   91.83   13.97 
  -4  -6  -2   95.28   14.75 
   4   6   3  547.00   82.12 
   4   6   3  465.68   69.33 
  -4  -6  -3  399.04   59.71 
   4   6   4   40.67    6.72 
   4   6   4   49.12    7.83 
  -4  -6  -4   48.25    7.78 
   4   6   5  135.86   15.82 
   4   6   5  113.78   13.00 
  -4  -6  -5  133.87   15.55 
   4   6   6   77.67    8.92 
   4   6   6   76.07    8.48 
  -4  -6  -6   70.88    7.95 
   4   6   7  143.89   22.43 
  -4  -6  -7  148.40   23.04 
  -4  -6  -7  147.81   23.06 
   4   6   8   15.85    3.44 
   4   6   8   12.46    2.55 
  -4  -6  -8   16.70    2.89 
   4   6   9   26.82    5.26 
  -4  -6  -9   21.02    3.94 
   4   6  10  239.05   30.35 
  -4  -6 -10  206.78   26.05 
   4   6  11  171.10   27.70 
  -4  -6 -11  167.15   26.93 
   4   6  12   19.32    5.56 
  -4  -6 -12    3.00    2.27 
   4   7  -4    4.79    3.33 
  -4  -7   4    6.39    4.31 
   4   7  -3   18.53    5.29 
  -4  -7   3   13.63    4.71 
  -4  -7   2  541.90   69.18 
   4   7  -1    7.17    2.56 
  -4  -7   1   -5.75    2.69 
   4   7   0   34.25    5.03 
   4   7   0   39.39    5.77 
  -4  -7   0   42.35    6.60 
   4   7   1   -0.68    1.34 
   4   7   1    3.33    1.89 
   4   7   1    0.58    1.90 
  -4  -7  -1    6.96    2.67 
   4   7   2  889.99  137.06 
   4   7   2  767.86  117.99 
  -4  -7  -2  612.61   96.59 
   4   7   3    5.75    1.87 
   4   7   3    8.22    2.22 
  -4  -7  -3    8.97    2.63 
   4   7   4  411.65   45.75 
   4   7   4  332.70   36.89 
  -4  -7  -4  343.40   39.25 
   4   7   5 1164.52  180.51 
   4   7   5  863.63  133.07 
  -4  -7  -5  907.02  140.96 
   4   7   6  105.81   16.76 
   4   7   6   90.46   14.34 
  -4  -7  -6   97.20   15.41 
   4   7   7   50.20   13.05 
   4   7   7   45.73    6.58 
  -4  -7  -7   51.34   13.27 
   4   7   8  401.87   48.50 
  -4  -7  -8  415.23   50.02 
   4   7   9   24.48    5.15 
  -4  -7  -9   18.92    3.68 
   4   7  10    5.26    3.40 
  -4  -7 -10   -4.14    1.70 
   4   7  11   72.55    7.84 
  -4  -7 -11   69.90    6.98 
   4   8  -3   78.33    7.78 
  -4  -8   3   75.94    7.96 
   4   8  -2   32.29    5.85 
  -4  -8   2   39.71    7.21 
  -4  -8   1    4.64    3.15 
   4   8   0    0.59    1.70 
   4   8   0   -0.58    2.03 
  -4  -8   0   -1.48    2.71 
   4   8   1  166.69   20.49 
   4   8   1  202.85   24.89 
  -4  -8  -1  173.01   22.87 
   4   8   2  406.93   44.28 
   4   8   2  545.65   56.81 
  -4  -8  -2  446.79   50.78 
   4   8   3   32.34    4.85 
   4   8   3   22.59    3.82 
  -4  -8  -3   20.52    3.88 
   4   8   4   22.93    3.77 
   4   8   4   26.19    4.26 
  -4  -8  -4   28.36    4.62 
   4   8   5  489.57   51.49 
   4   8   5  467.28   48.97 
  -4  -8  -5  494.49   52.12 
   4   8   6   44.45    6.59 
   4   8   6   37.58    5.61 
  -4  -8  -6   46.74    6.74 
   4   8   7    3.47    2.54 
   4   8   7   12.90    4.05 
  -4  -8  -7    6.89    2.77 
   4   8   8   24.69    4.88 
   4   8   8   22.09    4.25 
  -4  -8  -8   21.63    4.11 
  -4  -8  -9  259.95   32.62 
   4   8  10   61.58   10.56 
  -4  -8 -10   48.23    8.06 
   4   8  11   17.60    3.51 
  -4  -8 -11   14.41    5.98 
   4   9  -2   34.43    8.20 
  -4  -9   2   28.28    7.22 
  -4  -9   1   12.48    6.80 
   4   9   0  304.85   40.88 
  -4  -9   0  227.58   32.69 
   4   9   1  124.87   15.92 
   4   9   1  175.01   22.17 
  -4  -9  -1  118.69   16.98 
   4   9   2   68.15   17.31 
   4   9   2  109.36   27.33 
  -4  -9  -2   82.99   21.33 
   4   9   3    3.43    2.15 
   4   9   3   -1.55    2.06 
  -4  -9  -3    2.17    2.65 
   4   9   4 2388.20  383.66 
   4   9   4 1555.62  250.03 
  -4  -9  -4 1978.22  318.88 
   4   9   5  154.17   18.88 
   4   9   5  131.53   16.28 
  -4  -9  -5  150.41   18.52 
   4   9   6  332.29   82.87 
   4   9   6  307.14   76.31 
  -4  -9  -6  344.91   85.64 
   4   9   7    2.97    2.25 
   4   9   7   -0.79    2.06 
  -4  -9  -7    1.84    2.03 
   4   9   8    7.48    3.20 
   4   9   8   14.36    4.39 
  -4  -9  -8    8.30    3.00 
   4   9   9    7.40    3.34 
  -4  -9  -9    6.89    2.72 
  -4  -9 -10  153.69   14.33 
  -4  -9 -11   -2.47    1.83 
  -4 -10   1   10.33    5.25 
  -4 -10   0    5.15    4.16 
   4  10   1   30.28    5.72 
  -4 -10  -1   21.39    5.00 
   4  10   2   87.47   12.19 
   4  10   2  116.42   16.00 
  -4 -10  -2   98.89   14.32 
   4  10   3    3.44    2.19 
   4  10   3    2.44    2.44 
   4  10   4  114.40   14.65 
   4  10   4   86.24   11.31 
  -4 -10  -4  117.54   15.12 
   4  10   5   22.78    6.33 
   4  10   5    9.96    3.59 
  -4 -10  -5   23.46    6.60 
   4  10   6   80.85   10.68 
   4  10   6   88.96   11.66 
  -4 -10  -6  104.56   13.47 
   4  10   7   -2.28    2.34 
   4  10   7   -0.07    2.14 
  -4 -10  -7    1.73    2.30 
   4  10   8   -0.73    2.49 
   4  10   8    2.10    2.33 
  -4 -10  -8    5.74    3.12 
   4  10   9   35.55    4.62 
  -4 -10  -9   41.08    4.56 
   4  10  10   -1.99    2.77 
  -4 -10 -10    8.80    4.05 
   4  11   1   38.09    9.09 
  -4 -11  -1   15.38    5.13 
   4  11   2  190.72   17.77 
  -4 -11  -2  167.31   17.95 
   4  11   3   70.60    6.99 
   4  11   3   60.13    6.46 
  -4 -11  -3   51.46    5.85 
   4  11   4   19.26    3.93 
   4  11   4   10.76    5.17 
  -4 -11  -4   32.75    6.05 
   4  11   5   10.10    4.73 
   4  11   5    9.02    4.50 
  -4 -11  -5    9.41    4.68 
   4  11   6  176.98   28.63 
   4  11   6  154.03   24.90 
  -4 -11  -6  209.56   33.64 
   4  11   7   13.10    5.79 
   4  11   7   28.51    3.75 
  -4 -11  -7   19.30    3.23 
   4  11   8   13.07    5.70 
   4  11   8    9.07    5.08 
  -4 -11  -8    7.40    4.36 
   4  11   9   51.64   12.03 
  -4 -11  -9   52.31   12.01 
   4  12   5   47.81   11.02 
   4  12   5   34.44    8.18 
  -4 -12  -5   56.08   12.96 
   5  -5  -4    5.18    2.90 
  -5   5   4    0.24    2.12 
   5  -5  -3    8.26    3.67 
  -5   5   3   16.51    4.46 
   5  -5  -2   10.02    5.41 
  -5   5   2    3.49    2.98 
   5  -5  -1   45.99    4.81 
   5  -5   0  204.12   19.07 
  -5   5   0  226.18   87.95 
   5  -5   1   68.16    7.72 
  -5   5  -1   53.45    6.14 
   5  -5   2   -1.30    1.99 
  -5   5  -2    3.86    2.90 
  -5   4   5    0.67    2.09 
   5  -4  -4   23.28    3.00 
  -5   4   4   24.34    3.27 
   5  -4  -3    0.32    2.00 
  -5   4   3    1.37    1.91 
   5  -4  -2    3.22    2.24 
  -5   4   2    4.19    2.77 
   5  -4  -1   17.58    4.99 
  -5   4   1   31.66    5.01 
   5  -4   0   -0.91    1.95 
   5  -4   1   31.14    5.47 
  -5   4  -1   36.21    6.41 
   5  -4   2   15.40    3.38 
  -5   4  -2   12.25    6.54 
   5  -4   3    4.01    3.05 
   5  -4   3    3.18    2.44 
   5  -4   4   99.64    9.83 
   5  -4   4   83.73    8.20 
  -5   3   5   30.59    3.81 
   5  -3  -4   20.46    4.00 
  -5   3   4   18.80    3.89 
   5  -3  -3    8.16    2.89 
  -5   3   3   10.76    3.50 
   5  -3  -2   33.57    4.85 
  -5   3   2   39.78    5.73 
   5  -3  -1   95.14   12.29 
  -5   3   1  103.43   13.44 
   5  -3   0    1.80    2.46 
  -5   3   0    9.11    3.33 
   5  -3   1   12.72    3.79 
   5  -3   2    0.04    1.91 
  -5   3  -2   -5.00    1.92 
   5  -3   3    1.59    2.20 
   5  -3   3    4.46    2.02 
   5  -3   4   70.76   11.79 
   5  -3   4   65.37   10.83 
   5  -3   5   44.21    5.01 
   5  -3   6   38.29    9.04 
   5  -2  -6    0.03    1.91 
  -5   2   6   -3.13    1.92 
  -5   2   5    4.12    2.90 
  -5   2   4    1.22    1.93 
   5  -2  -3    9.13    3.02 
  -5   2   3   12.02    3.75 
   5  -2  -2   27.84    5.01 
  -5   2   2   29.15    5.26 
   5  -2  -1   32.15    5.73 
  -5   2   1   42.10   10.76 
   5  -2   0   -2.61    1.93 
  -5   2   0    2.71    2.15 
   5  -2   1    1.92    1.75 
  -5   2  -1    3.56    2.31 
   5  -2   2  145.24   36.22 
   5  -2   3  187.34   46.76 
   5  -2   3  155.47   38.79 
   5  -2   4    2.29    2.21 
   5  -2   4   -0.85    1.70 
   5  -2   5  124.67   17.12 
   5  -2   5   94.52   13.02 
   5  -2   6   -0.83    2.10 
   5  -2   7   -3.43    2.32 
   5  -1  -6   45.83   10.57 
  -5   1   6   54.88   12.59 
   5  -1  -5    5.01    2.62 
  -5   1   5   -1.00    2.04 
  -5   1   4    3.39    1.98 
   5  -1  -3    3.07    1.88 
  -5   1   3   -0.66    1.89 
   5  -1  -2   38.52    9.83 
  -5   1   2   39.55   10.13 
   5  -1  -1    8.84    3.00 
  -5   1   1    9.34    3.20 
   5  -1   0  240.18   29.34 
  -5   1   0  284.87   34.61 
  -5   1  -1   -0.82    1.98 
   5  -1   2   -4.13    1.49 
  -5   1  -2    4.06    2.35 
   5  -1   3  288.88   35.28 
   5  -1   3  288.08   34.98 
   5  -1   4    0.37    2.12 
   5  -1   5  201.18   25.59 
   5  -1   5  158.89   20.22 
   5  -1   6   32.76    5.13 
   5  -1   7   26.26    5.05 
   5  -1   8    5.81    3.54 
   5   0  -6   25.18    6.09 
  -5   0   6   29.59    6.99 
   5   0  -5    3.23    1.99 
  -5   0   5    1.72    1.85 
  -5   0   4   20.64    5.82 
   5   0  -3    2.47    1.68 
  -5   0   3   -0.28    1.75 
   5   0  -2    8.81    2.90 
  -5   0   2   18.07    5.11 
   5   0  -1    2.83    1.65 
  -5   0   1    5.88    2.18 
   5   0   0  137.37   14.76 
  -5   0   0  148.98   15.95 
   5   0   1  101.23   11.12 
  -5   0  -1  119.64   12.99 
   5   0   2   42.67    6.18 
   5   0   2   41.18    5.88 
   5   0   3    1.04    1.80 
   5   0   3    0.51    1.47 
   5   0   4   49.70    6.64 
   5   0   4   53.27    6.84 
   5   0   5   26.70    7.14 
   5   0   5   21.03    5.64 
   5   0   6   38.67    5.54 
   5   0   7   20.57    5.86 
   5   0   8   -4.99    2.18 
   5   0   9   48.79   11.40 
   5   1  -6   -3.00    1.87 
   5   1  -5    7.79    3.69 
  -5  -1   5   -3.50    1.70 
  -5  -1   4   10.84    3.37 
   5   1  -3   36.03    9.23 
  -5  -1   3   37.79    9.70 
   5   1  -2    0.91    1.59 
  -5  -1   2   -1.41    1.72 
  -5  -1   2   -3.17    1.77 
   5   1  -1  236.43   25.05 
  -5  -1   1  268.72   28.34 
  -5  -1   1  211.69   22.49 
   5   1   0  125.17   19.55 
  -5  -1   0  133.13   20.82 
  -5  -1   0  148.89   23.12 
   5   1   1   14.58    2.96 
   5   1   1   12.16    2.53 
   5   1   2   33.24    5.13 
   5   1   3   10.47    2.45 
   5   1   3   10.09    2.19 
   5   1   4   39.38    5.72 
   5   1   4   42.95    6.10 
   5   1   5  259.29   31.67 
   5   1   5  240.98   29.23 
   5   1   6  168.27   41.97 
   5   1   6  134.24   33.45 
   5   1   7  322.46   40.89 
   5   1   8   53.24    7.77 
   5   1   9   20.69    3.45 
   5   2  -6   -2.43    1.97 
   5   2  -6    2.93    2.07 
   5   2  -5   -0.01    1.85 
   5   2  -5   -0.51    1.37 
   5   2  -4  153.48   20.73 
   5   2  -4  163.82   22.18 
  -5  -2   4  160.61   21.65 
   5   2  -3    3.16    1.54 
  -5  -2   3    2.21    1.59 
   5   2  -2  184.25   22.51 
  -5  -2   2  171.94   20.98 
  -5  -2   2  166.19   20.43 
   5   2  -1   62.59    7.05 
  -5  -2   1   52.63    6.10 
  -5  -2   1   49.03    7.17 
   5   2   0   60.17    9.67 
   5   2   0   52.50    8.41 
  -5  -2   0   38.83    5.85 
  -5  -2   0   40.52    6.42 
   5   2   1    6.12    1.97 
   5   2   1    9.70    2.13 
  -5  -2  -1    3.77    1.30 
  -5  -2  -1    5.22    2.13 
   5   2   2   23.40    4.11 
   5   2   2   28.52    4.51 
   5   2   3   21.36    3.62 
   5   2   4  132.37   20.61 
   5   2   5  143.17   15.64 
   5   2   5  122.23   13.11 
  -5  -2  -5  110.35   11.88 
   5   2   6   55.44    7.33 
   5   2   6   48.02    6.17 
  -5  -2  -6   45.95    5.90 
   5   2   7    2.69    2.11 
  -5  -2  -7    1.01    1.28 
   5   2   8    2.17    2.24 
  -5  -2  -8   -0.09    1.28 
   5   2   9    0.73    2.49 
   5   2  10   12.26    5.46 
   5   3  -5   -3.57    1.96 
   5   3  -5    1.33    1.74 
   5   3  -4    8.05    2.74 
   5   3  -4   13.96    4.24 
   5   3  -4   15.32    4.40 
   5   3  -3   -0.46    1.60 
  -5  -3   3    3.26    2.41 
   5   3  -2   60.25    7.79 
   5   3  -2   56.73    7.34 
  -5  -3   2   49.77    6.73 
   5   3  -1   -1.20    1.80 
   5   3  -1    1.33    1.33 
  -5  -3   1   -2.80    2.17 
   5   3   0    1.66    1.92 
   5   3   0    0.12    1.55 
  -5  -3   0    0.94    1.17 
  -5  -3   0    4.81    2.15 
   5   3   1    0.15    1.73 
   5   3   1    4.54    1.71 
  -5  -3  -1   -0.70    1.07 
  -5  -3  -1   -2.28    1.94 
   5   3   2    4.38    1.88 
   5   3   2   12.25    2.46 
  -5  -3  -2    7.78    1.76 
  -5  -3  -2    5.43    1.96 
   5   3   3  704.06  110.28 
   5   3   3  698.39  107.62 
  -5  -3  -3  715.14  109.93 
  -5  -3  -3  669.33  102.89 
   5   3   4  297.57   45.98 
  -5  -3  -4  243.36   37.64 
  -5  -3  -4  294.88   45.48 
   5   3   5   -2.81    1.28 
  -5  -3  -5   -1.69    1.12 
   5   3   6    4.71    2.31 
   5   3   6    4.40    1.63 
  -5  -3  -6   10.69    2.07 
   5   3   7   32.62    8.81 
  -5  -3  -7   31.75    5.50 
   5   3   8   -1.79    2.31 
  -5  -3  -8    0.14    1.39 
   5   3   9    9.81    4.72 
  -5  -3  -9    6.94    3.24 
   5   3  10    2.58    2.96 
  -5  -3 -10    2.06    1.79 
   5   4  -5    8.65    4.15 
   5   4  -4    3.75    2.14 
   5   4  -4   13.66    3.21 
  -5  -4   4   10.56    4.99 
   5   4  -3   39.72    5.45 
  -5  -4   3   45.65    6.59 
   5   4  -2   44.29   11.26 
   5   4  -2   56.27   14.18 
  -5  -4   2   55.25   14.10 
   5   4  -1   -1.48    1.54 
   5   4  -1   -3.12    1.74 
  -5  -4   1   -2.83    2.05 
   5   4   0  148.65   16.16 
   5   4   0  164.53   17.47 
  -5  -4   0  131.92   14.32 
   5   4   1   55.83    9.07 
   5   4   1   69.72   11.04 
  -5  -4  -1   54.29    8.67 
  -5  -4  -1   46.95    7.79 
   5   4   2  356.55   55.76 
   5   4   2  373.22   57.58 
  -5  -4  -2  290.15   44.81 
  -5  -4  -2  319.25   49.36 
   5   4   3   88.73   14.21 
   5   4   3   88.07   13.86 
  -5  -4  -3   82.12   12.93 
  -5  -4  -3   93.58   14.75 
   5   4   4 2419.40  377.22 
   5   4   4 2464.20  379.10 
  -5  -4  -4 2342.18  359.51 
  -5  -4  -4 2702.29  414.73 
   5   4   5  422.38   44.15 
  -5  -4  -5  445.92   46.58 
   5   4   6  240.15   25.31 
  -5  -4  -6  266.22   27.94 
   5   4   7   -1.12    2.06 
  -5  -4  -7    7.89    2.51 
   5   4   8   24.06    6.82 
  -5  -4  -8   22.03    5.98 
   5   4   9   44.25    6.79 
  -5  -4  -9   46.16    6.58 
   5   4  10   26.70    3.89 
  -5  -4 -10   19.30    2.68 
   5   5  -4   54.61    5.88 
  -5  -5   4   49.45    5.69 
   5   5  -3   53.48    7.54 
  -5  -5   3   56.82    8.41 
   5   5  -2   41.18    5.65 
  -5  -5   2   39.68    5.89 
   5   5  -1   88.78   22.29 
   5   5  -1  123.60   30.81 
  -5  -5   1  111.66   27.95 
   5   5   0   45.90    6.08 
   5   5   0   54.97    7.15 
  -5  -5   0   46.13    6.32 
   5   5   1  180.23   19.86 
   5   5   1  210.03   22.25 
  -5  -5  -1  194.92   20.78 
   5   5   2    2.83    1.89 
   5   5   2    3.53    1.80 
  -5  -5  -2    3.96    1.54 
  -5  -5  -2    4.27    2.28 
   5   5   3   41.18    6.49 
   5   5   3   43.17    6.72 
  -5  -5  -3   39.68    6.06 
  -5  -5  -3   51.50    8.47 
   5   5   4   11.22    2.73 
   5   5   4   10.70    2.43 
  -5  -5  -4   11.08    2.16 
  -5  -5  -4   14.07    2.95 
   5   5   5  159.78   17.38 
   5   5   5  158.40   16.94 
  -5  -5  -5  159.52   16.98 
   5   5   6    0.26    1.89 
  -5  -5  -6    2.86    1.56 
   5   5   7   39.39    5.31 
  -5  -5  -7   49.16    6.39 
   5   5   8  286.49   36.14 
  -5  -5  -8  297.41   37.23 
   5   5   9  169.01   22.94 
  -5  -5  -9  168.52   22.70 
   5   5  10   10.88    6.16 
  -5  -5 -10   14.17    5.84 
   5   5  11   92.00   20.94 
  -5  -5 -11   66.04   15.03 
   5   6  -4  255.47   57.20 
  -5  -6   4  187.78   42.24 
   5   6  -3    6.92    4.22 
  -5  -6   3    5.25    3.79 
   5   6  -2    8.93    2.90 
  -5  -6   2    4.24    2.85 
   5   6  -1    2.18    1.73 
   5   6  -1    3.23    1.98 
  -5  -6   1    4.67    2.74 
   5   6   0  196.72   49.11 
   5   6   0  280.69   69.71 
  -5  -6   0  244.63   60.86 
   5   6   1    6.29    2.30 
   5   6   1    9.64    3.20 
  -5  -6  -1    8.43    3.41 
   5   6   2  143.11   15.73 
   5   6   2  157.46   16.85 
  -5  -6  -2  162.21   17.44 
   5   6   3  576.86   63.28 
   5   6   3  603.35   63.37 
  -5  -6  -3  646.17   67.37 
   5   6   4  125.98   14.20 
   5   6   4  121.98   13.35 
  -5  -6  -4  138.57   14.92 
   5   6   5   40.57    6.14 
   5   6   5   46.79    6.65 
  -5  -6  -5   41.35    6.03 
   5   6   6  463.29   57.77 
   5   6   6  493.58   59.40 
  -5  -6  -6  499.27   60.39 
   5   6   7   14.65    3.13 
  -5  -6  -7   15.16    3.21 
  -5  -6  -8   -1.90    1.62 
   5   6   9  154.02   21.00 
  -5  -6  -9  136.32   18.44 
   5   6  10   51.60    6.09 
  -5  -6 -10   41.85    4.53 
   5   6  11   -2.57    2.97 
  -5  -6 -11    3.72    2.39 
   5   7  -3   17.39    4.71 
  -5  -7   3    6.23    4.06 
  -5  -7   2    4.79    3.64 
   5   7  -1  167.55   22.65 
  -5  -7   1  123.46   17.30 
   5   7   0  233.86   29.45 
   5   7   0  269.05   33.83 
  -5  -7   0  226.84   29.00 
   5   7   1   23.07    4.36 
   5   7   1   24.33    4.63 
  -5  -7  -1   20.19    4.33 
   5   7   2    3.57    2.03 
   5   7   2    0.64    2.13 
  -5  -7  -2    0.70    2.56 
   5   7   3  216.58   26.72 
   5   7   3  233.09   28.37 
  -5  -7  -3  212.12   25.89 
   5   7   4    8.59    3.03 
   5   7   4   17.76    5.03 
  -5  -7  -4   12.23    3.81 
   5   7   5    0.28    2.18 
   5   7   5    2.06    1.87 
  -5  -7  -5    6.54    2.80 
   5   7   6    1.17    2.05 
   5   7   6    1.65    1.92 
  -5  -7  -6   -0.63    1.81 
   5   7   7  372.37   92.65 
   5   7   7  346.79   86.03 
  -5  -7  -7  373.53   92.75 
   5   7   8   33.65    5.12 
  -5  -7  -8   46.37    6.35 
  -5  -7  -9   22.19    4.15 
   5   7  10    2.06    3.12 
  -5  -7 -10    8.53    4.70 
  -5  -8   2   82.76   19.04 
   5   8  -1   57.54    6.01 
  -5  -8   1   40.62    5.23 
   5   8   0   54.13    9.17 
  -5  -8   0   40.46    7.63 
   5   8   1    0.75    1.89 
   5   8   1    3.14    2.11 
  -5  -8  -1    2.10    2.62 
   5   8   2  712.82   90.56 
   5   8   2  820.42  102.46 
  -5  -8  -2  700.00   89.16 
   5   8   3   30.77    5.54 
   5   8   3   33.37    8.67 
  -5  -8  -3   35.68    9.29 
   5   8   4  269.08   67.14 
   5   8   4  267.60   66.48 
  -5  -8  -4  228.14   56.88 
   5   8   5   10.15    2.88 
   5   8   5   17.07    3.66 
  -5  -8  -5   15.65    3.63 
   5   8   6   34.09    5.24 
   5   8   6   34.49    5.08 
  -5  -8  -6   37.31    5.42 
   5   8   7    8.20    3.33 
   5   8   7    5.32    2.46 
  -5  -8  -7   10.31    3.55 
   5   8   8  320.26   43.05 
  -5  -8  -8  307.00   41.11 
   5   8   9   -3.83    2.68 
  -5  -8  -9    0.46    1.99 
  -5  -8 -10    3.53    2.35 
   5   9   0   58.70    6.26 
  -5  -9   0   60.29    7.00 
   5   9   1   -0.90    2.06 
  -5  -9  -1    0.66    2.90 
   5   9   2   27.53    5.15 
   5   9   2   47.62    8.09 
  -5  -9  -2   33.74    6.38 
   5   9   3   11.13    3.66 
   5   9   3   19.14    5.50 
  -5  -9  -3   16.24    5.01 
   5   9   4   99.27   13.73 
   5   9   4   80.61   11.22 
  -5  -9  -4   99.77   13.88 
   5   9   5    1.73    2.09 
   5   9   5    0.23    2.20 
  -5  -9  -5    1.05    2.41 
   5   9   6   11.94    3.89 
   5   9   6    7.63    3.04 
  -5  -9  -6   11.39    3.74 
   5   9   7   43.29    7.57 
   5   9   7   59.27    9.94 
  -5  -9  -7   50.63    8.63 
   5   9   8    3.75    3.06 
   5   9   8    3.14    2.56 
  -5  -9  -8    6.41    3.32 
   5   9   9   -2.79    2.76 
  -5  -9  -9   -1.60    1.97 
   5   9  10  230.32   51.66 
  -5  -9 -10  208.86   46.75 
   5  10   1   17.45    4.69 
  -5 -10  -1   12.37    5.86 
   5  10   2    6.65    4.13 
  -5 -10  -2    5.06    3.90 
   5  10   3    4.48    3.05 
   5  10   3    4.73    3.33 
  -5 -10  -3   14.43    6.26 
   5  10   4  183.52   17.30 
   5  10   4  171.78   16.08 
  -5 -10  -4  113.48   11.28 
   5  10   5   19.27    3.96 
   5  10   5   18.28    3.93 
  -5 -10  -5    8.83    4.39 
   5  10   6    8.75    4.97 
   5  10   6   12.75    6.81 
  -5 -10  -6    4.05    3.14 
   5  10   7  124.09   12.12 
   5  10   7  104.52   10.21 
  -5 -10  -7  117.01   11.40 
   5  10   8   32.80    7.94 
   5  10   8   25.00    6.16 
  -5 -10  -8   21.29    5.45 
   5  10   9  271.59   60.84 
  -5 -10  -9  284.11   63.52 
   5  11   4   92.80   20.98 
   5  11   4   88.05   19.94 
  -5 -11  -4   74.74   17.08 
   5  11   5   40.93    9.59 
   5  11   5   20.47    5.39 
  -5 -11  -5   31.90    7.69 
   5  11   6   16.30    4.42 
   5  11   6   11.96    5.39 
  -5 -11  -6   15.89    4.48 
   6  -3  -1    1.47    2.16 
   6  -3   0   37.96    8.92 
  -6   3   0   41.66    9.76 
   6  -3   1   99.85   22.57 
   6  -2  -2   69.27   15.76 
  -6   2   2   71.10   16.14 
   6  -2  -1    1.76    2.65 
  -6   2   1    1.27    2.33 
   6  -2   0    1.37    2.07 
  -6   2   0   -1.65    2.02 
   6  -2   1  134.84   12.82 
  -6   2  -1  147.96   14.14 
   6  -2   2    5.38    4.07 
   6  -2   3   94.40   21.43 
   6  -2   3   94.41   21.34 
   6  -2   4   16.59    4.67 
   6  -2   4   23.54    5.85 
   6  -1  -3    4.82    2.74 
  -6   1   3    5.02    2.90 
   6  -1  -2   37.78    4.25 
  -6   1   2   44.71    5.10 
   6  -1  -1   32.22    5.73 
  -6   1   1   31.25    5.64 
   6  -1   0   10.15    4.76 
  -6   1   0   17.76    3.76 
   6  -1   1   -6.08    1.83 
  -6   1  -1    0.30    2.17 
   6  -1   2   30.04    5.58 
   6  -1   2   31.76    5.56 
   6  -1   3   16.30    3.66 
   6  -1   3   13.78    3.02 
   6  -1   4   15.57    2.88 
   6  -1   4   13.86    5.76 
   6  -1   5    5.87    3.27 
   6   0  -3   67.28    6.80 
  -6   0   3   72.12    7.24 
   6   0  -2   39.57    4.34 
  -6   0   2   32.67    3.96 
   6   0  -1   15.51    3.24 
  -6   0   1    9.61    4.48 
   6   0   0    7.55    2.65 
  -6   0   0   11.07    3.57 
   6   0   1    3.45    2.39 
   6   0   1   -0.95    1.77 
   6   0   2    6.78    2.56 
   6   0   3  150.97   20.56 
   6   0   3  120.99   16.56 
   6   0   4  104.87   17.13 
   6   0   4   93.56   15.28 
   6   0   5  178.37   29.00 
   6   0   6   30.95    3.93 
   6   1  -3   16.76    2.53 
  -6  -1   3    5.84    3.54 
   6   1  -2   17.37    3.46 
  -6  -1   2    7.68    3.73 
   6   1  -1   -3.80    1.79 
  -6  -1   1   -0.74    1.89 
   6   1   0   27.43    4.46 
   6   1   0   16.87    4.79 
   6   1   1    1.50    2.04 
   6   1   1    1.94    1.88 
   6   1   2   43.69    6.17 
   6   1   2   42.40    5.81 
   6   1   3   63.95    8.44 
   6   1   4   39.60    6.02 
   6   1   4   26.53    4.18 
   6   1   5    3.45    2.65 
   6   1   5    2.88    2.03 
   6   1   6    1.31    2.37 
   6   1   7   -1.04    1.92 
   6   2  -3    1.09    2.05 
   6   2  -2    1.40    2.02 
   6   2  -2   -0.98    1.84 
   6   2  -1    0.17    1.94 
   6   2  -1    2.22    1.85 
   6   2   0    4.73    2.39 
   6   2   0    4.97    2.24 
   6   2   1  247.77   31.28 
   6   2   1  213.51   26.99 
   6   2   2  116.90   15.06 
   6   2   2   96.27   12.47 
   6   2   3    4.67    2.40 
   6   2   3    1.62    1.90 
   6   2   4    1.63    1.66 
   6   2   5   29.70    4.67 
   6   2   5   30.64    4.63 
   6   2   6    5.79    3.20 
   6   2   7   -1.70    2.16 
   6   2   8    1.76    2.58 
   6   3  -3   -1.75    1.77 
   6   3  -2   54.96    9.22 
   6   3  -2   46.56    7.86 
   6   3  -1   18.29    5.18 
   6   3  -1   11.60    3.63 
   6   3   0  109.67   15.02 
   6   3   0   86.98   11.95 
   6   3   1   61.44    8.25 
   6   3   1   57.61    7.66 
   6   3   2 1146.82  294.61 
   6   3   2  990.47  123.50 
   6   3   3  335.19   42.37 
   6   3   3  266.22   33.46 
   6   3   4  153.00   19.53 
   6   3   4  120.53   15.36 
   6   3   5    9.92    3.09 
   6   3   6   11.02    3.57 
   6   3   7   13.29    3.24 
   6   3   8   18.83    3.08 
   6   4  -3   34.79    8.12 
  -6  -4   3   38.76    9.18 
   6   4  -2   15.19    2.48 
   6   4  -2   20.60    3.05 
  -6  -4   2   11.21    6.09 
   6   4  -1   50.45    8.48 
   6   4  -1   64.39   10.68 
  -6  -4   1   53.27    9.06 
   6   4   0   -1.59    1.97 
   6   4   0   -3.38    1.83 
   6   4   1   17.45    4.98 
   6   4   1   11.52    3.45 
  -6  -4  -1    7.83    3.01 
   6   4   2   -3.44    1.85 
   6   4   2   -1.24    1.69 
   6   4   3   74.94    9.92 
   6   4   3   86.19   11.13 
   6   4   4   -0.26    2.10 
   6   4   4    0.07    1.75 
   6   4   5   35.14    5.11 
   6   4   5   40.06    5.55 
   6   4   6  185.81   25.00 
   6   4   7   81.42   13.55 
   6   4   8   25.92    3.66 
   6   4   9   41.64    9.77 
   6   5  -2   80.28   18.14 
   6   5  -2  105.39   23.77 
  -6  -5   2   68.51   15.72 
   6   5  -1    4.50    2.87 
   6   5  -1    3.47    2.80 
  -6  -5   1    5.96    3.74 
   6   5   0   61.75   10.23 
   6   5   0   55.35    9.32 
  -6  -5   0   51.17    8.72 
   6   5   1  218.61   29.58 
   6   5   1  246.65   33.04 
  -6  -5  -1  210.24   28.37 
   6   5   2  108.32   13.97 
   6   5   2  106.52   13.69 
  -6  -5  -2   92.57   12.15 
   6   5   3   24.76    6.81 
   6   5   3   32.36    8.66 
  -6  -5  -3   23.08    6.36 
   6   5   4  347.20   44.23 
   6   5   4  358.64   44.91 
  -6  -5  -4  357.23   44.66 
   6   5   5    9.94    3.46 
   6   5   5   11.55    3.63 
  -6  -5  -5   13.12    3.75 
   6   5   6   -0.10    2.25 
   6   5   6    3.65    2.14 
   6   5   8   16.20    2.83 
   6   5   9   -0.77    2.60 
   6   6  -1   16.36    2.53 
   6   6  -1   21.08    3.16 
  -6  -6   1   12.65    6.93 
   6   6   0   -2.49    1.77 
   6   6   0   -1.81    2.08 
  -6  -6   0    5.33    3.32 
   6   6   1   48.08    8.16 
   6   6   1   68.11   11.25 
  -6  -6  -1   46.00    7.95 
   6   6   2    2.65    1.95 
   6   6   2   -3.34    1.87 
  -6  -6  -2    4.00    2.43 
   6   6   3    2.52    1.98 
   6   6   3   -1.44    1.93 
  -6  -6  -3    0.50    1.87 
   6   6   4    1.49    2.03 
   6   6   4    1.53    2.08 
  -6  -6  -4    5.58    2.48 
   6   6   5  240.87   32.88 
   6   6   5  258.62   34.75 
  -6  -6  -5  266.39   35.65 
   6   6   6   22.07    6.25 
   6   6   6   18.71    5.23 
  -6  -6  -6   15.50    4.37 
   6   6   7   10.67    5.06 
  -6  -6  -7   11.68    5.06 
   6   7   0  307.88  119.59 
   6   7   0  383.09   85.56 
  -6  -7   0  290.71   65.08 
   6   7   1    0.66    1.93 
   6   7   1   -1.01    2.22 
   6   7   2  122.34   19.86 
   6   7   2  150.26   24.28 
  -6  -7  -2  131.92   21.41 
   6   7   3   21.82    4.20 
   6   7   3   33.06    5.87 
  -6  -7  -3   32.37    5.87 
   6   7   4   25.37    4.83 
   6   7   4   33.56    5.96 
  -6  -7  -4   32.79    5.81 
   6   7   5   16.27    3.56 
   6   7   5    8.24    4.00 
  -6  -7  -5   10.57    4.88 
   6   7   6  223.12   36.35 
   6   7   6  234.20   37.57 
  -6  -7  -6  269.34   43.15 
   6   7   7    4.01    2.86 
  -6  -7  -7    5.53    2.90 
   6   7   8    5.58    3.68 
  -6  -7  -8    3.74    2.52 
  -6  -7  -9   16.50    4.18 
   6   8   1    5.34    2.81 
   6   8   1   13.52    5.81 
  -6  -8  -1    7.77    3.90 
   6   8   2   50.21    5.38 
   6   8   2   51.58    5.37 
  -6  -8  -2   51.87    5.79 
   6   8   3    5.96    3.54 
   6   8   3   10.12    5.53 
  -6  -8  -3   10.95    5.91 
   6   8   4    0.90    2.00 
   6   8   4    8.43    3.99 
  -6  -8  -4    3.26    2.62 
   6   8   5   18.46    2.99 
   6   8   5   27.19    3.48 
  -6  -8  -5   24.71    3.40 
   6   8   6    4.75    3.30 
   6   8   6    7.46    4.28 
  -6  -8  -6    6.09    3.74 
   6   8   7   -0.38    2.33 
   6   8   7    1.15    1.97 
  -6  -8  -7   -0.85    1.86 
   6   8   8  196.77   44.31 
  -6  -8  -8  218.36   48.87 
   6   9   3    3.08    2.42 
   6   9   3   11.62    5.04 
  -6  -9  -3    6.20    3.44 
   6   9   4    4.99    2.99 
   6   9   4    7.96    3.82 
  -6  -9  -4   -0.72    2.18 
   6   9   5   90.76   20.60 
   6   9   5   93.35   21.12 
  -6  -9  -5  100.60   22.77 
   6   9   6   10.52    4.78 
   6   9   6   15.18    4.16 
  -6  -9  -6   18.85    4.92 
   6   9   7  219.76   49.72 
   6   9   7  267.44   59.82 
  -6  -9  -7  255.87   57.31 
   7   2   2   63.75   14.77 
   7   2   2   47.74   11.13 
   7   2   3    6.87    3.94 
   7   2   3   10.06    4.46 
   7   3   2   -0.29    2.37 
   7   3   2   -3.83    1.95 
   7   3   3   18.24    4.78 
   7   3   3   23.90    5.79 
   7   3   4   96.82   21.96 
   7   3   4   81.79   18.47 
   7   4   2  177.92   39.93 
   7   4   2  177.58   39.79 
   7   4   3    2.48    2.91 
   7   4   3    7.34    3.70 
   7   4   4    5.98    3.28 
   7   4   4    6.77    3.27 
   7   4   5   63.24   14.51 
   7   4   5   53.83   12.29 
   7   5   3  108.89   24.55 
   7   5   3  118.66   26.68 
   7   5   4    3.05    2.59 
   7   5   4    1.02    1.94 
   7   5   5    7.10    3.63 
   7   5   5    3.84    2.49 
;
_shelx_hkl_checksum              40155
loop_
_space_group_symop_operation_xyz
'x, y, z'
'-x, -y, -z'
loop_
_atom_site_label
_atom_site_type_symbol
_atom_site_fract_x
_atom_site_fract_y
_atom_site_fract_z
_atom_site_U_iso_or_equiv
_atom_site_adp_type
_atom_site_occupancy
_atom_site_site_symmetry_order
_atom_site_calc_flag
O1 O 0.4217(3) 0.42584(19) 0.27799(19) 0.0272(4) Uani 1 1 d
O2 O 0.2959(3) -0.06268(17) 0.43133(17) 0.0235(4) Uani 1 1 d
O3 O -0.0899(3) 0.32230(17) 0.04774(17) 0.0235(4) Uani 1 1 d
O4 O 0.2024(4) 0.6054(2) 0.5583(2) 0.0348(5) Uani 1 1 d
N1 N 0.3716(4) 0.1793(2) 0.3516(2) 0.0222(5) Uani 1 1 d
N2 N 0.0998(4) 0.1287(2) 0.2395(2) 0.0218(5) Uani 1 1 d
N3 N 0.1774(4) 0.3757(2) 0.1550(2) 0.0221(5) Uani 1 1 d
N4 N 0.4913(4) 0.7629(2) 0.1083(2) 0.0259(5) Uani 1 1 d
N5 N 0.7660(4) 0.6971(2) 0.2891(2) 0.0226(5) Uani 1 1 d
N6 N 0.9042(4) 0.7741(2) 0.3198(2) 0.0247(5) Uani 1 1 d
N7 N 0.8622(4) 0.9140(2) 0.2250(2) 0.0244(5) Uani 1 1 d
N8 N 0.7003(4) 0.9347(2) 0.1312(2) 0.0228(5) Uani 1 1 d
C1 C 0.3291(4) 0.3333(3) 0.2621(3) 0.0222(5) Uani 1 1 d
C2 C 0.2580(4) 0.0725(3) 0.3458(2) 0.0210(5) Uani 1 1 d
C3 C 0.0536(4) 0.2788(2) 0.1407(2) 0.0203(5) Uani 1 1 d
C4 C 0.6428(4) 0.7970(3) 0.1738(2) 0.0205(5) Uani 1 1 d
H1 H 0.481(5) 0.145(3) 0.430(3) 0.031(7) Uiso 1 1 d
H2 H 0.141(5) 0.467(4) 0.093(3) 0.032(7) Uiso 1 1 d
H3 H 0.030(5) 0.074(4) 0.233(3) 0.022(6) Uiso 1 1 d
H4 H 0.446(6) 0.672(4) 0.162(4) 0.033(7) Uiso 1 1 d
H5 H 0.403(5) 0.836(3) 0.037(3) 0.018(6) Uiso 1 1 d
H6 H 0.771(6) 0.588(5) 0.349(4) 0.045(9) Uiso 1 1 d
H7 H 0.147(7) 0.670(5) 0.475(4) 0.049(10) Uiso 1 1 d
H8 H 0.332(7) 0.632(5) 0.577(4) 0.055(10) Uiso 1 1 d
loop_
_atom_site_aniso_label
_atom_site_aniso_U_11
_atom_site_aniso_U_22
_atom_site_aniso_U_33
_atom_site_aniso_U_23
_atom_site_aniso_U_13
_atom_site_aniso_U_12
O1 0.0394(9) 0.0178(8) 0.0348(9) -0.0069(7) -0.0154(7) -0.0162(7)
O2 0.0325(9) 0.0125(8) 0.0302(9) -0.0024(6) -0.0123(6) -0.0121(6)
O3 0.0310(9) 0.0170(8) 0.0298(9) -0.0048(7) -0.0138(7) -0.0125(7)
O4 0.0454(11) 0.0187(9) 0.0482(12) 0.0008(8) -0.0252(9) -0.0206(8)
N1 0.0302(10) 0.0157(10) 0.0298(10) -0.0062(8) -0.0138(8) -0.0127(8)
N2 0.0295(10) 0.0157(9) 0.0293(10) -0.0063(8) -0.0125(7) -0.0133(8)
N3 0.0327(10) 0.0121(9) 0.0289(11) -0.0034(8) -0.0146(8) -0.0126(8)
N4 0.0352(11) 0.0181(10) 0.0338(11) -0.0064(8) -0.0119(9) -0.0173(8)
N5 0.0306(10) 0.0145(9) 0.0300(10) -0.0055(8) -0.0109(7) -0.0135(7)
N6 0.0314(10) 0.0179(10) 0.0325(11) -0.0073(8) -0.0118(8) -0.0129(8)
N7 0.0298(10) 0.0184(9) 0.0328(10) -0.0072(8) -0.0110(8) -0.0137(8)
N8 0.0297(10) 0.0152(9) 0.0307(10) -0.0059(8) -0.0107(7) -0.0129(7)
C1 0.0279(10) 0.0172(10) 0.0286(11) -0.0085(9) -0.0090(8) -0.0106(8)
C2 0.0262(10) 0.0176(10) 0.0260(10) -0.0070(8) -0.0072(8) -0.0129(8)
C3 0.0274(10) 0.0147(10) 0.0250(11) -0.0071(8) -0.0062(8) -0.0114(8)
C4 0.0270(11) 0.0157(10) 0.0247(10) -0.0067(8) -0.0054(8) -0.0126(8)
loop_
_atom_type_symbol
_atom_type_description
_atom_type_scat_dispersion_real
_atom_type_scat_dispersion_imag
_atom_type_scat_source
C C 0.0033 0.0016 'International Tables Vol C Tables 4.2.6.8 and 6.1.1.4'
H H 0.0000 0.0000 'International Tables Vol C Tables 4.2.6.8 and 6.1.1.4'
N N 0.0061 0.0033 'International Tables Vol C Tables 4.2.6.8 and 6.1.1.4'
O O 0.0106 0.0060 'International Tables Vol C Tables 4.2.6.8 and 6.1.1.4'
loop_
_geom_angle_atom_site_label_1
_geom_angle_atom_site_label_2
_geom_angle_atom_site_label_3
_geom_angle
H7 O4 H8 112(4)
C1 N1 C2 124.4(2)
C1 N1 H1 117.5(18)
C2 N1 H1 118.0(18)
C2 N2 C3 124.68(19)
C2 N2 H3 119(2)
C3 N2 H3 116(2)
C1 N3 C3 124.58(19)
C1 N3 H2 123(2)
C3 N3 H2 112(2)
C4 N4 H4 114(2)
C4 N4 H5 121.4(19)
H4 N4 H5 122(3)
C4 N5 N6 107.99(18)
C4 N5 H6 133(2)
N6 N5 H6 119(2)
N7 N6 N5 106.31(18)
N6 N7 N8 111.78(17)
C4 N8 N7 105.05(18)
O1 C1 N3 122.7(2)
O1 C1 N1 121.9(2)
N3 C1 N1 115.38(19)
O2 C2 N2 122.71(19)
O2 C2 N1 121.9(2)
N2 C2 N1 115.4(2)
O3 C3 N2 121.67(19)
O3 C3 N3 122.9(2)
N2 C3 N3 115.40(18)
N8 C4 N5 108.88(19)
N8 C4 N4 125.4(2)
N5 C4 N4 125.6(2)
loop_
_geom_bond_atom_site_label_1
_geom_bond_atom_site_label_2
_geom_bond_distance
O1 C1 1.228(3)
O2 C2 1.224(3)
O3 C3 1.221(3)
O4 H7 0.87(4)
O4 H8 0.90(4)
N1 C1 1.372(3)
N1 C2 1.381(3)
N1 H1 0.99(3)
N2 C2 1.365(3)
N2 C3 1.372(3)
N2 H3 0.78(3)
N3 C1 1.367(3)
N3 C3 1.376(3)
N3 H2 0.85(3)
N4 C4 1.350(3)
N4 H4 0.89(4)
N4 H5 0.89(3)
N5 C4 1.339(3)
N5 N6 1.362(2)
N5 H6 0.98(4)
N6 N7 1.288(3)
N7 N8 1.359(3)
N8 C4 1.334(3)
loop_
_geom_hbond_atom_site_label_D
_geom_hbond_atom_site_label_H
_geom_hbond_atom_site_label_A
_geom_hbond_distance_DH
_geom_hbond_distance_HA
_geom_hbond_distance_DA
_geom_hbond_angle_DHA
_geom_hbond_site_symmetry_A
N1 H1 O2 0.99(3) 1.84(3) 2.823(3) 174(3) 2_656
N3 H2 O3 0.85(3) 1.93(3) 2.772(3) 174(3) 2_565
N2 H3 N7 0.78(3) 2.05(4) 2.825(3) 176(3) 1_445
N4 H4 O1 0.89(4) 2.22(4) 3.097(3) 168(3) .
N4 H5 N8 0.89(3) 2.18(3) 3.011(3) 156(2) 2_675
N5 H6 O4 0.98(4) 1.69(4) 2.668(3) 175(3) 2_666
O4 H7 N6 0.87(4) 2.03(4) 2.849(3) 157(3) 1_455
O4 H8 O1 0.90(4) 2.02(4) 2.803(3) 145(3) 2_666
loop_
_geom_torsion_atom_site_label_1
_geom_torsion_atom_site_label_2
_geom_torsion_atom_site_label_3
_geom_torsion_atom_site_label_4
_geom_torsion
C4 N5 N6 N7 -0.1(3)
N5 N6 N7 N8 0.0(3)
N6 N7 N8 C4 0.0(2)
C3 N3 C1 O1 -174.7(2)
C3 N3 C1 N1 5.3(3)
C2 N1 C1 O1 175.2(2)
C2 N1 C1 N3 -4.8(3)
C3 N2 C2 O2 -179.4(2)
C3 N2 C2 N1 1.1(3)
C1 N1 C2 O2 -177.6(2)
C1 N1 C2 N2 1.8(3)
C2 N2 C3 O3 179.9(2)
C2 N2 C3 N3 -0.7(3)
C1 N3 C3 O3 176.7(2)
C1 N3 C3 N2 -2.7(3)
N7 N8 C4 N5 -0.1(2)
N7 N8 C4 N4 -178.2(2)
N6 N5 C4 N8 0.1(3)
N6 N5 C4 N4 178.2(2)
