#------------------------------------------------------------------------------
#$Date: 2019-11-23 23:17:53 +0200 (Sat, 23 Nov 2019) $
#$Revision: 235556 $
#$URL: file:///home/coder/svn-repositories/cod/cif/7/23/64/7236463.cif $
#------------------------------------------------------------------------------
#
# This file is available in the Crystallography Open Database (COD),
# http://www.crystallography.net/
#
# All data on this site have been placed in the public domain by the
# contributors.
#
data_7236463
loop_
_publ_author_name
'Mei, Xiaofei'
'Wang, Jingwei'
'Zhou, Zhonggao'
'Wu, Shiyi'
'Huang, Limei'
'Lin, Zhenghuan'
'Ling, Qidan'
_publ_section_title
;
 Diarylmaleic anhydrides: unusual organic luminescence, multi-stimuli
 response and photochromism
;
_journal_issue                   8
_journal_name_full               'Journal of Materials Chemistry C'
_journal_page_first              2135
_journal_paper_doi               10.1039/C6TC05519B
_journal_volume                  5
_journal_year                    2017
_chemical_formula_moiety         'C20 H12 N2 O3'
_chemical_formula_sum            'C20 H12 N2 O3'
_chemical_formula_weight         328.32
_space_group_crystal_system      monoclinic
_space_group_IT_number           7
_space_group_name_Hall           'P -2yc'
_space_group_name_H-M_alt        'P 1 c 1'
_atom_sites_solution_hydrogens   geom
_atom_sites_solution_primary     iterative
_audit_creation_date             2016-10-14
_audit_creation_method
;
Olex2 1.2
(compiled 2015.01.26 svn.r3150 for OlexSys, GUI svn.r4998)
;
_audit_update_record
;
2016-11-19 deposited with the CCDC.
2017-01-24 downloaded from the CCDC.
;
_cell_angle_alpha                90
_cell_angle_beta                 97.694(4)
_cell_angle_gamma                90
_cell_formula_units_Z            2
_cell_length_a                   7.2537(3)
_cell_length_b                   6.7653(3)
_cell_length_c                   15.6473(7)
_cell_measurement_reflns_used    2250
_cell_measurement_temperature    292.14(10)
_cell_measurement_theta_max      73.6030
_cell_measurement_theta_min      5.7070
_cell_volume                     760.95(6)
_computing_cell_refinement
;
CrysAlisPro, Agilent Technologies,
Version 1.171.37.35 (release 13-08-2014 CrysAlis171 .NET)
(compiled Aug 13 2014,18:06:01)
;
_computing_data_collection
;
CrysAlisPro, Agilent Technologies,
Version 1.171.37.35 (release 13-08-2014 CrysAlis171 .NET)
(compiled Aug 13 2014,18:06:01)
;
_computing_data_reduction
;
CrysAlisPro, Agilent Technologies,
Version 1.171.37.35 (release 13-08-2014 CrysAlis171 .NET)
(compiled Aug 13 2014,18:06:01)
;
_computing_molecular_graphics    'Olex2 (Dolomanov et al., 2009)'
_computing_publication_material  'Olex2 (Dolomanov et al., 2009)'
_computing_structure_refinement  'ShelXL (Sheldrick, 2008)'
_computing_structure_solution
;
Superflip (Palatinus & Chapuis, 2007;Palatinus & van der Lee, 2008;
Palatinus et al., 2012)
;
_diffrn_ambient_environment      air
_diffrn_ambient_temperature      292.14(10)
_diffrn_detector                 'CCD plate'
_diffrn_detector_area_resol_mean 10.5148
_diffrn_detector_type            Atlas
_diffrn_measured_fraction_theta_full 0.999
_diffrn_measured_fraction_theta_max 0.973
_diffrn_measurement_details
;
#__ type_ start__ end____ width___ exp.time_
  1 omega  -50.00   33.00   1.0000    1.0000
omega____ theta____ kappa____ phi______ frames
    -      -41.3249   38.0000  -60.0000 83

#__ type_ start__ end____ width___ exp.time_
  2 omega  -50.00   33.00   1.0000    1.0000
omega____ theta____ kappa____ phi______ frames
    -      -41.3249   38.0000   60.0000 83

#__ type_ start__ end____ width___ exp.time_
  3 omega -113.00  -13.00   1.0000    1.0000
omega____ theta____ kappa____ phi______ frames
    -      -41.3249  -57.0000  -60.0000 100

#__ type_ start__ end____ width___ exp.time_
  4 omega   33.00  121.00   1.0000    2.3150
omega____ theta____ kappa____ phi______ frames
    -      106.3615 -125.0000  -90.0000 88

#__ type_ start__ end____ width___ exp.time_
  5 omega   94.00  178.00   1.0000    2.3150
omega____ theta____ kappa____ phi______ frames
    -      106.3615  125.0000  150.0000 84

#__ type_ start__ end____ width___ exp.time_
  6 omega   81.00  178.00   1.0000    2.3150
omega____ theta____ kappa____ phi______ frames
    -      106.3615   45.0000   90.0000 97

#__ type_ start__ end____ width___ exp.time_
  7 omega   30.00   91.00   1.0000    2.3150
omega____ theta____ kappa____ phi______ frames
    -      106.3615  -30.0000 -180.0000 61

#__ type_ start__ end____ width___ exp.time_
  8 omega   30.00   91.00   1.0000    2.3150
omega____ theta____ kappa____ phi______ frames
    -      106.3615  -30.0000   60.0000 61

#__ type_ start__ end____ width___ exp.time_
  9 omega   30.00   91.00   1.0000    2.3150
omega____ theta____ kappa____ phi______ frames
    -      106.3615  -30.0000  -30.0000 61

#__ type_ start__ end____ width___ exp.time_
 10 omega   24.00  109.00   1.0000    2.3150
omega____ theta____ kappa____ phi______ frames
    -      106.3615  -94.0000  -60.0000 85

#__ type_ start__ end____ width___ exp.time_
 11 omega   33.00   98.00   1.0000    2.3150
omega____ theta____ kappa____ phi______ frames
    -      106.3615  -45.0000  -90.0000 65

#__ type_ start__ end____ width___ exp.time_
 12 omega -113.00  -52.00   1.0000    1.0000
omega____ theta____ kappa____ phi______ frames
    -      -41.3249  -57.0000   30.0000 61

#__ type_ start__ end____ width___ exp.time_
 13 omega -113.00  -13.00   1.0000    1.0000
omega____ theta____ kappa____ phi______ frames
    -      -41.3249  -57.0000  150.0000 100
;
_diffrn_measurement_device       'four-circle diffractometer'
_diffrn_measurement_device_type  'SuperNova, Dual, Cu at zero, Atlas'
_diffrn_measurement_method       '\w scans'
_diffrn_orient_matrix_UB_11      0.0549284000
_diffrn_orient_matrix_UB_12      -0.1855084000
_diffrn_orient_matrix_UB_13      0.0547026000
_diffrn_orient_matrix_UB_21      0.1535920000
_diffrn_orient_matrix_UB_22      0.1188204000
_diffrn_orient_matrix_UB_23      0.0549934000
_diffrn_orient_matrix_UB_31      -0.1389789000
_diffrn_orient_matrix_UB_32      0.0576446000
_diffrn_orient_matrix_UB_33      0.0620664000
_diffrn_radiation_monochromator  mirror
_diffrn_radiation_probe          x-ray
_diffrn_radiation_type           CuK\a
_diffrn_radiation_wavelength     1.54184
_diffrn_reflns_av_R_equivalents  0.0415
_diffrn_reflns_av_unetI/netI     0.0362
_diffrn_reflns_Laue_measured_fraction_full 0.999
_diffrn_reflns_Laue_measured_fraction_max 0.973
_diffrn_reflns_limit_h_max       6
_diffrn_reflns_limit_h_min       -8
_diffrn_reflns_limit_k_max       8
_diffrn_reflns_limit_k_min       -7
_diffrn_reflns_limit_l_max       19
_diffrn_reflns_limit_l_min       -18
_diffrn_reflns_number            4190
_diffrn_reflns_point_group_measured_fraction_full 0.693
_diffrn_reflns_point_group_measured_fraction_max 0.663
_diffrn_reflns_theta_full        67.684
_diffrn_reflns_theta_max         73.746
_diffrn_reflns_theta_min         5.706
_diffrn_source                   'sealed X-ray tube'
_diffrn_source_type              'SuperNova (Cu) X-ray Source'
_exptl_absorpt_coefficient_mu    0.805
_exptl_absorpt_correction_T_max  1.00000
_exptl_absorpt_correction_T_min  0.51317
_exptl_absorpt_correction_type   multi-scan
_exptl_absorpt_process_details
;
CrysAlisPro, Agilent Technologies,
Version 1.171.37.35 (release 13-08-2014 CrysAlis171 .NET)
(compiled Aug 13 2014,18:06:01)
Empirical absorption correction using spherical harmonics,
 implemented in SCALE3 ABSPACK scaling algorithm.
;
_exptl_crystal_density_diffrn    1.433
_exptl_crystal_F_000             340
_refine_diff_density_max         0.288
_refine_diff_density_min         -0.255
_refine_diff_density_rms         0.060
_refine_ls_abs_structure_details
;
 Classical Flack method preferred over Parsons because s.u. lower.
;
_refine_ls_abs_structure_Flack   0.5(5)
_refine_ls_extinction_method     none
_refine_ls_goodness_of_fit_ref   1.061
_refine_ls_hydrogen_treatment    constr
_refine_ls_matrix_type           full
_refine_ls_number_parameters     226
_refine_ls_number_reflns         2038
_refine_ls_number_restraints     2
_refine_ls_restrained_S_all      1.060
_refine_ls_R_factor_all          0.0608
_refine_ls_R_factor_gt           0.0580
_refine_ls_shift/su_max          0.000
_refine_ls_shift/su_mean         0.000
_refine_ls_structure_factor_coef Fsqd
_refine_ls_weighting_details
;
 w=1/[\s^2^(Fo^2^)+(0.1155P)^2^+0.0898P]
 where P=(Fo^2^+2Fc^2^)/3
;
_refine_ls_weighting_scheme      calc
_refine_ls_wR_factor_gt          0.1556
_refine_ls_wR_factor_ref         0.1598
_reflns_Friedel_coverage         0.360
_reflns_Friedel_fraction_full    0.385
_reflns_Friedel_fraction_max     0.352
_reflns_number_gt                1905
_reflns_number_total             2038
_reflns_threshold_expression     'I > 2\s(I)'
_cod_data_source_file            c6tc05519b2.cif
_cod_data_source_block           BIMA
_cod_database_code               7236463
_shelxl_version_number           2013-2
_shelx_space_group_comment
;
The symmetry employed for this shelxl refinement is uniquely defined
by the following loop, which should always be used as a source of
symmetry information in preference to the above space-group names.
They are only intended as comments.
;
_reflns_odcompleteness_completeness 99.87
_reflns_odcompleteness_iscentric 1
_reflns_odcompleteness_theta     66.97
_olex2_refinement_description
;
1. Fixed Uiso
 At 1.2 times of:
  All C(H) groups, All N(H) groups
2.a Aromatic/amide H refined with riding coordinates:
 N3(H3), N15(H15), C8(H8), C2(H2), C16(H16), C5(H5), C6(H6), C22(H22),
 C20(H20), C19(H19), C7(H7), C21(H21)
;
_shelx_res_file
;
TITL CF solution in Pc
CELL 1.54184 7.253662 6.765274 15.647326 90 97.6937 90
ZERR 2 0.000296 0.000324 0.000659 0 0.0041 0
LATT -1
SYMM +X,-Y,0.5+Z
SFAC C H N O
UNIT 40 24 4 6

L.S. 4
PLAN  25
BOND
fmap 2
acta
REM <olex2.extras>
REM <HklSrc "%.\\mxf-161013.hkl">
REM </olex2.extras>

WGHT    0.115500    0.089800
FVAR       8.36600
O10   4   -0.238362   -0.209497   -0.543945    11.00000    0.05629    0.03914 =
         0.05413    0.01392    0.02520    0.00610
N3    3    0.129220   -0.944652   -0.503002    11.00000    0.04534    0.04663 =
         0.04461   -0.00806    0.02047    0.01175
AFIX  43
H3    2    0.189229   -1.021602   -0.533247    11.00000   -1.20000
AFIX   0
O25   4    0.000018   -0.361418   -0.592734    11.00000    0.08151    0.06514 =
         0.07078    0.02287    0.05333    0.01411
C4    1    0.101979   -0.977935   -0.418731    11.00000    0.03335    0.03830 =
         0.04254   -0.00368    0.01199    0.00071
O24   4   -0.477394   -0.142481   -0.471032    11.00000    0.05634    0.04435 =
         0.07702    0.00643    0.02767    0.01806
C9    1   -0.002116   -0.817815   -0.392517    11.00000    0.03152    0.03623 =
         0.03492   -0.00193    0.01051   -0.00121
N15   3   -0.545818   -0.738261   -0.300699    11.00000    0.04601    0.04324 =
         0.05255    0.00590    0.01926   -0.00712
AFIX  43
H15   2   -0.602404   -0.844464   -0.288830    11.00000   -1.20000
AFIX   0
C1    1   -0.039895   -0.688727   -0.466238    11.00000    0.03426    0.03503 =
         0.03546   -0.00140    0.01603    0.00247
C17   1   -0.391159   -0.522330   -0.371687    11.00000    0.03243    0.03294 =
         0.03536    0.00028    0.01499    0.00129
C18   1   -0.426196   -0.433657   -0.291833    11.00000    0.03072    0.04079 =
         0.03439   -0.00148    0.01093    0.00461
C14   1   -0.114291   -0.365147   -0.544146    11.00000    0.05017    0.04557 =
         0.04097    0.00659    0.02190    0.00212
C23   1   -0.523042   -0.575614   -0.249189    11.00000    0.03062    0.05480 =
         0.03614    0.00809    0.01052    0.00545
C11   1   -0.350811   -0.250703   -0.480778    11.00000    0.04318    0.03116 =
         0.04740   -0.00140    0.01788    0.00058
C8    1   -0.035463   -0.811073   -0.306404    11.00000    0.03978    0.04373 =
         0.03436   -0.00178    0.01102    0.00234
AFIX  43
H8    2   -0.097264   -0.704166   -0.285951    11.00000   -1.20000
AFIX   0
C12   1   -0.290870   -0.438242   -0.437646    11.00000    0.03584    0.02922 =
         0.03247    0.00080    0.01385    0.00164
C2    1    0.046685   -0.771361   -0.531165    11.00000    0.04584    0.04639 =
         0.03733   -0.00055    0.01917    0.00751
AFIX  43
H2    2    0.048354   -0.717074   -0.585661    11.00000   -1.20000
AFIX   0
C16   1   -0.466056   -0.708824   -0.373884    11.00000    0.04595    0.03186 =
         0.03908   -0.00230    0.01361   -0.00227
AFIX  43
H16   2   -0.462972   -0.800269   -0.418047    11.00000   -1.20000
AFIX   0
C13   1   -0.149075   -0.510962   -0.477412    11.00000    0.03680    0.03398 =
         0.03025   -0.00260    0.01521   -0.00117
C5    1    0.161180   -1.135514   -0.365137    11.00000    0.03762    0.03959 =
         0.05554    0.00356    0.00981    0.00616
AFIX  43
H5    2    0.226188   -1.241316   -0.384514    11.00000   -1.20000
AFIX   0
C6    1    0.118976   -1.127790   -0.281627    11.00000    0.04765    0.04793 =
         0.05487    0.01558    0.00699    0.00420
AFIX  43
H6    2    0.153658   -1.232062   -0.244172    11.00000   -1.20000
AFIX   0
C22   1   -0.578317   -0.538199   -0.168628    11.00000    0.04524    0.08406 =
         0.03682    0.01700    0.01808    0.01540
AFIX  43
H22   2   -0.646614   -0.630425   -0.141914    11.00000   -1.20000
AFIX   0
C20   1   -0.427112   -0.219417   -0.170298    11.00000    0.05836    0.07536 =
         0.05204   -0.03081    0.00068    0.01448
AFIX  43
H20   2   -0.392791   -0.101428   -0.142062    11.00000   -1.20000
AFIX   0
C19   1   -0.377498   -0.253458   -0.251466    11.00000    0.04398    0.04705 =
         0.05064   -0.01571    0.00692    0.00195
AFIX  43
H19   2   -0.313096   -0.158299   -0.278524    11.00000   -1.20000
AFIX   0
C7    1    0.025108   -0.966001   -0.252544    11.00000    0.04850    0.05587 =
         0.03926    0.00355    0.01120    0.00135
AFIX  43
H7    2    0.002882   -0.962665   -0.195390    11.00000   -1.20000
AFIX   0
C21   1   -0.527898   -0.359598   -0.130217    11.00000    0.05629    0.10203 =
         0.03564   -0.00821    0.01065    0.02574
AFIX  43
H21   2   -0.561803   -0.331644   -0.076251    11.00000   -1.20000
AFIX   0
HKLF 4

REM  CF solution in Pc
REM R1 =  0.0580 for    1905 Fo > 4sig(Fo)  and  0.0608 for all    2038 data
REM    226 parameters refined using      2 restraints

END

WGHT      0.1155      0.0897

REM Highest difference peak  0.288,  deepest hole -0.255,  1-sigma level  0.060
Q1    1   0.0195 -0.8477 -0.4674  11.00000  0.05    0.29
Q2    1  -0.4666 -0.5373 -0.2549  11.00000  0.05    0.21
Q3    1  -0.5210 -0.6495 -0.2007  11.00000  0.05    0.21
Q4    1  -0.4536 -0.6055 -0.3231  11.00000  0.05    0.20
Q5    1  -0.2650 -0.2842 -0.6194  11.00000  0.05    0.20
Q6    1  -0.3560 -0.5565 -0.0944  11.00000  0.05    0.19
Q7    1  -0.4691 -0.3939 -0.2175  11.00000  0.05    0.19
Q8    1  -0.4978 -0.4355 -0.2041  11.00000  0.05    0.19
Q9    1  -0.0498 -0.6386 -0.3968  11.00000  0.05    0.18
Q10   1  -0.1370 -0.3452 -0.4627  11.00000  0.05    0.17
Q11   1  -0.3726 -0.4191 -0.0431  11.00000  0.05    0.17
Q12   1   0.1333 -0.8921 -0.4406  11.00000  0.05    0.17
Q13   1   0.1033 -1.0338 -0.4550  11.00000  0.05    0.16
Q14   1   0.1038 -1.0348 -0.5661  11.00000  0.05    0.16
Q15   1   0.0305 -0.8140 -0.5962  11.00000  0.05    0.16
Q16   1   0.0723 -0.9904 -0.3415  11.00000  0.05    0.16
Q17   1  -0.5479 -0.4384 -0.0634  11.00000  0.05    0.16
Q18   1   0.1065 -1.1477 -0.5034  11.00000  0.05    0.16
Q19   1  -0.3654 -0.4342 -0.1450  11.00000  0.05    0.16
Q20   1  -0.3934 -0.5795 -0.2973  11.00000  0.05    0.15
Q21   1   0.1095 -1.1286 -0.2009  11.00000  0.05    0.15
Q22   1  -0.1448 -0.5416 -0.5605  11.00000  0.05    0.15
Q23   1  -0.5117 -0.5689 -0.1199  11.00000  0.05    0.15
Q24   1  -0.3778 -0.1439 -0.3063  11.00000  0.05    0.15
Q25   1   0.0318 -0.6110 -0.3768  11.00000  0.05    0.15
;
_shelx_res_checksum              35878
_shelx_hkl_file
;
   0   0  -2 120865. 553.551   1
   0   0   2 119937. 645.449   2
   0   0  -3 299.995 34.8832   1
   0   0   3 11.5253 21.5488   2
   0   0  -4 81897.8 599.829   1
   0   0   4 87823.0 871.173   2
   0   0   5 61.4809 44.9066   2
   0   0  -5 30.0006 18.2166   1
   0   0   6 22378.2 583.601   2
   0   0   7 43.4197 53.2841   2
   0   0   8 36353.4 972.855   2
   0   0   9-112.724 78.5046   2
   0   0  10 30671.3 1080.15   2
   0   0  11-16.9901 72.3882   2
   0   0  11 102.179 63.1958  10
   0   0  11 24.1877 69.6173  11
   0   0  11-28.7955 54.8415   5
   0   0  11-18.5885 74.7081   9
   0   0 -11 10.1071 119.175  12
   0   0  12 8049.50 463.369   9
   0   0  12 6840.54 638.834   2
   0   0  12 8109.25 364.758   5
   0   0  13-36.8534 98.4978   5
   0   0 -13 79.3366 124.407  12
   0   0  13-185.904 136.264   2
   0   0  13 76.8998 95.8417   9
   0   0  14 7346.14 384.786   5
   0   0  14 6780.10 455.287   9
   0   0  15-1.42283 73.8247   5
   0   0  15 101.788 110.570   9
   0   0  16 7635.67 469.979   9
   0   0  16 9968.74 435.916   5
   0   0  17 96.4365 89.2562   9
   0   0  17-40.4135 64.2974   5
   0   0  18 4262.74 228.232   5
   0   0  18 3242.21 239.078   9
   0   1   0 17601.1 492.149   3
   0  -1   0 17623.5 257.910  13
   0  -1   1 6292.94 247.617   2
   0   1   1 5966.53 361.894   3
   0  -1  -1 5500.38 148.118  13
   0  -1   1 5779.82 146.248  13
   0   1  -1 6225.04 271.393  12
   0  -1  -2 29473.7 365.790  13
   0  -1   2 30123.0 335.450  13
   0   1  -2 30559.8 567.881  12
   0  -1   3 112125. 673.627  13
   0  -1  -3 111100. 787.661  13
   0  -1   4 26180.9 614.569   2
   0  -1   4 25565.8 321.658  13
   0   1  -5 1198.50 169.665  12
   0  -1   5 981.511 65.7449  13
   0  -1   5 965.644 143.273   2
   0  -1   6 7267.29 396.790   2
   0  -1   6 6916.14 169.273  13
   0   1   6 7679.97 293.154   2
   0  -1   7 4624.02 363.117   2
   0   1   7 4628.97 271.259   2
   0   1  -7 5573.67 423.141  12
   0   1  -8 6866.78 519.871  12
   0  -1   8 6492.10 452.118   2
   0   1   8 6795.64 375.259   2
   0   1   9 18495.4 703.191   2
   0   1  -9 18412.3 919.849  12
   0  -1   9 19010.2 884.779   2
   0   1 -10 5585.94 550.604  12
   0  -1  10 6637.43 576.775   2
   0   1  10 6631.12 483.385   2
   0   1  11 4118.45 417.618   2
   0   1 -11 3298.33 459.110  12
   0   1  11 5508.24 291.082   5
   0   1  11 5003.03 374.004   9
   0  -1  11 5223.25 220.474  10
   0  -1  11 4207.89 507.941   2
   0  -1  11 5439.83 260.854  11
   0  -1  11 5301.94 262.897   5
   0  -1  12 2770.53 444.240   2
   0   1  12 3160.25 392.956   2
   0  -1  12 3531.42 233.176  11
   0  -1  12 3396.49 312.125   9
   0   1  12 3713.33 260.909   5
   0   1  12 3338.35 335.527   9
   0  -1  12 3601.95 238.142   5
   0  -1 -13 909.008 312.715  12
   0   1  13 3400.56 262.262   5
   0   1 -13 1557.31 370.364  12
   0   1  13 2768.10 306.023   9
   0  -1  13 3003.88 299.926   9
   0  -1  13 2866.68 237.393   5
   0  -1  13 2518.09 450.206   2
   0  -1  13 2649.98 222.339  11
   0   1  14 1316.33 211.475   9
   0   1  14 1709.39 190.372   5
   0  -1  14 1291.05 211.381   9
   0  -1  14 1599.08 185.772   5
   0  -1  15 4759.99 318.089   5
   0  -1  15 4257.82 361.461   9
   0   1  15 5294.89 315.381   5
   0   1  16 778.263 155.293   9
   0  -1  16 968.718 185.461   9
   0   1  16 928.315 143.486   5
   0  -1  16 863.932 147.695   5
   0  -1  17 687.432 128.665   5
   0  -1  17 523.482 139.562   9
   0   1  17 486.375 96.1398   5
   0   1  17 358.943 97.6061   9
   0  -1  18 214.954 77.3910   9
   0  -1  18 205.173 75.5839   5
   0   1  18-17.9517 48.7385   9
   0  -2   0 52072.4 660.176  13
   0   2   0 53610.8 1448.73   3
   0   2  -1 24190.1 761.963   3
   0  -2  -1 21522.3 433.955  13
   0   2   1 24033.3 1184.27   3
   0  -2   1 21311.0 640.823   2
   0  -2   1 20988.7 417.503  13
   0   2   2 3207.23 287.750   3
   0  -2   2 3008.06 254.175   2
   0  -2   2 3241.94 166.148  13
   0   2  -2 3234.67 315.178  12
   0   2  -2 3424.10 255.633   3
   0  -2  -2 2818.06 169.530  13
   0   2  -3 5770.93 335.689   3
   0   2   3 5218.55 267.212   3
   0   2  -3 4807.95 361.892  12
   0  -2   3 5063.17 210.028  13
   0  -2   3 4936.41 332.446   2
   0  -2  -3 4759.43 225.771  13
   0  -2   4 48342.6 668.109  13
   0  -2  -4 49197.6 763.345  13
   0   2  -4 51336.1 1167.16  12
   0  -2   4 51414.2 1165.03   2
   0  -2   5 4653.05 215.652  13
   0  -2  -5 5086.18 260.094  13
   0  -2   5 5096.73 386.565   2
   0   2  -5 5083.44 395.104  12
   0  -2   6 4709.38 224.635  13
   0  -2  -6 3799.39 244.681  13
   0  -2  -6 3408.38 280.516   1
   0   2  -6 4665.64 408.145  12
   0  -2   6 4591.95 393.133   2
   0   2  -7 16448.6 815.423  12
   0  -2   7 17080.0 818.168   2
   0  -2   8 4637.78 464.612   2
   0   2  -8 3824.67 427.597  12
   0   2   8 4385.84 285.259   2
   0   2  -9 12608.2 812.198  12
   0  -2   9 13871.0 879.143   2
   0   2   9 13069.2 554.735   2
   0   2 -10 184.287 167.725  12
   0  -2  10 394.009 83.2035   5
   0  -2  10 461.464 86.9768  11
   0   2  10 512.510 143.893   9
   0  -2  10 338.240 178.739   2
   0  -2  11 22008.2 539.964   5
   0   2  11 23197.6 814.734   9
   0  -2  11 22758.9 554.439  11
   0  -2  12 15137.3 471.479  11
   0  -2  12 14558.2 466.761   5
   0   2  12 14076.0 651.410   9
   0   2  13 2420.12 286.147   9
   0  -2  13 2778.40 232.707  11
   0  -2  13 2865.70 227.397   5
   0  -2  13 3071.45 310.965   9
   0   2  14 3648.38 338.683   9
   0  -2  14 4626.95 299.033   5
   0  -2  14 4460.69 289.293  11
   0  -2  14 4510.72 375.271   9
   0  -2  15 216.010 92.4435   5
   0   2  15-36.4219 73.4389   9
   0  -2  15 306.518 132.857   9
   0   2  16 611.624 130.307   9
   0  -2  16 746.644 136.274   5
   0  -2  16 681.106 162.928   9
   0  -2  17 390.224 114.840   9
   0   2  17 298.925 85.0860   9
   0  -2 -17 195.064 129.335   6
   0  -2  17 431.756 106.626   5
   0  -2  18 362.470 85.3542   5
   0  -2  18 276.142 85.6709   9
   0   3   0 23304.9 1371.57   3
   0  -3   0 23843.0 596.889  13
   0  -3   1 13493.3 442.858  13
   0   3  -1 14216.1 917.286   3
   0   3   1 14316.3 973.859   3
   0  -3  -1 13494.9 453.223  13
   0  -3  -2 33370.1 746.484  13
   0  -3   2 33616.4 1075.97   2
   0   3  -2 34380.2 1197.68   3
   0  -3   2 32787.0 695.309  13
   0   3   2 31261.8 1011.36   3
   0  -3   3 46258.2 1307.71   2
   0  -3  -3 46754.0 913.104  13
   0  -3   3 46512.8 843.425  13
   0   3   3 46936.4 976.202   3
   0   3   4 1074.67 138.623   3
   0  -3   4 833.394 122.588  13
   0  -3   4 935.027 206.564   2
   0   3  -4 1256.02 285.290  12
   0   3  -4 1342.75 227.518   3
   0  -3  -4 907.871 137.310  13
   0  -3   5 5418.43 478.732   2
   0  -3  -5 4563.30 309.159  13
   0   3  -5 5535.32 452.583   3
   0  -3   5 5136.90 296.620  13
   0   3  -5 5390.95 539.597  12
   0   3  -6 15165.3 784.998   3
   0  -3   6 14827.2 522.823  13
   0  -3   6 14535.8 813.152   2
   0   3  -6 14268.3 919.326  12
   0  -3  -6 12782.7 550.453  13
   0   3  -7 20041.3 1099.23  12
   0  -3   7 20927.9 1048.10   2
   0   3  -7 22894.2 1040.28   3
   0   3  -8 2553.80 378.985   3
   0  -3   8 2282.36 374.409   2
   0   3  -8 2086.89 384.412  12
   0  -3   9 10480.3 353.978  11
   0   3   9 9835.92 528.465   9
   0   3  -9 8510.06 712.461   3
   0   3  -9 6411.72 695.191  12
   0  -3   9 7947.59 739.060   2
   0   3  10 5900.01 428.465   9
   0  -3  10 6283.81 283.282   5
   0   3 -10 5654.94 616.573   3
   0  -3  10 5486.42 653.678   2
   0  -3  10 6735.77 311.762  11
   0  -3  11 6630.70 767.963   2
   0   3 -11 6385.73 686.745   3
   0  -3  11 7947.30 336.724   5
   0   3 -11 5593.69 728.168  12
   0  -3 -11 4365.36 493.219   6
   0  -3  11 8930.81 363.555  11
   0   3  11 7162.85 471.245   9
   0  -3  12 3537.19 253.447  11
   0   3  12 2937.44 308.605   9
   0  -3  12 3686.30 242.783   5
   0  -3  13 23963.8 634.735  11
   0  -3  13 22537.2 610.375   5
   0  -3  14 1288.26 215.123   9
   0  -3  14 1481.23 176.956  11
   0  -3 -14 443.463 196.510   6
   0  -3  14 1456.83 177.842   5
   0   3  14 803.283 158.599   9
   0  -3  15 191.099 113.096   9
   0  -3  15 236.387 92.9004   5
   0  -3 -15 314.979 141.417   6
   0  -3  16 1136.32 145.871   5
   0  -3  16 1027.01 174.500   9
   0  -3  17 357.055 99.3088   9
   0  -3  17 388.822 92.6530   5
   0  -3  18 360.800 73.2174   5
   0  -4   0 13223.8 569.263  13
   0   4   0 12444.2 1087.67   3
   0  -4   1 19548.3 695.095  13
   0  -4  -1 20026.4 714.267  13
   0   4  -1 20810.8 1638.23   3
   0   4   2 4501.67 378.540   3
   0  -4   2 4458.98 342.714  13
   0  -4  -2 4220.89 336.645  13
   0  -4  -3 5739.46 403.148  13
   0   4  -3 5315.84 681.091   3
   0  -4   3 5895.06 567.860   2
   0  -4   3 6390.82 408.832  13
   0   4   3 6456.90 372.555   3
   0  -4  -4 6509.48 432.025  13
   0  -4   4 7016.76 452.848  13
   0   4  -4 6459.59 697.714   3
   0  -4   4 7416.09 662.069   2
   0  -4  -5 6653.29 454.346  13
   0  -4   5 7522.55 456.217  13
   0  -4   5 6703.36 636.729   2
   0   4  -5 7073.09 733.813   3
   0   4  -6 2908.03 478.209   3
   0  -4   6 2875.40 284.421  13
   0  -4  -6 2741.22 309.711  13
   0  -4   6 2827.15 460.449   2
   0  -4   7 1601.83 138.041  11
   0  -4   7 1123.35 311.187   2
   0   4  -7 1017.70 293.658   3
   0  -4   8 2766.88 190.209  11
   0   4  -8 1742.31 392.820   3
   0   4  -8 2224.47 486.838  12
   0  -4   8 1803.43 377.068   2
   0  -4   9 166.171 61.0324   5
   0  -4   9 209.227 195.375   2
   0   4  -9 46.2149 128.929   3
   0  -4   9 233.298 79.7490  11
   0   4  -9 260.306 222.851  12
   0  -4  10 80.4577 56.9631   5
   0  -4  10 271.714 89.4469  11
   0  -4  11 2485.46 194.001   5
   0  -4  11 2853.02 228.279  11
   0  -4  12 2788.79 210.395   5
   0  -4  12 3049.75 229.360  11
   0  -4  13 1655.19 179.981  11
   0  -4  13 1459.71 161.598   5
   0   4  13 1293.82 186.945   8
   0  -4  14 560.396 113.652  11
   0  -4  14 554.719 108.799   5
   0  -4  15 1288.00 188.825   9
   0  -4  15 1341.77 150.886   5
   0  -4  16 1414.68 172.228   9
   0  -4  16 1333.10 133.513   5
   0  -5   0 2230.83 294.622  13
   0   5   0 2543.58 299.038   8
   0  -5  -1 8095.46 543.025  13
   0   5  -1 8322.56 512.247   8
   0  -5   1 8712.86 566.969  13
   0   5   1 9753.38 571.298   8
   0  -5   2 3786.23 385.481  13
   0   5   2 4330.35 392.571   8
   0  -5  -2 3137.93 345.701  13
   0   5  -2 3532.08 337.035   8
   0   5  -3 1426.42 210.659   8
   0  -5  -3 1952.41 278.573  13
   0  -5   3 1931.52 271.635  13
   0  -5  -4 1667.54 271.341  13
   0  -5   4 2138.14 291.896  13
   0   5  -4 1748.88 232.535   8
   0  -5  -5 2136.30 319.210  13
   0   5   5 3662.81 383.825   8
   0   5  -5 2176.19 252.656   8
   0  -5   5 2657.09 328.694  13
   0  -5   5 3871.78 238.964   6
   0   5  -6 3365.28 313.677   8
   0   5   6 6175.73 484.024   8
   0   5   7 1512.80 247.809   8
   0   5   8 16666.5 767.316   8
   0  -5   8 15480.0 447.929  11
   0  -5   9 906.350 113.826   5
   0  -5   9 1236.09 139.937  11
   0   5   9 1136.13 216.912   8
   0   5  10 8168.81 512.216   8
   0  -5  10 7564.57 311.699   5
   0  -5  11 11.8374 62.6395  11
   0  -5  11 63.6740 60.0618   5
   0   5  11-47.7897 68.2052   8
   0   5  12 851.757 144.686   8
   0  -5  12 891.792 124.276  11
   0  -5  12 830.696 110.457   5
   0  -5  13 539.672 103.680  11
   0  -5  13 469.547 87.8691   5
   0   5  13 461.012 101.180   8
   0  -5  14 1313.47 182.720   9
   0  -5  14 1132.35 119.059   5
   0  -5  15 0.13363 53.3625   9
   0   6   0 206.297 117.786   8
   0   6   1 1906.70 273.948   8
   0   6  -1 1635.23 247.509   8
   0   6   2 3945.90 391.428   8
   0   6  -2 2463.81 294.260   8
   0   6   3 1732.53 267.633   8
   0   6  -3 838.593 168.508   8
   0   6  -4 2555.90 286.749   8
   0   6   4 5275.82 445.021   8
   0   6  -5 4335.84 361.491   8
   0   6   5 9827.41 605.120   8
   0   6   6 517.028 159.922   8
   0   6   7 111.406 89.2491   8
   0   6   8 811.306 169.949   8
   0   6   9 1177.18 190.438   8
   0   6  10 1118.81 170.525   8
   0   6  11 1587.48 177.265   8
   0   6  12 1083.61 124.099   8
   0  -6  13 1511.55 159.301   9
   0   7   0 337.939 122.396   8
   0   7  -1 5040.78 384.042   8
   0   7   1 6186.09 440.830   8
   0   7  -2 5918.04 408.217   8
   0   7   2 9639.34 546.491   8
   0   7   3 787.935 171.368   8
   0   7  -3 450.872 117.374   8
   0   7   4 1714.54 233.114   8
   0   7  -4 701.891 133.652   8
   0   7   5 958.509 177.743   8
   0   7   6 3967.42 312.650   8
   0   7   7 423.973 107.645   8
   0   7   8 235.960 81.9649   8
   0   7   9 3934.60 246.497   8
   0   7  10 173.936 50.0986   8
   0   8   0 10.2773 31.9976   8
   0   8  -1 141.324 39.5593   8
   0   8   1 53.9342 43.6439   8
   0   8   2 117.306 54.2370   8
   0   8   3 276.258 73.9136   8
   0   8   4 135.941 52.6990   8
   0   8   5 228.848 61.4912   8
   0   8   6 55.5439 37.3530   8
  -1   0  19 59.2490 44.2239   5
  -1   0  18 3035.16 215.130   5
  -1   0  17 171.548 77.5948   9
  -1   0  17 41.9511 76.9760   5
  -1   0  16 11141.3 522.087   9
  -1   0  16 13510.2 517.928   5
  -1   0  15 20.9050 91.9262   5
  -1   0  15 76.0762 89.3455   9
  -1   0  14 4102.38 341.138   9
  -1   0  14 4705.90 323.572   5
  -1   0  13 13.3564 90.2745   5
  -1   0  13 39.8798 85.5187   9
   1   0 -13-105.247 116.090  12
  -1   0  13 44.7312 58.8935  11
  -1   0  13 124.818 75.0625  10
  -1   0  12 10386.6 766.920   2
  -1   0  12 14292.2 499.314   5
  -1   0  12 12471.0 558.429   9
  -1   0  12 12176.3 391.086  11
  -1   0  12 14911.5 389.424  10
  -1   0  11-45.6161 78.0860   5
  -1   0  11-66.4594 86.9953   2
   1   0 -11-88.5370 120.587  12
  -1   0  11 56.4984 47.6369  10
  -1   0  10 32968.3 1128.55   2
  -1   0   9-24.3674 78.3268   2
  -1   0   8 10721.0 529.828   2
  -1   0   7 14.0294 48.2297   2
  -1   0   6 60941.7 1040.10   2
  -1   0   5 10.0267 33.6354   2
  -1   0   4 14589.5 424.711   2
  -1   0   3 10.1022 12.9614   1
  -1   0   3 14.5251 31.0660   2
  -1   0   2 290402. 1228.60   1
  -1   0   2 287939. 1598.94   2
   1   0  -1 25.1655 35.2056   3
  -1   0   1 18.3051 30.7250   1
  -1   0   0 80794.1 498.974  12
   1   0   0 78477.9 1281.04   3
   1   0   1 55.5981 47.3488   3
  -1   0  -1-19.5023 36.7829   1
  -1   0  -2 206190. 1590.38   1
  -1   0  -3 2.42728 44.6745   1
  -1   0  -4 119696. 1329.55   1
  -1   0  -5-12.0716 42.2705   1
  -1   0  -6 22499.8 617.747   1
   1   0   6 31921.4 697.719   2
   1   0   7-17.1003 40.6166   2
  -1   0  -7-28.5154 32.4471   1
   1   0   8 5228.05 385.272   2
   1   0   9 48.4562 86.0901   2
  -1   0  -9 24.6126 99.9485  12
  -1   0 -10 10943.6 827.309  12
   1   0  10 13627.5 767.326   2
   1   0  11 29.4010 47.7218   5
   1   0  11-18.2715 90.0759   9
   1   0  11-42.3267 123.496   2
  -1   0 -11-51.0772 132.275  12
   1   0  12 5968.59 415.291   9
   1   0  12 5699.20 294.466   5
   1   0  12 5141.20 566.082   2
   1   0  13-46.3190 74.7052   5
   1   0  13 8.60969 92.4628   9
   1   0  14 6051.79 455.573   9
   1   0  14 7101.83 358.883   5
   1   0  15 63.6172 100.999   9
   1   0  15-28.4318 74.9457   5
   1   0  16 1626.91 236.691   9
   1   0  16 1998.47 188.621   5
   1   0  17 45.3219 71.7940   9
   1   0  17-61.8814 49.6933   5
   1   0  18 691.511 119.458   9
  -1  -1  19 688.920 95.8127   5
  -1  -1  18 293.158 88.9749   5
  -1   1  18 274.089 73.2539   5
  -1  -1  17 96.8439 77.2074   9
  -1  -1  17 188.438 94.6758   5
  -1   1  17 27.2903 63.5236   5
  -1   1  16 8253.25 390.741   5
  -1  -1  16 8598.48 413.408   5
  -1  -1  15 1072.96 185.900   9
  -1  -1  15 1327.48 185.219   5
  -1   1  15 1605.02 195.303   5
  -1   1  15 1083.85 177.766   9
  -1  -1  14 7417.67 345.622  11
  -1   1  14 7222.74 447.133   9
  -1  -1  14 8564.64 317.843  10
  -1  -1  14 7316.19 447.740   9
  -1  -1  14 8208.20 406.047   5
  -1   1  14 8821.47 429.884   5
  -1   1  13 8711.34 430.253   5
  -1  -1  13 7179.47 444.502   9
  -1  -1  13 8250.00 392.374   5
  -1  -1  13 6160.79 665.357   2
  -1  -1  13 7741.18 337.113  11
  -1   1  13 7430.68 461.922   9
  -1  -1  13 8840.09 311.089  10
  -1  -1  12 216.536 81.5925  11
  -1   1  12 101.715 94.6007   5
  -1   1  12 218.349 81.0112  10
  -1  -1  12 123.491 118.069   2
   1   1 -12-87.2155 102.252  12
  -1  -1  12 70.7184 83.1844   9
  -1  -1  12 93.5244 72.2064   5
  -1  -1  12 244.373 69.8621  10
  -1   1  12 125.782 112.795   9
  -1  -1  11 2267.64 168.057  11
  -1  -1  11 2190.91 179.181   5
  -1  -1  11 1272.59 292.847   2
  -1   1  11 2193.04 152.697  10
   1   1 -11 970.537 240.247  12
  -1   1  11 2367.13 212.209   5
  -1  -1  11 2489.09 152.655  10
  -1   1  10 1241.65 218.434   2
  -1  -1  10 1219.89 264.107   2
   1   1 -10 1111.06 243.349  12
  -1   1   9 4264.65 342.004   2
  -1  -1   9 4299.02 438.681   2
   1   1  -9 3933.62 411.326  12
  -1  -1   8 69980.7 1576.79   2
  -1   1   8 67754.5 1164.63   2
   1   1  -7 13353.3 603.264  12
  -1   1   7 11826.0 429.608   2
  -1  -1   7 12274.7 614.875   2
  -1  -1   6 2670.63 270.796   2
   1  -1  -6 2073.93 96.2334  13
   1   1  -6 2965.12 259.848  12
  -1   1   6 2310.63 169.203   2
   1  -1  -5 20823.7 301.495  13
  -1   1   5 22056.0 444.573   2
   1   1  -5 25203.8 652.185  12
  -1  -1   5 24121.5 736.400   2
  -1  -1   4 5483.98 216.460  13
   1  -1  -4 5536.39 151.876  13
  -1   1   4 5569.90 185.224   2
   1   1  -4 6499.19 288.395  12
  -1  -1   4 6194.23 348.776   2
  -1  -1   3 50584.5 922.674   2
   1   1  -3 51418.0 889.658   3
  -1  -1   3 45368.7 608.097  13
   1   1  -3 48414.1 686.792  12
  -1   1   3 42302.1 394.306   2
   1  -1  -3 43699.7 421.761  13
  -1  -1   2 9386.02 409.582   2
   1   1  -2 9262.76 381.357   3
   1   1  -2 8146.68 270.176  12
   1  -1  -2 7887.09 177.813  13
  -1  -1   2 9946.99 288.215  13
   1  -1  -1 12238.1 228.419  13
  -1  -1   1 13379.8 342.963  13
   1   1  -1 13651.7 510.871   3
   1   1   0 426600. 3814.76   3
  -1  -1   0 372150. 1909.21  13
  -1   1   0 401553. 2676.01  12
  -1   1   0 381062. 1863.96   1
  -1  -1  -1 128801. 1153.06  13
  -1   1  -1 126614. 1123.37   1
   1  -1   2 448126. 1886.24   2
  -1   1  -2 465663. 2287.59   1
   1   1   2 460878. 3324.44   3
  -1  -1  -2 448114. 2382.11  13
  -1   1  -2 472293. 2629.28  12
  -1   1  -3 427766. 2315.11   1
  -1   1  -3 432604. 2697.78  12
   1   1   3 430183. 2506.08   3
   1  -1   3 435586. 2191.32   2
   1  -1   4 5761.85 286.793   2
   1  -1   4 5515.38 172.357  13
  -1   1  -4 5652.87 287.929   1
  -1   1  -4 5560.26 351.052  12
   1  -1   5 71541.3 1131.08   2
  -1   1  -5 73194.9 1339.53  12
   1  -1   6 10826.8 498.889   2
  -1   1  -6 11184.3 579.539  12
   1  -1   6 10711.8 251.036  13
  -1   1  -7 1971.97 283.813  12
   1  -1   7 2488.80 277.989   2
   1   1   8 28695.2 796.797   2
  -1   1  -8 27339.2 1085.33  12
   1  -1   8 27928.9 1032.92   2
   1  -1   9 2517.59 336.869   2
  -1   1  -9 2031.83 334.261  12
   1   1   9 2518.28 270.812   2
   1   1  10 539.407 148.610   2
   1  -1  10 553.423 199.333   2
  -1   1 -10 331.060 154.861  12
   1   1  10 616.300 137.960   9
   1  -1  11 3713.59 231.223  11
  -1   1 -11 2730.28 464.708  12
   1  -1  11 3764.92 221.571   5
   1  -1  11 3738.55 318.537   9
   1  -1  11 3440.08 466.080   2
   1   1  11 3470.77 410.963   2
   1   1  11 4188.33 353.397   9
   1  -1  12 4704.85 263.406   5
   1   1  12 3549.46 448.365   2
   1  -1  12 4713.39 602.097   2
   1  -1  12 4627.66 372.787   9
  -1   1 -12 3089.69 502.710  12
   1   1  12 4853.50 398.613   9
  -1  -1 -12 2437.11 471.729  12
   1   1  13 7441.06 491.992   9
   1  -1  13 7088.71 466.110   9
   1  -1  13 7686.55 347.366   5
   1   1  14 801.540 185.602   9
   1  -1  14 664.857 171.520   9
   1  -1  14 741.619 129.802   5
   1  -1  15 3733.56 269.696   5
   1   1  15 3084.72 316.044   9
   1  -1  15 3100.71 315.313   9
   1  -1  16 1938.38 189.398   5
   1  -1  16 1926.22 252.941   9
   1   1  16 1443.50 215.142   9
   1  -1  17 2320.86 238.320   9
   1  -1  17 2508.03 197.184   5
   1   1  18 559.272 98.3549   9
   1  -1  18 696.673 118.937   9
   1  -1  18 709.952 93.1676   5
  -1  -2  18 272.417 83.1132   9
  -1  -2  18 153.588 69.8448   5
  -1  -2  17 808.922 140.847   5
  -1  -2  17 708.327 133.050   9
  -1  -2  16 2806.98 239.521   5
  -1   2  16 2504.51 198.434   5
  -1  -2  16 2094.64 242.946   9
  -1  -2  15 499.445 123.188  11
  -1  -2  15 539.608 147.207   9
  -1   2  15 534.004 124.193   5
  -1  -2  15 458.940 119.601   5
  -1   2  14 12133.8 477.713   5
  -1  -2  14 10343.2 550.955   9
  -1  -2  14 10967.2 427.915  11
  -1  -2  14 10966.8 467.160   5
  -1  -2  13 3329.48 257.660   5
  -1  -2  13 3718.00 250.622  11
  -1   2  13 4109.37 294.222   5
  -1  -2  13 3862.79 211.297  10
  -1   2  12 9645.99 436.129   5
  -1  -2  12 6561.67 704.349   2
  -1  -2  12 9764.96 312.063  10
  -1  -2  12 8754.02 358.021  11
   1   2 -12 5399.01 640.484  12
   1   2 -12 5287.55 612.169   3
  -1  -2  12 7964.17 357.037   5
  -1  -2  11 4864.26 259.749   5
   1   2 -11 3567.40 480.461   3
  -1  -2  11 5523.44 271.772  11
   1   2 -11 3379.96 480.361  12
  -1  -2  11 3980.54 519.132   2
  -1   2  11 6028.10 342.203   5
  -1  -2  10 1953.84 158.830   5
  -1  -2  10 1573.72 339.333   2
  -1   2  10 2421.81 152.145  10
   1   2 -10 2014.42 337.377   3
  -1  -2  10 2394.69 170.648  11
   1   2 -10 1480.97 305.478  12
  -1  -2   9 3591.22 441.760   2
   1   2  -9 3742.62 418.897   3
   1   2  -9 3403.23 398.410  12
  -1  -2   8 282.544 127.383   2
   1   2  -8 253.332 139.284  12
   1   2  -8 283.138 129.907   3
   1   2  -7 4610.58 414.232   3
   1   2  -7 4760.62 407.339  12
  -1  -2   7 4208.96 413.326   2
  -1  -2   6 6343.92 489.539   2
   1   2  -6 6763.28 443.430  12
   1   2  -6 6604.68 471.956   3
  -1  -2   6 5475.50 277.721  13
   1  -2  -6 6022.70 256.671  13
  -1  -2   5 24097.6 849.535   2
  -1  -2   5 22234.3 559.299  13
   1  -2  -5 23100.9 469.394  13
   1   2  -5 25108.7 804.998  12
  -1   2   5 21226.2 346.142   2
   1   2  -4 7558.03 466.852   3
  -1  -2   4 7284.41 461.037   2
   1  -2  -4 6711.15 245.140  13
  -1  -2   4 6783.60 302.192  13
   1   2  -4 6482.91 397.540  12
   1   2  -3 63615.5 1231.54  12
   1   2  -3 68823.7 1339.92   3
  -1  -2   3 66924.1 1369.16   2
  -1  -2   3 63043.3 880.162  13
   1  -2  -3 61378.7 726.888  13
  -1  -2   2 23682.1 808.943   2
  -1  -2   2 24338.9 545.884  13
   1   2  -2 24005.2 831.514   3
   1   2  -1 26761.0 1063.07   3
  -1  -2   1 29055.6 607.028  13
   1  -2  -1 26707.2 460.744  13
   1  -2   0 26188.2 453.293  13
   1   2   0 27564.4 1301.86   3
  -1   2   0 25248.0 851.539   3
  -1  -2   0 27781.2 596.779  13
  -1   2  -1 120611. 1287.28   3
   1  -2   1 121982. 998.539  13
   1  -2   1 117860. 1313.86   2
  -1   2  -2 17182.4 466.751   3
   1  -2   2 15981.4 514.304   2
   1   2   2 15857.1 953.388   3
  -1  -2  -2 16245.5 507.461  13
  -1   2  -2 16431.0 733.491  12
   1  -2   2 15873.8 361.918  13
  -1   2  -3 3943.39 371.748  12
  -1  -2  -3 3379.49 254.395  13
   1  -2   3 4253.34 194.609  13
   1   2   3 4698.91 394.006   3
   1  -2   3 4381.68 295.580   2
   1   2   4 48236.9 977.241   3
   1  -2   4 46891.2 658.128  13
  -1   2  -4 48336.9 1244.87  12
   1  -2   4 47422.1 1023.20   2
   1  -2   5 11127.7 546.063   2
  -1  -2  -5 9272.52 454.561  13
  -1  -2  -5 8636.58 526.125   1
   1  -2   5 11542.6 339.429  13
  -1   2  -5 11422.9 649.905  12
   1  -2   6 10949.5 341.779  13
  -1   2  -6 10610.6 656.944  12
   1  -2   6 10355.1 580.031   2
   1  -2   7 5105.32 444.814   2
  -1   2  -7 5238.14 492.520  12
   1  -2   8 13139.9 790.783   2
  -1   2  -8 12026.1 808.244  12
   1  -2   9 1870.54 342.638   2
   1   2   9 2176.06 247.557   2
  -1   2  -9 1678.69 358.204  12
   1   2  10 587.375 149.757   2
   1  -2  10 575.022 210.674   2
   1   2  10 386.063 139.824   9
  -1   2 -10 333.799 181.272  12
   1  -2  10 586.522 101.081  11
   1  -2  11 118.913 144.939   2
  -1   2 -11 279.419 204.151  12
   1  -2  11 171.631 89.7930  11
   1  -2  11 107.759 61.9315   5
   1   2  11 23.7031 89.9326   9
   1   2  11 220.712 106.119   2
  -1   2 -12 5137.37 697.254  12
   1  -2  12 6721.60 320.920   5
   1   2  12 5962.64 455.168   9
   1  -2  12 6212.99 744.732   2
   1  -2  12 5963.99 318.244  11
   1  -2  13 7679.19 353.753   5
   1  -2  13 7083.02 474.487   9
   1   2  13 6581.53 462.008   9
   1  -2  14 420.886 108.289   5
   1   2  14 193.776 113.510   9
   1  -2  14 441.655 150.234   9
   1  -2  15 4765.45 295.152   5
   1  -2  15 4096.58 364.466   9
   1  -2  16 391.440 127.549   9
   1  -2  16 490.443 108.481   5
  -1  -2 -16 202.764 161.474   6
   1   2  16 313.648 99.4613   9
  -1  -2 -17 125.464 115.381   6
   1  -2  17 452.710 98.0391   5
   1  -2  17 483.784 120.551   9
   1   2  17 283.860 84.7880   9
   1  -2  18 330.935 85.0631   9
   1  -2  18 344.663 75.0427   5
  -1  -3  18 536.252 83.5007   5
  -1  -3  17 426.429 98.9188   5
  -1  -3  17 276.478 89.4581   9
  -1  -3  16 138.378 82.4817   5
  -1  -3  16 159.230 94.0477   9
  -1  -3  15 358.685 107.663   5
  -1  -3  15 337.172 113.998  11
  -1  -3  15 308.110 117.274   9
  -1  -3  14 113.830 87.5926  11
  -1  -3  14-12.5135 77.9090   5
  -1  -3  13 5904.81 328.728   5
  -1  -3  13 6251.63 330.939  11
  -1  -3  12 9752.44 401.759  11
  -1  -3  12 8416.86 370.143   5
  -1  -3  11 1254.40 147.075  11
  -1  -3  11 1172.78 137.097   5
   1   3 -11 1094.13 317.335   3
   1   3 -11 791.781 275.352  12
  -1  -3  11 1037.56 328.645   2
  -1  -3  10 3914.95 552.076   2
   1   3 -10 3525.88 508.726   3
  -1  -3  10 4351.25 236.638   5
   1   3 -10 2925.51 488.279  12
  -1  -3   9 6012.17 255.751   5
  -1  -3   9 5156.02 598.506   2
   1   3  -9 5536.11 600.184   3
   1   3  -9 4181.67 527.718  12
  -1  -3   8 6720.33 657.163   2
   1   3  -8 7320.05 654.575   3
   1   3  -8 7689.59 681.214  12
  -1  -3   7 2668.51 393.511   2
   1   3  -7 2537.72 373.049  12
   1   3  -7 2515.14 368.820   3
  -1  -3   6 1625.00 299.730   2
   1  -3  -6 1676.88 180.374  13
   1   3  -6 1975.90 310.887   3
  -1  -3   6 1282.79 177.242  13
   1   3  -6 1789.61 302.729  12
   1  -3  -5 25313.9 657.938  13
   1   3  -5 27305.5 1135.52  12
  -1  -3   5 24094.6 712.026  13
  -1  -3   5 25714.1 1111.02   2
  -1  -3   4 18219.8 894.609   2
   1  -3  -4 17882.8 523.593  13
  -1  -3   4 17264.1 581.805  13
   1   3  -4 18464.1 938.965   3
   1   3  -3 9573.60 701.642   3
  -1  -3   3 9514.96 622.839   2
  -1  -3   3 8509.83 407.313  13
   1  -3  -3 9094.64 362.761  13
   1   3  -2 51626.3 1737.03   3
  -1  -3   2 49133.6 972.816  13
   1  -3  -2 52210.6 858.446  13
  -1  -3   1 1095.48 163.657  13
   1   3  -1 924.902 356.758   3
   1  -3  -1 1204.17 137.944  13
  -1   3   1 947.642 114.001   3
   1  -3   0 38088.2 730.540  13
  -1   3   0 39864.7 1242.14   3
   1   3   0 37954.6 2057.54   3
  -1  -3   0 36363.7 841.352  13
  -1  -3  -1 117.518 74.7013  13
   1   3   1 42.6295 328.534   3
   1  -3   1 95.9526 79.3594   2
   1  -3   1 112.581 53.9575  13
  -1   3  -1 29.0572 133.196   3
   1  -3   2 7404.05 449.847   2
  -1   3  -2 7948.81 511.991   3
   1   3   2 7072.20 670.848   3
  -1  -3  -2 7772.78 420.017  13
   1  -3   2 8101.18 342.160  13
  -1  -3  -3 29739.7 841.449  13
   1   3   3 34378.7 1155.55   3
   1  -3   3 33853.0 714.635  13
   1  -3   3 31386.9 985.009   2
  -1   3  -3 36879.7 1450.07  12
  -1   3  -3 36444.2 1018.55   3
   1   3   4 22113.6 768.369   3
   1  -3   4 21567.6 579.936  13
   1  -3   4 20833.7 864.235   2
  -1   3  -4 22082.2 1140.94  12
  -1   3  -4 23248.4 817.754   3
  -1  -3  -4 19383.6 698.463  13
  -1   3  -5 349.482 125.351   3
   1  -3   5 584.871 158.826   2
  -1   3  -5 874.612 279.886  12
  -1  -3  -5 652.530 145.910  13
   1  -3   5 715.662 114.069  13
   1   3   5 644.853 142.355   3
  -1   3  -6 3936.44 383.365   3
   1  -3   6 4010.04 264.417  13
  -1  -3  -6 2908.89 358.314   1
  -1  -3  -6 3220.12 321.277  13
   1  -3   6 3964.49 440.965   2
  -1   3  -6 4212.93 540.380  12
   1  -3   7 2243.86 368.349   2
  -1   3  -7 2711.29 342.073   3
  -1   3  -7 2387.51 424.149  12
  -1  -3  -7 1307.41 234.837   1
   1   3   8 3366.94 331.892   9
  -1  -3  -8 2493.69 390.094   6
  -1   3  -8 2611.39 458.782  12
   1  -3   8 2890.89 438.235   2
  -1   3  -8 2807.07 370.960   3
  -1   3  -9 2009.30 332.557   3
  -1  -3  -9 1883.41 359.082   6
   1   3   9 3076.65 319.043   9
   1  -3   9 3055.58 198.362  11
   1  -3   9 2649.43 443.529   2
  -1   3  -9 2030.54 440.969  12
  -1   3 -10 3126.04 471.635   3
   1   3  10 3875.30 370.949   9
   1  -3  10 3676.11 565.317   2
  -1  -3 -10 2106.28 388.693   6
   1  -3  10 4302.57 250.855  11
  -1   3 -10 2944.35 547.873  12
   1  -3  11 13172.2 444.065   5
   1  -3  11 12571.0 436.684  11
   1  -3  12 3022.98 232.950  11
   1  -3  12 3262.72 231.963   5
   1  -3  13 3582.85 343.574   9
   1  -3  13 3914.76 258.612   5
   1  -3  14 1146.03 150.720   5
   1  -3  14 886.411 191.475   9
   1   3  14 536.441 144.114   9
  -1  -3 -14 523.191 209.680   6
   1  -3  15 3055.90 300.096   9
   1  -3  15 3156.94 230.404   5
   1  -3  16 1601.86 208.686   9
   1  -3  16 1785.49 168.902   5
   1  -3  17 636.644 99.6032   5
   1  -3  17 723.690 123.583   9
  -1  -4  16 350.905 94.8900   9
  -1  -4  16 312.275 79.4520   5
  -1  -4  15 171.293 84.7758  11
  -1  -4  15 134.406 86.9010   9
  -1  -4  15 55.7466 62.4311   5
  -1  -4  14 3744.30 244.319   5
  -1  -4  14 4218.93 271.733  11
  -1  -4  13 1470.53 159.240   5
  -1  -4  13 1793.63 189.210  11
  -1  -4  12 154.557 77.9318   5
  -1  -4  12 90.2134 77.7127  11
  -1  -4  11 17032.8 483.737   5
  -1  -4  11 21717.8 587.147  11
  -1   4  10 17551.8 694.464   8
  -1  -4  10 19101.9 544.396  11
  -1  -4   9 1201.74 142.492  11
  -1  -4   9 1377.74 366.481   2
  -1  -4   9 1053.08 116.766   5
  -1   4   9 1453.86 209.710   8
   1   4  -8 5447.08 701.877   3
  -1   4   8 7586.17 479.906   8
  -1  -4   8 4965.79 655.659   2
  -1  -4   8 7731.61 334.552  11
  -1   4   7 11141.8 555.582   8
  -1  -4   7 10967.0 382.749  11
  -1  -4   7 7609.59 769.076   2
   1   4  -7 7332.89 808.740   3
  -1  -4   7 10909.5 408.173   6
   1  -4  -6 3081.80 299.123  13
   1   4  -6 2858.46 532.872   3
  -1  -4   6 3365.64 514.069   2
  -1   4   6 5026.36 369.929   8
  -1  -4   6 2993.54 310.099  13
  -1  -4   6 4917.40 268.504   6
  -1  -4   5 2976.64 453.392   2
   1   4  -5 2789.40 502.271   3
  -1  -4   5 2623.28 290.891  13
   1  -4  -5 2668.48 274.823  13
  -1  -4   4 16357.7 713.064  13
   1  -4  -4 16979.5 654.207  13
   1   4  -4 18689.1 1273.69   3
  -1  -4   3 11933.9 596.164  13
   1   4  -3 12666.2 1176.30   3
   1  -4  -3 12407.7 553.142  13
   1  -4  -2 3899.23 301.315  13
   1   4  -2 3188.03 637.275   3
  -1  -4   2 3325.13 318.821  13
  -1  -4   1 3353.39 321.862  13
   1  -4  -1 3804.29 292.064  13
  -1  -4   0 12764.7 610.214  13
   1  -4   0 14841.6 579.185  13
   1   4   0 15605.9 1592.81   3
   1  -4   1 2769.57 255.770  13
  -1  -4  -1 2405.67 278.763  13
   1  -4   2 13014.3 745.221   2
   1   4   2 14647.1 935.734   3
  -1  -4  -2 14275.8 672.104  13
   1  -4   2 15941.2 625.032  13
   1   4   3 4930.00 445.976   3
   1  -4   3 4813.80 478.968   2
  -1  -4  -3 4348.29 390.180  13
   1  -4   3 5282.46 363.024  13
   1  -4   4 9573.94 708.953   2
   1   4   4 10463.0 571.014   3
   1  -4   4 10733.3 516.945  13
   1  -4   5 5955.60 579.518   2
   1  -4   5 6215.12 407.001  13
  -1  -4  -6 307.840 147.356   6
  -1   4  -6 485.628 124.119   8
  -1  -4  -6 226.778 111.160  13
   1  -4   6 100.314 117.415   2
   1  -4   6 314.755 102.526  13
  -1  -4  -6 263.146 124.494   1
  -1   4  -7 3063.42 600.245  12
   1  -4   7 2511.26 424.911   2
  -1  -4  -7 2204.78 307.799   6
  -1  -4  -8 2793.15 345.660   6
   1  -4   8 2799.92 498.965   2
  -1   4  -8 3684.71 688.700  12
   1  -4   8 4149.76 224.971  11
  -1  -4  -9 9048.84 590.472   6
  -1   4  -9 11328.0 1191.70  12
   1  -4   9 13232.2 420.332  11
   1  -4   9 10971.9 972.293   2
  -1  -4 -10 2866.72 334.331   6
   1  -4  10 4258.76 252.739  11
   1  -4  11 505.732 106.028  11
  -1  -4 -11 271.007 146.847   6
   1  -4  11 444.049 89.2556   5
   1  -4  12 1096.99 146.573  11
   1  -4  12 1161.94 142.036   5
   1  -4  13 2928.07 222.808   5
  -1  -4 -13 1564.96 218.471   6
   1  -4  14 2520.32 199.563   5
   1  -4  14 2108.06 248.568   9
   1  -4  15-4.13509 70.0106   5
  -1  -4 -15 68.2696 56.2521   6
   1  -4  15 72.4111 77.6989   9
   1  -4  16 646.679 120.254   9
   1  -4  16 686.696 98.6173   5
  -1  -5  15-16.2930 54.2808   9
  -1  -5  14 902.765 114.798  11
  -1  -5  13 1869.60 169.978  11
  -1  -5  12 130.512 77.3158  11
  -1   5  11 2514.86 240.380   8
  -1  -5  11 3589.61 237.827  11
  -1   5  10 2620.11 268.603   8
  -1  -5  10 3642.32 237.216  11
  -1  -5   9 966.187 134.228  11
  -1   5   9 734.210 161.779   8
  -1   5   8 12096.1 610.309   8
  -1  -5   8 12302.9 423.634  11
  -1  -5   7 226.555 60.9208  11
  -1   5   7 327.204 110.875   8
  -1   5   6 4986.46 405.849   8
  -1  -5   6 5219.02 269.491  11
  -1  -5   6 5119.50 302.802   6
  -1  -5   5 1208.84 234.221  13
  -1  -5   5 1976.12 167.862  11
  -1   5   5 1979.26 261.697   8
   1  -5  -5 1184.21 216.594  13
  -1  -5   5 1932.01 189.230   6
   1   5  -4 307.669 98.3436   8
  -1  -5   4 916.694 131.398   6
   1   5  -4-76.9689 456.050   3
   1  -5  -4 574.931 161.186  13
  -1  -5   4 362.236 139.533  13
  -1   5   4 845.026 178.618   8
   1   5  -3 12463.1 1713.32   3
   1  -5  -3 11684.2 665.773  13
   1   5  -3 7039.84 458.482   8
  -1  -5   3 9471.98 649.753  13
  -1  -5   3 13983.6 479.777   6
  -1   5   3 16820.3 748.584   8
  -1  -5   2 2399.75 328.481  13
  -1  -5   2 3265.34 233.126   6
  -1   5   2 4435.71 385.477   8
   1   5  -2 4521.51 1128.38   3
   1   5  -2 2068.50 257.363   8
   1  -5  -2 3197.82 352.346  13
   1  -5  -1 22346.8 879.070  13
   1   5  -1 22060.1 1868.35   3
   1   5  -1 15825.3 734.492   8
  -1  -5   1 18852.9 895.565  13
  -1  -5   1 25968.7 656.887   6
  -1   5   1 29155.5 948.911   8
  -1  -5   0 3706.29 414.636  13
   1  -5   0 4543.49 401.744  13
   1   5   0 3459.19 354.930   8
   1   5   0 3793.00 627.695   3
  -1   5   0 5788.32 427.852   8
  -1  -5   0 5029.59 314.779   6
   1   5   1 1507.98 247.356   8
  -1  -5  -1 1409.28 164.392   6
  -1   5  -1 1646.83 233.627   8
   1  -5   1 1277.26 227.906  13
  -1  -5  -1 1091.13 234.541  13
   1   5   1 1263.04 327.688   3
  -1  -5  -2 2590.14 340.413  13
   1   5   2 3060.82 346.768   8
  -1  -5  -2 3763.24 290.602   6
   1   5   2 3137.84 381.607   3
   1  -5   2 2960.53 334.423  13
  -1   5  -2 3295.30 318.798   8
  -1  -5  -3 4216.83 322.043   6
  -1  -5  -3 2800.57 357.133  13
   1   5   3 4131.77 399.957   8
   1   5   3 3526.18 360.852   3
   1  -5   3 3686.86 375.730  13
  -1   5  -3 4101.85 349.972   8
  -1   5  -4 17882.7 726.914   8
   1   5   4 21664.0 923.905   8
  -1  -5  -4 21342.8 721.484   6
   1  -5   4 18030.4 825.997  13
  -1   5  -5 1213.88 200.317   8
   1  -5   5 1153.36 223.947  13
  -1  -5  -5 1615.48 214.860   6
  -1  -5  -6 5702.73 402.404   6
  -1   5  -6 4656.48 377.951   8
  -1  -5  -7 3741.28 333.095   6
  -1  -5  -8 1005.59 195.311   6
  -1  -5  -9 216.389 133.297   6
   1  -5  10 84.2004 58.3233   5
  -1  -5 -10 200.029 107.164   6
   1   5  11 1907.67 246.768   8
   1  -5  11 1875.53 165.040   5
   1  -5  12 1923.58 162.203   5
   1   5  12 1777.84 223.396   8
   1  -5  13 1302.88 187.970   9
   1   5  13 1270.44 162.498   8
   1  -5  13 1308.29 134.856   5
   1  -5  14 1474.61 135.163   5
   1  -5  14 1305.05 170.070   9
   1   5  14 1108.97 124.288   8
   1  -5  15 2222.42 180.621   9
  -1  -6  12 362.674 70.8925  11
  -1   6  11 303.800 76.7397   8
  -1  -6  11 350.170 72.6319  11
  -1  -6  10 1689.46 144.071  11
  -1   6  10 1323.22 165.594   8
  -1  -6   9 4397.62 227.951  11
  -1   6   9 3750.73 300.934   8
  -1   6   8 346.924 117.237   8
  -1  -6   8 470.628 89.0110  11
  -1   6   7 8663.02 511.374   8
  -1   6   6 5902.02 440.584   8
  -1  -6   5 8320.08 369.437   6
  -1   6   5 7291.12 493.254   8
  -1   6   4 2280.13 291.109   8
  -1  -6   4 2400.51 204.739   6
  -1   6   3 4130.32 382.557   8
  -1  -6   3 4241.86 270.811   6
  -1   6   2 4418.92 397.085   8
  -1  -6   2 4193.73 265.210   6
   1   6  -1 633.979 161.723   8
  -1  -6   1 801.598 122.520   6
  -1   6   0 11612.9 634.733   8
  -1  -6   0 11160.3 422.683   6
   1   6   1 19028.4 843.492   8
  -1   6  -1 20679.2 832.920   8
  -1   6  -2 2355.35 288.605   8
   1   6   2 2700.69 326.834   8
   1   6   3 1077.61 214.096   8
  -1   6  -3 772.475 171.228   8
  -1   6  -4 212.432 102.304   8
   1   6   4 544.276 158.647   8
   1   6   5 2342.38 307.271   8
  -1   6  -5 1396.30 225.091   8
   1   6   6 2462.58 312.428   8
   1   6   7 5084.52 428.668   8
   1   6   8 294.330 125.049   8
   1   6   9 1580.27 216.584   8
   1   6  10 343.174 109.104   8
   1   6  11 1529.48 178.043   8
   1   6  12 1730.53 158.491   8
   1  -6  12 2128.48 197.626   9
  -1   7   9 500.536 84.0245   8
  -1   7   8 203.877 69.3412   8
  -1   7   7 1951.98 199.303   8
  -1   7   6 954.347 159.052   8
  -1   7   5 1996.76 225.978   8
   1   7  -4 1811.40 197.545   8
  -1   7   4 6794.45 422.488   8
   1   7  -3 121.114 58.6937   8
  -1   7   3 169.437 100.243   8
  -1   7   2 632.236 150.779   8
   1   7  -2 414.099 105.784   8
   1   7  -1 1635.49 213.366   8
  -1   7   1 2649.06 277.498   8
  -1   7   0 4732.90 371.386   8
   1   7   0 4682.00 363.795   8
   1   7   1 1630.52 228.385   8
  -1   7  -1 919.637 168.795   8
   1   7   2 310.111 106.645   8
  -1   7  -2 172.031 88.6812   8
   1   7   3 429.277 120.835   8
  -1   7  -3 401.852 110.982   8
   1   7   4 808.152 162.540   8
   1   7   5 759.998 154.527   8
   1   7   6 843.692 148.960   8
   1   7   7 220.806 79.2037   8
   1   7   8 54.0189 57.4111   8
   1   7   9 1618.95 156.689   8
   1   7  10 718.024 90.0966   8
  -1   8   5 269.293 58.7204   8
  -1   8   4 328.582 71.0155   8
  -1   8   3 692.371 105.652   8
  -1   8   2 159.018 63.6226   8
   1   8  -1 308.443 64.7501   8
  -1   8   1 519.883 96.1106   8
  -1   8   0 208.234 66.1972   8
   1   8   0 150.487 47.2188   8
   1   8   1-40.8145 36.7312   8
   1   8   2 1619.53 149.144   8
   1   8   3 12.0863 32.9400   8
   1   8   4 1094.38 116.390   8
   1   8   5 941.508 101.138   8
  -2   0  19 49.5372 50.0212   5
  -2   0  18 3646.38 229.926   5
  -2   0  17 35.4519 75.4611   5
  -2   0  16 1483.60 193.593   5
  -2   0  15 81.5915 100.298   5
  -2   0  15 192.593 84.1733  10
  -2   0  14 34969.5 649.114  10
  -2   0  14 35412.7 861.846   5
  -2   0  13 107.144 66.2932  10
  -2   0  13 47.8742 88.2049   5
  -2   0  12 9436.77 434.892   5
  -2   0  12 9923.66 326.208  10
  -2   0  11 5.85220 43.1822  10
  -2   0  11 93.3353 89.1498   5
   2   0 -11-33.0284 76.5365  12
  -2   0  11-3.12572 49.0431   4
  -2   0  10 21167.3 900.065   2
  -2   0   9-46.3537 68.1345   2
  -2   0   8 29311.3 915.787   2
  -2   0   7-93.3439 66.1449   2
  -2   0   6 81408.0 1360.82   2
  -2   0   5-23.6143 49.9102   2
  -2   0   5 50.9929 21.6214   1
  -2   0   4 6666.65 360.935   2
  -2   0   4 6582.80 257.004   1
   2   0  -4 6622.88 325.412   3
   2   0  -3-11.6719 43.6065   3
  -2   0   3 7.94196 37.2757   1
   2   0  -2 9824.09 423.364   3
  -2   0   2 10438.7 384.495   1
   2   0  -1 16.3692 121.851   3
  -2   0   1 45.0144 63.3569   1
  -2   0   0 870003. 3935.02   1
  -2   0   0 874960. 2633.08  12
   2   0   1 100.262 90.6815   3
  -2   0  -1 65.5509 85.8918   1
  -2   0  -1 8.55000 34.0714  12
  -2   0  -2 236873. 1681.35  12
   2   0   2 238674. 1688.07   3
  -2   0  -3 35.9784 74.3997   1
  -2   0  -3-13.7963 56.5401  12
  -2   0  -4 6679.87 417.195   1
  -2   0  -4 7831.59 407.633  12
  -2   0  -5-40.1885 81.0486  12
  -2   0  -5-4.39983 58.5521   1
  -2   0  -6 7259.91 469.244   1
  -2   0  -6 10412.9 584.934  12
   2   0   7 39.0847 57.2278   2
  -2   0  -7 47.7056 58.3736   1
  -2   0  -7 38.0660 99.6068  12
   2   0   8 24911.2 871.758   2
  -2   0  -8 21572.0 1025.15  12
   2   0   9 252.749 130.785   2
  -2   0  -9-64.9667 125.443  12
   2   0  10 8423.25 465.461   9
   2   0  10 8758.35 656.483   2
   2   0  11 43.1598 51.3472   5
   2   0  11 26.6965 82.0251   9
   2   0  11-72.5684 164.047   2
  -2   0 -11 165.837 183.914  12
   2   0  12 11290.2 902.094   2
   2   0  12 11817.2 398.725   5
   2   0  12 10435.4 576.893   9
   2   0  13-7.14424 54.6432   5
   2   0  13 99.3873 98.9973   9
   2   0  14 1582.76 165.546   5
   2   0  14 1541.09 240.665   9
   2   0  15 30.4662 89.5451   9
   2   0  16 617.315 140.869   9
   2   0  17-4.87183 66.2471   9
   2   0  18 2486.67 185.399   9
  -2   0 -18 836.461 155.767   6
  -2  -1  19 511.181 85.6559   5
  -2  -1  18 271.668 84.9713   5
  -2   1  18 357.839 82.0744   5
  -2   1  17-8.96871 70.9127   5
  -2  -1  17-8.74410 73.8874   5
  -2  -1  16 1124.87 171.078   5
  -2   1  16 1133.16 158.396   5
  -2   1  15 267.315 115.326   5
  -2  -1  15 365.035 92.3982  10
  -2  -1  15 244.501 107.386   5
  -2  -1  15 197.360 78.9134  11
  -2  -1  14 5387.55 263.741  10
  -2   1  14 5358.05 357.032   5
  -2  -1  14 5391.59 343.283   5
  -2   1  14 5357.63 258.030  10
  -2  -1  14 4853.49 266.869  11
  -2   1  13 19124.3 626.674   5
  -2  -1  13 17678.1 584.839   5
  -2   1  13 18356.2 454.559  10
  -2  -1  13 18711.1 465.452  10
  -2   1  12 4719.11 230.611  10
  -2  -1  12 4105.14 287.354   5
  -2  -1  12 4994.67 236.858  10
  -2   1  12 5131.36 258.798   4
  -2  -1  12 4292.57 238.819  11
  -2   1  12 4913.76 320.151   5
  -2  -1  12 2694.74 434.206   2
   2   1 -12 2797.75 421.720   3
  -2  -1  11 17598.0 443.856  11
   2   1 -11 9796.83 666.583  12
  -2   1  11 18663.1 415.848  10
  -2   1  11 20135.5 607.648   5
  -2  -1  11 17123.1 522.174   5
  -2  -1  11 12115.7 829.696   2
  -2   1  11 19376.9 490.295   4
  -2  -1  11 18421.9 432.881  10
   2   1 -10 131.681 68.3293  12
  -2  -1  10 318.667 147.311   2
  -2  -1   9 8123.03 590.886   2
   2   1  -9 6591.03 464.380  12
  -2  -1   8 7383.42 531.164   2
   2   1  -8 7052.76 435.601  12
   2   1  -7 69792.0 1479.34   3
  -2  -1   7 67338.6 1528.83   2
   2   1  -7 65748.1 1188.76  12
   2   1  -6 1738.82 227.312   3
   2   1  -6 1645.84 168.728  12
  -2   1   6 1904.58 168.607   2
  -2  -1   6 1561.39 230.694   2
  -2  -1   6 1736.36 136.648   1
   2  -1  -6 1555.54 98.3352  13
   2   1  -5 16799.0 659.560   3
  -2  -1   5 15976.3 689.755   2
  -2   1   5 16286.4 431.129   2
  -2  -1   5 15815.1 444.754   1
   2   1  -5 14949.2 429.169  12
   2   1  -4 43553.2 1017.29   3
  -2  -1   4 42043.3 1088.70   2
   2  -1  -4 40212.5 531.238  13
  -2  -1   4 43018.8 794.306   1
   2   1  -3 8774.44 480.851   3
  -2  -1   3 9164.26 382.804   1
   2  -1  -3 8306.74 274.975   3
  -2   1   3 9064.39 325.119   1
  -2  -1   2 1006.88 142.960   1
   2   1  -2 650.075 170.434   3
  -2   1   2 1003.59 118.895   1
   2  -1  -2 844.070 89.4262   3
  -2   1   1 60544.7 968.925   1
   2   1  -1 57748.3 1536.32   3
   2   1   0 130692. 3199.76   3
  -2   1   0 131051. 1470.16   1
  -2   1  -1 460078. 3138.38  12
  -2  -1  -1 458656. 3147.06   1
  -2  -1  -2 112760. 1647.86   1
  -2   1  -2 113799. 1508.50  12
  -2   1  -3 33334.4 864.271   1
   2   1   3 31698.0 870.549   3
  -2  -1  -3 31194.2 939.796   1
  -2   1  -3 32366.5 846.126  12
  -2  -1  -4 64792.4 1418.88   1
  -2   1  -4 72227.5 1347.15   1
   2   1   4 75396.9 1227.47   3
   2  -1   4 71213.2 1040.98   2
  -2   1  -4 65959.2 1292.41  12
  -2   1  -5 48015.1 1119.87   1
  -2   1  -5 47572.7 1172.26  12
  -2   1  -6 8724.84 550.600  12
   2  -1   6 11120.4 341.082  13
  -2  -1  -6 6073.98 464.289   1
  -2   1  -6 7573.36 456.300   1
   2  -1   6 11520.1 549.033   2
  -2  -1  -7 10116.5 615.266   1
  -2   1  -7 14255.9 654.902   1
   2  -1   7 21441.9 827.349   2
  -2   1  -7 19195.9 880.393  12
  -2   1  -8 1432.44 278.974  12
   2  -1   8 2220.69 310.900   2
   2  -1   9 23828.8 1102.16   2
   2   1   9 23703.0 893.476   2
   2   1  10 1156.94 203.058   9
   2  -1  10 1116.37 178.057   9
   2  -1  10 1004.57 258.617   2
  -2  -1 -10 888.386 265.941  12
   2   1  10 869.316 218.414   2
  -2   1 -10 524.405 209.569  12
   2   1  11 1993.60 334.396   2
   2   1  11 2332.74 272.491   9
   2  -1  11 2069.99 240.258   9
   2  -1  11 1871.71 163.089   5
   2  -1  11 1608.05 344.451   2
  -2   1 -11 1248.97 355.610  12
  -2  -1 -11 1253.68 321.121  12
   2  -1  12 4289.16 248.948   5
   2  -1  12 3535.89 329.613   9
   2   1  12 4048.83 374.684   9
   2   1  13 2234.31 280.819   9
   2  -1  13 2435.28 201.905   5
   2  -1  13 2108.74 272.356   9
   2   1  14 2715.84 299.618   9
   2  -1  14 2584.51 294.009   9
   2  -1  14 3164.46 228.782   5
   2   1  15 2018.87 250.533   9
   2  -1  15 2033.60 185.574   5
   2  -1  15 1854.27 247.630   9
   2  -1  16 879.207 120.843   5
   2  -1  16 919.705 167.107   9
   2   1  16 728.156 145.406   9
   2  -1  17 1853.22 140.618   5
   2   1  17 1267.23 159.060   9
   2  -1  17 1668.47 191.683   9
  -2   1 -18 101.180 106.675   6
   2  -1  18 53.5528 44.0306   9
   2   1  18 56.8820 41.6834   9
  -2  -1 -18-6.02648 70.1994   6
  -2  -2  18-44.9915 63.2856   5
  -2   2  17 1677.39 149.526   5
  -2  -2  17 1838.48 177.389   5
  -2   2  16 165.515 86.4550   5
  -2  -2  16 313.702 107.884   5
  -2  -2  16 159.557 85.9466  11
  -2   2  15 2272.47 216.054   5
  -2  -2  15 1472.40 190.879   9
  -2  -2  15 2168.26 213.769   5
  -2  -2  15 2218.70 162.106  10
  -2  -2  15 2020.49 186.732  11
  -2  -2  14 967.342 112.940  10
  -2  -2  14 863.506 148.483   5
  -2  -2  14 876.852 163.452   9
  -2  -2  14 1016.75 145.572  11
  -2   2  14 1049.54 167.274   5
  -2  -2  13 5939.39 258.536  10
  -2  -2  13 5158.58 314.901   5
  -2   2  13 5767.30 359.374   5
  -2  -2  13 5237.87 291.329  11
   2   2 -12 1262.00 318.884   3
  -2   2  12 1221.78 128.083  10
  -2  -2  12 988.309 140.131   5
  -2   2  12 1441.20 194.386   5
  -2   2  12 1240.45 127.478   4
  -2  -2  12 1244.17 144.507  11
  -2  -2  12 1194.80 119.791  10
   2   2 -11 2732.42 444.254   3
  -2   2  11 4069.21 203.521  10
  -2  -2  11 3548.94 243.678   5
  -2  -2  11 2765.84 455.464   2
  -2  -2  11 4468.91 216.200  10
  -2   2  11 3943.31 220.176   4
  -2  -2  11 4125.17 243.412  11
  -2   2  11 4299.41 306.909   5
  -2   2  10 32856.4 532.831  10
   2   2 -10 24102.8 1216.41   3
  -2  -2  10 22222.7 1217.93   2
  -2  -2  10 28976.4 631.011   5
  -2   2  10 33273.5 610.259   4
  -2  -2  10 33651.6 649.845  11
  -2  -2  10 34743.9 578.798  10
  -2   2  10 36884.0 840.441   5
   2   2  -9 3724.79 453.758   3
  -2  -2   9 3151.55 431.812   2
   2   2  -9 3016.47 354.254  12
   2   2  -8 1141.40 262.402   3
  -2  -2   8 953.496 240.109   2
   2   2  -8 966.279 185.165  12
   2   2  -7 8900.61 625.383   3
  -2  -2   7 7644.45 599.383   2
   2   2  -7 7603.09 472.711  12
  -2  -2   6 3913.36 417.511   2
   2   2  -6 3877.92 317.685  12
   2  -2  -6 3883.63 204.750  13
   2   2  -6 4097.90 404.231   3
   2  -2  -5 42504.9 660.914  13
  -2  -2   5 46643.4 1390.75   2
   2   2  -5 44889.1 1029.63  12
   2   2  -4 2317.50 307.781   3
  -2  -2   4 2276.31 312.773   2
   2  -2  -4 2030.35 142.841  13
   2  -2  -3 60217.9 768.699  13
  -2  -2   3 65260.9 1144.18  13
   2   2  -2 25758.7 1147.01   3
   2  -2  -2 24986.6 486.726  13
   2   2  -1 2345.76 468.003   3
   2  -2  -1 1885.42 137.675  13
  -2  -2   1 2208.16 226.478  13
   2   2   0 19121.1 1415.64   3
   2  -2   0 16687.3 404.765  13
  -2  -2   0 18809.5 653.436  13
   2  -2   1 3015.01 179.482  13
   2  -2   1 2736.39 186.955   2
  -2   2  -2 69690.3 742.738   3
   2   2   2 75744.5 2329.67   3
   2  -2   2 67351.9 1033.56   2
  -2   2  -2 73197.8 1666.99  12
   2  -2   2 71460.6 873.730  13
  -2  -2  -2 80457.8 1555.70   1
   2  -2   3 12996.1 385.709  13
   2  -2   3 11824.7 491.592   2
   2   2   3 13506.7 766.885   3
  -2   2  -3 11536.3 658.589  12
  -2  -2  -3 12379.2 682.844   1
   2   2   4 30733.7 946.301   3
  -2  -2  -4 27966.3 974.732   1
   2  -2   4 29292.0 842.579   2
   2  -2   4 30678.2 603.590  13
  -2   2  -4 29748.1 1082.36  12
   2   2   5 38142.8 1015.49   3
   2  -2   5 35365.7 1020.30   2
   2  -2   5 37707.2 707.202  13
  -2   2  -5 35494.3 1232.08  12
  -2   2  -6 21356.8 1015.97  12
   2  -2   6 22859.4 559.113  13
   2  -2   6 21097.5 872.330   2
   2  -2   7 14616.4 781.706   2
  -2   2  -7 14028.0 882.504  12
  -2   2  -8 11449.8 855.455  12
   2  -2   8 11941.9 769.129   2
   2   2   9 4101.91 348.612   9
   2  -2   9 4053.86 492.007   2
  -2   2  -9 3584.91 523.354  12
   2  -2  10 2237.31 423.052   2
   2   2  10 2091.53 267.384   9
   2   2  10 1698.80 263.129   2
  -2   2 -10 1810.75 419.735  12
   2  -2  11 11626.7 560.200   9
   2   2  11 10682.3 587.189   9
   2  -2  11 11960.3 1001.71   2
   2   2  11 11643.6 756.919   2
  -2   2 -11 9083.46 926.004  12
   2   2  12 6842.43 483.839   9
   2  -2  12 8251.78 354.896   5
   2  -2  12 7401.05 474.031   9
   2  -2  13 1138.34 143.248   5
   2  -2  13 896.216 179.846   9
   2   2  13 644.086 161.984   9
   2   2  14 7722.04 478.832   9
   2  -2  14 8993.09 522.353   9
  -2  -2 -15 203.933 169.934   6
   2  -2  15 225.495 114.660   9
   2  -2  15 254.082 77.1818   5
   2   2  15 134.323 85.9220   9
   2   2  16 976.520 150.107   9
   2  -2  16 1486.87 193.185   9
   2  -2  16 1414.96 146.603   5
   2  -2  17 178.954 78.3112   9
  -2  -2 -17 25.7377 86.8691   6
   2  -2  17 116.468 53.5980   5
  -2  -3  17 3339.50 199.449   5
  -2  -3  16 145.523 75.9160  11
  -2  -3  16 146.345 78.6659   9
  -2  -3  16 114.758 76.9470   5
  -2  -3  15 2020.76 189.617   5
  -2  -3  15 1734.43 199.975   9
  -2  -3  15 2123.22 201.168  11
  -2  -3  14 1283.51 163.806  11
  -2  -3  14 1111.28 150.926   5
  -2   3  14 1111.19 154.982   5
  -2  -3  13 14130.5 476.873  11
  -2   3  13 14125.5 512.287   5
  -2   3  12 21574.8 643.972   5
  -2  -3  12 19692.0 563.697  11
  -2   3  11 32110.7 794.278   5
  -2  -3  11 24337.6 607.492   5
  -2  -3  11 29893.4 674.476  11
  -2  -3  11 20301.6 1332.63   2
   2   3 -11 21673.0 1357.46   3
  -2  -3  10 11978.0 429.533  11
  -2  -3  10 9589.68 361.613   5
  -2  -3  10 8121.12 811.683   2
  -2   3  10 13543.2 515.066   5
   2   3 -10 8962.08 853.324   3
  -2  -3   9 787.521 106.886   5
  -2   3   9 828.592 147.996   5
  -2  -3   9 979.248 131.315  11
   2   3  -9 722.173 266.264   3
  -2  -3   9 452.238 231.104   2
   2   3  -8 3018.44 465.637   3
  -2  -3   8 4135.38 238.520  11
  -2  -3   8 2388.25 424.023   2
  -2  -3   8 3873.24 243.673   6
   2   3  -7 4790.68 550.082   3
  -2  -3   7 4160.34 521.306   2
   2   3  -6 2253.87 397.309   3
  -2  -3   6 2359.46 388.081   2
   2  -3  -6 2144.49 195.985  13
   2  -3  -5 9243.46 390.224  13
  -2  -3   5 8389.16 490.770  13
   2   3  -4 11468.9 894.719   3
   2  -3  -4 11143.1 421.166  13
  -2  -3   3 357.027 124.379  13
   2   3  -3 446.558 243.479   3
   2  -3  -3 771.971 113.351  13
  -2  -3   2 15110.4 621.158  13
   2  -3  -2 16219.7 501.856  13
   2   3  -2 16095.9 1190.71   3
   2   3  -1 25440.9 1747.81   3
   2  -3  -1 27516.2 646.227  13
  -2  -3   1 26586.6 826.954  13
   2   3   0 10114.6 1310.25   3
  -2  -3   0 9389.30 505.248  13
   2  -3   0 9236.20 381.552  13
   2  -3   1 35663.5 747.974  13
  -2  -3  -1 34531.5 990.341  13
   2  -3   2 6050.53 316.757  13
   2   3   2 6108.52 714.938   3
  -2  -3  -2 5622.50 422.723  13
   2  -3   2 5426.94 378.737   2
   2  -3   3 9466.79 546.871   2
  -2  -3  -3 10064.3 584.423  13
   2   3   3 11242.5 761.610   3
  -2  -3  -3 11432.6 699.356   1
   2  -3   3 11114.3 439.084  13
   2  -3   4 5901.40 331.523  13
   2   3   4 6011.52 497.745   3
  -2  -3  -4 5153.76 490.886   1
  -2   3  -4 5423.99 623.101  12
   2  -3   4 4852.45 426.113   2
   2  -3   5 26789.5 722.608  13
   2   3   5 25546.2 919.452   3
   2  -3   5 23229.7 1012.43   2
  -2   3  -5 25672.6 1323.41  12
   2  -3   6 7673.26 623.393   2
   2  -3   6 8739.48 423.185  13
  -2  -3  -6 6239.77 564.541   1
  -2   3  -6 7822.66 778.679  12
   2   3   7 1017.54 186.827   9
  -2  -3  -7 740.164 250.607   6
   2  -3   7 940.966 255.724   2
  -2   3  -7 901.935 321.381  12
  -2  -3  -7 931.568 227.942   1
   2   3   8 1494.12 230.078   9
  -2  -3  -8 1282.26 308.493   6
   2  -3   8 1490.94 331.630   2
  -2   3  -8 1650.00 438.185  12
   2  -3   8 1277.38 129.131  11
   2   3   9 3066.63 324.555   9
   2  -3   9 2803.21 474.487   2
  -2  -3  -9 2096.77 381.945   6
  -2   3  -9 3264.29 624.273  12
   2  -3   9 3019.76 201.417  11
  -2  -3 -10 609.351 262.012   6
  -2   3 -10 931.334 357.409  12
   2   3  10 666.598 168.854   9
   2  -3  10 726.970 245.371   2
  -2  -3 -11 1001.04 279.953   6
   2   3  11 1615.21 245.644   9
   2   3  12 3101.10 327.027   9
   2  -3  12 4435.89 269.555   5
   2  -3  12 3900.09 345.244   9
  -2  -3 -12 2355.50 354.833   6
   2  -3  13 1318.53 154.830   5
   2  -3  13 1141.20 196.824   9
   2   3  13 854.946 175.364   9
  -2  -3 -14 167.627 151.460   6
   2  -3  14 229.260 106.060   9
   2  -3  14 205.553 80.5921   5
   2  -3  15 1353.53 148.791   5
   2  -3  15 1307.93 186.169   9
   2  -3  16 111.858 83.2653   9
  -2  -3 -16-121.175 79.3423   6
   2  -3  16-12.4469 59.7222   5
  -2  -4  16 468.799 78.6600   5
  -2  -4  16 672.906 105.342  11
  -2  -4  15 334.329 96.5401  11
  -2  -4  15 235.108 76.4037   5
  -2  -4  15 216.877 82.2807   9
  -2  -4  14 943.744 123.601   5
  -2  -4  14 1179.86 156.186  11
  -2  -4  13 620.069 128.481  11
  -2  -4  13 360.741 90.5005   5
  -2  -4  12 2119.61 181.931   5
  -2  -4  12 2725.60 219.212  11
  -2  -4  11 2370.23 211.701  11
  -2  -4  10 2382.64 207.992  11
  -2  -4   9 317.487 93.6374  11
   2   4  -9 42.9463 227.195   3
  -2  -4   8 17381.1 518.298  11
  -2  -4   8 16859.6 543.153   6
  -2  -4   7 15985.9 520.556   6
  -2  -4   7 15715.8 492.406  11
  -2   4   6 2116.66 226.551   8
  -2  -4   6 2043.98 181.963  11
   2  -4  -6 1331.83 192.812  13
  -2  -4   6 1980.01 187.858   6
  -2  -4   6 982.888 199.955  13
   2   4  -6 1392.82 418.668   3
   2   4  -5 2974.87 641.257   3
  -2  -4   5 4746.30 260.889  11
  -2  -4   5 4252.54 256.237   6
   2  -4  -5 3217.74 287.631  13
  -2  -4   5 2250.28 301.206  13
   2   4  -4 228.962 299.702   3
   2  -4  -4-3.83828 39.8439  13
  -2  -4   4 82.2121 57.6841  13
   2   4  -3 367.970 327.198   3
   2  -4  -3 290.093 87.1887  13
  -2  -4   3 144.714 93.6422  13
   2   4  -2 16751.1 1660.24   3
   2  -4  -2 18661.5 660.995  13
  -2  -4   2 15197.8 723.495  13
   2  -4  -1 3077.19 271.939  13
   2   4  -1 2350.35 856.954   3
  -2  -4   1 2459.87 303.209  13
   2  -4   0 4781.80 340.930  13
   2   4   0 3150.82 810.629   3
  -2  -4   0 3724.74 373.221  13
  -2  -4  -1 13295.4 702.749  13
   2   4   1 13679.2 1243.25   3
   2  -4   1 15115.9 614.072  13
   2   4   2 14888.2 1051.17   3
   2  -4   2 15794.3 628.519  13
  -2   4  -3 2641.12 247.937   8
   2   4   3 2213.48 383.576   3
  -2  -4  -3 1896.80 297.813  13
   2  -4   3 2347.71 249.402  13
   2  -4   4 1254.05 186.996  13
  -2   4  -4 1455.51 198.100   8
  -2  -4  -4 847.455 230.073   1
   2   4   4 1049.92 230.613   3
  -2  -4  -4 1769.14 251.113   6
  -2   4  -5 6762.61 423.478   8
   2   4   5 5982.89 480.887   3
   2  -4   5 5760.25 405.069  13
  -2  -4  -5 6360.81 468.724   6
   2  -4   6 15450.4 675.724  13
  -2  -4  -6 14661.3 718.829   6
   2  -4   7 2113.92 407.534   2
  -2  -4  -7 1942.71 289.005   6
  -2  -4  -8 540.036 182.657   6
   2  -4   8 1232.48 313.078   2
  -2  -4  -9 7730.99 545.042   6
  -2  -4 -10 1621.56 267.404   6
  -2  -4 -11 844.348 203.363   6
   2  -4  11 2065.56 186.248   5
   2  -4  12 60.0989 78.3119   9
   2  -4  12 44.5029 64.7104   5
  -2  -4 -12-15.0670 130.916   6
   2  -4  13 309.463 114.704   9
   2  -4  13 414.663 95.5501   5
  -2  -4 -13 254.648 121.257   6
   2  -4  14 4074.81 234.115   5
   2  -4  14 3484.78 281.619   9
   2  -4  15 3069.73 191.593   5
   2  -4  15 2751.51 222.798   9
   2   4  15 2404.33 183.154   8
  -2  -5  15 708.358 92.0343  11
  -2  -5  14 106.293 64.3866  11
  -2  -5  13 2760.94 194.005  11
  -2  -5  12 3430.64 226.553  11
  -2  -5  11 1020.86 140.205  11
  -2  -5  10 4086.60 260.397  11
  -2  -5   9 1124.87 147.683  11
  -2  -5   8 1386.14 162.212  11
  -2   5   8 902.087 160.183   8
  -2  -5   7 6748.36 333.314  11
  -2   5   7 5996.04 403.608   8
  -2  -5   7 6734.11 365.224   6
  -2  -5   6 1477.42 178.294   6
  -2  -5   6 1281.64 153.820  11
  -2   5   6 1336.02 200.362   8
  -2  -5   5 2531.06 223.584   6
  -2   5   5 2523.59 272.714   8
  -2  -5   5 2550.65 205.147  11
   2   5  -5 964.795 494.381   3
   2  -5  -5 1576.80 238.323  13
  -2  -5   5 1397.53 262.440  13
   2  -5  -4 3259.86 346.853  13
  -2   5   4 5091.97 390.990   8
  -2  -5   4 4470.36 288.144   6
   2   5  -4 3348.73 1050.33   3
  -2  -5   4 2679.09 366.602  13
  -2  -5   4 4346.86 265.140  11
   2   5  -3 12368.4 2001.90   3
  -2   5   3 12502.3 613.885   8
  -2  -5   3 6865.20 586.124  13
  -2  -5   3 10387.7 437.212   6
   2  -5  -3 8154.21 541.219  13
  -2   5   2 6247.36 433.208   8
   2   5  -2 1687.61 230.331   8
   2   5  -2 5360.74 1243.41   3
  -2  -5   2 3119.32 391.022  13
  -2  -5   2 5384.04 327.997   6
   2  -5  -2 4091.84 381.638  13
   2   5  -1 1739.37 247.017   8
   2  -5  -1 3919.19 371.174  13
  -2   5   1 4836.95 382.402   8
  -2  -5   1 3011.18 391.278  13
   2   5  -1 2799.33 801.832   3
  -2  -5   1 4886.90 317.252   6
  -2  -5   0 127.318 94.3490   6
  -2   5   0 329.759 147.032   8
   2   5   0 227.528 101.535   8
   2  -5   0 490.637 153.856  13
   2   5   0-129.065 283.285   3
  -2  -5   0 210.658 145.884  13
   2   5   1 9206.45 859.173   3
  -2   5  -1 11241.9 563.634   8
   2   5   1 6973.94 510.026   8
   2  -5   1 9780.90 592.366  13
  -2  -5  -1 12243.0 533.212   6
  -2  -5  -1 7711.58 624.477  13
   2   5   2 2108.33 290.528   8
   2   5   2 2633.74 420.276   3
  -2   5  -2 2951.30 297.750   8
   2  -5   2 2601.00 312.231  13
  -2  -5  -2 3008.02 288.203   6
  -2  -5  -2 2354.63 360.762  13
  -2   5  -3 5127.08 390.965   8
   2   5   3 4140.18 449.934   3
   2   5   3 4471.01 423.013   8
  -2  -5  -3 3673.32 479.628   1
   2  -5   3 4524.07 414.002  13
  -2  -5  -3 5043.66 373.432   6
  -2  -5  -4 1986.79 377.751   1
  -2   5  -4 3239.71 315.141   8
   2   5   4 3201.97 365.629   3
   2  -5   4 3271.89 366.916  13
  -2  -5  -4 3147.39 315.567   6
   2  -5   5 1113.13 230.135  13
  -2  -5  -5 451.389 173.041   1
  -2  -5  -5 831.893 177.516   6
  -2  -5  -6 3930.32 349.245   6
  -2  -5  -7 1307.92 225.720   6
  -2  -5  -8 2582.96 284.934   6
  -2  -5  -9 1810.47 245.592   6
  -2  -5 -10 1213.26 178.128   6
  -2  -5 -11 337.226 101.003   6
   2  -5  11 495.278 96.2073   5
   2  -5  12 1474.24 140.685   5
   2  -5  12 1145.90 167.748   9
   2   5  12 1309.15 180.214   8
  -2  -5 -12 910.736 129.550   6
   2  -5  13 2234.14 160.659   5
   2  -5  13 1804.66 194.393   9
   2   5  13 1637.07 176.893   8
   2  -5  14 931.291 119.490   9
   2  -5  14 995.001 102.870   5
  -2  -6  12 654.846 83.3309  11
  -2  -6  11 193.955 60.1740  11
  -2  -6  10 212.035 67.7835  11
  -2   6   9 1544.78 165.776   8
  -2  -6   9 2425.49 176.761  11
  -2   6   8 1342.92 173.823   8
  -2  -6   8 1721.68 155.081  11
  -2  -6   7 281.371 73.6652  11
  -2   6   7 189.983 79.2355   8
  -2  -6   6 5101.53 265.129  11
  -2  -6   6 5214.34 306.524   6
  -2  -6   5 7928.41 328.939  11
  -2  -6   5 8178.21 386.267   6
  -2   6   4 15817.5 682.169   8
  -2  -6   4 16363.2 547.540   6
  -2  -6   4 17047.3 481.928  11
  -2   6   3 6317.33 431.856   8
  -2  -6   3 6431.45 349.687   6
  -2  -6   2 9385.88 414.101   6
  -2   6   2 10334.8 559.270   8
  -2   6   1 8445.49 509.502   8
  -2  -6   1 8164.27 386.506   6
  -2   6   0 4245.01 366.502   8
  -2  -6   0 3782.59 275.754   6
  -2   6  -1 3824.77 347.280   8
  -2  -6  -1 3853.52 288.451   6
   2   6   2 1129.68 213.806   8
  -2   6  -2 1293.98 210.646   8
  -2  -6  -2 1391.01 178.489   6
  -2  -6  -3 932.680 143.839   6
  -2   6  -3 821.535 175.671   8
   2   6   3 797.865 183.412   8
  -2   6  -4 1388.56 217.046   8
   2   6   4 1434.14 243.540   8
  -2  -6  -4 1270.99 165.344   6
   2   6   5 2458.69 305.060   8
  -2  -6  -5 1919.89 204.121   6
  -2  -6  -6 584.221 120.221   6
   2   6   6 557.286 157.249   8
   2   6   7 2855.67 317.145   8
  -2  -6  -7 2178.83 196.596   6
  -2  -6  -8 64.3778 51.1976   6
   2   6   8 153.963 89.4308   8
   2  -6   9 1238.03 119.337   5
   2   6   9 1420.58 205.990   8
  -2  -6  -9 948.656 114.368   6
  -2  -6 -10 377.982 64.8649   6
   2   6  10 687.825 138.172   8
   2  -6  10 733.143 86.8873   5
   2  -6  11 99.3009 42.5407   5
   2   6  11 133.243 65.2026   8
   2  -6  11 95.6046 54.3654   9
   2   6  12 228.494 57.2090   8
  -2   7   8 457.520 77.1155   8
  -2   7   7 1020.79 126.690   8
  -2   7   6 749.917 122.802   8
  -2   7   5 75.0129 67.0988   8
  -2   7   4 1077.94 161.325   8
  -2  -7   4 1090.60 122.267   6
  -2   7   3 851.586 154.566   8
  -2  -7   3 971.227 116.584   6
  -2   7   2 955.731 161.063   8
  -2  -7   2 1151.56 127.855   6
  -2  -7   1 2740.17 192.551   6
  -2   7   1 2746.42 273.273   8
  -2  -7   0 2326.83 176.846   6
  -2   7   0 2237.39 243.286   8
  -2   7  -1 2158.55 242.302   8
   2   7   1 1620.17 201.595   8
  -2  -7  -1 2048.76 162.171   6
  -2  -7  -2 986.698 113.681   6
  -2   7  -2 1094.60 177.264   8
   2   7   2 1106.13 173.767   8
   2   7   3 222.174 84.4790   8
  -2  -7  -3 151.680 49.9813   6
   2   7   4 1415.18 197.912   8
   2   7   5 1756.31 207.969   8
   2   7   6 151.868 66.0545   8
   2   7   7 209.708 69.1945   8
   2   7   8 338.630 78.3939   8
   2   7   9 621.261 87.5658   8
  -3   0  19 24.7882 37.1935   5
  -3   0  18 53.1402 60.6109   5
  -3   0  17-6.02605 66.5976   5
  -3   0  16 3359.73 260.292   5
  -3   0  16 3774.88 209.170  10
  -3   0  15 21.4395 95.9647   5
  -3   0  15 54.0576 66.3572  10
  -3   0  14 8514.84 423.706   5
  -3   0  14 8920.05 328.410  10
  -3   0  13-6.52107 45.8280  10
  -3   0  13-28.9221 101.344   5
  -3   0  13 7.10906 55.0647   4
  -3   0  12 10864.5 467.107   5
  -3   0  12 10582.3 353.590  10
  -3   0  11-29.9089 62.9928  10
  -3   0  11-33.3897 82.5507   5
   3   0 -11 77.6022 86.0264   3
  -3   0  11-6.36361 50.8346   4
  -3   0  10 13321.7 368.418  10
  -3   0  10 14386.5 450.786   4
  -3   0  10 13210.4 476.614   5
   3   0  -9-6.55378 86.3550   3
   3   0  -8 49537.1 1320.10   3
   3   0  -7 18.2581 61.6415   3
   3   0  -6 41694.8 1083.12   3
  -3   0   5 35.9502 38.0482   1
   3   0  -5 26.4440 57.5576   3
   3   0  -4 17823.4 729.903   3
  -3   0   4 18844.3 582.767   1
  -3   0   3 8.01399 52.9223   1
   3   0  -3 49.1818 87.3156   3
   3   0  -2 37239.0 1442.14   3
  -3   0   2 38439.5 948.206   1
  -3   0   1 12.1762 61.2192   1
   3   0  -1-26.7845 285.724   3
   3   0   0 10942.8 734.023   3
  -3   0   0 12489.8 594.653   1
  -3   0  -1 34.6714 88.2484   1
   3   0   1 38.8711 73.2147   3
  -3   0  -1-8.86015 41.6217  12
   3   0   2 8262.10 377.573   3
  -3   0  -2 8435.00 537.042   1
  -3   0  -2 7816.99 352.682  12
  -3   0  -3-43.9586 105.393   1
  -3   0  -3 19.0034 50.1275  12
  -3   0  -4 3062.78 358.512   1
  -3   0  -4 3048.43 267.554  12
  -3   0  -5-81.8109 89.2717   1
  -3   0  -5-22.5708 66.2991  12
  -3   0  -6 11236.1 619.167  12
  -3   0  -6 10256.3 669.002   1
  -3   0  -7-29.1897 79.4044  12
  -3   0  -7-36.5622 67.8271   1
  -3   0  -8 1243.70 251.419   1
  -3   0  -8 2034.78 334.452  12
   3   0   9-36.0004 78.5179   9
   3   0   9 100.877 104.938   2
  -3   0  -9-21.6531 142.382  12
   3   0  10 13085.5 613.788   9
  -3   0 -10 11409.5 853.285  12
   3   0  11 96.8741 98.7751   9
  -3   0 -11-191.782 168.801  12
   3   0  12 6945.47 461.632   9
   3   0  13 9.20053 83.8702   9
   3   0  14 3631.68 323.412   9
   3   0  15 20.8023 76.9750   9
  -3   0 -16 502.021 178.547   6
   3   0  16 548.909 116.360   9
  -3   0 -17 6.91043 81.3974   6
   3   0  17-50.6254 56.0869   9
  -3   1  18 335.060 77.8735   5
  -3  -1  18 285.437 72.7715   5
  -3  -1  17 496.787 109.431   5
  -3   1  17 519.998 109.542   5
  -3   1  16 1509.33 183.406   5
  -3  -1  16 1644.91 145.680  10
  -3  -1  16 1437.65 170.983   5
  -3  -1  15 2919.88 247.397   5
  -3   1  15 2970.97 190.622  10
  -3  -1  15 3062.40 201.646  10
  -3   1  15 2889.67 257.842   5
  -3   1  14 1672.09 207.846   5
  -3  -1  14 1425.10 186.965   5
  -3  -1  14 1674.80 151.087  10
  -3   1  14 1685.25 147.351  10
  -3  -1  14 1234.19 140.738  11
  -3   1  13 1042.09 124.543  10
  -3  -1  13 1019.28 119.632  10
  -3  -1  13 862.099 115.326  11
  -3  -1  13 772.990 142.470   5
  -3   1  13 1185.14 139.487   4
  -3   1  13 918.879 160.017   5
  -3  -1  12 12969.9 396.469  11
  -3   1  12 13858.0 389.151  10
  -3   1  12 13981.1 555.938   5
  -3  -1  12 12944.2 493.765   5
  -3   1  12 13882.0 463.257   4
  -3  -1  12 14275.9 415.609  10
  -3  -1  11 10697.4 354.050  11
  -3  -1  11 11990.8 377.011  10
  -3   1  11 11942.6 349.690  10
  -3   1  11 12074.8 514.655   5
  -3  -1  11 10637.7 447.942   5
  -3  -1  11 13483.3 432.974   4
  -3   1  11 12497.8 426.826   4
   3   1 -10 2739.17 404.457   3
  -3  -1  10 3926.13 268.777   5
  -3   1  10 4281.73 203.083  10
  -3  -1  10 2952.51 410.656   2
  -3  -1  10 5067.19 259.356   4
  -3   1  10 4978.24 272.395   4
  -3   1  10 4908.91 317.894   5
  -3  -1  10 4257.89 216.262  11
  -3  -1  10 4678.75 231.687  10
   3   1  -9 11527.6 759.989   3
  -3  -1   9 12039.5 786.335   2
   3  -1  -9 11384.3 613.357   3
   3  -1  -8 12074.3 586.858   3
   3   1  -8 12719.2 760.102   3
  -3  -1   8 13102.2 786.407   2
   3  -1  -7 1940.01 219.985   3
   3   1  -7 2397.44 323.313   3
   3  -1  -6 6944.02 394.156   3
   3   1  -6 6815.00 504.968   3
   3  -1  -6 5849.02 238.927  13
   3  -1  -5 20668.1 635.266   3
   3   1  -5 19958.1 873.240   3
  -3  -1   5 21815.9 667.120   1
   3  -1  -4 12184.0 493.896   3
  -3  -1   4 13089.4 564.955   1
  -3   1   4 11831.6 455.090   1
  -3   1   3 2394.94 221.416   1
  -3  -1   3 2374.28 250.727   1
   3   1  -3 2046.15 335.997   3
  -3  -1   2 13922.9 618.205   1
   3   1  -2 12622.9 938.746   3
  -3   1   2 13097.7 532.430   1
  -3  -1   1 23013.1 829.958   1
  -3   1   1 21971.5 727.401   1
  -3  -1   0 24149.0 876.680   1
  -3   1   0 23974.8 802.533   1
  -3  -1  -1 1549.76 257.455   1
   3   1   1 1803.54 382.033   3
  -3   1  -1 1423.14 217.903   1
  -3   1  -1 1606.83 226.209  12
  -3  -1  -2 86702.6 1754.85   1
   3   1   2 78643.7 1777.75   3
  -3  -1  -2 83523.0 1026.71  12
  -3   1  -2 83881.2 1577.91  12
  -3   1  -2 89808.2 1672.28   1
  -3   1  -3 43710.8 1207.67   1
  -3  -1  -3 41582.4 1279.56   1
   3   1   3 40963.2 1076.07   3
  -3  -1  -3 42446.1 850.132  12
  -3   1  -4 27861.3 1009.63   1
  -3  -1  -4 29738.7 808.493  12
  -3  -1  -4 27050.1 1093.34   1
   3   1   4 30240.8 883.248   3
  -3   1  -4 25697.2 918.538  12
  -3   1  -5 4198.07 411.151   1
  -3  -1  -5 3582.14 433.976   1
   3  -1   5 4756.74 342.863   2
  -3  -1  -5 4030.93 340.391  12
  -3   1  -5 3553.65 372.052  12
  -3  -1  -6 562.163 181.063   1
  -3   1  -6 732.530 190.288   1
   3  -1   6 941.206 178.248   2
  -3  -1  -6 774.332 182.249  12
  -3   1  -6 795.489 218.519  12
  -3   1  -7 983.223 210.503   1
  -3  -1  -7 750.277 224.320   1
  -3  -1  -7 1475.55 258.241  12
  -3   1  -7 1198.62 268.513  12
   3   1   8 4906.32 355.370   9
   3  -1   8 4712.20 317.231   9
   3  -1   8 5288.06 510.120   2
  -3  -1  -8 4401.51 478.923  12
  -3   1  -8 3839.15 476.838  12
   3   1   9 341.644 112.623   9
   3  -1   9 258.463 104.211   9
   3   1   9 395.793 164.393   2
   3  -1   9 395.147 176.803   2
  -3  -1  -9 196.367 126.850  12
  -3   1  -9 236.700 188.316  12
   3   1  10 2612.11 290.281   9
   3  -1  10 2270.74 252.615   9
  -3   1 -10 2018.26 405.250  12
   3   1  10 2839.01 392.755   2
   3  -1  10 2734.03 444.291   2
  -3  -1 -10 1824.32 346.218  12
   3   1  11 1790.25 252.128   9
   3  -1  11 1676.68 226.710   9
   3  -1  11 1854.45 159.451   5
   3   1  12 211.858 110.099   9
   3  -1  12 145.165 99.5005   9
   3  -1  12 225.607 70.4354   5
   3  -1  13 5545.68 271.312   5
   3   1  13 4642.71 376.504   9
   3  -1  13 5116.30 387.176   9
   3  -1  14 6081.21 276.562   5
   3   1  14 4911.09 373.351   9
   3  -1  14 5419.33 382.515   9
  -3  -1 -15 471.964 199.712   6
   3  -1  15 791.255 154.323   9
   3   1  15 533.901 121.847   9
  -3  -1 -16 89.1665 121.500   6
   3   1  16 112.122 64.7288   9
   3  -1  16 199.973 80.1346   9
   3   1  17 684.597 96.6969   9
   3  -1  17 702.096 101.737   9
  -3  -2  18 257.170 63.4878   5
  -3   2  17 98.3011 54.8339   5
  -3  -2  17 202.894 78.8669   5
  -3  -2  16 2109.11 145.885  10
  -3   2  16 2017.74 185.698   5
  -3  -2  16 1582.29 171.916   5
  -3  -2  16 1649.44 149.021  11
  -3  -2  15 1681.34 143.013  10
  -3  -2  15 1561.72 177.258   5
  -3   2  15 1498.91 181.560   5
  -3  -2  15 1454.17 154.381  11
  -3  -2  14 1815.13 169.395  11
  -3  -2  14 2269.58 166.595  10
  -3   2  14 1821.12 148.098  10
  -3   2  14 2088.26 221.984   5
  -3  -2  14 1596.11 188.862   5
  -3  -2  13 2521.28 195.292  11
  -3   2  13 2254.11 165.825  10
  -3   2  13 2642.33 261.231   5
  -3  -2  13 2453.07 220.480   5
  -3   2  13 2435.05 184.653   4
  -3  -2  13 2849.31 188.366  10
  -3  -2  12 37240.4 721.763  11
  -3   2  12 39454.0 926.594   5
  -3   2  12 35254.0 604.462  10
  -3  -2  12 40135.7 686.564  10
  -3  -2  12 34077.4 772.812   5
  -3   2  12 37585.6 706.858   4
  -3  -2  11 1038.77 116.477  10
  -3   2  11 1152.92 182.068   5
  -3  -2  11 1045.56 151.289   5
   3   2 -11 762.594 269.161   3
  -3   2  11 1006.47 122.993   4
  -3  -2  11 582.052 224.635   2
  -3  -2  11 991.229 125.819  11
  -3   2  11 1255.79 120.400  10
  -3  -2  10 768.142 117.530  11
  -3  -2  10 854.711 112.211  10
  -3   2  10 818.586 157.957   5
  -3  -2  10 692.124 126.286   5
  -3   2  10 742.348 89.1984  10
  -3  -2  10 774.559 106.323   4
   3   2 -10 679.949 222.637   3
  -3   2  10 714.635 110.320   4
  -3  -2  10 422.029 228.285   2
  -3   2   9 23766.2 442.993  10
  -3   2   9 25398.4 721.678   5
  -3  -2   9 24441.3 548.112  10
  -3  -2   9 21084.4 541.663   5
  -3  -2   9 15996.9 1013.14   2
  -3   2   9 24718.1 599.284   4
   3   2  -9 16777.3 1031.12   3
  -3  -2   9 23915.1 551.887  11
   3   2  -8 3633.62 480.143   3
   3   2  -7 3072.67 441.969   3
   3   2  -6 1415.30 300.333   3
   3  -2  -6 1039.55 117.262  13
   3   2  -5 10297.3 796.477   3
   3  -2  -5 8921.70 341.198  13
  -3  -2   5 9476.65 500.533   1
   3   2  -4 8869.69 755.731   3
   3  -2  -4 8128.67 323.320  13
  -3  -2   4 8985.26 494.240   1
   3   2  -3 25599.5 1351.99   3
   3  -2  -3 24925.6 564.794  13
  -3  -2   3 28046.3 887.271   1
   3  -2  -2 15036.4 445.732  13
   3   2  -2 15533.6 1233.81   3
  -3  -2   2 17026.6 714.059   1
   3  -2  -1 26998.7 616.285  13
  -3  -2   1 30361.9 974.335   1
   3   2  -1 27125.2 1860.84   3
   3  -2   0 16224.6 484.731  13
   3   2   0 18528.4 1840.12   3
  -3  -2   0 17400.4 760.947   1
   3   2   1 48181.7 2277.07   3
   3  -2   1 48224.8 852.829  13
  -3  -2  -1 48982.2 1322.43   1
  -3  -2  -2 18609.5 861.746   1
   3  -2   2 17756.9 529.939  13
   3   2   2 15314.4 1049.41   3
   3  -2   2 15067.0 543.647   2
  -3   2  -2 15422.8 880.583  12
  -3  -2  -3 66387.6 1726.26   1
   3   2   3 70594.6 1842.59   3
   3  -2   3 63721.1 1244.97   2
   3  -2   3 68896.1 1065.40  13
  -3   2  -3 62773.2 1774.82  12
  -3  -2  -4 98736.7 2222.44   1
   3   2   4 98725.5 1854.13   3
   3  -2   4 95520.7 1690.55   2
  -3   2  -4 96531.7 2240.32  12
   3  -2   5 12257.4 468.864  13
  -3  -2  -5 9726.91 718.124   1
   3  -2   5 10814.7 638.562   2
  -3   2  -5 10279.9 765.206  12
  -3  -2  -6 6816.87 634.345   1
   3  -2   6 7715.57 583.573   2
  -3   2  -6 6744.68 655.434  12
   3   2   7 3072.05 299.636   9
  -3  -2  -7 2318.01 380.612   1
   3  -2   7 3547.64 443.484   2
  -3   2  -7 2876.28 455.995  12
  -3  -2  -7 2757.81 376.550   6
  -3  -2  -8 1008.95 288.819   6
   3   2   8 935.117 177.947   9
   3  -2   8 1252.72 171.923   9
  -3  -2  -8 529.424 212.464   1
   3  -2   8 953.285 245.672   2
  -3   2  -8 1059.77 329.923  12
   3   2   9 596.250 147.087   9
   3  -2   9 722.535 150.703   9
   3  -2   9 921.066 257.249   2
  -3  -2  -9 462.910 255.611   6
  -3  -2  -9 634.550 209.312  12
  -3   2  -9 725.217 320.390  12
   3   2  10 2502.99 291.760   9
   3  -2  10 2784.36 271.527   9
  -3  -2 -10 2112.46 372.885   6
  -3   2 -10 2751.96 532.745  12
  -3  -2 -11 378.450 239.560   6
   3   2  11 263.271 116.661   9
   3  -2  11 435.833 126.486   9
  -3  -2 -12 1376.42 308.938   6
   3   2  12 2113.44 268.066   9
   3  -2  12 3305.90 220.520   5
   3  -2  12 2803.21 289.978   9
  -3  -2 -13 399.070 207.786   6
   3  -2  13 749.643 112.331   5
   3   2  13 530.693 141.228   9
   3  -2  13 803.199 165.847   9
   3   2  14 2332.87 247.582   9
   3  -2  14 2899.22 201.832   5
   3  -2  14 2588.28 263.477   9
   3  -2  15 1940.33 153.467   5
   3   2  15 1273.76 165.914   9
   3  -2  15 1759.74 205.384   9
  -3  -2 -15 912.601 185.409   6
   3  -2  16 781.760 83.9740   5
   3  -2  16 760.101 119.595   9
  -3  -3  17 419.138 75.3572   5
  -3  -3  16 2124.32 163.132   5
  -3  -3  16 2320.72 165.119  11
  -3  -3  15 1033.43 126.106  11
  -3  -3  15 759.154 115.240   5
  -3  -3  14 576.792 114.061  11
  -3   3  14 676.407 123.383   5
  -3  -3  14 635.272 115.632   5
  -3  -3  13 750.696 124.067  11
  -3  -3  13 853.644 102.516  10
  -3  -3  13 836.033 132.301   5
  -3   3  13 683.792 137.867   5
  -3   3  12 4557.18 323.696   5
  -3  -3  12 5077.84 238.381  10
  -3  -3  12 4672.57 276.783  11
  -3  -3  12 4001.61 256.073   5
  -3   3  12 4431.13 224.231   4
  -3  -3  11 7062.28 286.373  10
  -3   3  11 6213.31 272.706   4
  -3  -3  11 6709.26 333.362  11
  -3   3  11 6718.45 389.297   5
  -3  -3  10 1170.12 148.556  11
  -3  -3  10 1147.05 124.329  10
  -3   3  10 932.398 120.324   4
  -3   3  10 1033.27 173.924   5
  -3  -3   9 2609.90 204.213  11
  -3   3   9 2390.26 248.897   5
  -3  -3   9 2494.52 182.913  10
  -3   3   9 2303.92 179.759   4
  -3  -3   8 14210.5 425.153  10
  -3   3   8 12293.5 414.608   4
  -3  -3   8 13655.6 463.976   6
  -3  -3   8 13557.1 455.188  11
  -3   3   8 13534.6 539.522   5
  -3  -3   7 130.473 56.4656  11
  -3   3   7 22.5970 84.8341   5
   3   3  -7 65.3162 199.021   3
  -3   3   7 106.019 61.6658   4
  -3  -3   7 127.835 60.4664   6
   3   3  -6 8905.92 905.388   3
  -3  -3   6 9440.71 576.914   1
   3  -3  -6 8551.93 409.764  13
   3   3  -5 497.678 275.920   3
  -3  -3   5 625.040 168.531   1
   3  -3  -5 664.703 114.950  13
   3   3  -4 23792.4 1575.60   3
  -3  -3   4 25063.1 969.290   1
   3  -3  -4 24656.8 674.833  13
   3   3  -3 8061.52 1034.26   3
  -3  -3   3 9109.11 588.907   1
   3  -3  -3 8026.37 383.913  13
   3   3  -2 10068.1 1223.59   3
   3  -3  -2 10137.0 429.240  13
  -3  -3   2 11498.0 663.756   1
   3  -3  -1 2483.87 217.158  13
   3   3  -1 2307.46 804.850   3
  -3  -3   1 2548.68 329.655   1
   3  -3   0 2516.24 222.674  13
  -3  -3   0 2657.31 346.529   1
   3   3   0 2662.15 820.919   3
   3   3   1 16808.9 1572.59   3
   3  -3   1 15263.7 556.852  13
  -3  -3  -1 16658.9 873.888   1
   3   3   2 5602.61 664.325   3
   3  -3   2 6505.30 367.843  13
  -3  -3  -2 5484.01 495.911   1
   3   3   3 1457.06 329.661   3
   3  -3   3 1529.56 185.855  13
  -3  -3  -3 1180.00 261.766   1
  -3  -3  -4 2664.44 401.077   1
   3   3   4 3451.18 400.126   3
   3  -3   4 3713.38 294.421  13
  -3  -3  -5 1847.03 352.029   1
   3  -3   5 2746.24 260.221  13
   3   3   5 2654.35 337.268   3
   3  -3   5 2256.43 330.222   2
  -3  -3  -5 2437.37 307.104   6
  -3   3  -5 2224.44 463.054  12
   3  -3   6 4844.71 521.178   2
  -3  -3  -6 3918.61 512.431   1
   3   3   6 4448.74 366.754   9
  -3  -3  -6 4894.93 318.616   7
   3  -3   6 5785.67 388.388  13
  -3  -3  -6 4175.36 414.537   6
  -3   3  -6 4588.60 680.978  12
  -3  -3  -7 272.903 174.962   6
   3   3   7 356.713 121.326   9
   3  -3   7 721.525 231.342   2
  -3   3  -7 374.205 277.375  12
  -3  -3  -7 368.693 204.772   1
   3  -3   8 11815.3 937.424   2
  -3  -3  -8 9338.05 634.751   6
  -3   3  -8 10590.3 1048.47  12
   3   3   8 12821.7 635.807   9
  -3  -3  -9 1488.73 284.409   6
   3   3   9 1666.48 243.154   9
   3   3  10 11954.6 623.312   9
   3  -3  10 12105.6 556.786   9
   3   3  11 2952.20 308.694   9
   3  -3  11 3255.85 294.631   9
  -3  -3 -12 412.104 178.217   6
   3   3  12 409.074 125.366   9
   3  -3  12 816.211 121.860   5
   3  -3  12 660.696 147.068   9
  -3  -3 -13 110.975 119.950   6
   3  -3  13 347.773 108.614   9
   3  -3  13 343.510 79.7456   5
   3  -3  14 1536.26 143.175   5
   3  -3  14 1416.35 180.088   9
  -3  -3 -15 232.014 91.8814   6
   3  -3  15 350.004 88.2574   9
   3  -3  15 371.746 74.3131   5
  -3  -3 -16 1097.94 109.290   6
  -3  -4  16 2125.99 142.929  11
  -3  -4  15 285.964 76.2322  11
  -3  -4  14 2260.59 181.470  11
  -3  -4  13 299.524 90.3800  11
  -3  -4  12 323.623 100.379  11
  -3  -4  11 10644.8 427.069  11
  -3  -4  10 19203.9 568.432  11
  -3  -4   9 20657.3 602.460  11
  -3  -4   8 7073.06 355.706  11
  -3  -4   8 6747.13 357.989   6
  -3  -4   7 8487.25 391.279   6
  -3  -4   7 8837.03 390.919  11
  -3  -4   6 441.650 105.879  11
   3  -4  -6 407.156 104.515  13
   3   4  -6 644.435 454.460   3
  -3  -4   6 406.525 101.265   6
   3   4  -5 5719.99 1006.18   3
   3  -4  -5 5533.58 386.601  13
  -3  -4   5 5302.72 498.850   1
  -3  -4   5 7448.95 360.642   6
  -3   4   4 1351.52 165.939   8
   3  -4  -4 1201.94 191.101  13
  -3  -4   4 1473.49 168.975   6
  -3   4   3 3640.82 269.487   8
   3   4  -3 2131.56 737.355   3
   3  -4  -3 2681.30 271.032  13
  -3  -4   3 3479.91 258.224   6
  -3   4   2 3554.98 271.568   8
   3   4  -2 2414.06 936.299   3
  -3  -4   2 2575.26 366.031   1
  -3  -4   2 3128.00 255.343   6
   3  -4  -2 2855.55 282.740  13
   3   4  -1 16218.4 1962.70   3
  -3   4   1 18568.2 615.948   8
   3  -4  -1 15670.7 663.251  13
  -3  -4   1 14560.5 864.363   1
  -3  -4   1 18810.5 631.305   6
  -3   4   0 5221.70 341.066   8
   3  -4   0 4316.79 354.077  13
   3   4   0 4191.05 896.904   3
  -3  -4   0 3632.14 443.942   1
  -3  -4   0 5190.74 349.210   6
   3   4   1 5783.84 835.683   3
  -3   4  -1 7884.15 415.576   8
  -3  -4  -1 5925.33 575.374   1
   3  -4   1 6429.60 438.585  13
  -3  -4  -1 7057.66 432.869   6
   3   4   2 8660.57 866.765   3
  -3   4  -2 12459.0 532.737   8
   3  -4   2 10351.8 555.078  13
  -3  -4  -2 9284.18 753.504   1
  -3  -4  -2 12128.5 587.397   6
  -3   4  -3 1386.90 192.381   8
  -3  -4  -3 1518.68 227.031   7
   3   4   3 728.003 245.768   3
  -3  -4  -3 588.394 204.537   1
   3  -4   3 930.044 173.315  13
  -3  -4  -3 1200.94 215.169   6
   3   4   4 6791.97 561.494   3
   3  -4   4 6969.05 468.825  13
  -3  -4  -4 7363.66 489.440   6
   3   4   5 8474.80 609.158   3
  -3  -4  -5 9976.98 522.506   7
   3  -4   5 8617.34 536.827  13
  -3  -4  -5 8684.32 547.031   6
  -3  -4  -6 465.621 184.269   6
   3  -4   6 481.758 126.561  13
  -3  -4  -6 120.504 109.778   1
  -3  -4  -7 315.001 166.331   6
  -3  -4  -8 8741.59 561.913   6
  -3  -4  -9 347.218 153.023   6
  -3  -4 -10 95.0120 125.156   6
   3  -4  10 45.9054 71.5636   9
  -3  -4 -11 520.362 148.460   6
   3  -4  11 465.569 120.344   9
   3  -4  12 799.703 115.734   5
   3  -4  12 692.751 133.982   9
  -3  -4 -12 674.395 156.273   6
   3  -4  13 1596.45 145.454   5
   3  -4  13 1210.84 153.789   9
  -3  -4 -13 1106.86 158.216   6
  -3  -4 -14 96.4685 64.5128   6
   3  -4  14 245.629 76.7694   9
   3  -4  14 189.982 61.7071   5
  -3  -5  15 865.926 84.9153  11
  -3  -5  14 111.047 50.9923  11
  -3  -5  13 1035.64 117.483  11
  -3  -5  12 803.079 114.034  11
  -3  -5  11 5765.40 294.428  11
  -3  -5  10 7128.76 333.620  11
  -3  -5   9 9815.28 398.963  11
  -3  -5   8 4805.13 289.613  11
  -3  -5   8 4382.01 296.555   6
  -3  -5   7 323.083 96.9114  11
  -3  -5   7 250.660 93.3173   6
  -3   5   6 1372.11 177.950   8
  -3  -5   6 1795.91 188.861  11
  -3  -5   6 1654.68 188.894   6
  -3  -5   5 13333.6 486.888  11
  -3   5   5 12029.6 520.739   8
  -3  -5   5 13024.3 502.376   6
  -3   5   4 352.220 107.067   8
  -3  -5   4 373.011 101.167   6
   3  -5  -3 9666.18 590.859  13
   3   5  -3 11635.5 1852.93   3
  -3   5   3 12038.0 539.566   8
  -3  -5   3 8550.58 717.192   1
  -3  -5   3 11501.5 475.685   6
  -3   5   2 2880.62 272.884   8
  -3  -5   2 1693.89 324.630   1
   3   5  -2 2143.20 833.603   3
   3  -5  -2 2235.06 287.366  13
  -3  -5   2 2263.56 221.496   6
  -3   5   1 6231.49 402.802   8
   3   5  -1 4241.90 848.482   3
  -3  -5   1 4102.95 498.937   1
   3  -5  -1 4831.30 420.731  13
  -3  -5   1 5562.30 358.953   6
   3  -5   0 8115.18 552.581  13
   3   5   0 6820.03 927.386   3
  -3   5   0 9470.72 501.811   8
  -3  -5   0 5815.80 607.239   1
  -3  -5   0 8966.56 465.643   6
   3   5   1 29341.9 1545.74   3
  -3   5  -1 36422.9 982.476   8
   3  -5   1 33856.1 1130.24  13
  -3  -5  -1 23392.2 1227.89   1
  -3  -5  -1 36868.3 944.784   6
  -3   5  -2 15158.3 661.037   8
  -3  -5  -2 14162.3 611.058   6
  -3  -5  -3 2814.39 291.500   6
  -3  -5  -4 1767.27 232.308   6
  -3  -5  -5 4854.35 377.188   6
  -3  -5  -6 2297.08 263.369   6
  -3  -5  -7 1278.27 206.171   6
  -3  -5  -8 282.234 126.252   6
   3  -5   9 471.798 108.917   9
  -3  -5  -9 628.824 139.335   6
   3  -5  10 1006.34 145.217   9
  -3  -5 -10 1049.38 158.251   6
   3  -5  11 72.5109 64.2763   9
   3  -5  11 28.6530 50.3595   5
  -3  -5 -11 34.8847 60.0747   6
  -3  -5 -12 116.465 56.4197   6
   3  -5  12 100.666 51.9920   9
   3  -5  12 254.457 67.0884   5
   3   5  12 291.016 89.6074   8
   3  -5  13 95.6346 45.8514   5
   3   5  13-0.74500 37.7526   8
  -3  -6  12 755.289 83.1402  11
  -3  -6  11 624.626 85.0031  11
  -3  -6  10 969.136 107.360  11
  -3  -6   9 2243.68 165.618  11
  -3  -6   8 1506.29 142.379  11
  -3  -6   7 6820.69 305.308  11
  -3  -6   6 107.747 64.7342  11
  -3   6   6 175.828 66.0976   8
  -3  -6   6 145.602 81.1062   6
  -3  -6   5 288.001 77.8123  11
  -3   6   5 196.334 75.7092   8
  -3  -6   5 210.103 86.3704   6
  -3  -6   4 1226.96 139.565  11
  -3  -6   4 1293.14 162.753   6
  -3   6   4 1033.35 163.877   8
  -3  -6   3 1554.90 157.087  11
  -3   6   3 1211.49 176.508   8
  -3  -6   3 1294.12 160.898   6
  -3   6   2 5346.32 372.396   8
  -3  -6   2 5326.65 316.316   6
  -3  -6   2 5746.70 292.161  11
  -3   6   1 347.072 117.711   8
  -3  -6   1 199.674 80.4277   6
  -3   6   0 571.135 135.436   8
   3   6   0 161.699 72.7599   8
  -3  -6   0 520.004 119.827   6
  -3   6  -1 3653.26 324.877   8
  -3  -6  -1 3421.18 266.585   6
   3   6   2 1348.07 211.075   8
  -3  -6  -2 1823.10 201.673   6
   3   6   3 661.288 152.882   8
  -3  -6  -3 813.174 144.692   6
   3   6   4 2148.33 277.331   8
  -3  -6  -4 2168.64 212.113   6
   3   6   5 1173.44 197.216   8
  -3  -6  -5 1104.94 157.093   6
   3   6   6 1539.00 217.557   8
  -3  -6  -6 1360.17 163.991   6
  -3  -6  -7 348.036 87.2785   6
   3   6   7 418.068 120.321   8
  -3  -6  -8 87.7750 54.5133   6
   3   6   8 254.170 93.5230   8
   3  -6   9 1006.75 103.270   5
   3   6   9 806.348 135.326   8
  -3  -6 -10 145.459 38.7521   6
   3  -6  10 357.484 65.4080   5
   3   6  10 257.402 77.4774   8
   3   6  11 575.372 86.9195   8
  -3   7   6 1199.84 119.618   8
  -3   7   5 1039.69 125.305   8
  -3   7   4 3634.93 242.579   8
  -3  -7   4 4447.07 228.172   6
  -3   7   3 187.323 68.6182   8
  -3  -7   3 245.202 69.4355   6
  -3   7   2 1842.84 192.201   8
  -3  -7   2 1986.41 160.045   6
  -3   7   1 3874.33 279.948   8
  -3  -7   1 3823.24 222.235   6
  -3  -7   0 938.933 115.087   6
   3   7   1 625.182 102.461   8
  -3  -7  -1 702.092 98.3792   6
   3   7   2 1411.38 158.696   8
  -3  -7  -2 1791.67 143.539   6
   3   7   3 128.661 59.5582   8
  -3  -7  -3 121.712 51.7812   6
   3   7   4 104.767 52.3288   8
  -3  -7  -4 119.573 47.2507   6
   3   7   5 74.6979 45.2089   8
  -3  -7  -5 47.5845 35.5485   6
   3   7   6 63.4313 42.3935   8
  -3  -7  -6-2.69297 20.5966   6
   3   7   7 125.888 44.6520   8
  -4   0  18 102.628 51.9104   5
  -4   0  17 6.71067 63.2200   5
  -4   0  16 201.783 69.3451  10
  -4   0  16 129.742 77.3154   5
  -4   0  15 133.605 74.9859  10
  -4   0  15-53.7037 86.4146   5
  -4   0  14 6041.75 271.391  10
  -4   0  14 5666.25 346.423   5
  -4   0  13-21.5679 62.2775  10
  -4   0  13-44.1479 63.4560   4
  -4   0  13-20.7640 92.6097   5
  -4   0  12 4433.52 314.293   5
  -4   0  12 5067.74 286.133   4
  -4   0  12 4914.15 245.046  10
  -4   0  11-98.0826 74.4122  10
  -4   0  11-74.0850 92.8504   5
  -4   0  11 22.6772 54.1614   4
  -4   0  10 1977.45 163.450  10
  -4   0  10 1904.13 204.432   5
  -4   0  10 2444.06 204.962   4
  -4   0   9 10.6700 48.2998  10
  -4   0   9-27.5443 84.9716   5
  -4   0   9 23.5002 70.5865   4
  -4   0   8 9831.97 418.061   5
  -4   0   8 10927.9 443.419   4
  -4   0   8 9687.99 342.880  10
   4   0  -7 22.4912 106.959   3
   4   0  -6 52645.3 1630.67   3
   4   0  -5 75.4963 134.009   3
  -4   0   4 10551.3 547.734   1
   4   0  -4 9683.41 849.102   3
   4   0  -3-402.985 278.338   3
  -4   0   3 7.47626 72.4003   1
   4   0  -2 11809.4 1202.54   3
  -4   0   2 12531.6 651.356   1
  -4   0   1 53.2183 92.8579   1
   4   0  -1-71.4338 135.556   3
   4   0   0 2979.91 312.511   3
  -4   0   0 3497.86 382.827   1
  -4   0  -1-104.381 107.070   1
   4   0   1-30.3271 58.6466   3
  -4   0  -2 635.326 194.947   1
  -4   0  -3-77.8548 113.428   1
  -4   0  -4 1854.00 333.436   1
  -4   0  -5 31.4274 93.8108   1
  -4   0  -6-177.302 128.203   1
  -4   0  -7 118.563 107.504   1
   4   0   7 64.9728 71.3217   9
   4   0   7 66.9768 79.0328   2
   4   0   8 1542.18 204.788   9
   4   0   8 2152.60 330.925   2
  -4   0  -8 1330.97 288.286   1
   4   0   9-16.2010 63.0422   9
   4   0   9 241.558 137.723   2
   4   0  10 2705.37 270.726   9
  -4   0 -10 2302.71 241.594   7
   4   0  11 74.1416 78.7177   9
  -4   0 -11-51.1288 66.1542   7
  -4   0 -12 399.023 191.184   6
   4   0  12 808.173 156.755   9
  -4   0 -13 171.390 160.430   6
   4   0  13 24.8174 69.3141   9
   4   0  14 3036.09 251.255   9
  -4   0 -14 2073.57 250.939   6
  -4   0 -15-87.8535 95.7019   6
   4   0  15 34.7740 54.5962   9
  -4  -1  18 144.229 51.9824   5
  -4   1  17 590.224 103.720   5
  -4  -1  17 604.710 98.5432   5
  -4  -1  16 591.591 89.4794  10
  -4   1  16 556.254 115.154   5
  -4  -1  16 476.284 106.937   5
  -4   1  15 300.154 81.7138  10
  -4  -1  15 277.445 71.3737  10
  -4   1  15 71.1244 82.7549   5
  -4  -1  15 210.253 95.9618   5
  -4   1  14 4885.76 233.938  10
  -4  -1  14 5169.41 248.832  10
  -4   1  14 4465.19 317.877   5
  -4  -1  14 4465.98 292.286   5
  -4   1  14 5245.25 272.488   4
  -4   1  13 7357.70 286.206  10
  -4   1  13 7184.18 395.514   5
  -4  -1  13 6466.52 350.248   5
  -4   1  13 7686.90 339.725   4
  -4  -1  13 7539.21 310.945  10
  -4  -1  12 8401.76 399.662   5
  -4   1  12 9375.94 455.853   5
  -4  -1  12 10267.7 391.265   4
  -4   1  12 9470.71 393.895   4
  -4   1  12 8996.64 318.006  10
  -4  -1  12 9395.13 348.924  10
  -4   1  11 8200.08 300.100  10
  -4  -1  11 9046.84 348.313  10
  -4   1  11 8542.56 439.049   5
  -4  -1  11 7839.23 382.770   5
  -4  -1  11 9496.52 379.931   4
  -4   1  11 8961.87 393.336   4
  -4   1  10 27137.0 536.491  10
  -4   1  10 26755.9 761.226   5
  -4  -1  10 27216.5 610.286  10
  -4  -1  10 25506.2 662.921   5
  -4  -1  10 30066.3 671.440   4
  -4   1  10 29333.1 715.509   4
  -4   1   9 10096.9 452.643   5
  -4   1   9 9534.09 315.427  10
  -4  -1   9 9883.58 370.009  10
  -4  -1   9 8908.95 388.148   5
  -4  -1   9 11104.2 414.173   4
  -4   1   9 10564.4 441.979   4
  -4   1   8 2012.43 223.742   5
  -4   1   8 2428.17 161.940  10
  -4  -1   8 2108.20 197.367   5
  -4  -1   8 2382.94 183.454  10
  -4  -1   8 2743.02 210.642   4
  -4   1   8 2763.44 233.080   4
   4   1  -7 26909.8 1314.17   3
   4   1  -6 7069.59 697.948   3
   4  -1  -6 8067.71 356.349  13
   4   1  -5 17754.4 1113.71   3
  -4  -1   5 21179.9 791.883   1
  -4   1   4 22828.7 775.246   1
  -4  -1   4 22331.1 862.970   1
  -4   1   3 1202.41 198.707   1
  -4  -1   3 1107.44 207.419   1
   4   1  -3 580.220 280.240   3
  -4   1   2 4968.43 409.338   1
  -4  -1   2 5054.16 446.531   1
   4   1  -2 3709.65 855.693   3
  -4   1   1 26231.7 963.568   1
   4   1  -1 28551.8 2091.50   3
  -4  -1   1 30106.0 1108.75   1
  -4   1   0 6047.29 483.318   1
   4   1   0 5622.03 734.730   3
  -4  -1   0 6681.06 545.423   1
  -4   1  -1 59160.1 1543.43   1
  -4  -1  -1 50684.8 1554.27   1
   4   1   2 6012.40 477.508   3
  -4  -1  -2 5861.96 552.379   1
  -4   1  -2 6270.93 534.855   1
  -4   1  -3 25483.5 1110.52   1
   4   1   3 27821.5 932.781   3
  -4  -1  -3 24920.8 1155.05   1
  -4   1  -4 7225.52 618.479   1
  -4  -1  -4 6129.54 615.324   1
   4  -1   4 7301.93 449.554   2
  -4   1  -5 2795.88 398.467   1
  -4  -1  -5 2802.36 424.588   1
   4  -1   5 2874.92 312.511   2
  -4   1  -5 2379.74 344.882  12
   4  -1   6 8435.72 579.582   2
   4   1   6 6764.94 391.179   9
  -4   1  -6 6100.97 593.763   1
  -4  -1  -6 7441.29 429.188   7
  -4  -1  -6 5418.88 593.316   1
  -4   1  -6 6357.88 586.740  12
  -4  -1  -6 5636.73 465.518   6
  -4  -1  -7 7183.81 693.132   1
   4   1   7 10186.5 502.871   9
  -4   1  -7 7480.55 670.739   1
  -4  -1  -7 8994.37 475.015   7
   4  -1   7 11652.7 759.029   2
  -4   1  -7 10195.9 779.933  12
  -4  -1  -7 7747.22 566.595   6
  -4  -1  -8 326.774 207.632   6
   4   1   8 290.660 111.644   9
   4  -1   8 345.225 108.576   9
   4  -1   8 326.623 155.959   2
  -4  -1  -8 260.109 145.918   1
  -4  -1  -8 326.985 117.208   7
  -4  -1  -9 191.878 206.129   6
   4   1   9 236.821 102.779   9
   4  -1   9 246.998 96.2805   9
  -4  -1  -9 174.632 79.4273   7
  -4  -1 -10 254.383 193.857   6
   4   1  10 189.689 88.3819   9
   4  -1  10 410.483 118.222   9
  -4  -1 -10 142.148 85.0482   7
  -4  -1 -11 370.005 205.636   6
   4   1  11 83.7004 64.9601   9
   4  -1  11 234.696 106.251   9
   4   1  12 4972.44 364.365   9
   4  -1  12 5827.79 376.993   9
  -4   1 -12 4431.84 310.345   7
  -4  -1 -12 3627.39 391.377   6
  -4  -1 -13 1080.64 217.039   6
   4   1  13 1388.82 186.624   9
   4  -1  13 1681.12 201.131   9
  -4   1 -13 894.516 207.597   6
  -4   1 -14 1281.86 203.252   6
   4   1  14 2077.92 207.360   9
   4  -1  14 2410.45 215.157   9
  -4  -1 -14 1399.21 217.272   6
  -4  -1 -15 361.497 102.721   6
   4   1  15 629.593 102.210   9
   4  -1  15 647.840 102.369   9
  -4  -2  17 690.005 88.3646   5
  -4  -2  16 1512.29 114.286  10
  -4  -2  16 1136.72 126.779   5
  -4   2  15 1063.23 149.643   5
  -4  -2  15 806.220 119.990   5
  -4  -2  15 1075.44 111.814  11
  -4  -2  14 239.649 73.8173  11
  -4   2  14 279.576 70.4717  10
  -4  -2  14 163.903 57.2411  10
  -4   2  14 191.394 101.972   5
  -4  -2  14 220.791 90.0243   5
  -4   2  14 190.715 67.1628   4
  -4  -2  13 5102.52 258.115  11
  -4   2  13 4728.33 221.643  10
  -4  -2  13 5523.07 258.451  10
  -4  -2  13 4360.24 273.374   5
  -4   2  13 5137.31 263.691   4
  -4   2  13 5265.80 336.641   5
  -4  -2  12 18180.9 493.834  11
  -4   2  12 17803.1 428.272  10
  -4   2  12 19706.6 652.547   5
  -4  -2  12 19492.0 496.663  10
  -4   2  12 18822.5 519.942   4
  -4  -2  12 16572.4 521.497   5
  -4  -2  11 1723.66 160.528  11
  -4   2  11 1771.47 139.816  10
  -4   2  11 1722.00 222.993   5
  -4  -2  11 2014.73 172.254  10
  -4  -2  11 1477.07 164.508   5
  -4   2  11 1750.12 174.551   4
  -4   2  10 11618.5 334.055  10
  -4   2  10 11940.3 520.827   5
  -4  -2  10 11979.5 415.244  10
  -4  -2  10 11523.4 401.324  11
  -4  -2  10 12580.8 399.198   4
  -4   2  10 12215.3 453.081   4
  -4  -2   9 4134.88 241.981  11
  -4   2   9 4272.85 329.167   5
  -4   2   9 4156.28 195.823  10
  -4  -2   9 4312.71 250.540  10
  -4   2   9 4453.34 287.637   4
  -4  -2   8 7064.57 318.713  11
  -4   2   8 8158.38 421.614   5
  -4  -2   8 8137.22 344.668  10
  -4   2   8 8338.19 400.825   4
  -4  -2   8 7422.49 310.561   6
  -4  -2   7 8288.12 332.960  11
  -4   2   7 8895.12 432.036   5
  -4  -2   7 9271.40 364.617  10
  -4  -2   7 8340.56 321.064   6
  -4   2   7 9266.26 442.905   4
  -4   2   6 6813.59 398.317   5
  -4  -2   6 7729.59 336.445  10
   4   2  -6 4881.94 682.761   3
  -4   2   6 7842.90 420.092   4
   4  -2  -6 5533.44 311.224  13
  -4  -2   5 6046.31 479.951   1
   4   2  -5 5333.56 767.555   3
   4  -2  -5 4884.73 290.757  13
  -4  -2   4 1599.85 268.631   1
   4   2  -4 1542.83 513.628   3
   4  -2  -4 1122.74 146.061  13
   4   2  -3 25783.6 1972.15   3
   4  -2  -3 28400.3 717.814  13
  -4  -2   2 2568.51 340.258   1
   4  -2  -2 2536.81 221.352  13
  -4  -2   1 7490.89 594.148   1
   4   2  -1 6164.44 1165.40   3
   4  -2  -1 7796.11 396.147  13
  -4  -2   0 30312.8 1242.49   1
   4  -2   0 30153.4 788.973  13
  -4  -2  -1 8519.67 671.931   1
   4   2   1 7391.76 803.622   3
   4  -2   1 9467.54 460.107  13
   4   2   2 74546.0 2159.27   3
   4  -2   2 76997.3 1302.22  13
  -4  -2  -3 2982.53 435.200   1
   4   2   3 2637.73 351.536   3
   4  -2   3 3282.48 282.517  13
  -4  -2  -4 18970.1 1116.04   1
   4   2   4 20151.1 893.405   3
  -4  -2  -4 20952.4 688.967   7
   4  -2   4 22014.5 722.973  13
  -4  -2  -4 18695.6 722.785   6
  -4   2  -4 18091.9 1099.93  12
   4  -2   5 6777.55 408.114  13
   4   2   5 4523.77 333.179   9
  -4  -2  -5 4984.97 580.485   1
  -4  -2  -5 6693.89 398.082   7
   4  -2   5 6441.71 536.671   2
  -4  -2  -5 5449.84 420.918   6
  -4   2  -5 5584.73 655.143  12
   4   2   6 18111.1 696.637   9
  -4  -2  -6 16876.7 1098.48   1
  -4  -2  -6 20663.1 711.835   7
   4  -2   6 22822.9 1089.15   2
  -4  -2  -6 18173.6 783.470   6
  -4   2  -6 19725.0 1203.88  12
  -4  -2  -7 1076.62 239.372   6
   4   2   7 946.288 167.370   9
  -4  -2  -7 850.740 269.290   1
   4  -2   7 1394.94 295.071   2
  -4  -2  -7 1080.05 173.047   7
  -4   2  -7 1273.70 358.637  12
  -4  -2  -8 915.114 238.152   6
   4   2   8 1152.31 187.803   9
   4  -2   8 1495.22 306.509   2
  -4  -2  -8 1024.80 165.041   7
  -4   2  -8 1129.54 337.128  12
  -4  -2  -9 572.407 208.661   6
   4   2   9 974.979 175.580   9
   4  -2   9 847.035 143.627   9
   4   2  10 4325.95 354.149   9
   4  -2  10 4390.36 324.518   9
  -4  -2 -10 3618.69 383.624   6
  -4  -2 -11 182.682 143.138   6
   4   2  11 154.167 85.6204   9
   4  -2  11 267.468 99.7615   9
   4  -2  11 302.393 74.6248   5
   4   2  12 2193.36 239.006   9
   4  -2  12 2303.34 233.440   9
  -4  -2 -12 1644.80 251.078   6
  -4  -2 -13 540.750 156.290   6
   4   2  13 596.632 121.499   9
   4  -2  13 960.101 105.804   5
   4  -2  13 853.791 139.158   9
  -4   2 -13 455.641 95.9713   7
   4  -2  14 1305.27 108.340   5
   4  -2  14 1186.65 141.430   9
  -4  -2 -15 113.293 68.1254   6
  -4  -3  16 1669.83 119.658  11
  -4  -3  15 550.388 68.7984  10
  -4  -3  15 517.213 84.7996  11
  -4  -3  14 3071.52 164.710  10
  -4  -3  14 2828.22 188.367  11
  -4  -3  13 607.482 103.915  11
  -4  -3  13 656.018 89.8243  10
  -4   3  13 634.131 89.3811   4
  -4  -3  12 8370.47 350.252  11
  -4   3  12 7765.81 303.240   4
  -4  -3  11 4963.21 280.917  11
  -4  -3  11 5016.62 256.698  10
  -4   3  11 4288.66 241.928   4
  -4  -3  10 8433.01 367.563  11
  -4  -3  10 8747.16 350.552  10
  -4   3  10 7804.39 341.885   4
  -4  -3   9 4938.13 285.994  11
  -4  -3   9 4981.86 270.365  10
  -4   3   9 4679.29 276.347   4
  -4  -3   8 8528.47 374.622  11
  -4  -3   8 8877.54 372.785  10
  -4   3   8 8426.66 382.631   4
  -4  -3   8 8302.35 366.144   6
  -4  -3   7 1078.38 138.858  11
  -4  -3   7 1320.51 148.257  10
  -4  -3   7 839.285 124.842   6
   4   3  -7 1051.38 444.612   3
  -4   3   7 1095.91 155.813   4
  -4  -3   6 9061.41 377.823  10
   4   3  -6 5367.24 893.584   3
   4  -3  -6 5965.28 372.981  13
  -4   3   6 8144.39 417.925   4
  -4  -3   6 7663.01 341.514   6
  -4  -3   5 294.769 80.3595  10
  -4  -3   5 133.883 84.6007   7
   4   3  -5 444.870 410.013   3
  -4  -3   5 215.040 116.331   1
   4  -3  -5 171.754 70.9832  13
  -4   3   5 156.354 99.9673   4
  -4  -3   5 226.549 70.9465   6
  -4  -3   4 6374.79 526.322   1
  -4  -3   4 7895.08 363.865  10
   4   3  -4 5715.40 1041.18   3
  -4   3   4 7016.47 395.259   4
   4  -3  -4 6034.85 369.977  13
  -4  -3   4 7414.86 332.462   6
   4   3  -3 2583.13 904.113   3
  -4  -3   3 2736.68 361.867   1
  -4   3   3 3013.11 276.254   4
   4  -3  -3 2777.64 255.559  13
  -4  -3   3 3177.10 230.368   6
  -4  -3   2 5355.12 515.225   1
   4   3  -2 6653.18 1421.23   3
   4  -3  -2 5087.80 350.637  13
  -4   3   2 5916.38 392.638   4
  -4  -3   2 6289.90 329.205   6
  -4  -3   1 3280.03 405.152   1
   4   3  -1 3285.29 918.776   3
  -4   3   1 3275.62 297.032   4
   4  -3  -1 3389.68 290.691  13
  -4  -3   1 3607.57 264.734   6
  -4   3   0 198.291 103.957   4
  -4  -3   0 300.974 87.1082   6
  -4  -3   0 361.876 160.277   1
   4   3   0 427.983 417.509   3
  -4  -3   0 580.539 139.912   7
   4  -3   0 482.262 123.021  13
  -4  -3  -1 11372.1 799.488   1
   4   3   1 10140.2 1036.05   3
  -4  -3  -1 14633.2 621.787   7
   4  -3   1 11408.5 539.566  13
  -4  -3  -1 13571.9 567.187   6
  -4  -3  -2 19160.9 1117.53   1
   4   3   2 18576.9 1193.16   3
  -4  -3  -2 22544.7 745.956   7
   4  -3   2 19551.1 732.824  13
  -4  -3  -2 21216.2 736.921   6
   4  -3   3 14439.3 634.786  13
  -4  -3  -3 12670.3 926.452   1
   4   3   3 13749.6 874.373   3
  -4  -3  -3 14660.7 609.460   7
  -4  -3  -3 14466.4 640.567   6
  -4  -3  -4 4517.38 568.309   1
   4   3   4 5519.64 500.611   3
  -4  -3  -4 5713.97 383.171   7
   4  -3   4 6009.91 418.955  13
  -4  -3  -4 6020.98 438.064   6
  -4  -3  -5 1437.71 200.231   7
   4  -3   5 1553.78 219.145  13
  -4  -3  -5 1782.39 269.585   6
  -4  -3  -5 1650.85 364.577   1
  -4  -3  -6 983.052 219.543   6
  -4  -3  -6 745.818 254.021   1
  -4  -3  -6 1405.42 196.329   7
   4  -3   6 1653.33 234.798  13
  -4  -3  -7 7606.14 424.664   7
  -4  -3  -7 7104.15 504.447   6
  -4  -3  -8 5229.94 428.771   6
  -4  -3  -9 1183.08 225.276   6
  -4  -3 -10 2384.15 286.568   6
  -4  -3 -11 171.254 122.163   6
   4  -3  11 253.068 89.6315   9
  -4  -3 -12 56.2017 96.7384   6
   4  -3  12 119.661 72.1793   9
   4  -3  12 138.948 58.9128   5
  -4  -3 -13 91.9107 89.6166   6
   4  -3  13 43.4512 47.3857   9
   4  -3  13 32.3385 43.6225   5
   4  -3  14 1225.99 101.798   5
  -4  -3 -14 778.846 113.931   6
  -4  -4  15 116.384 52.8838  11
  -4  -4  14 407.659 82.1526  11
  -4  -4  13 355.047 83.3403  11
  -4  -4  12 7376.70 323.756  11
  -4  -4  11 6966.21 325.699  11
  -4  -4  10 2203.34 201.872  11
  -4  -4   9 5545.48 316.007  11
  -4  -4   8 28669.5 709.191  11
  -4  -4   8 28540.3 622.375  10
  -4  -4   8 26763.7 681.503   6
  -4  -4   7 857.957 139.362  11
  -4  -4   7 918.466 125.960  10
  -4  -4   7 784.285 131.938   6
  -4  -4   6 6184.72 310.791  10
  -4  -4   6 5196.63 305.475   6
  -4  -4   5 1676.78 170.149  10
   4   4  -5 988.701 533.590   3
  -4  -4   5 1583.13 175.841   6
   4  -4  -5 1097.10 185.386  13
  -4  -4   4 3574.20 247.097  10
   4   4  -4 1676.63 838.456   3
   4  -4  -4 2497.00 279.544  13
  -4  -4   4 2900.45 230.375   6
  -4  -4   4 1869.00 318.648   1
  -4  -4   3 2667.62 219.471  10
   4   4  -3 2144.39 994.868   3
  -4   4   3 2071.03 217.941   4
   4  -4  -3 1848.14 246.168  13
  -4  -4   3 2184.49 203.745   6
  -4  -4   3 1714.89 302.492   1
  -4   4   2 4031.87 281.420   8
  -4  -4   2 4688.44 380.152   7
   4   4  -2 2725.33 1041.84   3
  -4   4   2 3578.58 295.038   4
   4  -4  -2 3143.36 317.086  13
  -4  -4   2 3488.12 269.473   6
  -4  -4   2 2534.37 380.249   1
   4   4  -1 5309.10 1021.53   3
  -4   4   1 6557.68 367.494   8
  -4   4   1 5109.12 359.752   4
   4  -4  -1 5527.51 422.255  13
  -4  -4   1 6029.26 365.967   6
  -4  -4   1 4563.45 517.971   1
  -4  -4   0 3488.93 465.487   1
   4   4   0 4107.36 784.465   3
  -4   4   0 3863.83 325.615   4
   4  -4   0 4044.50 369.998  13
  -4  -4   0 4411.40 321.763   6
  -4  -4  -1 3874.13 510.473   1
   4   4   1 3769.66 610.103   3
  -4   4  -1 4119.12 349.812   4
   4  -4   1 4561.70 398.376  13
  -4  -4  -1 4300.32 328.314   6
   4   4   2 2023.94 411.084   3
  -4   4  -2 1931.13 248.154   4
   4  -4   2 2136.28 275.179  13
  -4  -4  -2 1706.62 349.514   1
  -4  -4  -2 2207.85 253.819   6
  -4  -4  -3 6133.00 676.239   1
   4   4   3 6134.01 600.703   3
  -4   4  -3 5664.38 437.456   4
   4  -4   3 7492.45 519.009  13
  -4  -4  -3 7329.23 463.438   6
  -4  -4  -4 17341.2 758.473   7
  -4  -4  -4 12304.8 597.569   6
  -4  -4  -5 330.191 139.366   6
  -4  -4  -5 415.131 146.534   7
  -4  -4  -6 6295.05 410.909   7
  -4  -4  -6 5315.93 411.231   6
  -4  -4  -7 522.881 160.261   6
  -4  -4  -7 397.209 104.594   7
  -4  -4  -8 1272.93 217.721   6
  -4  -4  -9 3095.46 294.345   6
  -4  -4 -10 1607.00 209.671   6
   4  -4  11 3169.06 199.274   5
  -4  -4 -11 2024.45 208.586   6
  -4  -4 -12 396.291 94.7983   6
   4  -4  12 812.005 97.1082   5
  -4  -4 -13 507.308 81.2759   6
   4  -4  13 908.775 90.1965   5
  -4  -5  14 552.222 67.9100  11
  -4  -5  13 192.017 58.8360  11
  -4  -5  12 663.833 92.6825  11
  -4  -5  11 742.904 102.927  11
  -4  -5  10-63.4257 76.6141  11
  -4  -5   9 9434.14 376.953  11
  -4  -5   8 309.571 99.3778  11
  -4  -5   8 320.115 104.389   6
  -4  -5   7 57.5571 72.1600  11
  -4  -5   7 54.9538 73.2788   6
  -4  -5   6 1006.90 149.937  11
  -4  -5   6 999.531 145.007   6
  -4  -5   5 8987.36 402.325  11
  -4  -5   5 8196.84 390.316   6
  -4  -5   4 3000.47 238.269   6
  -4   5   3 10787.0 469.300   8
  -4  -5   3 10598.9 446.873   6
  -4   5   2 562.073 127.474   8
  -4  -5   2 125.248 97.6961   6
  -4   5   1 7447.02 418.693   8
  -4  -5   1 6629.43 381.306   6
  -4  -5   0 4706.52 326.998   6
  -4  -5  -1 3487.11 289.802   6
  -4  -5  -2 369.343 121.800   6
   4   5   2 157.272 77.3811   8
  -4  -5  -3 710.074 149.234   6
   4   5   3 786.415 163.279   8
  -4  -5  -4 403.903 122.688   6
  -4  -5  -5 1407.12 194.061   6
  -4  -5  -6-14.8851 89.5848   6
  -4  -5  -7 430.488 117.251   6
  -4  -5  -8 2437.97 218.099   6
  -4  -5  -9 522.189 102.520   6
  -4  -5 -10-23.3259 49.6328   6
   4  -5  10-38.3491 51.7576   5
   4  -5  11 882.344 94.1004   5
   4   5  11 696.462 106.809   8
  -4  -6  11 360.256 57.9731  11
  -4  -6  10 618.489 76.6161  11
  -4  -6   9 163.448 56.3982  11
  -4  -6   8 2016.45 151.913  11
  -4  -6   7 1179.44 127.070  11
  -4  -6   6 1999.65 165.747  11
  -4  -6   6 1788.13 168.845   6
  -4  -6   5 1631.87 153.679  11
  -4  -6   5 1817.87 175.654   6
  -4  -6   4 2081.88 173.297  11
  -4  -6   4 2062.02 187.190   6
  -4  -6   3 569.292 95.5754  11
  -4  -6   3 587.422 110.089   6
  -4  -6   2 1057.89 138.849   6
  -4  -6   2 1336.64 141.231  11
  -4  -6   1 141.755 73.7351   6
  -4  -6   0 300.585 93.7687   6
  -4  -6  -1 71.7990 62.9384   6
  -4  -6  -2 8.24556 61.7544   6
   4   6   3 1543.60 184.854   8
  -4  -6  -3 1865.72 179.801   6
   4   6   4 186.991 76.2420   8
  -4  -6  -4 242.939 79.8596   6
   4   6   5 1629.41 192.763   8
  -4  -6  -5 1451.32 151.037   6
  -4  -6  -6 54.4749 46.8377   6
   4   6   6-55.2423 50.7989   8
  -4  -6  -7 91.4362 48.4686   6
   4   6   7 153.319 60.7605   8
  -4  -6  -8 70.1183 42.0906   6
   4   6   8 101.613 50.1918   8
   4  -6   9-34.8373 39.2401   5
   4   6   9 34.7677 31.1504   8
  -4  -6  -9 68.3568 32.5122   6
  -4  -7   5 69.1021 27.0060  11
  -4  -7   4 1376.61 92.4417  11
  -4  -7   4 1655.01 124.996   6
  -4  -7   3 392.649 72.0283   6
  -4  -7   2 1614.88 127.906   6
  -4  -7   1 360.186 67.9529   6
  -4  -7   0 172.344 46.2678   6
  -4  -7  -1 936.582 95.6764   6
  -4  -7  -2 280.642 55.6176   6
  -4  -7  -3 499.097 65.4010   6
  -4  -7  -4 1054.30 82.6371   6
  -5   0  16 342.133 63.9289  10
  -5   0  16 194.419 67.7216   5
  -5   0  15 143.538 58.1263  10
  -5   0  15-31.0343 67.7848   5
  -5   0  14 829.358 100.979  10
  -5   0  14 672.274 122.284   5
  -5   0  13-19.2966 56.9192  10
  -5   0  13 37.3592 74.7681   5
  -5   0  13 12.2648 49.2550   4
  -5   0  12 2629.87 237.848   5
  -5   0  12 3033.71 191.961  10
  -5   0  12 3231.36 229.507   4
  -5   0  11-94.1482 71.6506  10
  -5   0  11-20.6323 81.4573   5
  -5   0  11 26.9868 56.3100   4
  -5   0  10 12896.6 500.268   5
  -5   0  10 14007.8 431.284  10
  -5   0   9 22.1661 51.7207  10
  -5   0   9-65.1463 89.0630   5
  -5   0   9 24.3421 67.6500   4
  -5   0   8 1898.87 199.609   5
  -5   0   8 2040.56 170.134  10
  -5   0   8 2057.17 212.154   4
  -5   0   7-24.2164 57.8593  10
  -5   0   7 36.1475 89.0157   5
  -5   0   7 73.5315 73.5386   4
  -5   0   6 1256.84 160.178   5
  -5   0   6 1268.12 134.423  10
  -5   0   6 1385.28 185.307   4
  -5   0   5 16.6463 40.1535  10
  -5   0   5 32.5955 85.5526   4
  -5   0   4 20694.6 519.852  10
  -5   0   4 19700.1 872.938   1
  -5   0   3 221.842 115.553   1
  -5   0   2 34927.7 1265.81   1
  -5   0   1-95.1528 112.974   1
  -5   0   0 1800.52 319.012   1
  -5   0  -1 7.05992 135.177   1
  -5   0  -1-110.861 96.3639   7
  -5   0  -2 3865.58 313.867   7
  -5   0  -2 3600.13 485.478   1
  -5   0  -3-78.7470 119.450   1
  -5   0  -3-79.6124 99.1608   7
  -5   0  -4 4296.48 545.244   1
  -5   0  -5 78.6421 79.9889   7
  -5   0  -5-224.184 162.514   1
  -5   0  -6 6497.40 423.108   7
   5   0   6 7677.79 581.180   2
  -5   0  -7-13.8854 78.5068   7
  -5   0  -8 1256.15 193.274   7
  -5   0  -9 59.9345 77.1095   7
  -5   0 -10 1698.14 202.024   7
   5   0  11-14.7140 54.0419   9
  -5   0 -11 79.7378 60.4961   7
   5   0  12 2383.20 200.929   9
   5   0  13-102.787 46.2301   9
  -5  -1  16 436.248 68.0884  10
  -5  -1  16 303.951 70.3356   5
  -5   1  15 17.7110 65.5107   5
  -5   1  15 108.789 52.7570  10
  -5  -1  15 119.158 55.8985  10
  -5  -1  15 24.8393 63.5071   5
  -5   1  14 3205.06 176.234  10
  -5   1  14 2797.97 227.694   5
  -5  -1  14 3243.47 184.896  10
  -5  -1  14 2601.94 199.570   5
  -5   1  14 3230.72 201.171   4
  -5   1  13 2938.60 178.238  10
  -5   1  13 2912.65 242.110   5
  -5  -1  13 3425.27 200.488  10
  -5   1  13 3389.61 220.648   4
  -5   1  12 2021.58 214.111   5
  -5   1  12 1978.84 150.357  10
  -5  -1  12 1754.91 185.643   5
  -5  -1  12 1986.01 165.552  10
  -5  -1  12 2292.43 180.923   4
  -5   1  12 2309.90 193.480   4
  -5   1  11 12481.1 503.942   5
  -5   1  11 12584.5 368.143  10
  -5  -1  11 11804.5 445.610   5
  -5  -1  11 13614.3 429.090  10
  -5  -1  11 13129.1 439.530   4
  -5   1  11 13659.9 490.752   4
  -5   1  10 15431.5 573.404   5
  -5  -1  10 14487.7 493.488   5
  -5   1  10 15419.3 408.278  10
  -5  -1  10 16017.5 491.775  10
  -5  -1  10 17080.6 514.777   4
  -5   1  10 17066.7 577.775   4
  -5   1   9 9480.47 449.006   5
  -5  -1   9 9126.71 387.623   5
  -5   1   9 10034.3 336.192  10
  -5  -1   9 10018.7 385.035  10
  -5  -1   9 11005.5 429.156   4
  -5   1   9 10177.3 455.341   4
  -5   1   8 1212.57 123.532  10
  -5  -1   8 1190.25 141.433  10
  -5   1   8 952.459 165.149   5
  -5  -1   8 1294.79 163.586   4
  -5   1   8 1195.78 178.224   4
  -5   1   7 4028.06 290.429   5
  -5   1   7 4135.08 218.186  10
  -5  -1   7 4123.70 249.365  10
  -5  -1   7 4513.51 288.677   4
  -5   1   7 4496.81 331.753   4
  -5   1   6 2153.14 158.316  10
  -5  -1   6 1854.26 177.841  10
  -5  -1   6 2554.99 231.074   4
  -5   1   6 2267.91 242.089   4
  -5   1   5 346.832 69.6296  10
  -5  -1   5 321.492 84.0456  10
  -5  -1   5 367.094 97.5656   4
  -5   1   5 564.997 133.868   4
  -5  -1   4 962.905 129.554  10
  -5  -1   4 684.134 191.451   1
  -5   1   4 1075.38 189.684   4
  -5  -1   3 11265.6 405.111  10
   5   1  -3 11445.2 1498.85   3
  -5   1   3 10069.7 637.230   1
  -5  -1   3 10436.2 700.946   1
  -5   1   3 12326.5 568.753   4
  -5   1   2 1149.65 245.546   1
  -5  -1   2 1279.63 269.638   1
   5   1  -2 1179.92 444.742   3
  -5   1   2 1099.10 184.933   4
  -5   1   1 1139.83 250.031   1
  -5  -1   1 884.701 232.869   1
  -5  -1   1 1626.23 208.086   7
   5   1  -1 728.268 232.424   3
  -5   1   1 1237.68 236.424   4
  -5   1   0 14737.6 872.506   1
   5   1   0 13093.0 807.416   3
  -5  -1   0 13826.6 884.829   1
  -5  -1   0 16409.7 627.817   7
  -5   1   0 14011.5 649.164   4
  -5   1  -1 562.554 165.843   4
  -5  -1  -1 534.760 203.359   1
  -5   1  -1 486.185 176.483   1
   5   1   1 595.116 166.772   3
  -5  -1  -1 681.847 146.371   7
  -5   1  -2 4554.46 518.757   1
   5   1   2 4915.29 411.865   3
  -5  -1  -2 4503.87 347.953   7
  -5  -1  -2 3951.76 524.288   1
  -5   1  -3 9877.49 787.227   1
  -5  -1  -3 9485.50 501.221   7
  -5  -1  -3 9023.48 790.493   1
  -5  -1  -4 872.052 171.250   7
  -5  -1  -4 518.715 208.933   1
  -5   1  -4 938.708 268.104   1
  -5   1  -5 4006.74 525.640   1
  -5  -1  -5 4044.85 334.360   7
  -5  -1  -5 4218.21 572.912   1
   5  -1   5 4642.93 456.910   2
  -5   1  -6 5010.80 595.530   1
  -5  -1  -6 5201.33 374.352   7
   5  -1   6 6149.49 560.847   2
  -5  -1  -6 4256.71 582.339   1
  -5  -1  -7 110.618 101.241   6
  -5  -1  -7 246.273 109.740   7
  -5  -1  -8 369.845 147.205   6
  -5  -1  -8 295.517 112.052   7
  -5  -1  -9 915.376 179.467   6
   5   1   9 1003.31 155.925   9
  -5  -1  -9 983.575 155.778   7
   5   1  10 858.598 142.057   9
  -5  -1 -10 935.425 149.476   7
  -5   1 -10 1109.15 171.394   7
  -5  -1 -11 363.366 123.970   6
   5   1  11 593.837 116.580   9
  -5   1 -11 619.376 125.633   7
  -5  -1 -12 19.1304 87.1721   6
  -5   1 -12 169.740 70.4342   7
  -5  -1 -13 103.869 67.9142   6
  -5  -2  16 250.848 47.9658  10
  -5  -2  15 1124.85 97.9250  10
  -5   2  14 708.076 84.8947  10
  -5  -2  14 829.543 94.9518  10
  -5   2  14 919.727 101.948   4
  -5   2  13 757.941 87.4615  10
  -5  -2  13 678.467 93.4544  10
  -5   2  13 768.558 103.517   4
  -5  -2  12 396.833 75.8874  11
  -5   2  12 631.784 87.1884  10
  -5  -2  12 649.608 98.1037  10
  -5   2  12 695.569 108.151   4
  -5  -2  11 13270.2 397.054  11
  -5   2  11 13307.2 349.789  10
  -5  -2  11 14553.0 447.007  10
  -5  -2  11 13459.0 392.806   4
  -5   2  11 13984.4 476.176   4
  -5  -2  10 16664.3 460.458  11
  -5   2  10 16622.8 395.436  10
  -5  -2  10 16814.0 502.455  10
  -5   2  10 17370.7 562.353   4
  -5  -2   9 21246.7 533.564  11
  -5  -2   9 22215.0 588.699  10
  -5   2   9 22862.5 670.135   4
  -5  -2   8 2222.66 181.242  11
  -5  -2   8 2799.93 214.934  10
   5   2  -8 2312.56 594.880   3
  -5   2   8 2814.65 249.402   4
  -5  -2   7 1599.70 157.658  11
  -5  -2   7 1912.68 180.919  10
   5   2  -7 2202.30 587.448   3
  -5   2   7 1786.61 223.024   4
  -5  -2   6 467.239 99.2999  10
   5   2  -6 155.213 348.931   3
  -5   2   6 312.367 117.833   4
  -5  -2   5 8042.91 367.119  10
   5   2  -5 4544.71 973.419   3
  -5   2   5 8000.73 456.103   4
   5  -2  -5 5724.20 358.347  13
  -5  -2   4 248.975 132.421   1
  -5  -2   4 313.896 89.1621  10
   5  -2  -4 269.415 81.0501  13
  -5  -2   4 665.433 156.139   7
  -5   2   4 337.740 127.389   4
  -5  -2   3 14036.2 491.621  10
   5   2  -3 12630.8 1686.60   3
  -5  -2   3 12995.2 824.154   1
  -5   2   3 14876.3 644.031   4
   5  -2  -3 12060.5 543.800  13
  -5  -2   2 2611.55 393.793   1
  -5  -2   2 3666.00 308.606   7
  -5   2   2 3041.65 307.156   4
   5  -2  -2 2669.92 261.579  13
  -5  -2   1 506.073 210.220   1
   5   2  -1 616.858 367.367   3
  -5  -2   1 652.840 152.304   7
   5  -2  -1 436.620 115.102  13
  -5   2   1 304.291 138.580   4
   5   2   0 2984.97 497.505   3
  -5  -2   0 3331.72 461.697   1
  -5  -2   0 4014.18 329.017   7
   5  -2   0 3138.96 298.018  13
  -5   2   0 2783.24 332.684   4
   5   2   1 5264.56 587.873   3
  -5  -2  -1 3945.98 541.476   1
  -5  -2  -1 5677.75 393.750   7
   5  -2   1 5451.61 391.368  13
  -5   2  -1 4624.41 401.493   4
  -5  -2  -1 4403.93 298.588   6
  -5  -2  -2 1643.77 352.650   1
  -5  -2  -2 2014.98 235.357   7
   5   2   2 1553.11 288.106   3
   5  -2   2 2182.70 255.998  13
  -5  -2  -2 1513.80 191.091   6
   5   2   3 9174.69 625.748   3
  -5  -2  -3 8657.21 786.919   1
  -5  -2  -3 9372.82 494.026   7
   5  -2   3 10212.5 553.502  13
  -5  -2  -3 8675.32 453.436   6
  -5  -2  -4 8635.76 802.261   1
  -5  -2  -4 9648.60 506.700   7
  -5  -2  -4 9477.16 491.175   6
  -5  -2  -5 3154.16 293.705   7
  -5  -2  -5 3089.59 514.687   1
   5  -2   5 4396.72 369.123  13
  -5  -2  -5 3331.41 309.875   6
  -5  -2  -6 3738.51 316.619   7
  -5  -2  -6 3632.48 323.361   6
  -5  -2  -7 140.917 112.083   6
  -5  -2  -7 157.615 85.3407   7
  -5  -2  -8 117.089 103.676   6
  -5  -2  -8 285.800 97.6648   7
  -5  -2  -9-61.8376 113.828   6
  -5  -2  -9 79.2938 66.5120   7
  -5  -2 -10 993.360 175.720   6
  -5  -2 -11 8.68403 91.3816   6
   5  -2  11 124.816 44.3666   5
  -5   2 -11-0.68647 60.2051   7
  -5   2 -12 1668.79 167.377   7
  -5  -2 -12 1692.64 172.405   6
  -5  -2 -13 139.661 66.5812   6
  -5  -3  15 196.883 39.3233  10
  -5  -3  14 217.898 56.5480  11
  -5  -3  14 185.974 44.3551  10
  -5  -3  13 225.591 60.2177  11
  -5  -3  13 295.360 58.1642  10
  -5   3  13 256.651 56.7549   4
  -5  -3  12 484.461 86.7079  11
  -5  -3  12 528.220 79.7578  10
  -5   3  12 523.458 84.9564   4
  -5  -3  11 1477.26 145.606  11
  -5  -3  11 1611.99 143.293  10
  -5   3  11 1358.32 137.214   4
  -5  -3  10 1788.58 167.202  11
  -5  -3  10 2088.15 173.703  10
  -5   3  10 1655.93 163.132   4
  -5  -3   9 5236.96 282.807  11
  -5  -3   9 5391.29 285.967  10
  -5   3   9 5151.19 295.882   4
  -5  -3   8 19031.6 553.659  11
  -5  -3   8 19881.0 571.540  10
  -5   3   8 18260.6 585.342   4
  -5  -3   8 19238.1 520.882   6
  -5  -3   7 1216.45 154.234  11
  -5  -3   7 1486.49 162.841  10
  -5   3   7 1233.29 175.680   4
  -5  -3   7 1226.65 138.798   6
  -5  -3   6 16275.8 524.288  10
  -5   3   6 15451.7 588.889   4
  -5  -3   6 14755.3 462.684   6
  -5  -3   5 8603.04 391.170  10
   5   3  -5 7153.15 1447.61   3
  -5   3   5 7174.13 442.650   4
   5  -3  -5 6380.27 418.993  13
  -5  -3   5 7506.57 329.652   6
  -5  -3   4 126.295 66.0746  10
  -5  -3   4 109.899 105.275   7
   5  -3  -4 84.1973 61.5272  13
  -5   3   4 79.0274 76.0594   4
  -5  -3   4 298.133 143.921   1
  -5  -3   4 92.8381 54.3764   6
  -5  -3   3 5498.38 320.012  10
  -5  -3   3 4842.60 531.005   1
  -5   3   3 5755.95 403.288   4
   5  -3  -3 4741.12 367.921  13
  -5  -3   3 5012.09 279.844   6
   5   3  -2 625.821 566.853   3
  -5  -3   2 552.644 165.606   7
   5  -3  -2 418.580 127.528  13
  -5  -3   2 429.658 184.422   1
  -5   3   2 415.879 144.780   4
  -5  -3   2 312.059 107.829   6
  -5  -3   1 3951.29 499.023   1
   5   3  -1 3650.52 733.720   3
  -5   3   1 4326.25 364.823   4
   5  -3  -1 4553.47 377.759  13
  -5  -3   1 4259.42 286.725   6
  -5  -3   0 4972.34 576.748   1
   5   3   0 4186.75 647.856   3
  -5   3   0 4551.67 392.347   4
   5  -3   0 5474.34 417.411  13
  -5  -3   0 4606.58 302.127   6
  -5  -3  -1 6276.19 671.796   1
   5   3   1 5787.61 667.710   3
  -5  -3  -1 7702.25 473.579   7
  -5   3  -1 5473.41 441.309   4
   5  -3   1 7003.31 479.834  13
  -5  -3  -1 6128.52 370.730   6
  -5  -3  -2 7421.32 736.076   1
   5   3   2 6605.66 605.314   3
  -5  -3  -2 7685.85 469.888   7
   5  -3   2 7812.44 510.400  13
  -5   3  -2 6471.01 461.659   4
  -5  -3  -2 6578.60 385.551   6
  -5  -3  -3 935.759 165.088   6
  -5  -3  -3 1012.91 180.464   7
  -5  -3  -4 16069.1 666.076   7
  -5  -3  -4 14388.2 598.107   6
  -5  -3  -5 8228.68 464.239   7
  -5  -3  -5 7935.05 457.800   6
  -5  -3  -6 1796.83 218.934   7
  -5  -3  -6 1596.27 219.341   6
  -5  -3  -7 584.994 145.977   6
  -5  -3  -7 668.648 139.971   7
  -5  -3  -8 851.387 165.834   6
  -5  -3  -8 767.760 134.114   7
  -5  -3  -9 4609.54 328.601   6
  -5  -3 -10 125.948 92.8750   6
   5  -3  11 2994.72 164.467   5
  -5  -3 -11 1875.90 178.615   6
  -5  -3 -12 557.230 93.0746   6
   5  -3  12 741.865 75.2461   5
  -5   3 -12 478.970 91.4765   7
  -5   3 -13 66.6005 66.1367   4
  -5  -4  14 1182.11 87.9184  11
  -5  -4  13 10.6531 36.3030  11
  -5  -4  12 460.189 78.8649  11
  -5  -4  11 2909.85 188.129  11
  -5  -4  11 2830.11 150.461  10
  -5   4  11 2777.01 148.965   4
  -5  -4  10 275.692 80.4702  11
  -5  -4  10 212.856 57.6973  10
  -5   4  10 181.893 50.7185   4
  -5  -4   9 2576.62 203.925  11
  -5  -4   9 2579.79 175.740  10
  -5   4   9 2160.83 163.418   4
  -5  -4   8 4899.59 282.003  11
  -5  -4   8 5101.84 264.334  10
  -5   4   8 4177.36 242.339   4
  -5  -4   8 4521.44 261.712   6
  -5  -4   7 138.547 69.3834  11
  -5  -4   7 195.802 71.5821  10
  -5   4   7 191.033 71.2123   4
  -5  -4   7 105.717 67.5187   6
  -5  -4   6 5144.72 307.110  11
  -5  -4   6 5993.80 304.753  10
  -5   4   6 5237.14 304.196   4
  -5  -4   6 5046.00 285.300   6
  -5  -4   5 3758.07 254.282  10
  -5   4   5 3087.56 245.563   4
  -5  -4   5 3012.46 222.518   6
  -5  -4   4 7129.20 354.961  10
  -5   4   4 6107.71 368.241   4
  -5  -4   4 6109.93 313.987   6
  -5  -4   3 111.097 65.6113  10
  -5   4   3-4.29032 80.9195   4
  -5  -4   3-31.0455 96.5855   6
  -5  -4   2 1539.15 204.675  10
  -5  -4   2 1779.37 244.018   7
  -5   4   2 1951.90 249.247   4
  -5  -4   2 1146.87 173.433   6
  -5   4   1 10314.4 514.751   4
  -5  -4   1 10837.6 456.616   6
  -5   4   0 8146.41 474.548   4
  -5  -4   0 8469.09 413.971   6
  -5   4  -1 7881.03 474.910   4
  -5  -4  -1 8092.80 412.878   6
  -5   4  -2 4716.82 389.794   4
  -5  -4  -2 5018.28 333.931   6
  -5   4  -3 12285.3 622.176   4
  -5  -4  -3 12290.7 522.335   6
  -5   4  -4 2006.01 265.442   4
  -5  -4  -4 2031.77 227.416   6
  -5   4  -5 491.660 155.828   4
  -5  -4  -5 306.389 99.9545   6
  -5  -4  -5 562.358 141.500   7
  -5  -4  -6 748.723 145.183   6
  -5   4  -6 1018.41 194.643   4
  -5  -4  -6 1082.39 170.115   7
  -5  -4  -7 418.462 116.589   6
  -5   4  -7 411.359 153.114   4
  -5  -4  -7 404.904 95.7291   7
  -5  -4  -8 6.04296 71.3750   6
  -5   4  -8 95.8962 100.504   4
  -5  -4  -9-4.99163 65.6118   6
  -5   4  -9-18.1613 86.6977   4
  -5   4 -10 2788.51 247.263   4
  -5  -4 -10 3283.88 209.465   6
  -5   4 -11 207.574 83.1706   4
  -5  -4 -11 240.862 61.7091   6
   5  -4  11 442.072 64.6640   5
  -5  -5  12 1410.71 99.5185  11
  -5  -5  11 349.766 63.2975  11
  -5  -5  10 2806.58 173.773  11
  -5  -5   9 4537.28 231.525  11
  -5  -5   8 5752.14 273.411  11
  -5  -5   7 8759.82 351.089  11
  -5  -5   7 8053.01 334.307   6
  -5  -5   6 185.412 67.6121  11
  -5  -5   6 225.107 80.5862   6
  -5  -5   5 6671.38 326.570  11
  -5  -5   5 6055.54 303.252   6
  -5  -5   4 1020.32 118.970  10
  -5  -5   4 839.877 125.102   6
  -5  -5   3 3477.88 216.650  10
  -5  -5   3 3108.70 223.442   6
  -5  -5   2 527.094 100.960  10
  -5  -5   2 418.600 98.4887   6
  -5  -5   1 248.959 74.5303  10
  -5  -5   1 174.673 72.2261   6
  -5  -5   0 57.4366 53.4910  10
  -5  -5   0 5.19640 64.1085   6
  -5  -5  -1 3316.80 247.982   6
  -5  -5  -2 762.965 134.599   6
  -5  -5  -3 434.289 107.513   6
  -5  -5  -4 449.553 105.317   6
  -5   5  -4 342.675 109.498   4
  -5  -5  -5 585.426 111.826   6
   5   5   5 615.054 115.634   8
  -5   5  -5 494.113 109.411   4
  -5  -5  -6 285.896 81.2083   6
   5   5   6 331.090 84.9478   8
  -5   5  -6 292.050 87.9422   4
   5   5   7 754.649 121.474   8
  -5  -5  -7 575.865 93.9634   6
  -5  -5  -8 272.997 68.2367   6
   5   5   8 229.550 64.2384   8
  -5  -5  -9 105.073 42.7277   6
   5  -5   9 244.453 52.8745   5
   5   5   9 198.052 56.1386   8
  -5  -6   9 499.406 59.6456  11
  -5  -6   8 59.2647 34.0750  11
  -5  -6   7 2823.89 155.856  11
  -5  -6   6 825.686 95.9418  11
  -5  -6   6 836.504 98.8019   6
  -5  -6   5 183.749 56.9204  11
  -5  -6   5 214.766 63.9209   6
  -5  -6   4 399.708 77.5972  11
  -5  -6   4 435.385 81.3309   6
  -5  -6   3 2040.64 154.444  11
  -5  -6   3 1963.92 156.242   6
  -5  -6   2 305.294 70.8826  11
  -5  -6   2 285.168 73.6875   6
  -5  -6   1 2064.59 161.916   6
  -5  -6   0 534.103 91.1803   6
  -5  -6  -1 37.2461 45.5608   6
  -5  -6  -2 729.424 97.3013   6
  -5  -6  -3 151.092 51.7941   6
  -5  -6  -4 530.189 76.1695   6
  -5  -6  -5 1052.87 96.4361   6
  -5  -6  -6 144.198 36.2276   6
  -5  -7   2 1066.97 79.1345   6
  -5  -7   1 945.858 75.4819   6
  -6   0  16 157.048 36.3245  10
  -6   0  15 31.0918 33.9018  10
  -6   0  14 1691.00 114.144  10
  -6   0  13-0.64244 38.3101  10
  -6   0  13 48.3132 42.0452   4
  -6   0  12 2784.71 170.474  10
  -6   0  12 2831.73 189.472   4
  -6   0  11-53.2912 60.5958  10
  -6   0  11-19.1087 57.0312   4
  -6   0  10 9181.06 332.112  10
  -6   0  10 9647.49 393.286   4
  -6   0   9 89.2801 59.0553  10
  -6   0   9-19.5123 60.6740   4
  -6   0   8 44921.0 774.839  10
  -6   0   8 48316.1 972.636   4
  -6   0   7-40.2865 60.3576  10
  -6   0   7 47.3024 72.1319   4
  -6   0   6 10218.1 375.818  10
  -6   0   6 11607.2 513.137   4
  -6   0   5 13.7594 43.9249  10
  -6   0   5 31.1945 64.2343   4
  -6   0   4 3893.07 237.590  10
  -6   0   4 3993.75 325.948   4
  -6   0   3 49.9009 47.7228  10
  -6   0   3 11.8865 92.9522   4
  -6   0   2 838.143 122.197  10
  -6   0   2 946.819 242.539   1
  -6   0   2 801.518 156.387   7
  -6   0   2 996.167 188.820   4
  -6   0   1 218.361 129.594   1
  -6   0   1 60.3651 66.7568  10
  -6   0   1 54.8930 83.6871   7
  -6   0   1-5.44900 101.583   4
  -6   0   0 6105.26 304.744  10
  -6   0   0 6343.27 407.620   7
  -6   0   0 6214.21 423.580   4
  -6   0   0 6323.10 633.090   1
  -6   0  -1-76.0924 96.6492   7
  -6   0  -1 34.1743 98.5668   4
  -6   0  -2 13508.3 961.971   1
  -6   0  -2 13123.3 597.752   7
  -6   0  -2 12753.1 602.375   4
  -6   0  -3-28.7094 81.3735   4
  -6   0  -3-102.861 93.0064   7
  -6   0  -4 202.069 120.936   4
  -6   0  -4 197.612 95.8417   7
  -6   0  -5 159.192 110.172   4
  -6   0  -5-17.4895 74.9579   7
  -6   0  -6 734.407 172.174   4
  -6   0  -6 834.446 158.048   7
  -6   0  -7 29.9095 88.2193   7
  -6   0  -8 5114.70 340.623   7
  -6   0  -9 104.743 86.1107   4
  -6   0  -9 142.627 86.8083   7
  -6   0 -10 106.937 72.2361   4
  -6   0 -10 75.8650 57.5950   7
  -6   0 -11 23.4027 49.2266   4
  -6   0 -11-6.58648 35.6604   7
  -6   1  15 521.540 57.4156  10
  -6  -1  15 759.009 71.9641  10
  -6   1  14 161.894 43.3178  10
  -6  -1  14 230.043 52.0834  10
  -6   1  14 249.418 58.0979   4
  -6   1  13 1379.67 105.076  10
  -6  -1  13 1588.59 123.677  10
  -6   1  13 1380.74 123.646   4
  -6   1  12 505.810 75.5117  10
  -6  -1  12 500.646 83.0170  10
  -6  -1  12 458.562 75.3708   4
  -6   1  12 491.650 87.5590   4
  -6   1  11 3298.10 177.951  10
  -6  -1  11 3804.73 217.241  10
  -6  -1  11 3331.53 198.464   4
  -6   1  11 3896.74 244.392   4
  -6   1  10 7546.40 271.302  10
  -6  -1  10 8091.25 328.280  10
  -6  -1  10 7741.67 318.029   4
  -6   1  10 8163.03 370.367   4
  -6   1   9 6256.98 253.762  10
  -6  -1   9 6835.08 308.544  10
  -6  -1   9 7011.93 322.301   4
  -6   1   9 6770.87 367.486   4
  -6   1   8 10743.7 345.894  10
  -6  -1   8 10548.2 393.359  10
  -6  -1   8 11284.4 422.376   4
  -6   1   8 11018.3 485.573   4
  -6   1   7 24831.0 524.986  10
  -6  -1   7 25050.6 613.869  10
  -6  -1   7 26366.3 671.483   4
  -6   1   7 26891.3 770.464   4
  -6   1   6 867.500 105.337  10
  -6  -1   6 1002.25 132.752  10
  -6  -1   6 1089.23 148.878   4
  -6   1   6 1020.59 170.497   4
  -6  -1   5 2063.79 182.711  10
  -6  -1   5 2276.16 220.069   4
  -6   1   5 2278.69 248.682   4
  -6  -1   4 116.144 63.6554  10
  -6  -1   4 68.8375 71.6046   4
  -6   1   4 30.1406 73.1902   4
  -6  -1   3 1223.09 275.018   1
  -6  -1   3 1563.99 166.653  10
  -6  -1   3 1393.75 197.571   7
  -6  -1   2 11688.2 437.510  10
  -6   1   2 10457.8 754.064   1
  -6  -1   2 13206.6 581.789   7
  -6   1   2 12637.2 607.093   4
  -6  -1   2 10764.4 801.723   1
  -6   1   1 2162.77 356.203   1
  -6  -1   1 2876.62 279.202   7
  -6   1   1 2475.06 261.604   7
  -6   1   1 2278.22 282.400   4
  -6  -1   1 2297.98 386.280   1
  -6  -1   0 1327.14 300.260   1
  -6   1   0 1702.49 328.479   1
  -6  -1   0 1616.35 216.526   7
  -6   1   0 1219.12 188.492   7
  -6   1   0 1341.09 226.791   4
  -6   1  -1 86.7201 106.246   4
  -6  -1  -1-85.6328 125.648   1
  -6   1  -1 87.6724 134.074   1
  -6  -1  -1-33.3273 108.666   7
  -6   1  -1 86.1944 80.1130   7
  -6   1  -2 550.629 160.768   4
  -6  -1  -2 503.168 136.330   7
  -6   1  -2 509.710 131.538   7
  -6   1  -3 236.591 122.662   4
  -6  -1  -3 278.733 112.786   7
  -6   1  -3 148.698 93.7183   7
  -6  -1  -4 1313.23 196.861   7
  -6   1  -4 1396.08 205.240   7
  -6   1  -4 1229.46 220.605   4
  -6  -1  -5 1019.45 173.934   7
  -6   1  -5 888.458 172.731   7
  -6  -1  -6 1805.37 217.899   7
  -6   1  -6 1885.77 231.265   7
  -6  -1  -7 1293.66 182.095   7
  -6   1  -7 1376.79 197.109   7
  -6  -1  -8 630.196 123.538   7
  -6   1  -8 696.962 136.985   7
  -6  -1  -9 202.935 75.6216   7
  -6   1  -9 400.527 104.855   7
  -6  -1 -10 17.8588 41.9615   7
  -6   1 -10 50.9732 58.1992   7
  -6   1 -11 103.430 69.0388   4
  -6   1 -11 132.688 52.2644   7
  -6   1 -12 301.247 71.9044   4
  -6  -2  15 405.780 49.1623  10
  -6  -2  14 1409.20 97.3666  10
  -6  -2  13 144.959 44.8897  10
  -6   2  13 160.824 51.2013   4
  -6  -2  12 2234.81 149.278  10
  -6   2  12 2333.20 163.527   4
  -6  -2  11 3202.86 198.201  10
  -6   2  11 3233.52 213.051   4
  -6  -2  10 1630.54 152.269  10
  -6   2  10 1360.31 154.276   4
  -6  -2   9 553.228 100.179  10
  -6   2   9 427.007 107.573   4
  -6  -2   8 3649.21 211.244  11
  -6  -2   8 4080.61 257.542  10
  -6   2   8 4306.72 295.137   4
  -6  -2   7 4304.87 237.135  11
  -6  -2   7 4978.57 287.124  10
  -6   2   7 5289.32 342.202   4
  -6  -2   6 11899.0 447.564  10
  -6   2   6 12687.4 550.848   4
  -6  -2   5 963.640 138.775  10
  -6  -2   5 1319.57 190.545   7
  -6   2   5 1037.46 180.857   4
  -6  -2   4 14194.5 491.180  10
  -6   2   4 14502.3 618.195   4
  -6  -2   3 726.260 131.193  10
  -6  -2   3 1064.42 189.662   7
  -6   2   3 726.476 173.458   4
  -6  -2   2 690.593 127.495  10
  -6  -2   2 649.543 147.152   7
  -6   2   2 607.947 164.315   4
  -6  -2   1 1739.36 225.728   7
  -6   2   1 1459.04 227.512   4
  -6  -2   0 1747.39 231.375   7
  -6   2   0 1447.75 222.647   4
  -6   2  -1 511.489 165.627   4
  -6  -2  -1 807.449 160.334   7
  -6  -2  -2 6518.56 421.234   7
  -6   2  -2 5760.87 444.268   4
  -6  -2  -3 3053.28 291.285   7
  -6   2  -3 2779.42 307.987   4
  -6  -2  -4 4331.82 342.313   7
  -6   2  -4 4362.37 380.607   4
  -6  -2  -5 2421.49 247.916   7
  -6   2  -5 2540.09 298.296   4
  -6  -2  -6 5031.51 340.582   7
  -6   2  -6 4992.82 395.052   4
  -6  -2  -7 443.078 101.066   6
  -6  -2  -7 392.212 107.950   7
  -6  -2  -8 565.967 102.528   6
  -6  -2  -8 494.902 106.193   7
  -6   2  -8 728.942 137.605   7
  -6  -2  -9 263.529 73.5829   6
  -6   2  -9 499.446 134.103   4
  -6  -2  -9 466.109 93.3716   7
  -6   2  -9 332.354 98.7973   7
  -6  -2 -10 832.997 103.346   7
  -6   2 -10 874.323 126.338   7
  -6   2 -10 742.908 145.154   4
  -6   2 -11 1237.68 125.191   7
  -6   2 -11 1427.69 161.779   4
  -6  -3  13 121.344 35.5198  10
  -6   3  13 142.652 37.1424   4
  -6  -3  12 328.709 54.3847  11
  -6  -3  12 319.886 53.3567  10
  -6   3  12 338.872 58.1899   4
  -6  -3  11 2910.05 157.800  11
  -6  -3  11 3014.50 167.000  10
  -6   3  11 3097.58 176.981   4
  -6  -3  10 157.908 53.2464  11
  -6  -3  10 173.811 55.3710  10
  -6   3  10 180.842 63.7494   4
  -6  -3   9 253.412 67.6671  11
  -6  -3   9 234.383 68.2280  10
  -6   3   9 163.973 68.4088   4
  -6  -3   8 2574.79 185.224  11
  -6  -3   8 2764.08 201.710  10
  -6   3   8 2512.00 208.036   4
  -6  -3   7 3984.98 240.551  11
  -6  -3   7 4687.49 268.020  10
  -6   3   7 4614.59 299.851   4
  -6  -3   6 4828.34 277.866  10
  -6   3   6 4452.20 308.882   4
  -6  -3   5 5093.11 290.850  10
  -6   3   5 5137.01 345.448   4
  -6  -3   4 7025.63 351.708  10
  -6   3   4 6492.05 397.736   4
  -6  -3   3 308.384 89.6908  10
  -6   3   3 339.375 117.975   4
  -6  -3   2 1316.40 160.476  10
  -6  -3   2 1515.04 257.697   7
  -6   3   2 1363.48 223.263   4
  -6  -3   2 924.964 117.969   6
  -6  -3   1 6730.48 344.565  10
  -6   3   1 6208.04 427.787   4
  -6  -3   1 5933.21 290.940   6
  -6  -3   0 274.090 127.969   7
  -6   3   0-20.5788 107.110   4
  -6  -3   0 86.4144 61.7763   6
  -6   3  -1 3853.83 355.150   4
  -6  -3  -1 3472.10 236.716   6
  -6   3  -2 15201.2 690.912   4
  -6  -3  -2 13866.6 466.653   6
  -6  -3  -3 4335.03 344.654   7
  -6   3  -3 3599.24 339.017   4
  -6  -3  -3 3503.84 243.735   6
  -6  -3  -4 5270.92 367.500   7
  -6   3  -4 4834.42 388.398   4
  -6  -3  -4 4170.00 265.575   6
  -6  -3  -5 6512.97 397.347   7
  -6   3  -5 5902.76 421.958   4
  -6  -3  -5 5449.72 298.278   6
  -6  -3  -6 2454.73 236.506   7
  -6   3  -6 2196.74 266.152   4
  -6  -3  -6 2028.16 179.394   6
  -6  -3  -7 1987.74 203.339   7
  -6   3  -7 1624.72 221.491   4
  -6  -3  -7 1441.67 150.103   6
  -6   3  -8 222.421 105.291   4
  -6  -3  -8 123.227 61.9462   6
  -6  -3  -8 336.224 93.8767   7
  -6   3  -9 108.675 84.8132   4
  -6  -3  -9 112.883 47.1806   6
   6  -3   9 214.321 43.0069   5
  -6   3  -9 165.828 70.4495   7
  -6   3 -10 533.679 111.205   4
  -6  -3 -10 287.661 52.9166   6
  -6   3 -10 476.902 89.4939   7
  -6  -4  12 1318.00 83.9794  11
  -6  -4  11 571.472 68.6294  11
  -6  -4  11 521.049 53.6048  10
  -6   4  11 519.286 54.6096   4
  -6  -4  10 6.38643 38.4120  11
  -6  -4  10-68.4555 41.2106  10
  -6   4  10 50.0374 33.7133   4
  -6  -4   9 1292.29 121.726  11
  -6  -4   9 1198.22 105.973  10
  -6   4   9 1206.04 107.112   4
  -6  -4   8 239.314 70.8246  11
  -6  -4   8 233.195 59.4621  10
  -6   4   8 206.475 59.4331   4
  -6  -4   7 2655.64 189.439  11
  -6  -4   7 2650.32 176.636  10
  -6   4   7 2379.97 180.646   4
  -6  -4   6 743.982 113.651  11
  -6  -4   6 998.116 120.797  10
  -6   4   6 803.403 118.544   4
  -6  -4   6 850.821 106.983   6
  -6  -4   5 1081.00 124.764  10
  -6   4   5 929.290 135.381   4
  -6  -4   5 1090.66 122.366   6
  -6   4   4 1677.93 184.836   4
  -6  -4   4 2003.04 161.897   6
  -6  -4   3 5264.03 290.345  10
  -6   4   3 4536.49 304.567   4
  -6  -4   3 4404.34 239.612   6
  -6  -4   2 745.201 120.117  10
  -6  -4   2 791.609 155.629   7
  -6  -4   2 497.408 94.6450   6
  -6   4   2 628.840 137.918   4
  -6  -4   1 930.250 132.962  10
  -6  -4   1 1088.71 182.945   7
  -6  -4   1 689.785 102.678   6
  -6   4   1 539.571 128.609   4
  -6  -4   0 1866.81 182.067  10
  -6  -4   0 2140.44 247.218   7
  -6   4   0 1852.91 219.326   4
  -6  -4   0 1584.22 152.266   6
  -6   4  -1 4110.22 320.938   4
  -6  -4  -1 4312.38 251.872   6
  -6  -4  -2 728.595 151.928   7
  -6   4  -2 487.252 134.529   4
  -6  -4  -2 458.931 90.6703   6
  -6  -4  -3 759.873 113.653   6
  -6   4  -3 833.310 165.658   4
  -6  -4  -4 2061.25 215.520   7
  -6   4  -4 1684.40 213.075   4
  -6  -4  -4 1668.26 157.442   6
  -6  -4  -5 577.516 114.101   7
  -6  -4  -5 559.860 95.3440   6
  -6   4  -5 424.496 119.417   4
  -6  -4  -6 381.767 78.7068   6
  -6  -4  -6 409.949 85.4125   7
  -6   4  -6 393.308 117.042   4
  -6   4  -7 1168.14 157.971   4
  -6  -4  -7 1056.73 108.548   6
  -6  -4  -8 517.762 74.1940   6
  -6   4  -8 356.820 91.7139   4
  -6   4  -9 339.250 77.7114   7
  -6   4  -9 342.596 76.4950   4
  -6  -5  10 385.340 50.6504  11
  -6  -5   9 2991.55 143.768  11
  -6  -5   8 352.859 64.1746  11
  -6  -5   7 557.611 81.7077  11
  -6  -5   6 470.200 79.6300  11
  -6  -5   6 519.252 76.2524   6
  -6  -5   5 179.296 63.2516  11
  -6  -5   5 247.552 50.8845  10
  -6  -5   5 240.367 60.1017   6
  -6  -5   4 342.445 78.5875  11
  -6  -5   4 398.654 66.5624  10
  -6  -5   4 226.997 59.5915   6
  -6  -5   3 3737.01 191.717  10
  -6  -5   3 3299.83 190.381   6
  -6  -5   2 1024.70 104.910  10
  -6  -5   2 857.766 101.389   6
  -6  -5   1 476.440 75.6317  10
  -6  -5   1 524.382 83.8026   6
  -6   5   1 507.646 90.0145   4
  -6  -5   0 355.989 68.2151  10
  -6   5   0 200.948 65.8495   4
  -6  -5   0 246.420 63.0911   6
  -6  -5  -1 676.174 89.7557  10
  -6   5  -1 711.602 107.954   4
  -6  -5  -1 651.291 89.4144   6
  -6  -5  -2 347.193 67.6204  10
  -6   5  -2 382.588 85.0711   4
  -6  -5  -2 254.292 63.3256   6
  -6  -5  -3 51.7997 37.0481  10
  -6   5  -3 24.1526 47.2544   4
  -6  -5  -3 107.912 48.0283   6
  -6  -5  -4 162.175 46.9022  10
  -6   5  -4 211.917 64.8241   4
  -6  -5  -4 174.911 50.1015   6
  -6  -5  -5 90.8900 34.3773  10
  -6  -5  -5 56.9646 36.5986   6
  -6  -5  -6 92.2565 31.8430  10
  -6  -5  -6 95.8030 34.2007   6
  -6  -6   6 257.535 39.4665  11
  -6  -6   5 1219.59 85.3403  11
  -6  -6   4 1959.21 111.349  11
  -6  -6   4 2113.60 113.661   6
  -6  -6   3 377.406 55.3318  11
  -6  -6   3 372.205 56.6985   6
  -6  -6   2 377.668 54.3712  11
  -6  -6   2 422.575 56.5874   6
  -6  -6   1 147.131 36.7495  11
  -6  -6   1 170.550 41.5065   6
  -6  -6   0 204.813 40.5225  11
  -6  -6   0 379.623 53.2048   6
  -6  -6  -1 220.681 38.1075  11
  -6  -6  -1 295.559 46.4243   6
  -6  -6  -2 165.256 36.0228   6
  -7   0  13-20.7847 24.4473  10
  -7   0  12 114.814 38.7425  10
  -7   0  12 159.654 42.6406   4
  -7   0  11 16.8610 32.5994  10
  -7   0  11 7.20565 38.7245   4
  -7   0  10 12404.8 319.327  10
  -7   0  10 12163.8 360.460   4
  -7   0   9 25.7459 41.5723  10
  -7   0   9 22.2916 44.7639   4
  -7   0   8 9825.96 319.237  10
  -7   0   8 9289.35 367.008   4
  -7   0   7 70.5668 50.6980  10
  -7   0   7 33.5113 58.7990   4
  -7   0   6 8839.61 321.552  10
  -7   0   6 8667.19 389.672   4
  -7   0   5-25.6571 46.2443  10
  -7   0   5 106.576 77.7178   4
  -7   0   4 12965.0 400.319  10
  -7   0   4 13318.6 517.657   4
  -7   0   3 1010.30 121.543  10
  -7   0   3 1203.35 175.589   4
  -7   0   2 9121.69 339.769  10
  -7   0   2 9763.61 448.893   7
  -7   0   2 9347.71 453.296   4
  -7   0   1-18.7469 39.3358  10
  -7   0   1 95.2862 80.0058   7
  -7   0   1-71.3430 93.9742   4
  -7   0   0 5902.86 271.874  10
  -7   0   0 5569.58 359.441   7
  -7   0   0 5788.44 359.224   4
  -7   0  -1 2.80790 68.7726   7
  -7   0  -1-83.6549 82.5002   4
  -7   0  -2 996.401 159.886   7
  -7   0  -2 880.609 150.451   4
  -7   0  -3-15.2609 65.7863   7
  -7   0  -3-86.0216 83.2728   4
  -7   0  -4 773.392 144.238   7
  -7   0  -4 661.718 129.463   4
  -7   0  -5 24.7112 64.6199   7
  -7   0  -5 20.1700 59.6151   4
  -7   0  -6 3151.25 245.709   7
  -7   0  -6 3353.72 237.722   4
  -7   0  -7-9.50024 51.1615   7
  -7   0  -7-51.2927 48.4259   4
  -7   0  -8 36.8664 50.9924   7
  -7   0  -9-46.9482 38.5552   7
  -7  -1  13 838.806 70.8148  10
  -7   1  13 881.445 75.6669   4
  -7   1  12 86.9043 31.2966  10
  -7  -1  12-9.30788 31.7394  10
  -7   1  12 16.4990 30.6174   4
  -7   1  11 301.660 48.3323  10
  -7  -1  11 351.952 59.4583  10
  -7  -1  11 289.368 50.0203   4
  -7   1  11 310.914 60.7982   4
  -7   1  10 67.8073 33.2141  10
  -7  -1  10 156.992 51.5453  10
  -7  -1  10 65.5091 33.7063   4
  -7   1  10 154.002 60.9191   4
  -7   1   9 107.177 39.6531  10
  -7  -1   9 225.463 63.1367  10
  -7  -1   9 143.319 48.2682   4
  -7   1   9 165.643 65.0410   4
  -7   1   8 7513.82 244.439  10
  -7  -1   8 7532.68 294.884  10
  -7  -1   8 7090.81 274.825   4
  -7   1   8 7030.30 332.410   4
  -7  -1   7 1884.44 159.969  10
  -7  -1   7 1804.05 150.582   4
  -7   1   7 2059.88 197.970   4
  -7  -1   6 3934.68 228.052  10
  -7  -1   6 3823.84 227.719   4
  -7   1   6 4271.11 296.909   4
  -7  -1   5 3265.65 215.745  10
  -7   1   5 3728.68 282.172   4
  -7  -1   4 273.126 78.3815  10
  -7   1   4 239.694 98.8809   4
  -7  -1   3 670.430 110.796  10
  -7  -1   3 739.753 139.845   7
  -7   1   3 672.131 144.485   4
  -7  -1   2 1893.61 170.015  10
  -7  -1   2 1867.97 212.641   7
  -7   1   2 1875.98 226.796   4
  -7  -1   1 582.211 101.277  10
  -7  -1   1 603.945 133.850   7
  -7   1   1 470.992 114.729   7
  -7   1   1 632.169 145.106   4
  -7  -1   0 2412.04 187.200  10
  -7  -1   0 2530.91 249.966   7
  -7   1   0 2294.37 226.006   7
  -7   1   0 2310.24 250.829   4
  -7  -1  -1 741.252 111.286  10
  -7  -1  -1 852.077 154.185   7
  -7   1  -1 832.671 145.623   7
  -7   1  -1 808.758 159.482   4
  -7  -1  -2-22.5086 42.6010  10
  -7  -1  -2-53.8535 73.6296   7
  -7   1  -2-61.8113 71.9030   7
  -7   1  -2 37.1162 82.7343   4
  -7  -1  -3 841.458 149.338   7
  -7   1  -3 649.352 131.805   7
  -7   1  -3 597.078 140.596   4
  -7  -1  -4 73.0049 77.6113   7
  -7   1  -4 138.820 83.9769   7
  -7   1  -4 91.0104 82.7477   4
  -7   1  -5 738.193 136.534   7
  -7  -1  -5 561.336 115.403   7
  -7   1  -5 581.526 131.849   4
  -7  -1  -6 324.051 90.0635   7
  -7   1  -6 289.655 89.1165   7
  -7   1  -6 422.723 109.405   4
  -7  -1  -7 118.514 56.9825   7
  -7   1  -7 206.565 81.4367   7
  -7   1  -7 228.214 82.6887   4
  -7  -1  -8 286.827 66.7415   7
  -7   1  -8 345.724 80.6371   7
  -7   1  -8 291.882 80.2280   4
  -7  -1  -9 514.306 77.9367   7
  -7   1  -9 338.451 67.8384   7
  -7   1  -9 385.837 71.8840   4
  -7  -2  13 21.1748 21.0869  10
  -7   2  13 29.0977 22.4648   4
  -7  -2  12 528.278 59.9445  10
  -7   2  12 572.738 65.4567   4
  -7  -2  11 2358.49 131.683  10
  -7   2  11 2493.61 144.887   4
  -7  -2  10 2223.42 140.981  10
  -7   2  10 2233.91 156.199   4
  -7  -2   9 938.402 107.288  10
  -7   2   9 777.860 107.715   4
  -7  -2   8 4543.57 231.506  10
  -7   2   8 4312.14 254.427   4
  -7  -2   7 28.9391 45.8839  10
  -7   2   7 33.9644 56.0367   4
  -7  -2   6 2188.86 172.874  10
  -7   2   6 2330.18 213.200   4
  -7  -2   5 75.2614 59.3463  10
  -7   2   5 121.137 85.6446   4
  -7  -2   4 7331.11 321.401  10
  -7  -2   4 8372.52 424.089   7
  -7   2   4 7147.37 402.074   4
  -7  -2   3 2785.17 205.839  10
  -7   2   3 2929.09 274.542   4
  -7  -2   2 5464.80 297.917  10
  -7   2   2 5738.43 375.608   4
  -7  -2   1 1794.61 174.209  10
  -7  -2   1 2339.32 251.378   7
  -7   2   1 1965.22 230.469   4
  -7  -2   0 2823.29 211.172  10
  -7  -2   0 3557.75 300.629   7
  -7   2   0 2669.09 227.429   7
  -7   2   0 3004.51 277.632   4
  -7  -2  -1 2003.93 177.337  10
  -7  -2  -1 2208.95 233.909   7
  -7   2  -1 1903.32 198.474   7
  -7   2  -1 2165.37 244.909   4
  -7  -2  -2 858.828 152.688   7
  -7   2  -2 770.076 134.775   7
  -7   2  -2 748.524 150.056   4
  -7  -2  -3 824.543 146.336   7
  -7   2  -3 626.051 120.797   7
  -7   2  -3 712.784 151.738   4
  -7  -2  -4 1934.17 201.387   7
  -7   2  -4 1746.32 191.009   7
  -7   2  -4 1785.77 218.429   4
  -7  -2  -5 1244.78 159.084   7
  -7   2  -5 1011.31 149.042   7
  -7   2  -5 1007.74 161.557   4
  -7  -2  -6 1161.66 144.317   7
  -7   2  -6 1100.81 144.125   7
  -7   2  -6 1228.29 166.162   4
  -7  -2  -7 504.521 93.0598   7
  -7   2  -7 481.051 97.1769   7
  -7   2  -7 421.567 101.049   4
  -7  -2  -8 1506.55 136.022   7
  -7   2  -8 1083.38 122.272   7
  -7   2  -8 1265.60 137.302   4
  -7   2  -9 163.359 49.6462   7
  -7   2  -9-0.16807 38.3710   4
  -7  -3  11-19.7305 25.3755  10
  -7   3  11 43.8430 28.9401   4
  -7  -3  10 1043.86 85.8948  10
  -7   3  10 1038.82 90.7382   4
  -7  -3   9 3825.71 176.978  10
  -7   3   9 3671.53 188.177   4
  -7  -3   8 1520.09 108.631  11
  -7  -3   8 1692.76 130.337  10
  -7   3   8 1595.45 139.282   4
  -7  -3   7 310.547 59.1721  11
  -7  -3   7 391.450 73.9818  10
  -7   3   7 326.635 78.9191   4
  -7  -3   6 1405.79 120.971  11
  -7  -3   6 1553.91 137.318  10
  -7   3   6 1537.53 156.957   4
  -7  -3   5 1303.85 121.362  11
  -7  -3   5 1545.55 145.531  10
  -7   3   5 1427.33 164.624   4
  -7  -3   4 4493.27 245.919  10
  -7   3   4 4749.28 298.431   4
  -7  -3   3 957.828 121.940  10
  -7  -3   3 858.070 142.812   7
  -7   3   3 785.494 130.758   4
  -7  -3   2 644.291 99.7606  10
  -7  -3   2 585.821 126.151   7
  -7   3   2 689.069 136.391   4
  -7  -3   1 1475.77 151.320  10
  -7  -3   1 1574.98 206.890   7
  -7   3   1 1511.81 189.456   4
  -7  -3   0 1187.07 134.539  10
  -7  -3   0 1645.61 213.498   7
  -7   3   0 1219.32 182.399   4
  -7  -3  -1 2756.39 197.462  10
  -7   3  -1 2358.84 199.767   7
  -7   3  -1 2840.79 252.370   4
  -7  -3  -2 3817.14 224.839  10
  -7   3  -2 3273.26 239.879   7
  -7   3  -2 3683.28 282.967   4
  -7   3  -3 1571.63 168.826   7
  -7   3  -3 1757.53 198.925   4
  -7   3  -4 1505.12 162.075   7
  -7   3  -4 1550.44 187.004   4
  -7   3  -5 2311.20 192.053   7
  -7   3  -5 2639.76 224.966   4
  -7  -3  -6 1657.65 160.690   7
  -7   3  -6 1238.48 138.156   7
  -7   3  -6 1394.03 159.858   4
  -7  -3  -7 1269.11 112.220   7
  -7   3  -7 1143.45 120.877   7
  -7   3  -7 1204.17 132.893   4
  -7   3  -8-23.4390 36.6027   7
  -7   3  -8 21.4913 39.7143   4
  -7  -4   9 1354.71 76.7639  10
  -7  -4   8 191.085 41.3186  11
  -7  -4   8 146.261 37.0682  10
  -7   4   8 84.2543 32.6199   4
  -7  -4   7 665.085 73.5140  11
  -7  -4   7 616.989 70.6031  10
  -7   4   7 595.613 72.0905   4
  -7  -4   6 1443.44 110.938  11
  -7  -4   6 1477.89 112.063  10
  -7   4   6 1360.58 116.353   4
  -7  -4   5 203.079 54.3370  11
  -7  -4   5 268.938 56.6291  10
  -7   4   5 184.299 54.4878   4
  -7  -4   4 293.584 67.7536  11
  -7  -4   4 300.719 60.4671  10
  -7   4   4 395.374 79.1159   4
  -7  -4   3 917.269 101.528  10
  -7   4   3 790.709 105.069   4
  -7  -4   2 580.762 83.4577  10
  -7   4   2 646.955 116.293   4
  -7  -4   1 2881.42 173.555  10
  -7   4   1 2630.24 198.916   4
  -7  -4   0 256.986 61.8902  10
  -7   4   0 326.310 82.2160   4
  -7  -4  -1 90.4174 46.1324  10
  -7   4  -1 128.485 64.6490   4
  -7  -4  -2 928.847 100.941  10
  -7   4  -2 960.782 124.698   4
  -7  -4  -3 990.757 97.6899  10
  -7   4  -3 812.928 100.987   7
  -7   4  -3 1026.45 127.963   4
  -7  -4  -4 1448.92 110.362  10
  -7   4  -4 1258.99 120.665   7
  -7   4  -4 1565.86 142.108   4
  -7  -4  -5 1070.79 87.5900  10
  -7   4  -5 951.783 99.0980   7
  -7   4  -5 1222.38 116.574   4
  -7  -4  -6 124.038 31.5554  10
  -7  -5   5 240.715 43.3752  11
  -7  -5   4 1228.06 87.5629  11
  -7  -5   3 97.9851 36.4124  11
  -7  -5   2 662.933 68.8958  11
  -7  -5   2 936.590 69.4317  10
  -7  -5   1 305.409 49.7339  11
  -7  -5   1 438.986 50.2679  10
  -7  -5   0 337.018 45.0625  10
  -8   0  10 1561.57 82.7784   4
  -8   0   9 3.67435 22.1451  10
  -8   0   9 73.5171 27.7099   4
  -8   0   8 4367.32 148.867  10
  -8   0   8 4073.23 168.156   4
  -8   0   7 78.4660 38.0003  10
  -8   0   7 15.1938 30.8862   4
  -8   0   6 17198.8 332.096  10
  -8   0   6 16564.1 387.870   4
  -8   0   5-0.80599 28.9085  10
  -8   0   5-67.6322 47.3596   4
  -8   0   4-19.1333 36.2113  10
  -8   0   4-33.0692 39.9260   4
  -8   0   3 30.5362 35.5288   4
  -8   0   2 214.219 64.6702   4
  -8   0   1 37.9518 52.7180   7
  -8   0   1 10.6357 45.7879   4
  -8   0   0 2081.46 173.329   7
  -8   0   0 2404.03 170.705   4
  -8   0  -1-25.9450 48.8744   7
  -8   0  -1 72.9925 45.6637   4
  -8   0  -2 2465.38 194.943   7
  -8   0  -3 18.1060 47.8985   7
  -8   0  -4 379.127 79.9160   7
  -8   0  -5 37.1685 43.9587   7
  -8   0  -6 385.326 66.7795   7
  -8  -1  10 2090.26 95.0017  10
  -8   1  10 2101.09 104.236   4
  -8  -1   9 239.474 41.7690  10
  -8   1   9 274.757 50.2874   4
  -8  -1   8 6546.85 201.386  10
  -8   1   8 6313.58 227.092   4
  -8  -1   7 281.567 53.9855  10
  -8   1   7 226.134 57.5507   4
  -8  -1   6 1810.68 121.358  10
  -8   1   6 1692.95 137.983   4
  -8  -1   5 3477.88 171.947  10
  -8   1   5 3514.83 207.037   4
  -8  -1   4 907.893 92.5556  10
  -8   1   4 902.224 114.247   4
  -8  -1   3 1883.90 133.612  10
  -8   1   3 1498.08 145.893   4
  -8  -1   2 487.442 76.2439  10
  -8  -1   2 516.009 117.157   7
  -8   1   2 453.379 94.2149   4
  -8  -1   1 2205.71 140.521  10
  -8  -1   1 2293.18 199.940   7
  -8   1   1 1941.88 171.521   4
  -8  -1   0 2832.87 155.252  10
  -8  -1   0 2959.45 226.768   7
  -8   1   0 2628.37 181.834   7
  -8   1   0 2580.68 197.830   4
  -8  -1  -1 939.927 88.0761  10
  -8  -1  -1 871.544 126.149   7
  -8   1  -1 776.017 107.449   7
  -8   1  -1 777.102 107.900   4
  -8  -1  -2 309.837 52.7650  10
  -8  -1  -2 347.649 82.3751   7
  -8   1  -2 404.521 80.5541   7
  -8   1  -2 361.015 79.7581   4
  -8  -1  -3 1165.03 132.992   7
  -8   1  -3 1094.68 121.254   7
  -8   1  -3 1188.99 123.045   4
  -8  -1  -4 864.905 110.441   7
  -8   1  -4 819.975 103.880   7
  -8   1  -4 798.377 96.3398   4
  -8  -1  -5 679.485 96.1163   7
  -8   1  -5 535.748 80.9495   7
  -8   1  -5 531.805 70.6182   4
  -8   1  -6 421.771 66.0661   7
  -8  -1  -6 369.742 65.6703   7
  -8   2  10 107.024 27.5014   4
  -8  -2   9 408.191 47.9817  10
  -8   2   9 456.472 54.8200   4
  -8  -2   8 1046.94 81.4955  10
  -8   2   8 994.977 88.2635   4
  -8  -2   7 353.869 54.7923  10
  -8   2   7 282.068 61.1561   4
  -8  -2   6 2415.71 137.714  10
  -8   2   6 2378.96 157.954   4
  -8  -2   5 678.494 79.7649  10
  -8   2   5 649.330 93.8771   4
  -8  -2   4 156.316 48.3595  10
  -8   2   4 61.0625 47.1968   4
  -8  -2   3 493.271 81.1162  10
  -8   2   3 737.948 102.072   4
  -8  -2   2 3076.20 167.292  10
  -8  -2   2 2971.83 201.728   7
  -8   2   2 2928.05 200.425   4
  -8  -2   1 13.2659 34.6356  10
  -8  -2   1 42.3851 55.7856   7
  -8   2   1 73.8874 57.1045   4
  -8  -2   0 1120.45 101.813  10
  -8  -2   0 1404.78 158.903   7
  -8   2   0 1080.23 129.472   4
  -8  -2  -1 913.926 89.5192  10
  -8   2  -1 870.510 116.225   4
  -8  -2  -2 1812.31 117.191  10
  -8   2  -2 1641.58 130.419   7
  -8   2  -2 1889.25 156.973   4
  -8  -2  -3 1769.94 109.358  10
  -8   2  -3 1621.10 128.086   7
  -8   2  -3 1789.34 146.082   4
  -8  -2  -4 227.307 38.0715  10
  -8  -2  -4 315.391 77.8734   7
  -8   2  -4 243.519 57.0038   7
  -8   2  -4 260.820 60.2119   4
  -8  -2  -5 1406.18 123.021   7
  -8   2  -5 1147.92 98.2156   4
  -8  -3   8 444.478 43.5937  10
  -8  -3   7 1863.80 96.5795  10
  -8   3   7 1771.48 103.395   4
  -8  -3   6 46.4776 29.6370  10
  -8   3   6-0.05937 31.0649   4
  -8  -3   5 2262.91 121.769  10
  -8   3   5 1996.69 129.866   4
  -8  -3   4 266.673 48.9934  10
  -8   3   4 258.856 55.6554   4
  -8  -3   3 276.120 51.9040  10
  -8   3   3 216.855 56.5094   4
  -8  -3   2 196.149 52.5118  10
  -8   3   2 251.266 69.5646   4
  -8  -3   1 2000.72 120.924  10
  -8   3   1 1878.15 145.166   4
  -8  -3   0 31.7797 30.4793  10
  -8   3   0 8.33365 41.4108   4
  -8  -3  -1 958.406 81.4156  10
  -8  -3  -1 1068.81 109.100   7
  -8   3  -1 1010.06 107.194   4
  -8  -3  -2 1983.11 107.890  10
  -8  -3  -2 2253.24 147.939   7
  -8   3  -2 1961.71 137.314   4
  -8  -3  -3-14.7969 22.8236  10
  -8  -3  -3-9.23801 29.7593   7
  -8   3  -3 23.3178 31.3836   4
   0   0   0    0.00    0.00   0
TITL mxf-161013 in P2/c
REM P2/c (#13 in standard setting)
CELL 1.54184   7.253662   6.765274  15.647326  90.0000  97.6937  90.0000
ZERR    3.00   0.000296   0.000324   0.000659   0.0000   0.0041   0.0000
LATT  1
SYMM -x, y,-z+1/2
SFAC C H N O
UNIT 33.00 30.00 3.00 3.00
TREF
HKLF 4
END
;
_shelx_hkl_checksum              69714
_olex2_date_sample_data_collection 2016-10-13
_olex2_submission_special_instructions 'No special instructions were received'
loop_
_space_group_symop_operation_xyz
'x, y, z'
'x, -y, z+1/2'
loop_
_atom_site_label
_atom_site_type_symbol
_atom_site_fract_x
_atom_site_fract_y
_atom_site_fract_z
_atom_site_U_iso_or_equiv
_atom_site_adp_type
_atom_site_occupancy
_atom_site_site_symmetry_order
_atom_site_calc_flag
_atom_site_refinement_flags_posn
O10 O -0.2384(5) -0.2095(5) -0.5439(2) 0.0482(8) Uani 1 1 d .
N3 N 0.1292(5) -0.9447(6) -0.5030(3) 0.0442(9) Uani 1 1 d .
H3 H 0.1892 -1.0216 -0.5332 0.053 Uiso 1 1 calc R
O25 O 0.0000(6) -0.3614(6) -0.5927(3) 0.0686(12) Uani 1 1 d .
C4 C 0.1020(6) -0.9779(6) -0.4187(3) 0.0374(8) Uani 1 1 d .
O24 O -0.4774(5) -0.1425(5) -0.4710(3) 0.0575(9) Uani 1 1 d .
C9 C -0.0021(5) -0.8178(6) -0.3925(3) 0.0337(8) Uani 1 1 d .
N15 N -0.5458(5) -0.7383(6) -0.3007(3) 0.0461(9) Uani 1 1 d .
H15 H -0.6024 -0.8445 -0.2888 0.055 Uiso 1 1 calc R
C1 C -0.0399(5) -0.6887(6) -0.4662(3) 0.0339(8) Uani 1 1 d .
C17 C -0.3912(5) -0.5223(6) -0.3717(3) 0.0326(8) Uani 1 1 d .
C18 C -0.4262(5) -0.4337(6) -0.2918(3) 0.0347(8) Uani 1 1 d .
C14 C -0.1143(6) -0.3651(7) -0.5441(3) 0.0441(10) Uani 1 1 d .
C23 C -0.5230(5) -0.5756(7) -0.2492(3) 0.0400(9) Uani 1 1 d .
C11 C -0.3508(6) -0.2507(6) -0.4808(3) 0.0395(9) Uani 1 1 d .
C8 C -0.0355(6) -0.8111(7) -0.3064(3) 0.0387(9) Uani 1 1 d .
H8 H -0.0973 -0.7042 -0.2860 0.046 Uiso 1 1 calc R
C12 C -0.2909(5) -0.4382(6) -0.4376(2) 0.0317(8) Uani 1 1 d .
C2 C 0.0467(6) -0.7714(7) -0.5312(3) 0.0419(9) Uani 1 1 d .
H2 H 0.0484 -0.7171 -0.5857 0.050 Uiso 1 1 calc R
C16 C -0.4661(6) -0.7088(6) -0.3739(3) 0.0382(9) Uani 1 1 d .
H16 H -0.4630 -0.8003 -0.4180 0.046 Uiso 1 1 calc R
C13 C -0.1491(5) -0.5110(6) -0.4774(2) 0.0327(8) Uani 1 1 d .
C5 C 0.1612(6) -1.1355(7) -0.3651(3) 0.0439(10) Uani 1 1 d .
H5 H 0.2262 -1.2413 -0.3845 0.053 Uiso 1 1 calc R
C6 C 0.1190(7) -1.1278(8) -0.2816(4) 0.0501(11) Uani 1 1 d .
H6 H 0.1537 -1.2321 -0.2442 0.060 Uiso 1 1 calc R
C22 C -0.5783(7) -0.5382(9) -0.1686(3) 0.0542(13) Uani 1 1 d .
H22 H -0.6466 -0.6304 -0.1419 0.065 Uiso 1 1 calc R
C20 C -0.4271(8) -0.2194(10) -0.1703(4) 0.0625(15) Uani 1 1 d .
H20 H -0.3928 -0.1014 -0.1421 0.075 Uiso 1 1 calc R
C19 C -0.3775(6) -0.2535(8) -0.2515(3) 0.0472(11) Uani 1 1 d .
H19 H -0.3131 -0.1583 -0.2785 0.057 Uiso 1 1 calc R
C7 C 0.0251(7) -0.9660(8) -0.2525(3) 0.0474(11) Uani 1 1 d .
H7 H 0.0029 -0.9627 -0.1954 0.057 Uiso 1 1 calc R
C21 C -0.5279(8) -0.3596(10) -0.1302(3) 0.0642(17) Uani 1 1 d .
H21 H -0.5618 -0.3316 -0.0763 0.077 Uiso 1 1 calc R
loop_
_atom_site_aniso_label
_atom_site_aniso_U_11
_atom_site_aniso_U_22
_atom_site_aniso_U_33
_atom_site_aniso_U_23
_atom_site_aniso_U_13
_atom_site_aniso_U_12
O10 0.0563(18) 0.0391(16) 0.0541(19) 0.0139(14) 0.0252(15) 0.0061(14)
N3 0.045(2) 0.047(2) 0.0446(18) -0.0081(17) 0.0205(15) 0.0118(16)
O25 0.082(3) 0.065(3) 0.071(3) 0.023(2) 0.053(2) 0.014(2)
C4 0.0333(18) 0.038(2) 0.043(2) -0.0037(17) 0.0120(15) 0.0007(16)
O24 0.056(2) 0.0444(19) 0.077(2) 0.0064(17) 0.0277(17) 0.0181(15)
C9 0.0315(18) 0.036(2) 0.0349(19) -0.0019(15) 0.0105(14) -0.0012(15)
N15 0.046(2) 0.043(2) 0.053(2) 0.0059(17) 0.0193(17) -0.0071(16)
C1 0.0343(18) 0.035(2) 0.0355(19) -0.0014(15) 0.0160(14) 0.0025(14)
C17 0.0324(19) 0.0329(18) 0.0354(19) 0.0003(16) 0.0150(16) 0.0013(14)
C18 0.0307(18) 0.041(2) 0.034(2) -0.0015(17) 0.0109(14) 0.0046(15)
C14 0.050(2) 0.046(2) 0.041(2) 0.0066(19) 0.0219(19) 0.0021(18)
C23 0.0306(18) 0.055(3) 0.036(2) 0.0081(19) 0.0105(15) 0.0055(17)
C11 0.043(2) 0.0312(19) 0.047(2) -0.0014(17) 0.0179(17) 0.0006(16)
C8 0.040(2) 0.044(2) 0.034(2) -0.0018(17) 0.0110(15) 0.0023(17)
C12 0.0358(19) 0.0292(18) 0.0325(18) 0.0008(15) 0.0138(14) 0.0016(14)
C2 0.046(2) 0.046(2) 0.037(2) -0.0005(18) 0.0192(17) 0.0075(18)
C16 0.046(2) 0.0319(19) 0.039(2) -0.0023(16) 0.0136(17) -0.0023(16)
C13 0.0368(19) 0.034(2) 0.0302(18) -0.0026(15) 0.0152(15) -0.0012(15)
C5 0.038(2) 0.040(2) 0.056(3) 0.004(2) 0.0098(17) 0.0062(17)
C6 0.048(2) 0.048(3) 0.055(3) 0.016(2) 0.007(2) 0.0042(19)
C22 0.045(2) 0.084(4) 0.037(2) 0.017(2) 0.0181(18) 0.015(2)
C20 0.058(3) 0.075(4) 0.052(3) -0.031(3) 0.001(2) 0.014(3)
C19 0.044(2) 0.047(3) 0.051(3) -0.016(2) 0.0069(19) 0.0019(17)
C7 0.048(3) 0.056(3) 0.039(2) 0.004(2) 0.0112(18) 0.001(2)
C21 0.056(3) 0.102(5) 0.036(2) -0.008(3) 0.011(2) 0.026(3)
loop_
_atom_type_symbol
_atom_type_description
_atom_type_scat_dispersion_real
_atom_type_scat_dispersion_imag
_atom_type_scat_source
C C 0.0181 0.0091 'International Tables Vol C Tables 4.2.6.8 and 6.1.1.4'
H H 0.0000 0.0000 'International Tables Vol C Tables 4.2.6.8 and 6.1.1.4'
N N 0.0311 0.0180 'International Tables Vol C Tables 4.2.6.8 and 6.1.1.4'
O O 0.0492 0.0322 'International Tables Vol C Tables 4.2.6.8 and 6.1.1.4'
loop_
_geom_angle_atom_site_label_1
_geom_angle_atom_site_label_2
_geom_angle_atom_site_label_3
_geom_angle
C14 O10 C11 107.0(3)
C2 N3 C4 109.7(3)
N3 C4 C9 107.7(4)
N3 C4 C5 129.1(4)
C5 C4 C9 123.2(4)
C4 C9 C1 106.5(3)
C8 C9 C4 118.2(4)
C8 C9 C1 135.2(4)
C23 N15 C16 110.3(4)
C2 C1 C9 106.6(4)
C2 C1 C13 123.1(4)
C13 C1 C9 130.2(3)
C18 C17 C12 128.0(4)
C16 C17 C18 106.8(3)
C16 C17 C12 125.1(4)
C23 C18 C17 106.5(4)
C19 C18 C17 133.9(4)
C19 C18 C23 119.5(4)
O10 C14 C13 109.4(3)
O25 C14 O10 119.4(4)
O25 C14 C13 131.2(4)
N15 C23 C18 107.4(3)
N15 C23 C22 130.9(5)
C22 C23 C18 121.7(5)
O10 C11 C12 109.4(3)
O24 C11 O10 120.0(4)
O24 C11 C12 130.6(4)
C7 C8 C9 118.7(4)
C17 C12 C11 121.1(3)
C13 C12 C17 131.4(4)
C13 C12 C11 107.2(3)
N3 C2 C1 109.5(4)
N15 C16 C17 108.9(4)
C1 C13 C14 120.0(3)
C12 C13 C1 133.1(4)
C12 C13 C14 106.9(4)
C6 C5 C4 116.9(4)
C5 C6 C7 121.1(4)
C21 C22 C23 117.5(5)
C19 C20 C21 121.0(5)
C20 C19 C18 118.6(5)
C8 C7 C6 121.7(4)
C22 C21 C20 121.6(5)
loop_
_geom_bond_atom_site_label_1
_geom_bond_atom_site_label_2
_geom_bond_distance
O10 C14 1.385(5)
O10 C11 1.391(5)
N3 C4 1.378(6)
N3 C2 1.362(6)
O25 C14 1.198(5)
C4 C9 1.412(6)
C4 C5 1.388(6)
O24 C11 1.200(6)
C9 C1 1.444(6)
C9 C8 1.401(6)
N15 C23 1.361(7)
N15 C16 1.365(5)
C1 C2 1.382(5)
C1 C13 1.438(5)
C17 C18 1.439(5)
C17 C12 1.456(5)
C17 C16 1.372(6)
C18 C23 1.409(6)
C18 C19 1.396(6)
C14 C13 1.482(6)
C23 C22 1.396(6)
C11 C12 1.475(6)
C8 C7 1.379(7)
C12 C13 1.363(5)
C5 C6 1.382(7)
C6 C7 1.397(7)
C22 C21 1.377(9)
C20 C19 1.385(7)
C20 C21 1.396(10)
