#------------------------------------------------------------------------------
#$Date: 2019-11-24 02:35:22 +0200 (Sun, 24 Nov 2019) $
#$Revision: 236285 $
#$URL: file:///home/coder/svn-repositories/cod/cif/7/23/65/7236537.cif $
#------------------------------------------------------------------------------
#
# This file is available in the Crystallography Open Database (COD),
# http://www.crystallography.net/
#
# All data on this site have been placed in the public domain by the
# contributors.
#
data_7236537
loop_
_publ_author_name
'Guntlin, Christoph P.'
'Z\"und, Tanja'
'Kravchyk, Kostiantyn V.'
'W\"orle, Michael'
'Bodnarchuk, Maryna I.'
'Kovalenko, Maksym V.'
_publ_section_title
;
 Nanocrystalline FeF3 and MF2 (M = Fe, Co, and Mn) from metal
 trifluoroacetates and their Li(Na)-ion storage properties
;
_journal_issue                   16
_journal_name_full               'Journal of Materials Chemistry A'
_journal_page_first              7383
_journal_paper_doi               10.1039/C7TA00862G
_journal_volume                  5
_journal_year                    2017
_chemical_formula_moiety         'C4 H8 Co F6 O8'
_chemical_formula_sum            'C4 H8 Co F6 O8'
_chemical_formula_weight         357.03
_space_group_crystal_system      triclinic
_space_group_IT_number           2
_space_group_name_Hall           '-P 1'
_space_group_name_H-M_alt        'P -1'
_atom_sites_solution_hydrogens   difmap
_atom_sites_solution_primary     iterative
_audit_creation_date             2015-04-06
_audit_creation_method
;
Olex2 1.2
(compiled 2015.01.26 svn.r3150 for OlexSys, GUI svn.r4998)
;
_audit_update_record
;
2016-10-07 deposited with the CCDC.
2017-03-16 downloaded from the CCDC.
;
_cell_angle_alpha                75.139(6)
_cell_angle_beta                 64.574(6)
_cell_angle_gamma                71.426(6)
_cell_formula_units_Z            2
_cell_length_a                   8.1360(4)
_cell_length_b                   9.0331(7)
_cell_length_c                   9.2695(5)
_cell_measurement_reflns_used    5674
_cell_measurement_temperature    103(5)
_cell_measurement_theta_max      31.8010
_cell_measurement_theta_min      2.9940
_cell_volume                     577.48(7)
_computing_cell_refinement
'CrysAlisPro, Agilent Technologies, Version 1.171.36.28 (release 01-02-2013 CrysAlis171 .NET) (compiled Feb 1 2013,16:14:44)'
_computing_data_collection
'CrysAlisPro, Agilent Technologies, Version 1.171.36.28 (release 01-02-2013 CrysAlis171 .NET) (compiled Feb 1 2013,16:14:44)'
_computing_data_reduction
'CrysAlisPro, Agilent Technologies, Version 1.171.36.28 (release 01-02-2013 CrysAlis171 .NET) (compiled Feb 1 2013,16:14:44)'
_computing_molecular_graphics    'Olex2 (Dolomanov et al., 2009)'
_computing_publication_material  'Olex2 (Dolomanov et al., 2009)'
_computing_structure_refinement  'ShelXL (Sheldrick, 2008)'
_computing_structure_solution
;
Superflip (Palatinus & Chapuis, 2007;Palatinus & van der Lee, 2008;
Palatinus et al., 2012)
;
_diffrn_ambient_environment      N~2~
_diffrn_ambient_temperature      103(5)
_diffrn_detector                 'Oxford Diffraction Sapphire 3'
_diffrn_detector_area_resol_mean 16.0839
_diffrn_detector_type            Sapphire3
_diffrn_measured_fraction_theta_full 0.999
_diffrn_measured_fraction_theta_max 0.951
_diffrn_measurement_details
;
#__ type_ start__ end____ width___ exp.time_
  1 omega  -31.00   -5.00   1.0000    5.0000
omega____ theta____ kappa____ phi______ frames
    -      -26.3865  -57.0000 -150.0000 26

#__ type_ start__ end____ width___ exp.time_
  2 omega  -91.00    3.00   1.0000    5.0000
omega____ theta____ kappa____ phi______ frames
    -      -26.3865  -77.0000  120.0000 94

#__ type_ start__ end____ width___ exp.time_
  3 omega  -64.00   -5.00   1.0000    5.0000
omega____ theta____ kappa____ phi______ frames
    -      -26.3865  -57.0000    0.0000 59

#__ type_ start__ end____ width___ exp.time_
  4 omega  -56.00  -10.00   1.0000    5.0000
omega____ theta____ kappa____ phi______ frames
    -      -26.3865   77.0000   60.0000 46

#__ type_ start__ end____ width___ exp.time_
  5 omega  -35.00   41.00   1.0000    5.0000
omega____ theta____ kappa____ phi______ frames
    -      -26.3865   66.0000  -30.0000 76

#__ type_ start__ end____ width___ exp.time_
  6 omega  -95.00    3.00   1.0000    5.0000
omega____ theta____ kappa____ phi______ frames
    -      -26.3865  -77.0000  -30.0000 98

#__ type_ start__ end____ width___ exp.time_
  7 omega  -94.00   -6.00   1.0000    5.0000
omega____ theta____ kappa____ phi______ frames
    -      -26.3865  -66.0000 -165.0000 88

#__ type_ start__ end____ width___ exp.time_
  8 omega  -31.00   64.00   1.0000    5.0000
omega____ theta____ kappa____ phi______ frames
    -       26.8553  -19.0000    0.0000 95

#__ type_ start__ end____ width___ exp.time_
  9 omega   19.00   69.00   1.0000    5.0000
omega____ theta____ kappa____ phi______ frames
    -       26.8553  -99.0000  -60.0000 50

#__ type_ start__ end____ width___ exp.time_
 10 omega  -17.00    9.00   1.0000    5.0000
omega____ theta____ kappa____ phi______ frames
    -       26.8553  -99.0000  -60.0000 26

#__ type_ start__ end____ width___ exp.time_
 11 omega  -24.00   69.00   1.0000    5.0000
omega____ theta____ kappa____ phi______ frames
    -       26.8553  -99.0000 -180.0000 93

#__ type_ start__ end____ width___ exp.time_
 12 omega  -24.00   71.00   1.0000    5.0000
omega____ theta____ kappa____ phi______ frames
    -       26.8553  -19.0000  150.0000 95
;
_diffrn_measurement_device       'kappa-stage diffractometer'
_diffrn_measurement_device_type  'Xcalibur, Sapphire3'
_diffrn_measurement_method       '\w scans'
_diffrn_orient_matrix_UB_11      0.0759819000
_diffrn_orient_matrix_UB_12      -0.0121997000
_diffrn_orient_matrix_UB_13      0.0236698000
_diffrn_orient_matrix_UB_21      -0.0204254000
_diffrn_orient_matrix_UB_22      0.0821346000
_diffrn_orient_matrix_UB_23      0.0015292000
_diffrn_orient_matrix_UB_31      -0.0607527000
_diffrn_orient_matrix_UB_32      -0.0101911000
_diffrn_orient_matrix_UB_33      0.0822138000
_diffrn_radiation_monochromator  graphite
_diffrn_radiation_probe          x-ray
_diffrn_radiation_type           MoK\a
_diffrn_radiation_wavelength     0.71073
_diffrn_reflns_av_unetI/netI     0.0394
_diffrn_reflns_Laue_measured_fraction_full 0.999
_diffrn_reflns_Laue_measured_fraction_max 0.951
_diffrn_reflns_limit_h_max       12
_diffrn_reflns_limit_h_min       -12
_diffrn_reflns_limit_k_max       13
_diffrn_reflns_limit_k_min       -13
_diffrn_reflns_limit_l_max       13
_diffrn_reflns_limit_l_min       -13
_diffrn_reflns_number            7011
_diffrn_reflns_point_group_measured_fraction_full 0.999
_diffrn_reflns_point_group_measured_fraction_max 0.951
_diffrn_reflns_theta_full        25.242
_diffrn_reflns_theta_max         32.576
_diffrn_reflns_theta_min         2.977
_diffrn_source                   'Enhance (Mo) X-ray Source'
_exptl_absorpt_coefficient_mu    1.604
_exptl_absorpt_correction_T_max  1.00000
_exptl_absorpt_correction_T_min  0.87457
_exptl_absorpt_correction_type   multi-scan
_exptl_absorpt_process_details
;
CrysAlisPro, Agilent Technologies, Version 1.171.37.35 (release 13-08-2014 CrysAlis171 .NET) (compiled Aug 13 2014,18:06:01) Empirical absorption correction using spherical harmonics, implemented in SCALE3 ABSPACK scaling algorithm. The HKLF 5-file with two components contains 7015 reflections unique reflections, merged from 20573 measured reflections.
R-int. for all components is 0.033, Rsigma 0.049.
;
_exptl_crystal_colour            violet
_exptl_crystal_colour_primary    violet
_exptl_crystal_density_diffrn    2.053
_exptl_crystal_description       block
_exptl_crystal_F_000             354
_exptl_crystal_recrystallization_method
'crystallized from toluene/ethanole-mixture'
_exptl_crystal_size_max          0.33
_exptl_crystal_size_mid          0.23
_exptl_crystal_size_min          0.16
_refine_diff_density_max         1.067
_refine_diff_density_min         -0.506
_refine_diff_density_rms         0.083
_refine_ls_extinction_method     none
_refine_ls_goodness_of_fit_ref   0.985
_refine_ls_hydrogen_treatment    refxyz
_refine_ls_matrix_type           full
_refine_ls_number_parameters     203
_refine_ls_number_reflns         7011
_refine_ls_number_restraints     0
_refine_ls_restrained_S_all      0.985
_refine_ls_R_factor_all          0.0413
_refine_ls_R_factor_gt           0.0308
_refine_ls_shift/su_max          0.001
_refine_ls_shift/su_mean         0.000
_refine_ls_structure_factor_coef Fsqd
_refine_ls_weighting_details
'w=1/[\s^2^(Fo^2^)+(0.0367P)^2^] where P=(Fo^2^+2Fc^2^)/3'
_refine_ls_weighting_scheme      calc
_refine_ls_wR_factor_gt          0.0694
_refine_ls_wR_factor_ref         0.0712
_reflns_Friedel_coverage         0.000
_reflns_number_gt                5604
_reflns_number_total             7011
_reflns_threshold_expression     'I > 2\s(I)'
_cod_data_source_file            c7ta00862g2.cif
_cod_data_source_block           gunt05o04_100k
_cod_original_cell_volume        577.49(7)
_cod_database_code               7236537
_chemical_oxdiff_formula         'Co1 C4 O8 F6 H8 '
_shelx_space_group_comment
;
The symmetry employed for this shelxl refinement is uniquely defined
by the following loop, which should always be used as a source of
symmetry information in preference to the above space-group names.
They are only intended as comments.
;
_shelx_estimated_absorpt_t_max   0.783
_shelx_estimated_absorpt_t_min   0.620
_reflns_odcompleteness_completeness 99.92
_reflns_odcompleteness_iscentric 1
_reflns_odcompleteness_theta     26.32
_olex2_refinement_description
;
1. Twinned data refinement
 Scales: 0.5106(6) 0.4894(6)
2. Fixed Uiso
 At 1.5 times of:
  All C(H,H) groups
;
_shelx_res_file
;
    gunt05o04_100k.res created by SHELXL-2014/7

TITL gunt05o04_100K in P-1
CELL 0.71073 8.135988 9.03312 9.269494 75.1392 64.5742 71.4263
ZERR 2 0.000395 0.000654 0.000535 0.0057 0.0055 0.0062
LATT 1
SFAC C H Co F O
UNIT 8 16 2 12 16

L.S. 19 0 0
PLAN  20
SIZE 0.16 0.23 0.33
TEMP -170(5)
fmap 2 53
acta
OMIT 1 0 0
OMIT -1 0 0
OMIT 1 1 1
REM <olex2.extras>
REM <HklSrc "%.\\gunt05o04_100K_twin1_hklf5.hkl">
REM </olex2.extras>

WGHT    0.036700
BASF   0.48938
FVAR       9.06803
CO1   3    0.160524    0.594120    0.112389    11.00000    0.01174    0.01118 =
         0.01336   -0.00223   -0.00198   -0.00377
F2    4   -0.107892    0.165175    0.446333    11.00000    0.04093    0.01609 =
         0.04926    0.00392   -0.01662   -0.01042
F6    4    0.365349    1.041546   -0.296469    11.00000    0.05568    0.04611 =
         0.02629    0.01393   -0.01750   -0.02466
F4    4    0.454623    1.100422   -0.136206    11.00000    0.03232    0.02001 =
         0.04015   -0.00230   -0.00384   -0.01694
F1    4   -0.362879    0.305824    0.594047    11.00000    0.04221    0.04226 =
         0.01736   -0.00201    0.00445   -0.03133
F3    4   -0.320110    0.293870    0.351835    11.00000    0.04609    0.04481 =
         0.02630    0.00618   -0.01787   -0.03289
O2    5   -0.212691    0.551583    0.462258    11.00000    0.02127    0.01768 =
         0.01469   -0.00326    0.00071   -0.00659
O1    5   -0.013119    0.433805    0.244303    11.00000    0.01556    0.01607 =
         0.01406   -0.00255   -0.00229   -0.00652
O4    5    0.158487    0.972352    0.053197    11.00000    0.01803    0.01263 =
         0.02515   -0.00278   -0.00154   -0.00336
O7    5   -0.029372    0.713500   -0.001230    11.00000    0.01680    0.01113 =
         0.01609   -0.00270   -0.00504   -0.00288
O8    5    0.358922    0.473489    0.214872    11.00000    0.01441    0.01341 =
         0.01334   -0.00260   -0.00350   -0.00225
O5    5    0.032048    0.735818    0.292464    11.00000    0.01943    0.01554 =
         0.01695   -0.00425   -0.00209   -0.00628
O6    5    0.299464    0.446173   -0.063191    11.00000    0.01328    0.01802 =
         0.02071   -0.00857   -0.00025   -0.00619
C1    1   -0.145975    0.443480    0.380235    11.00000    0.01510    0.01557 =
         0.01511    0.00101   -0.00588   -0.00498
C3    1    0.298055    0.890488   -0.038257    11.00000    0.01711    0.01471 =
         0.01681    0.00047   -0.00664   -0.00673
C4    1    0.434063    0.980232   -0.181125    11.00000    0.02018    0.01589 =
         0.02433   -0.00067   -0.00233   -0.00577
F5    4    0.603104    0.889538   -0.245483    11.00000    0.02318    0.02037 =
         0.05518   -0.00406    0.01363   -0.00602
O3    5    0.343309    0.743695   -0.034805    11.00000    0.01478    0.01102 =
         0.01716   -0.00170   -0.00295   -0.00416
C2    1   -0.235497    0.299551    0.445250    11.00000    0.02448    0.02229 =
         0.01624    0.00108   -0.00511   -0.01331
H6A   2    0.405278    0.440211   -0.113459    11.00000   -1.50000
H6B   2    0.253434    0.384754   -0.066848    11.00000   -1.50000
H8A   2    0.414237    0.391039    0.188190    11.00000    0.03678
H5A   2   -0.058645    0.714280    0.355626    11.00000    0.03913
H8B   2    0.318684    0.466280    0.326696    11.00000    0.05327
H5B   2    0.043906    0.824381    0.256237    11.00000    0.05035
H7A   2   -0.004375    0.688262   -0.089853    11.00000    0.03284
H7B   2   -0.067857    0.813626   -0.012562    11.00000    0.03208
HKLF 5

REM  gunt05o04_100K in P-1
REM R1 =  0.0308 for    5604 Fo > 4sig(Fo)  and  0.0413 for all    7011 data
REM    203 parameters refined using      0 restraints

END

WGHT      0.0367      0.0000

REM Highest difference peak  1.067,  deepest hole -0.506,  1-sigma level  0.083
Q1    1   0.0190  0.6183  0.0783  11.00000  0.05    1.07
Q2    1   0.3022  0.5807  0.1401  11.00000  0.05    0.93
Q3    1   0.1418  0.3532 -0.0588  11.00000  0.05    0.57
Q4    1   0.5304  0.4574 -0.1660  11.00000  0.05    0.52
Q5    1   0.2072  0.5841  0.1043  11.00000  0.05    0.41
Q6    1   0.0452  0.5222  0.1665  11.00000  0.05    0.41
Q7    1   0.3525  0.9340 -0.1040  11.00000  0.05    0.38
Q8    1  -0.1633  0.4573  0.2149  11.00000  0.05    0.37
Q9    1   0.1156  0.6136  0.1158  11.00000  0.05    0.37
Q10   1   0.4853  0.7217 -0.0016  11.00000  0.05    0.34
Q11   1   0.2309  0.4955  0.1767  11.00000  0.05    0.34
Q12   1  -0.1954  0.3769  0.4068  11.00000  0.05    0.33
Q13   1   0.3000  0.8028 -0.0561  11.00000  0.05    0.33
Q14   1  -0.4876  0.2180  0.6627  11.00000  0.05    0.32
Q15   1  -0.1063  0.1423  0.3755  11.00000  0.05    0.31
Q16   1   0.4183  1.1221 -0.2008  11.00000  0.05    0.31
Q17   1  -0.3201  0.6565  0.4331  11.00000  0.05    0.30
Q18   1   0.5985  1.0998 -0.1426  11.00000  0.05    0.30
Q19   1   0.3979  0.7194 -0.0984  11.00000  0.05    0.30
Q20   1  -0.0792  0.4619  0.3050  11.00000  0.05    0.29
;
_shelx_res_checksum              82921
_shelx_hkl_file
;
   0   0   2 21324.0 556.986   1
   0   2   0 66887.0 347.695  -2
   0   0   2 66887.0 347.695   1
   0   3   0 11177.7 177.588  -2
   0   0   3 11177.7 177.588   1
   0   0  -4 1887.76 94.0123   1
   0   4   0 2851.88 136.091  -2
   0   0   4 2851.88 136.091   1
   0   5   0 11833.0 232.258  -2
   0   0   5 11833.0 232.258   1
   0   0   6 21467.6 545.580   1
   0   6   0 91062.6 786.449  -2
   0   0   6 91062.6 786.449   1
   0   0  -7 5104.53 309.021   1
   0   7   0 100481. 1272.28  -2
   0   0   7 100481. 1272.28   1
   0   0  -8 5103.26 304.666   1
   0   8   0 7046.61 614.008  -2
   0   0   8 7046.61 614.008   1
   0   0  -9 10557.0 462.923   1
   0   9   0 11423.6 1122.57  -2
   0   0   9 11423.6 1122.57   1
   0   0 -10 1288.05 317.168   1
   0   0 -11 68.3336 510.806   1
   0   0 -12 6890.02 1161.42   1
   0   1 -12 1284.86 791.855   1
   0  -1  11 6092.34 764.877   1
   0   1 -10 3276.83 588.118   1
   0  -1   9 3433.59 322.946   1
   0  -1   8 18645.6 609.389   1
   0   8  -1 19310.8 867.580  -2
   0  -1   8 19310.8 867.580   1
   0  -1   7 37588.6 666.440   1
   0   7  -1 59789.6 1774.62  -2
   0  -1   7 59789.6 1774.62   1
   0  -1   6 97029.6 699.157   1
   0  -6   1 240233. 2160.13  -2
   0   1  -6 240233. 2160.13   1
   0  -1   5 33581.8 427.805   1
   0   5  -1 43259.2 687.497  -2
   0  -1   5 43259.2 687.497   1
   0   1  -4 11109.1 463.279   1
   0  -4   1 24391.0 418.270  -2
   0   1  -4 24391.0 418.270   1
   0  -1   3 911.458 119.823   1
   0   3  -1 1279.19 204.781  -2
   0  -1   3 1279.19 204.781   1
   0  -1   2 98208.7 416.646   1
   0   2  -1 215721. 920.046  -2
   0  -1   2 215721. 920.046   1
   0   1  -1 3518.62 75.5294   1
   0   1  -1 7491.92 132.297  -2
   0  -1   1 7491.92 132.297   1
   0  -1  -1 7853.87 98.9787  -2
   0  -1  -1 7853.87 98.9787   1
   0   2   1 25986.6 203.996  -2
   0   1   2 25986.6 203.996   1
   0   3   1 88262.1 495.529  -2
   0   1   3 88262.1 495.529   1
   0  -4  -1 64642.4 497.928  -2
   0  -1  -4 64642.4 497.928   1
   0   5   1 45022.9 400.329  -2
   0   1   5 45022.9 400.329   1
   0  -6  -1 11789.0 246.117  -2
   0  -1  -6 11789.0 246.117   1
   0  -1  -7 6381.93 365.980   1
   0  -7  -1 11265.8 328.489  -2
   0  -1  -7 11265.8 328.489   1
   0  -1  -8 12756.5 466.637   1
   0   8   1 58359.2 1342.09  -2
   0   1   8 58359.2 1342.09   1
   0  -1  -9 43100.3 1189.03   1
   0   9   1 51758.1 1940.42  -2
   0   1   9 51758.1 1940.42   1
   0  -1 -10 1746.50 364.711   1
   0   1  11 2578.83 427.863   1
   0  -1 -12 440.408 582.432   1
   0  -2  11 2557.68 630.053   1
   0  -2  10 3038.23 450.740   1
   0   2  -9 68.9103 313.989   1
   0   2  -8 2154.63 278.096   1
   0   2  -7 31373.5 625.020   1
   0   2  -6 43789.6 442.576   1
   0  -2   5 2304.99 134.631   1
   0  -2   4 579.232 147.170   1
   0   4  -2 46056.4 574.582  -2
   0  -2   4 46056.4 574.582   1
   0   2  -3 2343.23 184.015   1
   0   3  -2 100967. 813.918  -2
   0  -2   3 100967. 813.918   1
   0  -2   2 174.333 72.0120   1
   0   2  -2 497.920 117.528  -2
   0  -2   2 497.920 117.528   1
   0  -2   1 116020. 951.922   1
   0   1  -2 214145. 1006.96  -2
   0  -2   1 214145. 1006.96   1
   0   0   2 68403.0 433.419  -2
   0   2   0 68403.0 433.419   1
   0   1   2 26333.9 233.475  -2
   0   2   1 26333.9 233.475   1
   0   2   2 360065. 1278.53  -2
   0   2   2 360065. 1278.53   1
   0   3   2 578373. 2232.48  -2
   0   2   3 578373. 2232.48   1
   0   4   2 51026.8 372.671  -2
   0   2   4 51026.8 372.671   1
   0  -5  -2 55091.7 561.133  -2
   0  -2  -5 55091.7 561.133   1
   0  -6  -2 4956.86 213.698  -2
   0  -2  -6 4956.86 213.698   1
   0   7   2 1699.88 200.758  -2
   0   2   7 1699.88 200.758   1
   0   2   8 4446.95 581.766   1
   0  -8  -2 11694.8 507.905  -2
   0  -2  -8 11694.8 507.905   1
   0  -2  -9 275.932 289.179   1
   0   9   2 27773.2 1465.28  -2
   0   2   9 27773.2 1465.28   1
   0   2  10 2957.11 494.769   1
   0   2  11 8203.94 620.857   1
   0  -2 -12 7804.06 877.201   1
   0   3 -11 1792.08 560.317   1
   0  -3  10 377.686 369.408   1
   0  -3   9 1420.75 360.918   1
   0  -3   8 5223.17 458.515   1
   0  -3   7 5304.65 319.974   1
   0   3  -6 51026.2 731.798   1
   0  -3   5 3973.36 303.783   1
   0   3  -4 74905.4 951.351   1
   0  -3   3 78147.4 995.423   1
   0   3  -3 158985. 2067.04  -2
   0  -3   3 158985. 2067.04   1
   0   3  -2 99096.7 834.216   1
   0   2  -3 102876. 1035.53  -2
   0  -3   2 102876. 1035.53   1
   0  -3   1 0.59934 222.966   1
   0   1  -3 1059.64 127.699  -2
   0  -3   1 1059.64 127.699   1
   0   0  -3 12074.4 242.088  -2
   0  -3   0 12074.4 242.088   1
   0  -1  -3 87077.9 534.440  -2
   0  -3  -1 87077.9 534.440   1
   0   2   3 567423. 2805.82  -2
   0   3   2 567423. 2805.82   1
   0  -3  -3 951233. 7630.08  -2
   0  -3  -3 951233. 7630.08   1
   0   4   3 3162.14 193.448  -2
   0   3   4 3162.14 193.448   1
   0  -5  -3 15601.4 211.657  -2
   0  -3  -5 15601.4 211.657   1
   0   6   3 25743.1 567.300  -2
   0   3   6 25743.1 567.300   1
   0   7   3 3332.20 267.879  -2
   0   3   7 3332.20 267.879   1
   0   8   3 12138.8 391.288  -2
   0   3   8 12138.8 391.288   1
   0   3   9 1091.37 436.177   1
   0   9   3 9194.83 525.998  -2
   0   3   9 9194.83 525.998   1
   0  -3 -10 13139.9 1066.88   1
   0  10   3 12331.0 1269.06  -2
   0   3  10 12331.0 1269.06   1
   0  -3 -11 6952.05 744.422   1
   0  -3 -12 6022.46 638.597   1
   0   4 -11 1457.65 808.826   1
   0  -4  10 36.9508 408.475   1
   0   4  -9 1889.41 415.687   1
   0  -4   8 41259.7 1056.52   1
   0  -4   7 1666.17 330.235   1
   0   4  -6 113.544 261.495   1
   0  -4   5 6373.69 385.045   1
   0  -4   4 62183.1 1123.74   1
   0  -4   3 160949. 985.402   1
   0   4  -2 46659.2 577.570   1
   0   2  -4 47575.9 1150.93  -2
   0  -4   2 47575.9 1150.93   1
   0   1  -4 24056.3 365.017  -2
   0  -4   1 24056.3 365.017   1
   0   0   4 2919.71 172.714  -2
   0   4   0 2919.71 172.714   1
   0  -1  -4 63017.8 658.648  -2
   0  -4  -1 63017.8 658.648   1
   0  -2  -4 53742.6 436.723  -2
   0  -4  -2 53742.6 436.723   1
   0  -3  -4 3011.58 220.020  -2
   0  -4  -3 3011.58 220.020   1
   0   4   4 27592.8 561.454  -2
   0   4   4 27592.8 561.454   1
   0  -5  -4 48909.5 922.883  -2
   0  -4  -5 48909.5 922.883   1
   0   6   4 80012.5 1187.25  -2
   0   4   6 80012.5 1187.25   1
   0  -7  -4 2211.00 277.200  -2
   0  -4  -7 2211.00 277.200   1
   0   8   4 15753.2 505.560  -2
   0   4   8 15753.2 505.560   1
   0  -9  -4 20417.9 745.080  -2
   0  -4  -9 20417.9 745.080   1
   0 -10  -4 9871.64 790.225  -2
   0  -4 -10 9871.64 790.225   1
   0  -4 -11 508.373 691.142   1
   0  11   4 15650.2 1464.11  -2
   0   4  11 15650.2 1464.11   1
   0  -4 -12 2843.13 694.904   1
   0   5 -10 3969.26 560.705   1
   0  -5   9 5480.50 562.059   1
   0   5  -8 1936.36 402.070   1
   0   5  -7 2202.88 377.907   1
   0   5  -6 4727.32 415.792   1
   0  -5   5 60648.2 1282.70   1
   0  -5   4 48941.7 1082.37   1
   0  -5   3 58071.4 744.803   1
   0   5  -2 1184.22 159.524   1
   0   5  -1 8267.55 350.376   1
   0   1  -5 42302.4 797.567  -2
   0  -5   1 42302.4 797.567   1
   0   0   5 11368.8 295.319  -2
   0   5   0 11368.8 295.319   1
   0  -1  -5 46912.9 503.978  -2
   0  -5  -1 46912.9 503.978   1
   0   2   5 53000.0 553.718  -2
   0   5   2 53000.0 553.718   1
   0  -3  -5 15141.5 227.765  -2
   0  -5  -3 15141.5 227.765   1
   0   4   5 47928.3 795.844  -2
   0   5   4 47928.3 795.844   1
   0   5   5 41051.1 829.562  -2
   0   5   5 41051.1 829.562   1
   0   6   5 102248. 1469.57  -2
   0   5   6 102248. 1469.57   1
   0  -7  -5 14559.6 606.451  -2
   0  -5  -7 14559.6 606.451   1
   0  -8  -5 2343.93 407.914  -2
   0  -5  -8 2343.93 407.914   1
   0   9   5 13318.3 584.191  -2
   0   5   9 13318.3 584.191   1
   0  10   5 2816.39 656.353  -2
   0   5  10 2816.39 656.353   1
   0 -11  -5 4123.60 775.112  -2
   0  -5 -11 4123.60 775.112   1
   0   6 -10 4807.52 1045.02   1
   0   6  -9 6972.53 633.584   1
   0  -6   8 6110.64 577.519   1
   0  -6   7-130.247 348.142   1
   0   6  -6 1055.98 331.920   1
   0   6  -5 13535.3 722.669   1
   0   6  -4 151.209 309.846   1
   0   6  -3 615.487 203.667   1
   0  -6   2 363.633 170.319   1
   0  -6   1 143655. 1186.67   1
   0   1  -6 247407. 3097.40  -2
   0  -6   1 247407. 3097.40   1
   0  -6   0 70003.4 1681.22   1
   0   0  -6 92750.9 911.354  -2
   0  -6   0 92750.9 911.354   1
   0   1   6 11913.1 318.936  -2
   0   6   1 11913.1 318.936   1
   0   2   6 4369.39 263.850  -2
   0   6   2 4369.39 263.850   1
   0   3   6 24363.9 575.215  -2
   0   6   3 24363.9 575.215   1
   0  -4  -6 78786.7 1058.09  -2
   0  -6  -4 78786.7 1058.09   1
   0   5   6 100488. 1486.61  -2
   0   6   5 100488. 1486.61   1
   0   6   6 15347.1 672.318  -2
   0   6   6 15347.1 672.318   1
   0  -7  -6 22755.2 1125.12  -2
   0  -6  -7 22755.2 1125.12   1
   0  -8  -6 29041.2 1265.33  -2
   0  -6  -8 29041.2 1265.33   1
   0  -9  -6 1608.14 438.703  -2
   0  -6  -9 1608.14 438.703   1
   0 -10  -6 1089.38 640.889  -2
   0  -6 -10 1089.38 640.889   1
   0 -11  -6 1785.65 712.967  -2
   0  -6 -11 1785.65 712.967   1
   0   7  -9 780.314 842.113   1
   0   7  -8 1286.64 454.027   1
   0  -7   7 6855.06 591.060   1
   0   7  -6 22725.3 847.610   1
   0  -7   5 19984.0 908.610   1
   0  -7   4 9823.83 651.907   1
   0   7  -3 6196.19 357.140   1
   0   7  -2 33992.2 769.065   1
   0   2  -7 62432.6 1965.54  -2
   0  -7   2 62432.6 1965.54   1
   0  -7   1 22945.8 498.007   1
   0  -7   0 97647.8 1175.29   1
   0   0  -7 104489. 1592.09  -2
   0  -7   0 104489. 1592.09   1
   0   7   1 5046.94 302.027   1
   0  -1  -7 12169.3 660.549  -2
   0  -7  -1 12169.3 660.549   1
   0  -2  -7 1913.07 262.803  -2
   0  -7  -2 1913.07 262.803   1
   0   3   7 3196.23 289.867  -2
   0   7   3 3196.23 289.867   1
   0  -4  -7 2193.08 325.055  -2
   0  -7  -4 2193.08 325.055   1
   0   5   7 15514.0 933.996  -2
   0   7   5 15514.0 933.996   1
   0  -6  -7 22242.9 1159.56  -2
   0  -7  -6 22242.9 1159.56   1
   0  -7  -7 47486.6 1404.70  -2
   0  -7  -7 47486.6 1404.70   1
   0   8   7 31083.8 1430.98  -2
   0   7   8 31083.8 1430.98   1
   0   9   7 4540.48 623.768  -2
   0   7   9 4540.48 623.768   1
   0 -10  -7 2466.46 714.808  -2
   0  -7 -10 2466.46 714.808   1
   0  11   7 4042.63 1297.43  -2
   0   7  11 4042.63 1297.43   1
   0   8  -8-190.428 756.040   1
   0  -8   7 9745.69 715.779   1
   0  -8   6 5333.55 552.875   1
   0   8  -5 213.116 411.503   1
   0  -8   4 5453.43 502.501   1
   0  -8   3 1255.57 273.437   1
   0   8  -2 27512.5 682.265   1
   0   8  -1 274.856 320.474   1
   0  -1   8 17136.0 874.076  -2
   0   8  -1 17136.0 874.076   1
   0   8   0 2006.13 208.237   1
   0  -8  -1 46756.0 685.660   1
   0   8   2 8071.57 482.922   1
   0  -2  -8 12350.2 717.535  -2
   0  -8  -2 12350.2 717.535   1
   0   3   8 10707.8 534.757  -2
   0   8   3 10707.8 534.757   1
   0   4   8 18268.0 903.157  -2
   0   8   4 18268.0 903.157   1
   0  -5  -8 2339.72 600.135  -2
   0  -8  -5 2339.72 600.135   1
   0   6   8 28210.4 1362.05  -2
   0   8   6 28210.4 1362.05   1
   0   7   8 28076.7 1415.57  -2
   0   8   7 28076.7 1415.57   1
   0  -8  -8 5659.72 814.703  -2
   0  -8  -8 5659.72 814.703   1
   0   9   8 1369.87 620.650  -2
   0   8   9 1369.87 620.650   1
   0 -10  -8 8117.32 1057.66  -2
   0  -8 -10 8117.32 1057.66   1
   0   9  -7 9419.61 1319.54   1
   0   9  -6 1143.18 539.248   1
   0  -9   5 166.704 440.271   1
   0   9  -4 119.197 443.094   1
   0   9  -3 4527.96 385.384   1
   0   9  -2 8559.31 518.334   1
   0   2  -9 9680.32 1209.84  -2
   0  -9   2 9680.32 1209.84   1
   0  -9   1 1278.77 252.093   1
   0  -9   0 978.073 249.328   1
   0   9   1 8365.33 501.978   1
   0   9   2 29939.6 783.256   1
   0  -3  -9 9772.22 756.470  -2
   0  -9  -3 9772.22 756.470   1
   0   4   9 18994.9 978.517  -2
   0   9   4 18994.9 978.517   1
   0  -5  -9 15264.8 962.820  -2
   0  -9  -5 15264.8 962.820   1
   0   6   9 910.405 617.105  -2
   0   9   6 910.405 617.105   1
   0   7   9 4611.22 812.756  -2
   0   9   7 4611.22 812.756   1
   0   8   9 1492.84 691.108  -2
   0   9   8 1492.84 691.108   1
   0  -9  -9 8649.43 1149.52  -2
   0  -9  -9 8649.43 1149.52   1
   0  10  -6 91.5088 824.907   1
   0  10  -5 2298.68 514.144   1
   0  10  -4 10963.3 713.248   1
   0  10  -3 17641.2 614.063   1
   0  10  -2 846.922 279.321   1
   0 -10   1 6630.13 397.295   1
   0 -10   0 7059.71 521.773   1
   0  10   1 12127.2 615.198   1
   0 -10  -2 2249.02 510.980   1
   0  10   3 384.151 473.581   1
   0   4  10 12119.6 923.282  -2
   0  10   4 12119.6 923.282   1
   0  -5 -10 3242.40 717.875  -2
   0 -10  -5 3242.40 717.875   1
   0   6  10 1572.15 679.936  -2
   0  10   6 1572.15 679.936   1
   0   7  10 3699.43 788.810  -2
   0  10   7 3699.43 788.810   1
   0  -8 -10 8950.94 1108.01  -2
   0 -10  -8 8950.94 1108.01   1
   0  -9 -10 21552.7 2388.18  -2
   0 -10  -9 21552.7 2388.18   1
   0  11  -4 4031.50 720.497   1
   0 -11   3-106.966 435.456   1
   0 -11   2 48.1372 355.139   1
   0 -11   1 1955.90 442.279   1
   0  11   0 428.702 492.024   1
   0  11   1 3672.93 610.624   1
   0 -11  -2 682.338 527.006   1
   0  11   3 11859.0 919.479   1
   0  11   4 14109.8 1002.55   1
   0   5  11 3762.71 862.961  -2
   0  11   5 3762.71 862.961   1
   0  -6 -11 1502.92 793.460  -2
   0 -11  -6 1502.92 793.460   1
   0  -7 -11 4370.70 1228.38  -2
   0 -11  -7 4370.70 1228.38   1
   0  12  -3 10.3955 909.980   1
   0  12  -2 832.767 804.607   1
   0  12  -1 4861.19 753.385   1
   0 -12   0 363.613 610.774   1
   0  12   1 304.561 549.080   1
   0  12   2 2361.87 615.024   1
   0  12   3 4640.34 772.648   1
   0  12   4 5498.99 776.499   1
   1 -12  -1 371.305 610.216   1
   1 -12   0 3231.67 743.388   1
  -1  12  -1 232.689 781.888   1
   1 -11  -5 9248.61 901.118   1
  -1  11   4 1021.68 570.650   1
   1 -11  -3 2900.84 668.680   1
   1 -11  -2 11437.5 939.299   1
  -1  11   1 9592.83 847.725   1
   1 -11   0 2374.93 503.815   1
   1 -11   1 3192.04 644.879   1
  -1  11  -2 430.843 291.193   1
   1 -11   3 18474.0 824.368   1
  -1  11  -4 11331.3 798.867   1
  -1  10   7 1226.08 581.336   1
  -1  10   6 2344.30 606.399   1
  -1  10   5 700.973 523.740   1
  -1  10   4 252.837 509.929   1
   1 -10  -3 21911.6 1094.08   1
  -1  10   2 20286.2 1050.02   1
   1 -10  -1 5817.97 683.363   1
   1 -10   0 1270.38 481.552   1
   1 -10   1 1624.72 311.043   1
   1 -10   2 3429.23 404.976   1
   1 -10   3 10729.8 691.965   1
   1 -10   4 147.191 403.203   1
  -1  10  -5 338.673 532.228   1
  -1  10  -6 3930.65 1103.84   1
   1  -9  -9 1343.54 744.511   1
   1  10  10 2376.58 1219.67  -2
  -1   9   9 2376.58 1219.67   1
  -1   9   8 8229.65 856.612   1
  -1   9   7 1699.76 559.902   1
   1  -9  -6 1167.96 511.199   1
   1  -9  -5 720.950 440.991   1
  -1   9   4 12305.9 819.936   1
   1  -9  -3 27283.9 1101.34   1
   1  -9  -2 18974.1 937.653   1
   1  -9  -1 4347.89 567.026   1
  -1   9   0 5.01619 223.375   1
  -1   9  -1 1092.10 257.759   1
  -1   9  -2 2771.22 347.421   1
   1  -9   3 6207.29 533.365   1
   1  -9   4 285.670 376.381   1
   1  -9   5 5631.78 696.407   1
  -1   9  -6 10162.6 884.816   1
  -1   9  -7 6603.52 896.047   1
  -1   8   9 8804.79 1138.76   1
  -1 -10  -9 10282.3 1007.78  -2
   1  -8  -9 10282.3 1007.78   1
  -1  -9  -9 23654.3 1199.39  -2
   1  -8  -8 23654.3 1199.39   1
  -1   8   7 868.058 460.756   1
  -1   8   6 262.665 417.616   1
  -1   8   5 24.4949 405.438   1
  -1   8   4 7643.86 627.173   1
  -1   8   3 39298.1 902.642   1
   1  -8  -2 2543.51 448.639   1
  -1   8   1-7.63649 191.518   1
   1  -8   0 75329.9 1035.63   1
   1  -8   1 35398.6 684.092   1
  -1   8  -2 9736.84 463.705   1
  -1   8  -3 415.301 255.213   1
   1  -8   4 212.526 331.897   1
  -1   8  -5 5821.31 632.158   1
   1  -8   6 14443.6 932.422   1
   1  -8   7 2745.78 506.939   1
   1  -8   8 89.4355 570.439   1
   1  11   8 14695.4 1873.50  -2
  -1   7  10 14695.4 1873.50   1
  -1 -10  -8 11920.0 1037.95  -2
   1  -7  -9 11920.0 1037.95   1
  -1  -9  -8 8661.17 820.492  -2
   1  -7  -8 8661.17 820.492   1
  -1  -8  -8 2591.38 599.399  -2
   1  -7  -7 2591.38 599.399   1
   1  -7  -6 881.500 420.535   1
   1  -7  -5 43718.2 898.168   1
   1  -7  -4 2061.30 319.817   1
   1  -7  -3 3113.79 341.492   1
  -1   7   2 18052.7 413.763   1
   1  -7  -1 10548.1 439.371   1
   1  -7   0 60871.2 858.349   1
   1  -7   1 60064.3 875.906   1
   1  -7   2 3732.46 276.667   1
   1  -7   3 98.8049 226.034   1
  -1   7  -4 16.8169 301.752   1
   1  -7   5 2205.04 460.392   1
  -1   7  -6 1061.81 457.932   1
   1  -7   7 3676.90 499.082   1
   1  -7   8 4500.10 595.457   1
  -1   7  -9 9922.93 973.257   1
   1  12   7 6646.75 1625.71  -2
  -1   6  11 6646.75 1625.71   1
   1  11   7 10138.9 1662.30  -2
  -1   6  10 10138.9 1662.30   1
  -1 -10  -7 7005.08 865.746  -2
   1  -6  -9 7005.08 865.746   1
   1   9   7 1750.22 453.684  -2
  -1   6   8 1750.22 453.684   1
   1   8   7 7445.48 677.687  -2
  -1   6   7 7445.48 677.687   1
  -1   6   6 41850.9 1339.45   1
  -1  -7  -7 85073.6 1555.75  -2
   1  -6  -6 85073.6 1555.75   1
  -1   6   5 25784.7 675.858   1
  -1   6   4 942.835 225.093   1
   1  -6  -3 27964.1 417.828   1
   1  -6  -2 2830.66 179.274   1
  -1   6   1 45501.1 727.474   1
  -1   6   0 23453.8 504.711   1
  -1   6  -1 9731.76 360.818   1
   1  -6   2 3706.38 247.824   1
   1  -6   3 5972.97 333.509   1
  -1   6  -4 2954.55 343.730   1
   1  -6   5 2706.47 424.166   1
  -1   6  -6 6384.85 494.856   1
  -1   6  -7 397.412 369.793   1
  -1   6  -8 14662.0 771.837   1
   1  -6   9 7079.23 668.892   1
  -1   6 -10 760.227 874.252   1
   1  12   6 7215.51 1065.05  -2
  -1   5  11 7215.51 1065.05   1
   1  11   6 2106.91 724.631  -2
  -1   5  10 2106.91 724.631   1
  -1 -10  -6 6129.76 818.638  -2
   1  -5  -9 6129.76 818.638   1
  -1  -9  -6 6358.45 583.165  -2
   1  -5  -8 6358.45 583.165   1
   1   8   6 9314.62 524.622  -2
  -1   5   7 9314.62 524.622   1
  -1  -7  -6 73801.0 1068.32  -2
   1  -5  -6 73801.0 1068.32   1
  -1   5   5 16937.1 821.761   1
   1   6   6 51184.0 1105.71  -2
  -1   5   5 51184.0 1105.71   1
   1  -5  -4 1465.17 214.986   1
   1  -5  -3 10207.4 170.007   1
  -1   5   2 35435.0 398.519   1
   1  -5  -1 2249.00 200.818   1
   1  -5   0 72236.0 767.106   1
  -1   5  -1 20201.8 435.753   1
   1  -5   2 45731.4 593.276   1
   1  -5   3 165407. 1541.35   1
   1  -5   4 18189.5 725.338   1
  -1   5  -5 1442.73 360.491   1
   1  -5   6 169.566 284.047   1
   1  -5   7 337.098 315.909   1
  -1   5  -8 4583.72 482.577   1
  -1   5  -9 665.657 410.849   1
  -1   5 -10 5353.96 616.870   1
   1  12   5 10343.7 1123.53  -2
  -1   4  11 10343.7 1123.53   1
   1  11   5 1294.23 592.527  -2
  -1   4  10 1294.23 592.527   1
  -1 -10  -5 2099.96 611.332  -2
   1  -4  -9 2099.96 611.332   1
   1   9   5 47533.6 1250.34  -2
  -1   4   8 47533.6 1250.34   1
   1   8   5 109220. 1346.55  -2
  -1   4   7 109220. 1346.55   1
  -1  -7  -5 46299.6 854.303  -2
   1  -4  -6 46299.6 854.303   1
   1   6   5 17791.7 513.072  -2
  -1   4   5 17791.7 513.072   1
   1  -4  -4 2248.93 255.793   1
   1   5   5 4378.57 517.994  -2
  -1   4   4 4378.57 517.994   1
  -1   4   3 21985.1 499.884   1
  -1   4   2 103192. 497.961   1
  -1   4   1 417.064 133.912   1
  -1   4   0 3608.47 193.835   1
   1  -4   1 41204.5 541.498   1
   1  -4   2 3395.29 181.035   1
   1  -4   3 26926.3 725.186   1
   1  -4   4 1622.37 306.657   1
   1  -4   5 50912.0 919.770   1
  -1   4  -6 30429.5 780.813   1
   1  -4   7 335.825 272.200   1
   1  -4   8 2467.91 400.369   1
   1  -4   9 70.3134 365.873   1
  -1   4 -10 10921.4 730.302   1
  -1   4 -11 7695.05 826.270   1
  -1 -12  -4 1061.66 638.712  -2
   1  -3 -11 1061.66 638.712   1
  -1 -11  -4 2916.71 668.415  -2
   1  -3 -10 2916.71 668.415   1
   1  10   4 10835.9 592.647  -2
  -1   3   9 10835.9 592.647   1
  -1  -9  -4 30872.4 1052.29  -2
   1  -3  -8 30872.4 1052.29   1
   1   8   4 18699.0 622.560  -2
  -1   3   7 18699.0 622.560   1
  -1  -7  -4 1406.85 240.571  -2
   1  -3  -6 1406.85 240.571   1
   1  -3  -5 14959.9 247.882   1
  -1  -6  -4 19591.3 511.182  -2
   1  -3  -5 19591.3 511.182   1
  -1  -5  -4 184550. 1306.77  -2
   1  -3  -4 184550. 1306.77   1
  -1   3   3 200772. 1616.36   1
   1   4   4 286480. 2602.72  -2
  -1   3   3 286480. 2602.72   1
  -1   3   2 23257.8 241.534   1
  -1   3   1 5348.86 194.492   1
  -1   3   0 5039.68 182.912   1
   1  -3   1 13269.4 316.992   1
  -1   3  -2 51501.0 501.039   1
   1  -3   3 47284.0 698.116   1
   1  -3   4 86195.9 1225.67   1
   1  -3   5 556.014 212.824   1
   1  -3   6 7730.46 415.880   1
   1  -3   7 2341.56 326.524   1
   1  -3   8 1510.05 319.790   1
  -1   3  -9 798.616 349.417   1
  -1   3 -10 6197.10 586.414   1
   1  -3  11 2632.46 500.039   1
   1  -3  12-9.42227 781.282   1
   1  13   3 884.397 1083.82  -2
  -1   2  12 884.397 1083.82   1
  -1 -12  -3 5651.54 715.339  -2
   1  -2 -11 5651.54 715.339   1
   1  11   3 28993.0 1441.95  -2
  -1   2  10 28993.0 1441.95   1
  -1 -10  -3 17814.5 766.488  -2
   1  -2  -9 17814.5 766.488   1
  -1  -9  -3 47851.5 1104.01  -2
   1  -2  -8 47851.5 1104.01   1
  -1  -8  -3 706.844 193.279  -2
   1  -2  -7 706.844 193.279   1
  -1  -7  -3 2449.88 211.522  -2
   1  -2  -6 2449.88 211.522   1
   1   6   3 5952.53 243.700  -2
  -1   2   5 5952.53 243.700   1
   1   5   3 146115. 537.457  -2
  -1   2   4 146115. 537.457   1
   1  -2  -3 34650.5 372.411   1
   1   4   3 63655.8 677.068  -2
  -1   2   3 63655.8 677.068   1
  -1   2   2 2202.97 92.4664   1
   1   3   3 57298.3 1002.73  -2
  -1   2   2 57298.3 1002.73   1
  -1   2   1 460.467 69.0042   1
  -1   2   0 14196.2 238.767   1
   1  -2   1 279.340 91.1049   1
   1  -2   2 1278.30 121.605   1
   1  -2   3 4066.33 277.700   1
   1  -2   4 159262. 1035.96   1
  -1   2  -5 55580.0 683.556   1
   1  -2   6 124675. 1104.73   1
  -1   2  -7 132.629 189.163   1
  -1   2  -8 36860.5 734.902   1
   1  -2   9 2180.56 299.584   1
   1  -2  10-5.04805 355.295   1
   1  -2  11 1045.83 423.788   1
  -1   2 -12 597.786 769.658   1
  -1 -12  -2 13517.4 1150.59  -2
   1  -1 -11 13517.4 1150.59   1
  -1 -11  -2 30423.2 1117.82  -2
   1  -1 -10 30423.2 1117.82   1
  -1 -10  -2 2308.33 372.627  -2
   1  -1  -9 2308.33 372.627   1
  -1  -9  -2 17818.0 692.499  -2
   1  -1  -8 17818.0 692.499   1
  -1  -8  -2 39643.3 788.499  -2
   1  -1  -7 39643.3 788.499   1
   1   7   2 44821.3 724.616  -2
  -1   1   6 44821.3 724.616   1
   1   6   2 166039. 1230.76  -2
  -1   1   5 166039. 1230.76   1
   1   5   2 214259. 1152.59  -2
  -1   1   4 214259. 1152.59   1
  -1   1   3 899.220 84.7514   1
  -1  -4  -2 5296.02 194.499  -2
   1  -1  -3 5296.02 194.499   1
   1  -1  -2 11784.1 481.033   1
   1   3   2 29895.9 247.553  -2
  -1   1   2 29895.9 247.553   1
  -1   1   1 23234.1 215.291   1
  -1   1   0 629357. 3736.52   1
   1  -1   1 929.042 70.3974   1
   1  -1   2 16863.9 218.585   1
   1  -1   3 8055.16 163.362   1
   1  -1   4 3208.46 160.368   1
   1  -1   5 468.118 126.870   1
  -1   1  -6 4126.72 226.450   1
   1  -1   7 41477.8 629.996   1
   1  -1   8 16948.0 469.328   1
   1  -1   9 16983.0 563.270   1
  -1   1 -10 1811.97 301.572   1
   1  -1  11 1530.16 401.031   1
   1  -1  12 4104.33 726.238   1
  -1 -12  -1 15571.6 1614.37  -2
   1   0 -11 15571.6 1614.37   1
   1  11   1 14172.1 926.824  -2
  -1   0  10 14172.1 926.824   1
  -1 -10  -1 3221.81 367.487  -2
   1   0  -9 3221.81 367.487   1
   1   9   1 1030.33 258.379  -2
  -1   0   8 1030.33 258.379   1
   1   8   1 39115.4 828.793  -2
  -1   0   7 39115.4 828.793   1
  -1  -7  -1 57741.0 633.372  -2
   1   0  -6 57741.0 633.372   1
   1   6   1 91411.0 905.757  -2
  -1   0   5 91411.0 905.757   1
   1   5   1 13388.5 327.621  -2
  -1   0   4 13388.5 327.621   1
   1   4   1 2272.11 108.347  -2
  -1   0   3 2272.11 108.347   1
  -1   0   2 308974. 2260.02   1
   1   3   1 566705. 2140.51  -2
  -1   0   2 566705. 2140.51   1
  -1   0   1 3964.42 86.0643   1
  -1  -2  -1 41973.0 338.880  -2
   1   0  -1 41973.0 338.880   1
   1   0   0 27.1053 230.120   1
   1   0   1 436.170 46.6356   1
  -1   0  -2 26093.1 227.216   1
   1   0   3 20857.5 274.508   1
   1   0   4 5240.19 180.756   1
  -1   0  -5 317.436 117.578   1
   1   0   6 438.922 114.542   1
   1   0   7 104376. 702.078   1
   1   0   8 21292.7 426.735   1
   1   0   9 19832.6 532.094   1
  -1   0 -10 2660.46 302.737   1
  -1   0 -11 715.478 336.612   1
  -1   0 -12 1689.76 820.028   1
  -1 -12   0 15785.0 1246.70  -2
   1   1 -11 15785.0 1246.70   1
  -1 -11   0 10658.4 1035.68  -2
   1   1 -10 10658.4 1035.68   1
  -1 -10   0 2416.80 641.795  -2
   1   1  -9 2416.80 641.795   1
  -1  -9   0 41483.4 1079.54  -2
   1   1  -8 41483.4 1079.54   1
  -1  -8   0 34542.9 775.522  -2
   1   1  -7 34542.9 775.522   1
  -1  -7   0 14670.8 450.252  -2
   1   1  -6 14670.8 450.252   1
   1   6   0 54733.0 557.454  -2
  -1  -1   5 54733.0 557.454   1
   1   5   0 125009. 725.095  -2
  -1  -1   4 125009. 725.095   1
   1   4   0 50020.9 435.866  -2
  -1  -1   3 50020.9 435.866   1
  -1  -1   2 7870.16 292.396   1
   1   3   0 24184.8 291.752  -2
  -1  -1   2 24184.8 291.752   1
   1   1  -1 194784. 870.523   1
   1   2   0 337294. 1890.26  -2
  -1  -1   1 337294. 1890.26   1
  -1  -1   0 3688.52 84.0805   1
  -1  -1   0 7233.27 155.285  -2
   1   1   0 7233.27 155.285   1
  -1  -1  -1 12353.8 171.825   1
  -1   0   0 3763.23 546.936  -2
   1   1   1 3763.23 546.936   1
   1   1   2 540339. 3071.03   1
  -1  -1  -3 1254.70 69.5656   1
   1   1   4 2200.43 88.7747   1
   1   1   5 2439.16 99.6988   1
  -1  -1  -6 37059.5 324.107   1
   1   1   7 28969.0 405.183   1
  -1  -1  -8 14990.5 316.041   1
  -1  -1  -9 410.790 209.350   1
   1   1  10 8328.47 540.521   1
  -1  -1 -11 11159.9 670.954   1
  -1  -1 -12 3726.13 683.144   1
   1  12  -1 1709.78 742.641  -2
  -1  -2  11 1709.78 742.641   1
   1  11  -1 19988.7 1208.43  -2
  -1  -2  10 19988.7 1208.43   1
  -1 -10   1 44944.3 1514.67  -2
   1   2  -9 44944.3 1514.67   1
   1   9  -1 41708.1 1469.29  -2
  -1  -2   8 41708.1 1469.29   1
  -1  -8   1 18422.7 603.365  -2
   1   2  -7 18422.7 603.365   1
   1   7  -1 18438.0 583.340  -2
  -1  -2   6 18438.0 583.340   1
   1   6  -1 1937.52 217.249  -2
  -1  -2   5 1937.52 217.249   1
   1   5  -1 74787.3 657.642  -2
  -1  -2   4 74787.3 657.642   1
   1   4  -1 131658. 850.372  -2
  -1  -2   3 131658. 850.372   1
   1   3  -1 589217. 1681.39  -2
  -1  -2   2 589217. 1681.39   1
  -1  -2   1 2000.43 117.523   1
   1   2  -1 4185.24 119.224  -2
  -1  -2   1 4185.24 119.224   1
  -1  -2   0 136782. 616.605   1
  -1  -1   1 338589. 812.486  -2
   1   2   0 338589. 812.486   1
  -1  -2  -1 38885.5 277.589   1
  -1   0   1 42829.7 445.646  -2
   1   2   1 42829.7 445.646   1
   1   2   2 800.734 63.4285   1
   1   2   3 54423.4 248.549   1
   1   2   4 7158.28 137.540   1
   1   2   5 90505.0 468.381   1
  -1  -2  -6 14665.8 214.198   1
   1   2   7 13707.1 310.490   1
   1   2   8 1145.66 155.816   1
   1   2   9 16170.6 788.610   1
  -1  -2 -10 55568.3 1192.35   1
  -1  -2 -11 11548.0 669.811   1
   1   2  12 3784.72 527.788   1
  -1 -12   2 1109.56 1055.49  -2
   1   3 -11 1109.56 1055.49   1
   1  11  -2 2733.03 770.635  -2
  -1  -3  10 2733.03 770.635   1
  -1 -10   2 16083.9 1018.41  -2
   1   3  -9 16083.9 1018.41   1
  -1  -9   2 53370.4 1525.37  -2
   1   3  -8 53370.4 1525.37   1
   1   8  -2 13104.1 648.780  -2
  -1  -3   7 13104.1 648.780   1
  -1  -7   2 3719.74 303.546  -2
   1   3  -6 3719.74 303.546   1
   1   6  -2 9469.77 390.616  -2
  -1  -3   5 9469.77 390.616   1
   1   5  -2 21453.6 309.358  -2
  -1  -3   4 21453.6 309.358   1
   1   4  -2 8987.44 269.308  -2
  -1  -3   3 8987.44 269.308   1
   1   3  -2 686.113 81.3037  -2
  -1  -3   2 686.113 81.3037   1
   1   2  -2 594405. 2014.77  -2
  -1  -3   1 594405. 2014.77   1
  -1  -1   2 24551.5 355.969  -2
   1   3   0 24551.5 355.969   1
  -1  -3  -1 274543. 2157.38   1
  -1   0   2 554564. 1696.95  -2
   1   3   1 554564. 1696.95   1
  -1   1   2 32019.1 328.187  -2
   1   3   2 32019.1 328.187   1
  -1  -3  -3 55010.9 287.625   1
   1   3   4 75006.1 339.451   1
  -1  -3  -5 57396.9 364.702   1
   1   3   6 1704.33 100.411   1
  -1  -3  -7 1122.31 122.035   1
   1   3   8 2931.35 243.188   1
   1   3   9 6024.79 410.494   1
  -1  -3 -10 19219.9 921.495   1
   1   3  11 643.484 427.405   1
  -1  -3 -12 185.933 401.406   1
  -1  -3 -13 2597.98 886.550   1
   1  11  -3 6592.24 899.112  -2
  -1  -4  10 6592.24 899.112   1
  -1 -10   3 13490.5 1064.80  -2
   1   4  -9 13490.5 1064.80   1
  -1  -9   3 4700.61 716.319  -2
   1   4  -8 4700.61 716.319   1
  -1  -8   3 17782.8 792.084  -2
   1   4  -7 17782.8 792.084   1
  -1  -7   3 6946.50 529.640  -2
   1   4  -6 6946.50 529.640   1
  -1  -6   3 78351.2 1356.85  -2
   1   4  -5 78351.2 1356.85   1
   1   5  -3 18668.7 639.202  -2
  -1  -4   4 18668.7 639.202   1
   1   4  -3 38957.5 491.412  -2
  -1  -4   3 38957.5 491.412   1
   1   3  -3 9523.80 221.162  -2
  -1  -4   2 9523.80 221.162   1
   1   2  -3 129365. 1047.74  -2
  -1  -4   1 129365. 1047.74   1
  -1  -1   3 49513.9 602.175  -2
   1   4   0 49513.9 602.175   1
  -1   0   3 2206.12 184.181  -2
   1   4   1 2206.12 184.181   1
  -1   1   3 5607.77 267.161  -2
   1   4   2 5607.77 267.161   1
   1   4   3 26017.1 479.581   1
  -1   2   3 62255.9 394.528  -2
   1   4   3 62255.9 394.528   1
   1   4   4 92526.1 646.482   1
   1   4   5 38059.1 445.627   1
  -1  -4  -6 2135.90 150.886   1
   1   4   7 3857.57 173.860   1
   1   4   8 28523.3 605.512   1
   1   4   9 3604.34 310.866   1
   1   4  10 13683.9 832.728   1
  -1  -4 -11 249.315 461.352   1
   1   4  12 3757.15 664.415   1
   1   5 -10 588.142 697.408   1
   1  10  -4 6838.00 867.802  -2
  -1  -5   9 6838.00 867.802   1
   1   9  -4 10392.5 894.587  -2
  -1  -5   8 10392.5 894.587   1
  -1  -8   4 41528.3 1100.31  -2
   1   5  -7 41528.3 1100.31   1
  -1  -7   4 44169.9 1070.83  -2
   1   5  -6 44169.9 1070.83   1
   1   6  -4 20984.7 797.653  -2
  -1  -5   5 20984.7 797.653   1
  -1  -5   4 4228.30 384.606  -2
   1   5  -4 4228.30 384.606   1
   1   4  -4 14066.0 382.655  -2
  -1  -5   3 14066.0 382.655   1
  -1  -3   4 23714.5 547.897  -2
   1   5  -2 23714.5 547.897   1
  -1  -2   4 75680.5 801.039  -2
   1   5  -1 75680.5 801.039   1
  -1  -1   4 124390. 1112.74  -2
   1   5   0 124390. 1112.74   1
  -1   0   4 14204.5 434.317  -2
   1   5   1 14204.5 434.317   1
  -1   1   4 209675. 1352.46  -2
   1   5   2 209675. 1352.46   1
  -1   2   4 148292. 753.980  -2
   1   5   3 148292. 753.980   1
   1  -3  -4 186034. 976.588  -2
  -1  -5  -4 186034. 976.588   1
   1   5   5 1478.91 159.048   1
  -1   4   4 4067.13 381.362  -2
   1   5   5 4067.13 381.362   1
  -1  -5  -6 589.733 125.570   1
   1   5   7 11163.2 308.608   1
  -1  -5  -8 41220.8 759.325   1
   1   5   9 917.074 248.031   1
   1   5  10 2273.84 512.376   1
  -1  -5 -11 4501.96 636.620   1
  -1  -5 -12 7150.39 797.519   1
   1  10  -5 846.224 1111.87  -2
  -1  -6   9 846.224 1111.87   1
  -1  -9   5 3703.28 752.758  -2
   1   6  -8 3703.28 752.758   1
  -1  -6   7 8612.76 1010.50   1
   1   8  -5 9454.90 856.504  -2
  -1  -6   7 9454.90 856.504   1
   1   7  -5 19286.1 821.645  -2
  -1  -6   6 19286.1 821.645   1
   1   6  -5 10903.2 745.217  -2
  -1  -6   5 10903.2 745.217   1
   1   5  -5 22272.5 724.609  -2
  -1  -6   4 22272.5 724.609   1
   1   4  -5 81044.8 960.917  -2
  -1  -6   3 81044.8 960.917   1
   1   3  -5 9294.68 401.927  -2
  -1  -6   2 9294.68 401.927   1
   1   2  -5 2124.08 246.932  -2
  -1  -6   1 2124.08 246.932   1
  -1  -1   5 53693.0 829.020  -2
   1   6   0 53693.0 829.020   1
  -1   0   5 92927.4 1199.05  -2
   1   6   1 92927.4 1199.05   1
  -1   1   5 167259. 1509.07  -2
   1   6   2 167259. 1509.07   1
   1  -2  -5 6733.80 300.925  -2
  -1  -6  -3 6733.80 300.925   1
   1   6   4 950.220 132.213   1
  -1   3   5 17199.7 271.442  -2
   1   6   4 17199.7 271.442   1
   1  -4  -5 18633.7 383.511  -2
  -1  -6  -5 18633.7 383.511   1
   1  -5  -5 52321.8 827.111  -2
  -1  -6  -6 52321.8 827.111   1
  -1  -6  -7 48586.4 813.751   1
  -1  -6  -8 12969.9 679.658   1
   1   6   9 153.886 238.387   1
  -1  -6 -10 222.205 330.850   1
  -1  -6 -11 520.432 506.982   1
   1   6  12 1373.49 923.674   1
   1   9  -6 853.605 1141.33  -2
  -1  -7   8 853.605 1141.33   1
   1   8  -6 8733.94 898.740  -2
  -1  -7   7 8733.94 898.740   1
  -1  -7   6 13681.2 1195.32   1
   1   7  -6 24047.0 1175.60  -2
  -1  -7   6 24047.0 1175.60   1
   1   6  -6 20056.7 1003.57  -2
  -1  -7   5 20056.7 1003.57   1
  -1  -5   6 43289.5 1279.49  -2
   1   7  -4 43289.5 1279.49   1
  -1  -4   6 7578.93 381.487  -2
   1   7  -3 7578.93 381.487   1
  -1  -3   6 3822.69 321.189  -2
   1   7  -2 3822.69 321.189   1
   1   2  -6 18392.8 524.810  -2
  -1  -7   1 18392.8 524.810   1
  -1  -1   6 13367.8 553.299  -2
   1   7   0 13367.8 553.299   1
   1   0  -6 59423.9 1078.52  -2
  -1  -7  -1 59423.9 1078.52   1
   1  -1  -6 43484.1 904.885  -2
  -1  -7  -2 43484.1 904.885   1
  -1   2   6 2451.86 260.125  -2
   1   7   3 2451.86 260.125   1
  -1   3   6 1535.75 230.584  -2
   1   7   4 1535.75 230.584   1
   1  -4  -6 43573.4 887.795  -2
  -1  -7  -5 43573.4 887.795   1
   1  -5  -6 75129.5 1096.90  -2
  -1  -7  -6 75129.5 1096.90   1
  -1  -7  -7 31594.7 1524.38   1
  -1   6   6 88027.1 1370.66  -2
   1   7   7 88027.1 1370.66   1
  -1  -7  -8 209.873 330.369   1
  -1  -7  -9 77.4707 301.688   1
   1   7  10 7220.62 581.766   1
   1   7  11 4133.29 659.711   1
   1   8  -7 2246.13 836.780   1
   1   8  -7 2176.59 1154.73  -2
  -1  -8   7 2176.59 1154.73   1
   1   7  -7 8957.38 940.459  -2
  -1  -8   6 8957.38 940.459   1
  -1  -8   5 114.868 682.952   1
  -1  -6   7 9183.09 1087.89  -2
   1   8  -5 9183.09 1087.89   1
  -1  -5   7 44702.0 1342.20  -2
   1   8  -4 44702.0 1342.20   1
  -1  -4   7 18237.1 557.891  -2
   1   8  -3 18237.1 557.891   1
   1   3  -7 13582.7 449.719  -2
  -1  -8   2 13582.7 449.719   1
  -1  -2   7 17948.2 528.179  -2
   1   8  -1 17948.2 528.179   1
  -1  -1   7 35892.1 881.610  -2
   1   8   0 35892.1 881.610   1
  -1   0   7 39245.7 957.245  -2
   1   8   1 39245.7 957.245   1
   1  -1  -7 42859.8 772.706  -2
  -1  -8  -2 42859.8 772.706   1
  -1   2   7 581.898 238.172  -2
   1   8   3 581.898 238.172   1
   1  -3  -7 18811.5 812.239  -2
  -1  -8  -4 18811.5 812.239   1
   1  -4  -7 110930. 1679.74  -2
  -1  -8  -5 110930. 1679.74   1
   1  -5  -7 10542.7 600.065  -2
  -1  -8  -6 10542.7 600.065   1
  -1   6   7 8080.37 704.086  -2
   1   8   7 8080.37 704.086   1
  -1   7   7 3077.76 593.155  -2
   1   8   8 3077.76 593.155   1
  -1  -8  -9 4042.62 570.224   1
   1   8  10 9379.79 676.750   1
   1   8  11 1636.74 805.138   1
   1   9  -6-101.845 727.837   1
   1   7  -8 1996.10 1122.25  -2
  -1  -9   6 1996.10 1122.25   1
   1   9  -5 2452.18 791.468   1
  -1  -6   8 2652.72 887.801  -2
   1   9  -5 2652.72 887.801   1
   1   9  -4 7267.05 1014.07   1
  -1  -5   8 11629.6 1281.12  -2
   1   9  -4 11629.6 1281.12   1
   1   9  -3 1541.90 392.434   1
   1   4  -8 4621.18 718.537  -2
  -1  -9   3 4621.18 718.537   1
  -1  -3   8 47942.0 903.829  -2
   1   9  -2 47942.0 903.829   1
  -1  -2   8 41294.3 844.313  -2
   1   9  -1 41294.3 844.313   1
  -1  -1   8 45549.3 1096.61  -2
   1   9   0 45549.3 1096.61   1
  -1   0   8 948.455 339.320  -2
   1   9   1 948.455 339.320   1
   1  -1  -8 17834.7 729.956  -2
  -1  -9  -2 17834.7 729.956   1
  -1   2   8 49589.2 1253.09  -2
   1   9   3 49589.2 1253.09   1
  -1   3   8 34213.0 1185.61  -2
   1   9   4 34213.0 1185.61   1
  -1   4   8 51289.1 1371.79  -2
   1   9   5 51289.1 1371.79   1
  -1   5   8 7279.43 613.653  -2
   1   9   6 7279.43 613.653   1
   1  -6  -8 1792.98 599.406  -2
  -1  -9  -7 1792.98 599.406   1
   1  -7  -8 9074.41 829.567  -2
  -1  -9  -8 9074.41 829.567   1
  -1   8   8 21679.0 1144.17  -2
   1   9   9 21679.0 1144.17   1
   1   9  10 8319.47 831.121   1
   1  10  -5 1141.15 750.861   1
   1  10  -4 229.700 686.939   1
  -1  -5   9 5583.48 1146.68  -2
   1  10  -4 5583.48 1146.68   1
   1  10  -3 91.3359 728.321   1
  -1  -4   9 13846.0 1071.06  -2
   1  10  -3 13846.0 1071.06   1
   1  10  -2 5849.70 951.952   1
  -1  -3   9 17602.5 841.921  -2
   1  10  -2 17602.5 841.921   1
  -1  -2   9 47123.2 1038.51  -2
   1  10  -1 47123.2 1038.51   1
   1   1  -9 2843.06 442.145  -2
  -1 -10   0 2843.06 442.145   1
  -1   0   9 3120.44 472.855  -2
   1  10   1 3120.44 472.855   1
   1  -1  -9 2735.01 417.192  -2
  -1 -10  -2 2735.01 417.192   1
  -1   2   9 18082.3 976.335  -2
   1  10   3 18082.3 976.335   1
   1  -3  -9 12778.8 775.371  -2
  -1 -10  -4 12778.8 775.371   1
   1  -4  -9 3204.75 568.910  -2
  -1 -10  -5 3204.75 568.910   1
  -1   5   9 7061.92 886.104  -2
   1  10   6 7061.92 886.104   1
   1  -6  -9 8214.96 947.088  -2
  -1 -10  -7 8214.96 947.088   1
   1  -7  -9 13487.7 1065.87  -2
  -1 -10  -8 13487.7 1065.87   1
  -1   8   9 11304.5 998.286  -2
   1  10   9 11304.5 998.286   1
   1  11  -4 149.504 819.404   1
   1  11  -3 2236.83 883.811   1
   1   4 -10 6824.44 1372.28  -2
  -1 -11   3 6824.44 1372.28   1
   1  11  -2 3014.13 805.653   1
  -1  -3  10 4601.86 798.279  -2
   1  11  -2 4601.86 798.279   1
   1  11  -1 23017.9 1523.35   1
   1   2 -10 22081.5 1187.09  -2
  -1 -11   1 22081.5 1187.09   1
  -1  -1  10 11220.7 771.823  -2
   1  11   0 11220.7 771.823   1
  -1   0  10 15143.9 1500.46  -2
   1  11   1 15143.9 1500.46   1
  -1   1  10 32525.0 2055.18  -2
   1  11   2 32525.0 2055.18   1
  -1   2  10 32261.3 1592.21  -2
   1  11   3 32261.3 1592.21   1
  -1   3  10 2748.49 785.655  -2
   1  11   4 2748.49 785.655   1
  -1   4  10 1417.66 643.133  -2
   1  11   5 1417.66 643.133   1
  -1   5  10 2318.77 801.992  -2
   1  11   6 2318.77 801.992   1
  -1   6  10 12067.7 1219.88  -2
   1  11   7 12067.7 1219.88   1
   1  -7 -10 18075.5 1386.66  -2
  -1 -11  -8 18075.5 1386.66   1
   1  12  -2 630.248 768.081   1
   1  12  -1 1182.35 483.335   1
   1   2 -11 1105.87 1091.61  -2
  -1 -12   1 1105.87 1091.61   1
  -1  -1  11 16028.0 1207.68  -2
   1  12   0 16028.0 1207.68   1
  -1   0  11 15377.3 1216.98  -2
   1  12   1 15377.3 1216.98   1
  -1   1  11 14976.3 1678.30  -2
   1  12   2 14976.3 1678.30   1
  -1   2  11 6638.75 1407.04  -2
   1  12   3 6638.75 1407.04   1
   1  -3 -11 1127.00 785.817  -2
  -1 -12  -4 1127.00 785.817   1
  -1   4  11 11502.2 1266.68  -2
   1  12   5 11502.2 1266.68   1
   1  -5 -11 7502.51 1591.07  -2
  -1 -12  -6 7502.51 1591.07   1
   1  13   0 5752.48 1210.99   1
   2 -11  -3 2092.08 657.990   1
   2 -11  -2 4254.54 730.041   1
  -2  11   1 2971.56 664.426   1
  -2  11   0 437.619 461.016   1
  -2  11  -1 1812.23 477.971   1
   2 -11   2 2135.25 905.334   1
  -2  11  -3 1948.92 498.256   1
   2 -11   4 503.026 776.423   1
   2 -10  -6 152.991 595.527   1
  -2  10   5 546.682 559.700   1
   2 -10  -4 1460.37 564.048   1
  -2  10   3 5124.92 694.626   1
  -2  10   2 1477.51 578.705   1
   2 -10  -1 2032.60 562.319   1
   2 -10   0 2082.50 547.544   1
  -2  10  -1 2760.90 465.950   1
  -2  10  -2 2631.30 432.495   1
  -2  10  -3 9284.99 679.047   1
   2 -10   4 4063.22 670.380   1
   2 -10   5 12823.1 1027.29   1
  -2   9   8 9152.51 1295.74   1
  -2   9   7 1800.06 566.034   1
  -2   9   6 529.819 478.344   1
   2  -9  -5 5011.60 682.727   1
  -2   9   4 12087.7 867.630   1
  -2   9   3 13040.2 882.659   1
  -2   9   2 238.710 334.256   1
   2  -9  -1 2459.33 524.293   1
  -2   9   0 1929.24 466.737   1
   2  -9   1 11983.6 490.491   1
  -2   9  -2 831.053 271.357   1
   2  -9   3 6813.69 560.529   1
   2  -9   4 10560.4 826.915   1
  -2   9  -5 9498.37 846.860   1
   2  -9   6 1486.18 811.057   1
   2  -5  10 19504.8 1820.66  -2
  -2   9  -6 19504.8 1820.66   1
  -2   6 -10 5695.18 1012.49  -2
   2  -9   7 5695.18 1012.49   1
   2  -8  -9 2346.55 984.508   1
   2  -8  -8 905.683 508.929   1
   2  -8  -7 611.885 476.334   1
  -2   8   6 4679.43 647.083   1
   2  -8  -5 18394.1 957.490   1
   2  -8  -4 2708.69 506.875   1
  -2   8   3 604.160 321.975   1
   2  -8  -2 28732.6 853.126   1
  -2   8   1 16784.9 846.288   1
  -2   8   0 3781.65 373.862   1
  -2   8  -1 3673.92 310.581   1
   2  -8   2 1867.24 269.508   1
   2  -8   3 407.620 294.565   1
   2  -8   4 5061.05 483.222   1
  -2   8  -5 3290.16 548.725   1
   2  -8   6 764.572 482.889   1
   2  -8   7 6050.69 624.646   1
   2  -7   9 6481.15 1000.69  -2
  -2   8  -8 6481.15 1000.69   1
   2  -7  -9 1467.09 589.962   1
  -2   7   8 869.456 382.829   1
  -2   7   7 376.451 439.369   1
  -2   7   6 3554.96 543.482   1
  -2   7   5 12217.1 588.520   1
  -2   7   4-101.515 280.731   1
  -2   7   3 421.802 275.371   1
  -2   7   2 731.186 278.924   1
   2  -7  -1 6263.65 374.110   1
   2  -7   0 756.436 224.303   1
  -2   7  -1 324.910 219.969   1
   2  -7   2 47417.6 756.239   1
   2  -7   3 8881.86 440.411   1
  -2   7  -4 6100.88 468.881   1
  -2   7  -5 666.584 423.595   1
   2  -7   6 1137.44 471.913   1
   2  -7   7 18681.5 857.294   1
   2  -7   8 26324.3 1259.70   1
  -2   7  -8 46870.0 2372.59  -2
   2  -7   8 46870.0 2372.59   1
  -2   8  -8 7607.19 1049.59  -2
   2  -7   9 7607.19 1049.59   1
   2  -6  -9-117.444 483.317   1
   2  -6  -8 242.664 412.774   1
   2  -6  -7 248.618 412.675   1
   2  -6  -6 7638.24 465.438   1
   2  -6  -5 6979.45 442.980   1
  -2   6   4 3567.21 351.607   1
  -2   6   3 66884.6 1075.53   1
  -2   6   2 30314.4 440.117   1
  -2   6   1 18126.2 514.613   1
   2  -6   0 832.454 194.300   1
   2  -6   1 28986.2 599.740   1
  -2   6  -2 20066.9 475.265   1
   2  -6   3 12761.7 457.942   1
  -2   6  -4 1338.25 297.366   1
  -2   6  -5 21.3987 353.903   1
  -2   6  -6 12243.1 635.285   1
  -2   6  -7 9371.43 621.935   1
  -2   6  -8 497.136 415.636   1
   2  -6   9 163.491 459.093   1
   2  -9   7 6993.37 1510.22  -2
  -2   6 -10 6993.37 1510.22   1
   2  12   7 342.093 974.232  -2
  -2   5  10 342.093 974.232   1
  -2   5   9 3935.07 588.677   1
  -2   5   8 6987.33 670.595   1
  -2   5   7 15565.3 546.105   1
  -2   5   6 1035.99 277.732   1
  -2   5   5 3629.31 342.147   1
  -2   5   4 17267.1 557.929   1
   2  -5  -3 875.707 121.288   1
  -2   5   2 22508.7 431.127   1
   2  -5  -1 2151.40 213.302   1
  -2   5   0 22327.9 472.043   1
  -2   5  -1 104972. 1006.55   1
   2  -5   2 3692.43 227.025   1
  -2   5  -3 3766.92 261.398   1
   2  -5   4 6231.04 493.641   1
  -2   5  -5 29704.9 963.688   1
  -2   5  -6 12081.3 585.021   1
  -2   5  -7 7548.18 526.419   1
   2  -5   8 2080.96 403.177   1
  -2   5  -9 1270.22 408.166   1
   2  -5  10 18565.5 1134.09   1
   2  -9   6 22129.0 1748.64  -2
  -2   5 -10 22129.0 1748.64   1
   2  -4 -11 2339.51 748.514   1
  -2 -12  -6 4826.10 741.738  -2
   2  -4 -10 4826.10 741.738   1
   2  -4  -9 10842.8 1104.19   1
   2  11   6 19268.5 1494.91  -2
  -2   4   9 19268.5 1494.91   1
  -2   4   8 11709.9 606.731   1
  -2   4   7 11805.9 462.305   1
  -2   4   6 1238.16 260.202   1
  -2   4   5 12475.0 479.959   1
   2  -4  -4 15731.2 498.787   1
  -2   4   3 887.449 112.659   1
   2  -4  -2 985.168 138.794   1
  -2   4   1 56224.5 706.241   1
   2  -4   0 80696.8 784.490   1
  -2   4  -1 354.640 142.120   1
   2  -4   2 32468.9 477.339   1
   2  -4   3 249.447 154.954   1
   2  -4   4 48754.4 1056.40   1
   2  -4   5 25886.8 839.201   1
   2  -4   6 2605.27 340.075   1
  -2   4  -7 7699.48 496.826   1
  -2   4  -8 4901.92 479.877   1
  -2   4  -9 2216.15 413.547   1
   2  -4  10 14361.2 958.588   1
   2  -9   5 21284.1 1682.26  -2
  -2   4 -10 21284.1 1682.26   1
   2  -4  11 4371.55 762.915   1
   2 -10   5 17649.1 1716.63  -2
  -2   4 -11 17649.1 1716.63   1
  -2 -12  -5 1164.28 631.627  -2
   2  -3 -10 1164.28 631.627   1
  -2 -11  -5 10001.5 652.017  -2
   2  -3  -9 10001.5 652.017   1
  -2   3   8 11974.1 705.700   1
   2  10   5 17457.3 1251.36  -2
  -2   3   8 17457.3 1251.36   1
   2  -3  -7 1564.72 283.792   1
   2  -3  -6 37003.1 666.272   1
  -2   3   5 4715.89 215.183   1
   2  -3  -4 19031.0 356.692   1
   2  -3  -3 784.582 118.805   1
   2  -3  -2 828.183 121.746   1
  -2   3   1 33824.1 453.186   1
   2  -3   0 304304. 1362.55   1
   2  -3   1 39453.1 515.001   1
   2  -3   2 1671.28 158.655   1
   2  -3   3 4449.61 217.593   1
  -2   3  -4 77724.6 1215.66   1
   2  -3   5 30613.0 684.698   1
   2  -3   6 6044.64 384.588   1
  -2   3  -7 4520.35 390.935   1
   2  -3   8 15564.4 645.000   1
   2  -3   9 8311.80 574.290   1
   2  -3  10 765.458 389.604   1
   2  -3  11 281.713 516.322   1
   2 -10   4 2403.80 1138.88  -2
  -2   3 -11 2403.80 1138.88   1
   2  -3  12 2737.75 853.387   1
  -2 -13  -4 2933.64 847.015  -2
   2  -2 -11 2933.64 847.015   1
  -2 -12  -4 7201.54 684.164  -2
   2  -2 -10 7201.54 684.164   1
  -2 -11  -4 3679.82 416.682  -2
   2  -2  -9 3679.82 416.682   1
  -2 -10  -4 4031.14 459.623  -2
   2  -2  -8 4031.14 459.623   1
  -2   2   7 16260.5 730.786   1
   2   9   4 27159.0 1333.14  -2
  -2   2   7 27159.0 1333.14   1
   2  -2  -6 31754.8 490.299   1
  -2   2   5 3668.13 131.484   1
  -2   2   4 19660.3 343.049   1
  -2   2   3 17514.0 334.096   1
  -2   2   2 52594.3 370.197   1
   2  -2  -1 113804. 763.014   1
  -2   2   0 17365.4 313.456   1
   2  -2   1 981.446 142.118   1
  -2   2  -2 190950. 981.222   1
  -2   2  -3 213304. 1240.68   1
  -2   2  -4 98948.0 1014.59   1
  -2   2  -5 4710.11 297.621   1
  -2   2  -6 19773.7 479.857   1
  -2   2  -7 1679.29 239.975   1
  -2   2  -8 5770.23 356.172   1
   2  -2   9 7674.55 434.501   1
   2  -2  10 633.469 279.056   1
   2  -2  11 1597.37 431.832   1
   2  -2  12 1012.52 464.298   1
  -2 -13  -3 1355.37 695.563  -2
   2  -1 -11 1355.37 695.563   1
   2  12   3 4595.30 669.201  -2
  -2   1  10 4595.30 669.201   1
  -2 -11  -3 2265.04 386.205  -2
   2  -1  -9 2265.04 386.205   1
   2  10   3 7581.34 457.850  -2
  -2   1   8 7581.34 457.850   1
   2  -1  -7 31586.5 1089.74   1
  -2  -9  -3 30790.2 787.577  -2
   2  -1  -7 30790.2 787.577   1
  -2   1   6 45350.5 625.303   1
   2   8   3 98333.9 2062.06  -2
  -2   1   6 98333.9 2062.06   1
  -2   1   5 12321.7 251.602   1
  -2   1   4 14010.3 171.734   1
  -2   1   3 12255.2 248.932   1
  -2   1   2 5969.21 197.914   1
  -2   1   1 3226.95 148.731   1
  -2   1   0 10530.5 229.878   1
   2  -1   1 29789.9 401.767   1
   2  -1   2 294014. 1205.47   1
   2  -1   3 50846.0 380.658   1
   2  -1   4 13145.7 240.158   1
   2  -1   5 8656.88 264.165   1
   2  -1   6 6305.68 264.378   1
   2  -1   7 66421.7 787.012   1
   2  -1   8 24917.0 550.788   1
   2  -1   9 131.058 243.358   1
  -2   1 -10 1913.52 316.684   1
   2  -1  11 946.735 378.940   1
  -2   1 -12 3306.97 683.952   1
  -2 -13  -2 2980.55 1160.85  -2
   2   0 -11 2980.55 1160.85   1
  -2 -12  -2 5812.34 1232.03  -2
   2   0 -10 5812.34 1232.03   1
   2  11   2 848.934 369.110  -2
  -2   0   9 848.934 369.110   1
   2  10   2 3672.41 311.496  -2
  -2   0   8 3672.41 311.496   1
  -2  -9  -2 5266.02 293.540  -2
   2   0  -7 5266.02 293.540   1
   2   0  -6 3549.10 510.920   1
   2   8   2 3541.65 297.137  -2
  -2   0   6 3541.65 297.137   1
  -2   0   5 1822.27 220.828   1
   2   7   2 23099.2 984.356  -2
  -2   0   5 23099.2 984.356   1
   2   0  -4 237705. 844.857   1
  -2   0   3 56696.6 418.039   1
  -2   0   2 24853.8 298.391   1
   2   0  -1 32633.3 324.792   1
   2   0   0 17027.9 190.056   1
   2   0   1 21123.6 206.011   1
  -2   0  -2 761787. 4627.42   1
   2   0   3 76020.1 522.591   1
  -2   0  -4 109559. 716.500   1
  -2   0  -5 56175.4 413.582   1
  -2   0  -6 43566.2 427.768   1
   2   0   7 11910.0 271.172   1
   2   0   8 1671.65 182.438   1
  -2   0  -9 2934.62 278.781   1
  -2   0 -10 965.004 243.235   1
  -2   0 -11 4226.52 368.792   1
  -2   0 -12-173.193 552.146   1
  -2 -13  -1 7235.01 1379.84  -2
   2   1 -11 7235.01 1379.84   1
   2  12   1 15326.7 1354.98  -2
  -2  -1  10 15326.7 1354.98   1
   2  11   1 32649.3 1273.22  -2
  -2  -1   9 32649.3 1273.22   1
   2  10   1 7047.92 443.969  -2
  -2  -1   8 7047.92 443.969   1
   2   9   1 8168.22 363.239  -2
  -2  -1   7 8168.22 363.239   1
  -2  -8  -1 4210.83 276.929  -2
   2   1  -6 4210.83 276.929   1
  -2  -1   5 24192.2 447.728   1
   2   7   1 43241.1 665.766  -2
  -2  -1   5 43241.1 665.766   1
   2   1  -4 79615.5 601.068   1
  -2  -1   3 204338. 908.050   1
  -2  -1   2 13243.0 179.363   1
   2   1  -1 5350.59 126.098   1
  -2  -1   0 180734. 741.667   1
  -2  -1  -1 1479.65 64.3415   1
  -2  -1  -2 167.266 64.5491   1
  -2  -1  -3 107374. 681.528   1
   2   1   4 14610.8 268.383   1
   2   1   5 179335. 688.308   1
  -2  -1  -6 66793.3 509.631   1
   2   1   7 497.368 87.0963   1
   2   1   8 194.932 145.523   1
   2   1   9 21900.6 539.318   1
   2   1  10 9784.38 431.004   1
  -2  -1 -11 2927.07 443.084   1
   2   1  12 109.658 401.520   1
   2  12   0 13811.8 1119.99  -2
  -2  -2  10 13811.8 1119.99   1
  -2 -11   0 26030.6 1193.75  -2
   2   2  -9 26030.6 1193.75   1
   2  10   0 1209.49 428.655  -2
  -2  -2   8 1209.49 428.655   1
   2   9   0 1980.58 365.951  -2
  -2  -2   7 1980.58 365.951   1
  -2  -8   0 21172.6 554.317  -2
   2   2  -6 21172.6 554.317   1
   2   7   0 42575.6 497.095  -2
  -2  -2   5 42575.6 497.095   1
   2   2  -4 13332.4 343.929   1
   2   6   0 28578.2 602.424  -2
  -2  -2   4 28578.2 602.424   1
  -2  -2   3 5651.33 189.645   1
  -2  -2   2 78036.1 405.370   1
   2   2  -1 240179. 766.112   1
  -2  -2   0 16494.4 190.650   1
   2   2   1 139416. 507.530   1
  -2  -2  -2 2001.24 94.7019   1
  -2  -2  -3 4000.43 134.537   1
   2   2   4 19990.4 206.781   1
   2   2   5 65594.7 451.223   1
   2   2   6 15149.9 244.898   1
  -2  -2  -7 708.757 97.7767   1
   2   2   8 19775.0 467.325   1
  -2  -2  -9 290.055 180.949   1
   2   2  10 8677.33 547.658   1
  -2  -2 -11 272.118 328.001   1
  -2  -2 -12 5095.53 561.495   1
  -2  -2 -13 1562.66 756.573   1
   2  12  -1 9284.16 1794.88  -2
  -2  -3  10 9284.16 1794.88   1
  -2 -11   1 4743.29 543.487  -2
   2   3  -9 4743.29 543.487   1
   2  10  -1 29701.4 1198.22  -2
  -2  -3   8 29701.4 1198.22   1
  -2  -9   1 29501.6 1076.99  -2
   2   3  -7 29501.6 1076.99   1
   2   8  -1 21842.5 1046.60  -2
  -2  -3   6 21842.5 1046.60   1
   2   7  -1 3971.52 214.735  -2
  -2  -3   5 3971.52 214.735   1
   2   6  -1 471.608 182.927  -2
  -2  -3   4 471.608 182.927   1
   2   3  -3 385.015 69.2447   1
   2   5  -1 10281.0 362.019  -2
  -2  -3   3 10281.0 362.019   1
   2   3  -2 3622.86 131.280   1
   2   3  -1 627681. 3029.14   1
  -2  -3   0 393268. 1465.69   1
   2   3   1 23767.9 232.560   1
   2   3   2 1462.80 63.5581   1
  -2  -3  -3 2163.47 116.298   1
  -2  -3  -4 51704.7 331.914   1
  -2  -3  -5 62381.9 497.250   1
   2   3   6 2714.77 134.018   1
   2   3   7 237.145 90.5983   1
   2   3   8 63411.0 660.449   1
  -2  -3  -9 1846.30 302.392   1
  -2  -3 -10 7149.20 625.862   1
   2   3  11 2941.92 431.675   1
   2   3  12 7789.02 645.931   1
  -2  -3 -13 408.038 690.659   1
   2  11  -2 10646.4 905.270  -2
  -2  -4   9 10646.4 905.270   1
   2  10  -2 19171.7 1050.68  -2
  -2  -4   8 19171.7 1050.68   1
  -2  -9   2 47103.4 1415.93  -2
   2   4  -7 47103.4 1415.93   1
  -2  -8   2 74899.9 1970.69  -2
   2   4  -6 74899.9 1970.69   1
   2   7  -2 10975.9 528.983  -2
  -2  -4   5 10975.9 528.983   1
   2   6  -2 40963.8 765.760  -2
  -2  -4   4 40963.8 765.760   1
   2   4  -3 19317.8 454.964   1
  -2  -5   2 34567.1 711.300  -2
   2   4  -3 34567.1 711.300   1
   2   4  -2 89814.6 768.379   1
   2   4  -2 180979. 1689.20  -2
  -2  -4   2 180979. 1689.20   1
   2   4  -1 13521.4 265.560   1
   2   4   0 97793.1 537.391   1
   2   4   1 52053.3 542.926   1
   2   4   2 16524.5 259.804   1
  -2  -4  -3 127010. 818.085   1
  -2  -4  -4 30671.1 369.066   1
   2   4   5 27383.0 434.543   1
   2   4   6 13270.1 260.982   1
   2   4   7 8159.31 216.936   1
  -2  -4  -8 47096.8 725.118   1
  -2  -4  -9 137.070 268.799   1
   2   4  10 8662.40 515.372   1
   2   4  11 7318.71 687.491   1
  -2  -4 -12 2467.80 476.061   1
  -2  -4 -13 106.778 740.032   1
  -2 -12   3 3159.83 1071.23  -2
   2   5 -10 3159.83 1071.23   1
   2  11  -3 11781.0 1191.31  -2
  -2  -5   9 11781.0 1191.31   1
   2  10  -3 24733.7 1215.18  -2
  -2  -5   8 24733.7 1215.18   1
  -2  -9   3 29267.0 1212.57  -2
   2   5  -7 29267.0 1212.57   1
  -2  -8   3 12377.9 790.681  -2
   2   5  -6 12377.9 790.681   1
   2   7  -3 39207.5 1073.40  -2
  -2  -5   5 39207.5 1073.40   1
   2   6  -3 7436.92 539.450  -2
  -2  -5   4 7436.92 539.450   1
  -2  -5   3 79278.6 791.829  -2
   2   5  -3 79278.6 791.829   1
  -2  -4   3 34621.3 472.563  -2
   2   5  -2 34621.3 472.563   1
  -2  -5   1 12088.5 670.019   1
  -2  -3   3 11275.9 320.399  -2
   2   5  -1 11275.9 320.399   1
   2   5   0 55.6922 124.771   1
  -2  -5  -1 117652. 1048.62   1
  -2  -5  -2 193606. 1128.51   1
  -2  -5  -3 2509.16 108.722   1
  -2  -5  -4 1252.88 136.481   1
  -2  -5  -5 2315.49 152.382   1
  -2  -5  -6 912.904 96.0254   1
  -2  -5  -7 3862.42 240.833   1
   2   5   8 330.723 208.408   1
  -2  -5  -9 2498.11 357.583   1
  -2  -5 -10 6124.70 498.227   1
   2   5  11 6212.19 696.220   1
   2   5  12 846.552 478.882   1
  -2 -11   4 106.734 1030.26  -2
   2   6  -9 106.734 1030.26   1
  -2 -10   4 2161.19 765.520  -2
   2   6  -8 2161.19 765.520   1
  -2  -9   4 10105.7 843.531  -2
   2   6  -7 10105.7 843.531   1
  -2  -8   4 22309.7 854.177  -2
   2   6  -6 22309.7 854.177   1
  -2  -7   4 101725. 1634.95  -2
   2   6  -5 101725. 1634.95   1
  -2  -6   4 28602.6 952.832  -2
   2   6  -4 28602.6 952.832   1
  -2  -5   4 8497.46 387.950  -2
   2   6  -3 8497.46 387.950   1
  -2  -4   4 40286.0 631.951  -2
   2   6  -2 40286.0 631.951   1
  -2  -3   4 547.466 187.782  -2
   2   6  -1 547.466 187.782   1
  -2  -2   4 28905.7 515.293  -2
   2   6   0 28905.7 515.293   1
   2   6   1 21631.9 533.229   1
   2   6   2 147409. 1093.25   1
   2   6   3 49264.5 623.660   1
   2   6   4 26375.5 450.214   1
   2   6   5 879.502 125.421   1
   2   6   6 13318.2 453.514   1
  -2  -6  -7 4657.30 278.727   1
  -2  -6  -8 625.607 254.101   1
  -2  -6  -9 3806.82 337.493   1
   2   6  10 9724.74 607.246   1
  -2  -6 -11 3346.29 629.795   1
   2   6  12 579.001 513.087   1
   2  10  -5 6263.31 980.758  -2
  -2  -7   8 6263.31 980.758   1
  -2  -9   5 5205.62 894.196  -2
   2   7  -7 5205.62 894.196   1
   2   8  -5 32692.5 1686.54  -2
  -2  -7   6 32692.5 1686.54   1
  -2  -7   5 35412.0 1219.30  -2
   2   7  -5 35412.0 1219.30   1
  -2  -6   5 104160. 1899.90  -2
   2   7  -4 104160. 1899.90   1
  -2  -5   5 40057.3 839.347  -2
   2   7  -3 40057.3 839.347   1
  -2  -4   5 10714.4 447.737  -2
   2   7  -2 10714.4 447.737   1
  -2  -3   5 4353.42 300.859  -2
   2   7  -1 4353.42 300.859   1
  -2  -2   5 41414.4 691.120  -2
   2   7   0 41414.4 691.120   1
  -2  -1   5 41390.9 770.653  -2
   2   7   1 41390.9 770.653   1
   2   7   2 24371.7 594.337   1
  -2  -7  -3 16715.7 426.959   1
   2   7   4 29493.2 518.304   1
   2   7   5 23533.9 623.931   1
   2   7   6 2295.70 282.729   1
   2   7   7 11042.8 472.153   1
   2   7   8 12178.9 567.260   1
   2   7   9 10392.8 574.063   1
   2   7  10 1796.56 395.135   1
   2   7  11 1721.01 542.619   1
  -2  -9   6 1653.39 852.638  -2
   2   8  -7 1653.39 852.638   1
  -2  -8   6 3237.30 799.814  -2
   2   8  -6 3237.30 799.814   1
  -2  -7   6 34897.6 2405.81  -2
   2   8  -5 34897.6 2405.81   1
   2   6  -6 21552.9 1026.93  -2
  -2  -8   4 21552.9 1026.93   1
   2   5  -6 13178.1 648.362  -2
  -2  -8   3 13178.1 648.362   1
   2   4  -6 75200.1 1213.52  -2
  -2  -8   2 75200.1 1213.52   1
  -2  -3   6 22519.3 652.041  -2
   2   8  -1 22519.3 652.041   1
  -2  -2   6 22117.3 636.806  -2
   2   8   0 22117.3 636.806   1
  -2  -1   6 3913.43 387.163  -2
   2   8   1 3913.43 387.163   1
  -2   0   6 3639.77 374.041  -2
   2   8   2 3639.77 374.041   1
   2   8   3 50517.1 854.456   1
   2  -1  -6 95141.0 2226.47  -2
  -2  -8  -3 95141.0 2226.47   1
  -2  -8  -4 13525.5 551.027   1
   2   8   5 36444.7 834.074   1
   2   8   6 2090.69 312.631   1
   2   8   7 9908.45 496.563   1
  -2  -8  -8 1564.78 355.370   1
  -2  -8  -9 643.730 322.008   1
  -2  -8 -10 288.118 466.143   1
   2   8  11 748.700 410.995   1
   2   8  -7 2414.82 781.439  -2
  -2  -9   6 2414.82 781.439   1
  -2  -7   7 6085.15 1255.94  -2
   2   9  -5 6085.15 1255.94   1
  -2  -6   7 10882.2 1556.53  -2
   2   9  -4 10882.2 1556.53   1
   2   5  -7 28341.6 1052.37  -2
  -2  -9   3 28341.6 1052.37   1
   2   4  -7 46455.0 1013.04  -2
  -2  -9   2 46455.0 1013.04   1
  -2  -3   7 30793.6 861.078  -2
   2   9  -1 30793.6 861.078   1
  -2  -2   7 1784.38 378.278  -2
   2   9   0 1784.38 378.278   1
  -2  -1   7 8567.75 537.279  -2
   2   9   1 8567.75 537.279   1
  -2   0   7 5151.27 446.911  -2
   2   9   2 5151.27 446.911   1
   2   9   3 410.061 350.057   1
  -2   1   7 28845.5 822.504  -2
   2   9   3 28845.5 822.504   1
  -2  -9  -4 10935.0 562.855   1
   2   9   5 1263.67 334.287   1
  -2  -9  -6 8204.37 505.779   1
  -2  -9  -7 32475.6 877.772   1
  -2  -9  -8 3061.47 432.705   1
  -2  -9  -9 102.944 353.221   1
   2   9  10 481.724 507.379   1
   2   9  11 2885.14 953.146   1
  -2  -7   8 6560.52 1303.71  -2
   2  10  -5 6560.52 1303.71   1
  -2  -6   8 1901.07 1062.80  -2
   2  10  -4 1901.07 1062.80   1
   2   5  -8 25338.2 1253.19  -2
  -2 -10   3 25338.2 1253.19   1
   2   4  -8 20672.1 964.580  -2
  -2 -10   2 20672.1 964.580   1
  -2  -3   8 31685.5 971.150  -2
   2  10  -1 31685.5 971.150   1
  -2  -2   8 1571.28 406.211  -2
   2  10   0 1571.28 406.211   1
   2   1  -8 6643.52 592.567  -2
  -2 -10  -1 6643.52 592.567   1
  -2   0   8 3593.92 478.983  -2
   2  10   2 3593.92 478.983   1
   2  -1  -8 7855.73 718.426  -2
  -2 -10  -3 7855.73 718.426   1
   2  -2  -8 3609.82 515.839  -2
  -2 -10  -4 3609.82 515.839   1
  -2 -10  -5 3057.80 431.701   1
  -2 -10  -6 14024.7 677.508   1
   2  10   7 6809.37 531.157   1
  -2 -10  -8 10110.4 658.203   1
  -2 -10  -9 2201.90 472.540   1
   2  10  10 2863.90 958.505   1
   2   5  -9 12297.8 1226.69  -2
  -2 -11   3 12297.8 1226.69   1
   2   4  -9 11449.9 1187.77  -2
  -2 -11   2 11449.9 1187.77   1
  -2  -3   9 4190.62 582.477  -2
   2  11  -1 4190.62 582.477   1
  -2  -2   9 24287.7 1040.73  -2
   2  11   0 24287.7 1040.73   1
  -2  -1   9 34929.6 1301.57  -2
   2  11   1 34929.6 1301.57   1
  -2   0   9 396.971 614.345  -2
   2  11   2 396.971 614.345   1
  -2   1   9 2540.56 668.659  -2
   2  11   3 2540.56 668.659   1
  -2   2   9 4312.65 690.452  -2
   2  11   4 4312.65 690.452   1
   2  -3  -9 10693.9 711.613  -2
  -2 -11  -5 10693.9 711.613   1
  -2 -11  -6 9499.28 787.988   1
  -2   4   9 21032.5 1667.24  -2
   2  11   6 21032.5 1667.24   1
  -2 -11  -7 1778.24 559.257   1
  -2 -11  -8 685.872 430.756   1
  -2 -11  -9 6202.72 1177.14   1
  -2  -4  10 2356.47 1194.45  -2
   2  12  -2 2356.47 1194.45   1
   2   3 -10 9948.97 1150.99  -2
  -2 -12   1 9948.97 1150.99   1
  -2  -2  10 13316.0 918.033  -2
   2  12   0 13316.0 918.033   1
  -2  -1  10 17102.0 966.980  -2
   2  12   1 17102.0 966.980   1
  -2   0  10 6405.32 1007.11  -2
   2  12   2 6405.32 1007.11   1
  -2   1  10 5338.95 868.191  -2
   2  12   3 5338.95 868.191   1
   2  -2 -10 9294.88 966.339  -2
  -2 -12  -4 9294.88 966.339   1
  -2   3  10 719.439 700.074  -2
   2  12   5 719.439 700.074   1
  -2   4  10 4853.53 873.099  -2
   2  12   6 4853.53 873.099   1
  -2 -12  -7-48.3642 716.259   1
  -2  -1  11 5404.53 1498.00  -2
   2  13   1 5404.53 1498.00   1
  -2   0  11 4614.60 1363.48  -2
   2  13   2 4614.60 1363.48   1
  -2   1  11 1683.07 1190.04  -2
   2  13   3 1683.07 1190.04   1
   3 -11   0 13575.1 1624.30   1
   3 -11   1 10788.3 1450.01   1
  -3  -1 -13 14030.9 1639.42  -2
   3 -11   1 14030.9 1639.42   1
  -3   0 -13 7381.89 1401.60  -2
   3 -11   2 7381.89 1401.60   1
  -3   1 -13 2193.34 1220.04  -2
   3 -11   3 2193.34 1220.04   1
  -3  10   4 963.529 575.155   1
  -3  10   3 726.529 554.189   1
   3 -10  -2 1469.19 573.871   1
  -3  10   1 12576.7 791.877   1
   3 -10   0 7056.52 660.158   1
   3 -10   1 6832.24 786.951   1
  -3  10  -2 2443.14 618.366   1
  -3   0 -12 5018.43 1132.87  -2
   3 -10   2 5018.43 1132.87   1
   3 -10   3 3573.54 815.711   1
  -3   1 -12 3186.32 835.915  -2
   3 -10   3 3186.32 835.915   1
   3 -10   4 6434.92 1079.76   1
   3  -2  12 9494.60 1620.64  -2
  -3  10  -4 9494.60 1620.64   1
  -3   3 -12 5472.97 1193.56  -2
   3 -10   5 5472.97 1193.56   1
   3  -9  -6 25767.9 1294.11   1
   3  -9  -5 3539.78 655.378   1
   3  -9  -4 237.152 549.799   1
  -3   9   3 129.514 514.894   1
  -3   9   2 1004.77 389.714   1
   3  -9  -1 11255.9 700.452   1
  -3   9   0 238.815 457.273   1
   3  -9   1 158.044 404.007   1
  -3   9  -2 2980.40 443.537   1
  -3   0 -11 4274.89 967.757  -2
   3  -9   2 4274.89 967.757   1
   3  -9   3 6782.84 665.903   1
   3  -1  11 14954.4 1039.61  -2
  -3   9  -3 14954.4 1039.61   1
   3  -9   4 3118.06 832.502   1
  -3   2 -11 12756.6 1091.56  -2
   3  -9   4 12756.6 1091.56   1
   3  -9   5 1301.58 691.385   1
   3  -3  11 6430.65 1290.84  -2
  -3   9  -5 6430.65 1290.84   1
  -3   4 -11 2027.91 740.324  -2
   3  -9   6 2027.91 740.324   1
  -3   5 -11 2012.01 1113.58  -2
   3  -9   7 2012.01 1113.58   1
  -3   8   7 3704.26 665.507   1
  -3   8   6 6889.82 761.919   1
   3  -8  -5 1755.74 529.685   1
  -3   8   4 939.692 469.604   1
  -3   8   3 12764.7 675.496   1
  -3   8   2 4804.16 497.580   1
   3  -8  -1 3593.67 447.491   1
   3  -8   0 1649.87 464.558   1
  -3   8  -1 182.589 235.037   1
   3  -8   2 28568.4 764.683   1
   3  -8   3 38135.8 1019.44   1
  -3   1 -10 48477.1 2008.77  -2
   3  -8   3 48477.1 2008.77   1
   3  -8   4 4945.51 608.932   1
  -3   2 -10 11257.2 1241.27  -2
   3  -8   4 11257.2 1241.27   1
   3  -8   5 553.613 643.458   1
   3  -3  10 8867.96 1257.89  -2
  -3   8  -5 8867.96 1257.89   1
   3  -8   6 979.053 656.642   1
   3  -4  10 824.561 1058.50  -2
  -3   8  -6 824.561 1058.50   1
  -3   5 -10 1772.81 673.112  -2
   3  -8   7 1772.81 673.112   1
  -3   6 -10 4829.31 1485.35  -2
   3  -8   8 4829.31 1485.35   1
   3  -7  -8 103.039 795.106   1
  -3   7   7 2593.58 560.796   1
  -3   7   6 2385.41 540.797   1
  -3   7   5 289.457 330.939   1
  -3   7   4 17716.2 720.563   1
  -3   7   3 62815.0 1217.41   1
  -3   7   2 6591.10 489.776   1
  -3   7   1 4958.02 444.118   1
   3  -7   0 7171.97 440.759   1
   3  -7   1 8274.77 422.743   1
   3  -7   2 19435.7 597.167   1
   3  -7   3 2494.25 361.498   1
  -3   1  -9 27821.7 1427.32  -2
   3  -7   3 27821.7 1427.32   1
   3  -7   4 230.294 339.034   1
  -3   2  -9 5120.35 674.192  -2
   3  -7   4 5120.35 674.192   1
   3  -7   5 2916.03 680.287   1
   3  -3   9 5782.67 1114.43  -2
  -3   7  -5 5782.67 1114.43   1
   3  -7   6 14662.4 1242.95   1
   3  -4   9 31276.5 1985.50  -2
  -3   7  -6 31276.5 1985.50   1
   3  -7   7 3041.26 791.339   1
   3  -5   9 4081.97 805.457  -2
  -3   7  -7 4081.97 805.457   1
   3  -6   9 80.7535 597.660  -2
  -3   7  -8 80.7535 597.660   1
  -3   7  -9 693.645 1173.89  -2
   3  -7   9 693.645 1173.89   1
   3  -6  -9 5987.35 1163.08   1
   3  -6  -8 2521.35 807.111   1
  -3   6   7 1720.85 373.246   1
  -3   6   6 87.4093 296.615   1
  -3   6   5 12455.9 612.134   1
  -3   6   4 54614.7 1089.97   1
  -3   6   3 41033.0 934.978   1
  -3   6   2 528.408 281.501   1
  -3   6   1 365.123 193.578   1
  -3   6   0 606.046 205.171   1
   3  -6   1 462.485 212.723   1
   3  -6   2 2717.29 274.525   1
   3  -6   3 707.878 229.281   1
   3  -6   4 23587.1 722.880   1
   3  -6   5 12964.5 764.442   1
   3  -6   6 9975.64 742.235   1
  -3   4  -8 23166.3 1459.43  -2
   3  -6   6 23166.3 1459.43   1
   3  -6   7 685.648 659.688   1
  -3   5  -8 12033.9 922.582  -2
   3  -6   7 12033.9 922.582   1
   3  -6   8 4752.63 895.554   1
  -3   6  -8 9236.48 956.898  -2
   3  -6   8 9236.48 956.898   1
   3  -7   8 919.011 575.966  -2
  -3   6  -9 919.011 575.966   1
  -3   8  -8 5142.57 1508.60  -2
   3  -6  10 5142.57 1508.60   1
   3  -5  -9 5244.20 1033.46   1
   3  -5  -8 1095.15 621.922   1
   3  -5  -7 210.149 318.763   1
   3  -5  -6 426.658 297.670   1
   3  -5  -5 773.314 286.374   1
   3  -5  -4 23667.1 706.893   1
  -3   5   3 136.463 251.050   1
  -3   5   2 3321.03 237.410   1
   3  -5  -1 62014.1 795.466   1
   3  -5   0 113675. 1096.25   1
  -3   5  -1 6799.95 327.602   1
  -3   5  -2 4822.25 287.893   1
   3  -5   3 290.146 186.476   1
   3  -5   4 584.608 194.268   1
  -3   5  -5 36659.5 1095.82   1
   3  -5   6 6464.55 609.706   1
  -3   4  -7 34423.9 1571.61  -2
   3  -5   6 34423.9 1571.61   1
   3  -5   7 2394.67 651.373   1
   3  -5   7 3166.33 640.313  -2
  -3   5  -7 3166.33 640.313   1
   3  -5   8 10052.7 1073.45   1
  -3   6  -7 11885.1 931.259  -2
   3  -5   8 11885.1 931.259   1
   3  -5   9 237.171 621.053   1
  -3   7  -7 3351.38 787.059  -2
   3  -5   9 3351.38 787.059   1
  -3   8  -7 1656.64 697.349  -2
   3  -5  10 1656.64 697.349   1
   3  -4 -10 6194.82 1104.88   1
   3  -4  -9 6083.94 990.683   1
   3  -4  -8-37.8057 306.871   1
  -3   4   7 572.848 301.859   1
  -3   4   6 30088.9 692.611   1
   3  -4  -5 15867.7 580.326   1
  -3   4   4 15665.7 559.787   1
  -3   4   3 116.502 139.860   1
   3  -4  -2 10926.0 333.688   1
  -3   4   1 35214.2 570.474   1
  -3   4   0 155501. 1187.56   1
  -3   4  -1 247.669 186.891   1
   3  -4   2 398.007 158.663   1
  -3   4  -3 2209.27 210.627   1
   3  -4   4 198.803 195.953   1
   3  -4   5 16849.5 733.185   1
   3  -4   6 23220.8 728.738   1
   3  -4   7 28413.0 1000.93   1
   3  -5   6 33123.3 1668.84  -2
  -3   4  -7 33123.3 1668.84   1
   3  -4   8 16088.7 1193.24   1
   3  -6   6 24098.5 1100.72  -2
  -3   4  -8 24098.5 1100.72   1
   3  -4   9 18833.5 1350.25   1
  -3   7  -6 31458.5 1342.34  -2
   3  -4   9 31458.5 1342.34   1
   3  -4  10 109.373 645.599   1
  -3   8  -6 929.717 710.013  -2
   3  -4  10 929.717 710.013   1
  -3   9  -6 790.572 595.735  -2
   3  -4  11 790.572 595.735   1
   3  -3 -10 1161.62 676.701   1
   3  -3  -9 1750.98 503.992   1
  -3   3   8 8329.88 554.314   1
  -3   3   7 30145.5 849.176   1
   3  -3  -6 27481.2 628.899   1
  -3   3   5 620.358 199.566   1
  -3   3   4 126.597 136.977   1
   3  -3  -3 5249.05 244.372   1
  -3   3   2 127462. 1001.72   1
  -3   3   1 142173. 1056.12   1
  -3   3   0 281.673 142.423   1
   3  -3   1 8372.84 330.697   1
   3  -3   2 48366.1 605.400   1
   3  -3   3 7076.92 271.117   1
   3  -3   4 333.829 165.354   1
   3  -3   5 81.0645 202.750   1
   3  -3   6 7886.71 431.147   1
   3  -3   7 2289.64 339.441   1
   3  -3   8 3592.91 673.069   1
  -3   6  -5 15978.5 884.276  -2
   3  -3   8 15978.5 884.276   1
   3  -3   9 1000.38 600.847   1
   3  -7   5 3939.67 676.305  -2
  -3   3  -9 3939.67 676.305   1
   3  -3  10 6679.84 968.502   1
  -3   8  -5 8520.80 910.546  -2
   3  -3  10 8520.80 910.546   1
   3  -3  11 3286.58 857.943   1
  -3   9  -5 6021.68 943.278  -2
   3  -3  11 6021.68 943.278   1
  -3  10  -5 3808.30 1124.65  -2
   3  -3  12 3808.30 1124.65   1
  -3   2  10 1159.59 703.488   1
   3  -2  -9 91.1717 333.862   1
   3  -2  -8 21232.2 776.123   1
  -3   2   7 18407.1 671.118   1
   3  -2  -6 32509.0 797.297   1
  -3   2   5 202.633 136.374   1
  -3   2   4 12051.8 311.413   1
  -3   2   3 423.773 138.909   1
  -3   2   2 1277.35 155.347   1
   3  -2  -1 3809.08 231.748   1
  -3   2   0 10995.2 302.806   1
   3  -2   1 8791.58 312.108   1
  -3   2  -2 213846. 1107.47   1
   3  -2   3 42595.3 622.611   1
   3  -2   4 10493.5 292.083   1
   3  -2   5 3287.22 272.172   1
   3  -2   6 4205.97 323.662   1
   3  -2   7 4807.21 377.347   1
   3  -2   8 19396.9 835.695   1
   3  -6   4 44649.8 1784.53  -2
  -3   2  -8 44649.8 1784.53   1
   3  -2   9 4709.00 543.662   1
   3  -7   4 6031.80 1004.18  -2
  -3   2  -9 6031.80 1004.18   1
   3  -2  10 7830.72 915.521   1
  -3   8  -4 13037.6 961.978  -2
   3  -2  10 13037.6 961.978   1
   3  -2  11 11085.6 1186.06   1
   3  -9   4 15557.0 1129.56  -2
  -3   2 -11 15557.0 1129.56   1
   3  -2  12 1396.95 777.695   1
   3 -10   4 8723.53 1034.17  -2
  -3   2 -12 8723.53 1034.17   1
  -3   1  10-66.7805 498.293   1
  -3   1   9 2456.89 404.272   1
   3  -1  -8 30019.9 890.548   1
   3  -1  -7 3577.45 367.247   1
  -3   1   6 5365.20 307.390   1
   3  -1  -5 8409.56 335.177   1
   3  -1  -4 20043.0 352.152   1
   3  -1  -3 54713.6 648.669   1
  -3   1   2 65122.0 644.734   1
   3  -1  -1 16402.3 405.554   1
  -3   1   0 984.157 132.077   1
   3  -1   1 93454.9 828.121   1
   3  -1   2 93210.4 825.042   1
   3  -1   3 38569.3 436.482   1
   3  -1   4 13830.3 279.794   1
  -3   1  -5 52968.7 527.710   1
   3  -1   6 1555.32 119.645   1
  -3   1  -7 10305.5 394.453   1
   3  -1   8 362.273 219.188   1
  -3   1  -9 25523.3 764.545   1
   3  -7   3 25875.8 1484.72  -2
  -3   1  -9 25875.8 1484.72   1
   3  -1  10 16397.1 696.738   1
   3  -8   3 52441.7 2147.15  -2
  -3   1 -10 52441.7 2147.15   1
   3  -1  11 6997.29 714.969   1
   3  -9   3 14338.1 943.090  -2
  -3   1 -11 14338.1 943.090   1
   3  -1  12-646.766 664.866   1
  -3  10  -3 5268.79 901.033  -2
   3  -1  12 5268.79 901.033   1
  -3   0  10 768.043 798.675   1
  -3 -13  -3 14530.9 1433.25  -2
   3   0 -10 14530.9 1433.25   1
  -3   0   9 5362.20 523.564   1
   3   0  -8 8687.66 546.284   1
   3   0  -7 1518.16 232.125   1
   3   0  -6 2488.65 194.631   1
  -3   0   5 86044.9 753.174   1
  -3   0   4 104239. 699.154   1
  -3   0   3 108698. 734.933   1
  -3   0   2 37774.5 464.112   1
  -3   0   1 92.6253 77.6317   1
  -3   0   0 14152.4 268.287   1
   3   0   1 23719.9 247.869   1
   3   0   2 33477.4 256.155   1
   3   0   3 175207. 727.025   1
   3   0   4 116373. 530.869   1
  -3   0  -5 12404.7 331.449   1
   3   0   6 1054.35 159.665   1
   3   0   7 1169.35 183.289   1
  -3   0  -8 3602.50 261.085   1
   3   0   9 12436.2 448.682   1
   3   0  10 3093.60 348.769   1
   3  -8   2 31962.0 1684.16  -2
  -3   0 -10 31962.0 1684.16   1
  -3   0 -11 1852.33 338.607   1
   3  -9   2 4944.39 1093.76  -2
  -3   0 -11 4944.39 1093.76   1
   3 -10   2 6370.40 791.116  -2
  -3   0 -12 6370.40 791.116   1
  -3  -1   9 15759.4 1357.56   1
   3  12   2 16004.7 834.561  -2
  -3  -1   9 16004.7 834.561   1
  -3  -1   8 577.847 233.656   1
   3   1  -7 91.8393 172.496   1
  -3  -1   6 81.3835 195.667   1
  -3  -1   5 41950.9 607.985   1
   3   1  -4 1955.28 93.7234   1
  -3  -1   3 5808.63 150.252   1
  -3  -1   2 73187.2 668.584   1
  -3  -1   1 11447.2 210.418   1
   3   1   0 570.135 69.7047   1
  -3  -1  -1 17751.1 246.832   1
  -3  -1  -2 20429.5 219.411   1
  -3  -1  -3 7085.67 208.381   1
  -3  -1  -4 199629. 969.154   1
   3   1   5 42508.5 563.852   1
   3   1   6 33197.9 498.553   1
   3   1   7 43516.8 618.746   1
  -3  -1  -8 17330.5 449.116   1
  -3  -1  -9 4838.02 272.113   1
  -3  -1 -10 770.456 233.408   1
  -3  -1 -11 156.564 265.831   1
  -3  -1 -12 14689.3 976.457   1
   3 -10   1 22835.6 1790.10  -2
  -3  -1 -12 22835.6 1790.10   1
   3 -11   1 16055.6 1548.34  -2
  -3  -1 -13 16055.6 1548.34   1
   3  12   1 462.772 618.364  -2
  -3  -2   9 462.772 618.364   1
   3   2  -8-179.644 440.432   1
   3  11   1 7910.90 789.701  -2
  -3  -2   8 7910.90 789.701   1
   3   2  -7 3511.70 297.473   1
   3   2  -6 28131.3 584.880   1
   3   2  -5 21627.2 427.623   1
  -3  -2   4 8060.70 236.201   1
   3   2  -3 11299.6 255.084   1
  -3  -2   2 35303.7 443.098   1
  -3  -2   1 174661. 1008.70   1
  -3  -2   0 245537. 1101.03   1
  -3  -2  -1 3270.39 185.525   1
  -3  -2  -2 15857.7 231.907   1
  -3  -2  -3 36859.3 375.569   1
  -3  -2  -4 48137.8 376.731   1
  -3  -2  -5 7182.89 151.737   1
  -3  -2  -6 67562.0 653.469   1
   3   2   7 41730.5 553.027   1
   3   2   8 46615.8 611.671   1
   3   2   9 38.7969 181.985   1
  -3  -2 -10 982.435 217.532   1
  -3  -2 -11 6365.94 537.074   1
   3   2  12 15864.6 816.980   1
  -3  -2 -13 4347.75 610.035   1
   3  12   0 2739.36 790.037  -2
  -3  -3   9 2739.36 790.037   1
   3   3  -8 2419.08 569.560   1
   3  11   0 3715.65 1060.57  -2
  -3  -3   8 3715.65 1060.57   1
   3   3  -7 14571.9 801.072   1
  -3 -10   0 22209.3 969.774  -2
   3   3  -7 22209.3 969.774   1
   3   3  -6 18722.8 630.752   1
   3   9   0 27513.4 1463.45  -2
  -3  -3   6 27513.4 1463.45   1
  -3  -3   5 853.210 163.506   1
  -3  -3   4 13188.5 262.853   1
  -3  -3   3 71619.1 507.239   1
  -3  -3   2 110810. 604.752   1
   3   3  -1 543.556 56.9691   1
   3   3   0 61.8534 69.0954   1
  -3  -3  -1 272524. 1107.59   1
  -3  -3  -2 2185.82 129.851   1
  -3  -3  -3 22075.1 305.789   1
  -3  -3  -4 1786.70 112.800   1
  -3  -3  -5 1574.43 111.472   1
  -3  -3  -6 152100. 779.871   1
   3   3   7 72407.2 562.324   1
  -3  -3  -8 10618.8 307.013   1
  -3  -3  -9 14.1378 177.989   1
   3   3  10 13308.6 523.515   1
  -3  -3 -11-39.9204 353.496   1
   3   3  12 743.813 402.723   1
  -3  -3 -13-37.8616 433.764   1
   3  12  -1 15507.2 1208.05  -2
  -3  -4   9 15507.2 1208.05   1
  -3 -11   1 31216.7 1344.60  -2
   3   4  -8 31216.7 1344.60   1
   3   4  -7 16213.2 1198.06   1
   3  10  -1 16438.0 898.993  -2
  -3  -4   7 16438.0 898.993   1
   3   4  -6 9200.42 884.328   1
   3   9  -1 8733.41 651.772  -2
  -3  -4   6 8733.41 651.772   1
   3   4  -5 4290.81 262.148   1
  -3  -4   4 11084.2 337.739   1
   3   4  -3 1967.11 102.438   1
   3   4  -2 35061.1 407.093   1
   3   4  -1 78.2350 84.8715   1
  -3  -4   0 9609.84 158.798   1
  -3  -4  -1 118001. 574.577   1
   3   4   2 441.976 87.0789   1
  -3  -4  -3 13844.6 213.325   1
   3   4   4 51600.3 589.509   1
  -3  -4  -5 1322.93 125.906   1
   3   4   6 19630.3 278.329   1
  -3  -4  -7 13447.1 281.512   1
  -3  -4  -8 2493.81 162.059   1
   3   4   9 1636.98 316.564   1
  -3  -4 -10 43919.4 996.420   1
   3   4  11 4144.84 482.111   1
   3   4  12 502.220 387.211   1
  -3  -4 -13 434.346 548.351   1
  -3 -12   2 3541.02 1126.75  -2
   3   5  -9 3541.02 1126.75   1
   3  11  -2 12229.1 1023.92  -2
  -3  -5   8 12229.1 1023.92   1
   3  10  -2 2239.90 678.986  -2
  -3  -5   7 2239.90 678.986   1
   3   5  -6 544.213 560.940   1
   3   9  -2 3241.03 1056.57  -2
  -3  -5   6 3241.03 1056.57   1
   3   5  -5 612.268 295.974   1
   3   8  -2 12725.3 697.277  -2
  -3  -5   5 12725.3 697.277   1
  -3  -5   4 15382.6 456.029   1
   3   5  -3 4421.50 188.087   1
  -3  -5   2 7212.20 233.271   1
   3   5  -1 24206.9 353.972   1
   3   5   0 119923. 544.544   1
   3   5   1 1935.38 144.935   1
   3   5   2 95608.8 785.574   1
   3   5   3 21542.6 289.965   1
   3   5   4 37602.6 533.630   1
  -3  -5  -5 2277.24 181.235   1
  -3  -5  -6 3114.91 179.528   1
  -3  -5  -7 37.1713 113.394   1
   3   5   8 1554.19 180.806   1
   3   5   9 50947.0 1050.78   1
  -3  -5 -10 31109.2 896.110   1
  -3  -5 -11 315.711 339.538   1
  -3  -5 -12 669.057 499.903   1
  -3  -5 -13 2317.26 788.313   1
   3  11  -3 10624.9 1104.44  -2
  -3  -6   8 10624.9 1104.44   1
  -3 -10   3 10543.0 994.726  -2
   3   6  -7 10543.0 994.726   1
   3   9  -3 7757.88 781.656  -2
  -3  -6   6 7757.88 781.656   1
  -3  -6   5 8629.30 589.217   1
   3   8  -3 10160.5 1187.06  -2
  -3  -6   5 10160.5 1187.06   1
  -3  -6   4 21646.6 689.925   1
  -3  -7   3 27639.2 1160.78  -2
   3   6  -4 27639.2 1160.78   1
   3   6  -3 677.764 281.098   1
  -3  -6   3 1136.00 450.089  -2
   3   6  -3 1136.00 450.089   1
   3   6  -2 1850.20 176.774   1
  -3  -6   1 4226.01 215.105   1
   3   6   0 17491.7 270.919   1
   3   6   1 49261.2 535.770   1
   3   6   2 15168.7 359.895   1
   3   6   3 149184. 828.841   1
   3   6   4 101651. 912.716   1
  -3  -6  -5 489.605 128.916   1
  -3  -6  -6 496.836 131.530   1
   3   6   7 19996.1 491.326   1
  -3  -6  -8 12764.7 415.280   1
   3   6   9 44746.2 1034.11   1
   3   6  10 6152.59 502.396   1
  -3  -6 -11 65.5685 357.242   1
   3   6  12 600.300 529.035   1
   3  10  -4 9277.22 1056.89  -2
  -3  -7   7 9277.22 1056.89   1
   3   9  -4 4193.90 790.625  -2
  -3  -7   6 4193.90 790.625   1
  -3  -7   5 18506.7 1160.35   1
  -3  -8   4 32001.7 1330.93  -2
   3   7  -5 32001.7 1330.93   1
  -3  -7   4 3035.10 459.120   1
   3   7  -3 2498.65 429.242   1
  -3  -6   4 25757.3 1114.40  -2
   3   7  -3 25757.3 1114.40   1
   3   7  -2 14846.3 428.028   1
   3   5  -4 31058.5 1450.89  -2
  -3  -7   2 31058.5 1450.89   1
  -3  -7   1 14897.0 392.296   1
   3   7   0 8639.75 227.118   1
  -3  -7  -1 3704.91 202.709   1
   3   7   2 29057.4 517.570   1
   3   7   3 58242.0 731.975   1
   3   7   4 16660.0 420.492   1
  -3  -7  -5 4397.93 230.876   1
   3   7   6 1058.59 213.413   1
  -3  -7  -7 13707.4 457.704   1
   3   7   8 190.221 264.105   1
   3   7   9 2572.57 476.497   1
   3   7  10 420.913 341.123   1
  -3  -7 -11 2841.10 479.037   1
  -3  -7 -12 14283.4 1022.14   1
  -3 -10   5 38581.0 2709.41  -2
   3   8  -7 38581.0 2709.41   1
   3   9  -5 7657.84 1002.99  -2
  -3  -8   6 7657.84 1002.99   1
   3   8  -5 2663.35 511.539  -2
  -3  -8   5 2663.35 511.539   1
   3   7  -5 32560.6 1170.97  -2
  -3  -8   4 32560.6 1170.97   1
  -3  -8   3 1199.06 392.278   1
   3   8  -2 12828.8 526.848   1
   3   5  -5 15034.8 765.109  -2
  -3  -8   2 15034.8 765.109   1
  -3  -8   1 5695.05 324.414   1
   3   4  -5 10507.2 1052.21  -2
  -3  -8   1 10507.2 1052.21   1
  -3  -8   0 4384.12 313.397   1
   3   8   1 1707.65 188.583   1
  -3  -8  -2 21006.5 491.837   1
  -3  -8  -3 28415.3 572.065   1
  -3  -8  -4 16776.8 454.745   1
   3   8   5 3200.03 282.688   1
  -3  -8  -6 3000.37 286.709   1
  -3  -8  -7 27294.1 658.158   1
  -3  -8  -8 2139.36 279.514   1
   3   8   9 1310.71 447.596   1
   3   8  10 4005.05 571.031   1
   3   8  11 4669.42 566.802   1
   3   9  -6 5773.44 1516.60  -2
  -3  -9   6 5773.44 1516.60   1
  -3  -8   6 7178.19 1006.37  -2
   3   9  -5 7178.19 1006.37   1
   3   7  -6 5113.36 726.744  -2
  -3  -9   4 5113.36 726.744   1
  -3  -6   6 7311.23 751.189  -2
   3   9  -3 7311.23 751.189   1
  -3  -9   2 4604.08 567.197   1
   3   5  -6 3438.88 986.849  -2
  -3  -9   2 3438.88 986.849   1
  -3  -9   1 120.359 287.633   1
   3   4  -6 8178.23 660.544  -2
  -3  -9   1 8178.23 660.544   1
   3   9   0 3717.87 380.679   1
   3   3  -6 24449.3 1502.63  -2
  -3  -9   0 24449.3 1502.63   1
   3   9   1 28824.4 676.419   1
   3   9   2 21368.5 532.491   1
   3   9   3 1778.99 286.591   1
  -3  -9  -4 335.254 379.373   1
  -3  -9  -5 60294.3 949.812   1
   3   9   6 51508.6 905.983   1
  -3  -9  -7 21884.6 642.015   1
  -3  -9  -8 2383.11 385.730   1
  -3  -9  -9 1218.30 469.619   1
  -3  -9 -10 159.239 476.159   1
  -3  -9 -11 2733.44 509.208   1
  -3  -7   7 7845.64 911.118  -2
   3  10  -4 7845.64 911.118   1
  -3  -6   7 11180.9 926.309  -2
   3  10  -3 11180.9 926.309   1
   3   5  -7 3022.90 538.420  -2
  -3 -10   2 3022.90 538.420   1
   3  10  -1 1956.24 392.725   1
   3   4  -7 16606.8 1566.99  -2
  -3 -10   1 16606.8 1566.99   1
   3  10   0 7436.57 523.160   1
   3   3  -7 22042.1 1597.27  -2
  -3 -10   0 22042.1 1597.27   1
   3  10   1 24775.8 687.089   1
   3   2  -7 29686.9 1695.21  -2
  -3 -10  -1 29686.9 1695.21   1
   3  10   2-41.8560 283.919   1
  -3 -10  -3 47.3823 384.037   1
   3  10   4 1703.63 445.537   1
  -3 -10  -5 14533.2 639.737   1
   3  10   6 14336.6 570.317   1
   3  10   7 95.4141 286.522   1
   3  10   8 793.121 359.344   1
   3  10   9 6312.39 739.513   1
  -3 -10 -10 4393.36 669.189   1
  -3  -6   8 10148.1 1016.30  -2
   3  11  -3 10148.1 1016.30   1
  -3  -5   8 11321.2 856.269  -2
   3  11  -2 11321.2 856.269   1
   3   4  -8 29053.7 1094.54  -2
  -3 -11   1 29053.7 1094.54   1
  -3 -11   0 755.936 310.488   1
   3   3  -8 3403.15 1055.82  -2
  -3 -11   0 3403.15 1055.82   1
   3  11   1 9124.70 570.649   1
   3   2  -8 7542.54 1257.77  -2
  -3 -11  -1 7542.54 1257.77   1
   3  11   2 115.529 428.397   1
   3  11   3 1323.03 479.709   1
  -3 -11  -4 20716.9 1020.45   1
   3  11   5 11117.4 619.641   1
   3  11   6 1724.23 384.560   1
  -3 -11  -7 405.134 297.459   1
  -3 -11  -8 4661.23 538.110   1
  -3 -11  -9 3387.38 652.978   1
  -3  -5   9 3240.75 1115.77  -2
   3  12  -2 3240.75 1115.77   1
  -3  -4   9 15147.6 821.917  -2
   3  12  -1 15147.6 821.917   1
  -3  -3   9 4299.67 572.823  -2
   3  12   0 4299.67 572.823   1
   3   2  -9 781.345 567.893  -2
  -3 -12  -1 781.345 567.893   1
   3  12   2 526.962 517.901   1
   3  12   3 6642.79 730.079   1
   3  12   4 3973.30 665.299   1
   3  12   5 551.892 540.629   1
  -3 -12  -6 897.529 402.784   1
  -3 -12  -7 4244.21 549.239   1
  -3 -12  -8 17777.3 1506.96   1
  -3  -2  10 6871.54 1311.89  -2
   3  13   1 6871.54 1311.89   1
  -3  -1  10 22196.0 1897.97  -2
   3  13   2 22196.0 1897.97   1
   3  13   3 17142.5 1113.97   1
  -3 -13  -4 5937.74 775.414   1
  -3 -13  -5 640.007 832.805   1
  -3 -13  -6 555.910 757.550   1
  -4  -4 -13 8748.86 1414.16  -2
   4 -10  -1 8748.86 1414.16   1
   4   3  13 1381.99 868.347  -2
  -4  10   0 1381.99 868.347   1
  -4  -2 -13 4046.71 1192.49  -2
   4 -10   1 4046.71 1192.49   1
  -4  -1 -13 12437.1 1774.37  -2
   4 -10   2 12437.1 1774.37   1
  -4   0 -13 7155.24 1587.88  -2
   4 -10   3 7155.24 1587.88   1
  -4   1 -13 1952.50 1177.91  -2
   4 -10   4 1952.50 1177.91   1
   4  -9  -4 1051.75 552.339   1
   4  -9  -3 1980.93 604.782   1
  -4   9   2 2051.46 611.957   1
  -4   9   1 4294.79 664.593   1
   4   3  12-73.7524 662.261  -2
  -4   9   0-73.7524 662.261   1
  -4  -2 -12 9405.91 916.474  -2
   4  -9   1 9405.91 916.474   1
   4   1  12 14471.5 940.957  -2
  -4   9  -2 14471.5 940.957   1
  -4   0 -12 22006.2 958.433  -2
   4  -9   3 22006.2 958.433   1
  -4   1 -12 4569.00 886.785  -2
   4  -9   4 4569.00 886.785   1
  -4   2 -12 2308.48 794.559  -2
   4  -9   5 2308.48 794.559   1
  -4   8   6-69.9711 857.322   1
   4  -8  -5 4392.07 722.172   1
  -4   8   4 9319.71 864.680   1
  -4   8   3 7997.84 636.284   1
   4  -8  -2 720.748 403.621   1
  -4   8   1 408.728 440.705   1
   4  -8   0 5757.83 656.507   1
  -4  -2 -11 15417.6 936.467  -2
   4  -8   1 15417.6 936.467   1
  -4  -1 -11 13094.7 643.977  -2
   4  -8   2 13094.7 643.977   1
  -4   0 -11 3660.81 480.164  -2
   4  -8   3 3660.81 480.164   1
  -4   1 -11 7624.67 620.266  -2
   4  -8   4 7624.67 620.266   1
  -4   2 -11 3626.49 805.371  -2
   4  -8   5 3626.49 805.371   1
  -4   3 -11 6275.69 995.430  -2
   4  -8   6 6275.69 995.430   1
  -4   4 -11-76.5062 541.666  -2
   4  -8   7-76.5062 541.666   1
  -4   5 -11 335.569 882.396  -2
   4  -8   8 335.569 882.396   1
   4  -7  -7-28.3970 753.231   1
  -4   7   6 321.053 472.797   1
  -4   7   5 1725.92 413.482   1
  -4   7   4 7239.12 566.944   1
  -4   7   3 7211.27 557.353   1
   4  -7  -2 1858.90 400.507   1
  -4   7   1 43.0192 343.789   1
   4  -7   0 251.368 277.958   1
   4  -7   1 686.872 304.304   1
  -4  -2 -10 4249.52 765.455  -2
   4  -7   1 4249.52 765.455   1
   4   1  10 4605.07 423.626  -2
  -4   7  -2 4605.07 423.626   1
   4   0  10 5002.36 469.882  -2
  -4   7  -3 5002.36 469.882   1
  -4   1 -10 69851.7 1297.35  -2
   4  -7   4 69851.7 1297.35   1
   4  -2  10 34078.3 1574.45  -2
  -4   7  -5 34078.3 1574.45   1
  -4   3 -10 14027.6 1209.20  -2
   4  -7   6 14027.6 1209.20   1
  -4   4 -10 2089.55 630.741  -2
   4  -7   7 2089.55 630.741   1
  -4   5 -10 3056.07 621.105  -2
   4  -7   8 3056.07 621.105   1
  -4   6 -10 3271.71 1375.75  -2
   4  -7   9 3271.71 1375.75   1
   4  -6  -7 160.020 718.671   1
   4  -6  -6 882.502 359.929   1
  -4   6   5 9035.54 609.183   1
  -4   6   4 9187.69 587.786   1
  -4   6   3 115.199 313.896   1
  -4   6   2 7010.72 507.057   1
   4  -6  -1 6501.81 377.730   1
   4  -6   0 11881.6 523.175   1
   4  -6   1 9946.28 510.088   1
   4  -6   2 4187.19 441.586   1
   4   1   9 5394.69 575.628  -2
  -4   6  -2 5394.69 575.628   1
  -4   0  -9 8523.00 466.099  -2
   4  -6   3 8523.00 466.099   1
   4  -1   9 23024.0 819.849  -2
  -4   6  -4 23024.0 819.849   1
  -4   2  -9 34906.7 1024.83  -2
   4  -6   5 34906.7 1024.83   1
   4  -3   9 8911.38 748.702  -2
  -4   6  -6 8911.38 748.702   1
   4  -4   9 3287.07 600.777  -2
  -4   6  -7 3287.07 600.777   1
  -4   5  -9 7297.18 842.138  -2
   4  -6   8 7297.18 842.138   1
  -4   6  -9 1315.64 575.465  -2
   4  -6   9 1315.64 575.465   1
  -4   7  -9 1648.95 1223.64  -2
   4  -6  10 1648.95 1223.64   1
   4  -5  -8 437.301 639.256   1
  -4   5   7 824.503 470.604   1
  -4   5   6 7545.02 704.476   1
  -4   5   5 11487.6 618.058   1
  -4   5   4 579.011 315.938   1
  -4   5   3 4797.01 430.608   1
   4  -5  -2 43956.6 967.386   1
   4  -5  -1 10893.4 464.795   1
   4  -5   0 1974.24 278.653   1
   4  -5   1 2876.00 310.303   1
  -4   5  -2 4176.18 359.231   1
  -4  -1  -8 17367.1 927.577  -2
   4  -5   2 17367.1 927.577   1
   4  -5   3 11517.8 599.011   1
   4   0   8 22144.6 841.486  -2
  -4   5  -3 22144.6 841.486   1
   4  -5   4 4611.86 592.361   1
   4  -1   8 28977.7 1061.93  -2
  -4   5  -4 28977.7 1061.93   1
   4  -2   8 7220.21 502.840  -2
  -4   5  -5 7220.21 502.840   1
  -4   3  -8 35675.2 1109.66  -2
   4  -5   6 35675.2 1109.66   1
   4  -4   8 36809.8 1299.05  -2
  -4   5  -7 36809.8 1299.05   1
  -4   5  -8 10281.7 877.443  -2
   4  -5   8 10281.7 877.443   1
   4  -6   8 8037.01 777.274  -2
  -4   5  -9 8037.01 777.274   1
  -4   7  -8 2777.58 597.861  -2
   4  -5  10 2777.58 597.861   1
  -4   8  -8 605.741 1133.28  -2
   4  -5  11 605.741 1133.28   1
   4  -4  -9 640.656 712.493   1
   4  -4  -8 2662.11 540.061   1
   4  -4  -7 3234.40 547.280   1
  -4   4   6 8041.24 693.987   1
  -4   4   5 3076.39 356.930   1
  -4   4   4 12952.0 573.175   1
  -4   4   3 2337.95 320.534   1
  -4   4   2 33029.1 693.617   1
   4  -4  -1 228.908 188.940   1
   4  -4   0 1903.95 261.681   1
   4  -4   1 41808.4 793.366   1
   4  -4   2 29065.1 562.825   1
  -4   4  -3 149.478 214.054   1
  -4   0  -7 4066.64 520.678  -2
   4  -4   3 4066.64 520.678   1
   4  -4   4 3155.08 301.409   1
   4  -4   5 5016.58 403.579   1
   4  -2   7 4714.74 881.203  -2
  -4   4  -5 4714.74 881.203   1
   4  -3   7 24560.2 849.808  -2
  -4   4  -6 24560.2 849.808   1
  -4   4  -7 90137.2 1697.60  -2
   4  -4   7 90137.2 1697.60   1
   4  -5   7 37243.0 1302.18  -2
  -4   4  -8 37243.0 1302.18   1
  -4   6  -7 2741.32 602.445  -2
   4  -4   9 2741.32 602.445   1
  -4   7  -7 2770.96 672.348  -2
   4  -4  10 2770.96 672.348   1
  -4   8  -7 266.369 595.142  -2
   4  -4  11 266.369 595.142   1
   4  -3  -9 60.7580 505.653   1
  -4   3   8 2187.54 524.138   1
   4  -3  -7 1361.48 458.589   1
  -4   3   6 1988.44 435.433   1
  -4   3   5 256.337 249.681   1
   4  -3  -4 40771.2 854.844   1
   4  -3  -3 6473.95 357.472   1
   4  -3  -2 16999.9 509.830   1
   4  -3  -1 90.2183 187.203   1
   4  -3   0 22633.4 502.867   1
   4  -3   1 25869.0 595.056   1
   4  -3   2 18530.3 417.265   1
   4  -3   3 2106.90 191.465   1
   4  -3   4 6186.14 339.982   1
   4  -3   5 11276.8 437.166   1
  -4   2  -6 23413.0 1022.94  -2
   4  -3   5 23413.0 1022.94   1
  -4   3  -6 35408.8 860.819  -2
   4  -3   6 35408.8 860.819   1
  -4   4  -6 24158.5 831.069  -2
   4  -3   7 24158.5 831.069   1
  -4   5  -6 33879.3 1105.65  -2
   4  -3   8 33879.3 1105.65   1
  -4   6  -6 9013.59 765.794  -2
   4  -3   9 9013.59 765.794   1
   4  -7   6 14380.1 999.435  -2
  -4   3 -10 14380.1 999.435   1
  -4   8  -6 6732.47 856.589  -2
   4  -3  11 6732.47 856.589   1
  -4   9  -6 3592.16 770.750  -2
   4  -3  12 3592.16 770.750   1
  -4   2   9 1567.45 563.971   1
  -4   2   8 10423.6 817.552   1
   4  -2  -7 5737.38 613.437   1
  -4   2   6-24.0733 271.639   1
  -4   2   5 6525.60 419.686   1
   4  -2  -4 209.098 164.181   1
   4  -2  -3 6508.43 290.111   1
   4  -2  -2 1268.95 222.212   1
   4  -2  -1 19515.3 516.542   1
   4  -2   0 104389. 1113.82   1
  -4   2  -1 144512. 1127.39   1
   4  -2   2 41.5835 117.189   1
   4  -2   3 148.499 163.733   1
   4  -2   4 87923.9 815.401   1
   4  -2   5 39949.1 578.547   1
   4  -2   6 10383.3 458.515   1
   4  -4   5 4819.98 443.287  -2
  -4   2  -7 4819.98 443.287   1
  -4   5  -5 6622.42 540.680  -2
   4  -2   8 6622.42 540.680   1
  -4   6  -5 36441.3 1168.14  -2
   4  -2   9 36441.3 1168.14   1
  -4   7  -5 35504.4 1301.99  -2
   4  -2  10 35504.4 1301.99   1
  -4   8  -5 1517.31 586.066  -2
   4  -2  11 1517.31 586.066   1
  -4   9  -5 1444.61 594.499  -2
   4  -2  12 1444.61 594.499   1
   4  -1  -9 5258.58 719.256   1
   4  -1  -8 3871.20 586.111   1
   4  -1  -7 519.836 394.814   1
   4  -1  -6 3472.37 368.816   1
   4  -1  -5 13733.3 451.251   1
  -4   1   4 28743.8 471.421   1
   4  -1  -3 11657.3 353.780   1
  -4   1   2 47373.1 604.670   1
  -4   1   1 74267.0 946.392   1
   4  -1   0 4223.70 263.381   1
   4  -1   1 14155.1 350.883   1
   4  -1   2 10942.1 353.062   1
   4  -1   3 37476.1 462.035   1
  -4   1  -4 115964. 835.287   1
   4  -1   5 3547.84 186.707   1
   4  -1   6 163.748 191.310   1
   4  -1   7 592.988 388.769   1
  -4   4  -4 3986.89 489.316  -2
   4  -1   7 3986.89 489.316   1
   4  -5   4 30889.9 723.650  -2
  -4   1  -8 30889.9 723.650   1
  -4   6  -4 23880.2 764.592  -2
   4  -1   9 23880.2 764.592   1
  -4   7  -4 67536.0 1355.29  -2
   4  -1  10 67536.0 1355.29   1
  -4   8  -4 6534.08 639.519  -2
   4  -1  11 6534.08 639.519   1
  -4   9  -4 4708.70 742.337  -2
   4  -1  12 4708.70 742.337   1
   4   0  -9 2471.33 549.604   1
   4   0  -8 183.814 406.696   1
   4   0  -7 8196.75 677.975   1
  -4   0   6 4997.22 335.585   1
   4   0  -5 96.0937 199.786   1
   4   0  -4 2115.68 162.990   1
  -4   0   3 13931.4 295.107   1
   4   0  -2 22181.6 409.091   1
   4   0  -1 20716.5 326.386   1
   4   0   0 70419.3 871.479   1
   4   0   1 5948.74 228.794   1
   4   0   2 44817.2 429.944   1
   4   0   3 59181.0 418.915   1
   4   0   4 200693. 895.666   1
  -4   0  -5 6519.36 157.540   1
   4   0   6 12724.0 347.968   1
   4   0   7 3428.91 261.429   1
   4  -4   3 3563.73 655.791  -2
  -4   0  -7 3563.73 655.791   1
   4   0   8 8783.95 781.517   1
  -4   5  -3 19941.7 597.398  -2
   4   0   8 19941.7 597.398   1
  -4   6  -3 7930.28 432.670  -2
   4   0   9 7930.28 432.670   1
   4  -7   3 4359.99 433.577  -2
  -4   0 -10 4359.99 433.577   1
  -4   8  -3 4332.87 500.159  -2
   4   0  11 4332.87 500.159   1
   4  -9   3 22664.3 1119.11  -2
  -4   0 -12 22664.3 1119.11   1
   4 -10   3 8917.98 1526.67  -2
  -4   0 -13 8917.98 1526.67   1
  -4  -1   9 490.377 513.881   1
  -4  -1   8 725.289 363.742   1
  -4  -1   7 19551.1 580.536   1
   4   1  -6 6476.18 401.664   1
  -4  -1   5 9615.46 481.543   1
  -4  -1   4 9021.41 320.379   1
  -4  -1   3 27009.7 494.661   1
  -4  -1   2 42758.2 586.185   1
   4   1  -1 4501.30 210.416   1
  -4  -1   0 2557.20 165.452   1
   4   1   1 15799.1 360.263   1
   4   1   2 134322. 716.578   1
   4   1   3 51056.9 445.028   1
   4   1   4 58083.5 491.258   1
  -4  -1  -5 69444.7 755.877   1
   4   1   6 35565.6 521.499   1
  -4  -1  -7 32814.5 557.073   1
   4   1   8 13631.5 463.915   1
   4  -5   2 17852.3 1096.96  -2
  -4  -1  -8 17852.3 1096.96   1
   4   1   9 794.176 438.294   1
   4  -6   2 5132.53 488.624  -2
  -4  -1  -9 5132.53 488.624   1
  -4   7  -2 5111.01 441.954  -2
   4   1  10 5111.01 441.954   1
  -4   8  -2 13401.1 664.904  -2
   4   1  11 13401.1 664.904   1
  -4   9  -2 16735.0 1039.02  -2
   4   1  12 16735.0 1039.02   1
  -4  10  -2 12365.6 1262.04  -2
   4   1  13 12365.6 1262.04   1
   4   2  -9 1179.05 426.704   1
  -4  -2   8 4801.96 451.473   1
  -4  -2   7 26360.5 878.667   1
   4   2  -6 4729.22 303.450   1
  -4  -2   5 6510.24 308.759   1
   4   2  -4 19977.1 417.006   1
  -4  -2   3 42155.4 628.790   1
  -4  -2   2 3081.95 207.717   1
   4   2  -1 1204.61 117.639   1
  -4  -2   0 19008.4 215.037   1
  -4  -2  -1 98121.4 515.843   1
  -4  -2  -2 169213. 911.169   1
   4   2   3 216.382 93.7989   1
  -4  -2  -4 11239.3 291.961   1
  -4  -2  -5 2555.52 116.749   1
  -4  -2  -6 113281. 1009.01   1
  -4  -2  -7 43236.2 602.811   1
  -4  -2  -8 3800.65 247.729   1
   4   2   9 630.533 201.655   1
   4  -6   1 9768.39 709.258  -2
  -4  -2  -9 9768.39 709.258   1
   4   2  10 3865.35 448.086   1
   4  -7   1 4203.74 503.388  -2
  -4  -2 -10 4203.74 503.388   1
   4   2  11-170.540 507.362   1
  -4   8  -1 15266.0 821.939  -2
   4   2  11 15266.0 821.939   1
   4  -9   1 9044.76 795.007  -2
  -4  -2 -12 9044.76 795.007   1
  -4  10  -1 4429.94 720.000  -2
   4   2  13 4429.94 720.000   1
  -4  -3   9-260.229 544.359   1
  -4  -3   8 525.511 375.374   1
  -4  -3   7 25.9631 278.694   1
   4   3  -6 87.6525 263.872   1
  -4  -3   5 24525.6 545.910   1
   4   3  -4 83955.4 762.477   1
  -4  -3   3 3842.69 191.381   1
   4   3  -2 8644.53 206.232   1
   4   3  -1 9674.02 228.526   1
   4   3   0 50482.8 730.581   1
  -4  -3  -1 51502.2 576.057   1
  -4  -3  -2 24937.3 289.480   1
  -4  -3  -3 10426.9 229.221   1
  -4  -3  -4 21308.2 330.822   1
  -4  -3  -5 30725.6 450.090   1
  -4  -3  -6 40719.5 409.647   1
  -4  -3  -7 6154.98 261.538   1
  -4  -3  -8 7021.39 272.793   1
  -4  -3  -9 1615.97 190.717   1
   4   3  10 12613.7 544.173   1
   4  -7   0 14481.1 866.975  -2
  -4  -3 -10 14481.1 866.975   1
   4   3  11-161.184 476.561   1
   4  -8   0 6887.72 641.058  -2
  -4  -3 -11 6887.72 641.058   1
  -4   9   0-98.0283 530.146  -2
   4   3  12-98.0283 530.146   1
   4 -10   0 2981.01 668.439  -2
  -4  -3 -13 2981.01 668.439   1
   4   4  -9 747.812 794.136   1
  -4  -4   8 7666.94 785.199   1
  -4  -4   7 1351.88 333.882   1
   4   4  -6 6767.63 458.557   1
  -4  -4   5 5093.89 368.175   1
  -4  -4   4 64307.3 703.792   1
  -4  -4   3 545.659 139.288   1
   4   4  -2 16971.3 273.079   1
   4   4  -1 34283.9 284.151   1
   4   4   0 50962.7 439.660   1
  -4  -4  -1 106.487 118.943   1
  -4  -4  -2 12081.2 219.077   1
  -4  -4  -3 20982.4 334.845   1
  -4  -4  -4 21172.3 322.987   1
   4   4   5 112440. 685.789   1
  -4  -4  -6 1487.48 96.5522   1
   4   4   7 416.164 152.416   1
   4   4   8 19235.5 434.222   1
  -4  -4  -9 33566.3 579.046   1
  -4  -4 -10 8226.03 451.899   1
  -4  -4 -11 1301.71 355.865   1
   4  -8  -1 2400.44 906.425  -2
  -4  -4 -11 2400.44 906.425   1
   4  -9  -1 6176.04 676.755  -2
  -4  -4 -12 6176.04 676.755   1
   4 -10  -1 6872.01 803.648  -2
  -4  -4 -13 6872.01 803.648   1
   4   5  -8 23.8472 488.929   1
   4  12  -1 2981.35 1269.85  -2
  -4  -5   8 2981.35 1269.85   1
  -4  -5   7 1273.48 398.491   1
  -4  -5   6 4959.59 485.149   1
   4   5  -5 14556.4 571.094   1
  -4  -5   4 12230.2 414.976   1
  -4  -5   3 10967.7 322.901   1
  -4  -5   2 72584.0 611.213   1
  -4  -5   1 71264.7 542.017   1
  -4  -5   0 37632.6 515.642   1
  -4  -5  -1 24498.5 280.822   1
   4   5   2 1089.15 124.879   1
   4   5   3 65276.0 570.868   1
  -4  -5  -4 23274.9 296.134   1
  -4  -5  -5 10416.6 336.335   1
   4   5   6 9627.23 333.665   1
  -4  -5  -7 22782.3 492.802   1
   4   5   8 2774.73 218.706   1
   4   5   9 9658.99 411.406   1
  -4  -5 -10-248.168 306.472   1
   4   5  11 4740.53 435.358   1
  -4  -5 -12 2592.00 562.710   1
   4  -9  -2 5857.88 1137.03  -2
  -4  -5 -12 5857.88 1137.03   1
  -4  -5 -13 515.541 576.812   1
   4   6  -8-316.842 796.389   1
   4   6  -7 3735.02 611.024   1
   4  11  -2 4572.03 1298.49  -2
  -4  -6   7 4572.03 1298.49   1
   4   6  -6 778.846 381.386   1
   4   6  -5 227.148 404.137   1
  -4  -6   4 2368.46 345.846   1
   4   6  -3 3446.89 415.350   1
   4   6  -2 49681.4 649.907   1
  -4  -6   1 77182.4 629.101   1
  -4  -6   0 31500.6 473.874   1
  -4  -6  -1 7928.08 235.836   1
   4   6   2 29489.5 499.672   1
   4   6   3 4807.72 247.579   1
   4   6   4 33759.0 570.031   1
  -4  -6  -5 120.732 153.504   1
   4   6   6 777.311 179.439   1
  -4  -6  -7 4436.84 275.529   1
  -4  -6  -8 17190.0 582.488   1
  -4  -6  -9 353.343 303.327   1
  -4  -6 -10 128.589 336.372   1
  -4  -6 -11 7312.48 584.260   1
  -4  -6 -12 1585.19 579.300   1
   4   7  -7 8433.57 873.117   1
   4  11  -3 22087.6 1988.37  -2
  -4  -7   7 22087.6 1988.37   1
  -4  -7   6 487.452 414.071   1
   4   7  -5 178.259 558.268   1
   4   9  -3 1741.49 964.037  -2
  -4  -7   5 1741.49 964.037   1
  -4  -7   4 118.025 305.570   1
   4   7  -3 26821.8 951.597   1
   4   7  -2 20023.5 679.338   1
  -4  -7   1 11905.9 381.322   1
   4   7   0 3126.50 241.788   1
   4   7   1 129.135 131.929   1
  -4  -7  -2 24884.8 491.313   1
   4   7   3 14226.4 403.599   1
   4   7   4 3310.13 247.638   1
   4   7   5 18176.7 467.457   1
  -4  -7  -6 3884.52 269.030   1
   4   7   7 7206.82 426.555   1
   4   7   8 7931.44 465.805   1
  -4  -7  -9 27724.2 1052.48   1
   4   7  10 8583.94 587.705   1
  -4  -7 -11 10349.5 667.667   1
  -4  -7 -12 5520.34 591.528   1
   4   8  -6 744.178 514.579   1
   4  10  -4 3065.38 1413.24  -2
  -4  -8   6 3065.38 1413.24   1
   4   8  -5 1287.53 715.205   1
   4   9  -4 3595.35 1108.06  -2
  -4  -8   5 3595.35 1108.06   1
   4   8  -4 281.060 414.554   1
   4   8  -4 1167.80 922.816  -2
  -4  -8   4 1167.80 922.816   1
   4   8  -3 13985.2 798.645   1
  -4  -8   2 3602.11 406.257   1
   4   8  -1 2646.76 252.728   1
  -4  -8   0 27386.0 581.058   1
  -4  -8  -1 130845. 1314.91   1
   4   8   2 34244.1 604.108   1
  -4  -8  -3 8723.81 357.601   1
   4   8   4 1691.89 228.634   1
   4   8   5 18840.7 504.202   1
   4   8   6 9331.89 485.689   1
  -4  -8  -7 4448.42 401.757   1
   4   8   8 157.681 282.203   1
   4   8   9 6801.33 653.707   1
  -4  -8 -10 718.043 457.386   1
  -4  -8 -11 841.417 414.217   1
  -4  -8 -12 259.148 440.319   1
   4   9  -5 31508.4 1967.79   1
   4   9  -5 62997.4 2802.29  -2
  -4  -9   5 62997.4 2802.29   1
   4   9  -4 2516.13 533.412   1
  -4  -9   3 1528.00 468.851   1
  -4  -9   2 2928.64 357.890   1
  -4  -9   1 1306.03 302.584   1
  -4  -9   0 10393.7 425.743   1
  -4  -9  -1 13221.4 512.029   1
   4   9   2 7716.83 462.272   1
   4   9   3 10793.7 416.144   1
  -4  -9  -4 2868.89 273.762   1
  -4  -9  -5 2481.59 331.135   1
  -4  -9  -6 612.032 297.090   1
   4   9   7 1265.86 324.590   1
  -4  -9  -8 6501.70 492.511   1
   4   9   9 5952.25 670.814   1
  -4  -9 -10 3155.17 603.475   1
   4   9  11-81.9647 421.636   1
   4   9  12 2671.45 990.996   1
   4  10  -4 4687.48 572.232   1
   4  10  -3 929.815 416.458   1
   4  10  -2 426.020 373.530   1
  -4 -10   1 1070.95 341.949   1
   4  10   0 8372.43 429.093   1
  -4 -10  -1 4122.75 379.373   1
   4  10   2 1034.14 305.426   1
  -4 -10  -3 6182.84 464.442   1
  -4 -10  -4 16245.9 636.590   1
  -4 -10  -5 1113.94 319.999   1
  -4 -10  -6 177.832 318.732   1
  -4 -10  -7 2145.28 387.596   1
  -4 -10  -8 5531.74 519.939   1
  -4 -10  -9 72.9159 502.589   1
  -4 -10 -10 1540.07 563.090   1
   4  10  11 2410.10 925.385   1
  -4 -11   4 831.348 799.361   1
   4  11  -3 16406.1 1068.61   1
   4  11  -2 1528.02 454.144   1
  -4 -11   1 8124.68 561.031   1
  -4 -11   0 2073.60 434.740   1
  -4 -11  -1 828.416 319.270   1
   4  11   2 2636.33 403.909   1
  -4 -11  -3 24958.9 1070.76   1
   4  11   4 11381.8 807.072   1
  -4 -11  -5 2253.96 526.946   1
   4  11   6 9240.55 593.933   1
  -4 -11  -7 2351.00 425.811   1
  -4 -11  -8 2640.05 466.670   1
  -4 -11  -9 54.7116 501.841   1
  -4 -12   1 2655.60 618.425   1
   4   5  -8 1342.07 1209.89  -2
  -4 -12   1 1342.07 1209.89   1
  -4 -12   0 183.839 455.223   1
  -4 -12  -1 3209.92 431.678   1
   4  12   2 599.994 426.102   1
   4  12   3 8958.73 819.259   1
   4  12   4 388.213 522.036   1
   4  12   5 3631.23 625.184   1
   4  12   6 17328.6 1023.78   1
   4  12   7 3580.07 512.534   1
  -4 -12  -8 633.315 664.932   1
  -4 -12  -9 199.271 846.565   1
   4  13   2 714.263 702.168   1
   4  13   3 789.770 762.458   1
   4  13   4 163.514 576.430   1
   4  13   5 2014.13 644.195   1
  -4 -13  -6 1258.28 825.533   1
  -4 -13  -7 2187.14 907.826   1
   5   6  13-446.054 1044.14  -2
  -5   9   2-446.054 1044.14   1
  -5  -5 -13 6186.93 1117.64  -2
   5  -9  -1 6186.93 1117.64   1
  -5  -4 -13 6313.35 1108.00  -2
   5  -9   0 6313.35 1108.00   1
  -5  -3 -13 11106.3 1306.38  -2
   5  -9   1 11106.3 1306.38   1
  -5  -2 -13 6741.43 1324.91  -2
   5  -9   2 6741.43 1324.91   1
   5   1  13 1194.92 722.964  -2
  -5   9  -3 1194.92 722.964   1
  -5   0 -13 5165.20 1112.03  -2
   5  -9   4 5165.20 1112.03   1
  -5   1 -13 2811.67 1134.38  -2
   5  -9   5 2811.67 1134.38   1
   5   7  12 1204.04 688.397  -2
  -5   8   3 1204.04 688.397   1
  -5  -6 -12 1577.02 715.965  -2
   5  -8  -2 1577.02 715.965   1
  -5  -5 -12 23540.8 1515.11  -2
   5  -8  -1 23540.8 1515.11   1
   5   4  12 32527.5 1779.27  -2
  -5   8   0 32527.5 1779.27   1
   5   3  12 13144.0 1128.02  -2
  -5   8  -1 13144.0 1128.02   1
  -5  -2 -12 1843.11 745.986  -2
   5  -8   2 1843.11 745.986   1
   5   1  12 1659.92 544.595  -2
  -5   8  -3 1659.92 544.595   1
   5   0  12 7631.59 766.200  -2
  -5   8  -4 7631.59 766.200   1
   5  -1  12 6627.09 975.645  -2
  -5   8  -5 6627.09 975.645   1
   5  -2  12 3832.08 857.583  -2
  -5   8  -6 3832.08 857.583   1
   5  -7  -5 1700.12 868.292   1
  -5  -8 -11 1931.73 688.451  -2
   5  -7  -4 1931.73 688.451   1
  -5  -7 -11 596.901 631.679  -2
   5  -7  -3 596.901 631.679   1
   5   6  11 13906.4 1071.12  -2
  -5   7   2 13906.4 1071.12   1
   5   5  11 23027.3 1296.18  -2
  -5   7   1 23027.3 1296.18   1
  -5  -4 -11 9211.46 1020.23  -2
   5  -7   0 9211.46 1020.23   1
  -5  -3 -11 2570.92 506.290  -2
   5  -7   1 2570.92 506.290   1
  -5  -2 -11 11922.4 873.584  -2
   5  -7   2 11922.4 873.584   1
   5   1  11 15588.3 962.949  -2
  -5   7  -3 15588.3 962.949   1
   5   0  11 15520.8 956.690  -2
  -5   7  -4 15520.8 956.690   1
   5  -1  11 11715.1 1136.17  -2
  -5   7  -5 11715.1 1136.17   1
   5  -2  11 3220.43 721.094  -2
  -5   7  -6 3220.43 721.094   1
   5  -3  11 1532.40 805.261  -2
  -5   7  -7 1532.40 805.261   1
  -5   6   6 8412.83 870.685   1
  -5   6   5 1812.01 518.742   1
  -5   6   4 609.725 427.766   1
  -5   6   3 1816.85 714.767   1
  -5  -7 -10 8787.78 1129.37  -2
   5  -6  -3 8787.78 1129.37   1
   5   6  10 21520.9 1077.88  -2
  -5   6   2 21520.9 1077.88   1
   5   5  10 13657.6 938.507  -2
  -5   6   1 13657.6 938.507   1
   5   4  10 1311.17 402.614  -2
  -5   6   0 1311.17 402.614   1
   5   3  10 334.803 344.291  -2
  -5   6  -1 334.803 344.291   1
  -5  -2 -10 27871.1 923.580  -2
   5  -6   2 27871.1 923.580   1
  -5  -1 -10 16486.8 765.814  -2
   5  -6   3 16486.8 765.814   1
   5   0  10 23612.6 1075.02  -2
  -5   6  -4 23612.6 1075.02   1
   5  -1  10 3682.90 559.353  -2
  -5   6  -5 3682.90 559.353   1
  -5   2 -10 9616.55 790.265  -2
   5  -6   6 9616.55 790.265   1
   5  -3  10 7478.82 925.408  -2
  -5   6  -7 7478.82 925.408   1
   5  -4  10 5877.68 946.858  -2
  -5   6  -8 5877.68 946.858   1
   5  -5  10 1142.30 763.421  -2
  -5   6  -9 1142.30 763.421   1
   5  -5  -7 1431.28 556.257   1
   5  -5  -6 237.257 459.993   1
   5  -5  -5 185.298 464.011   1
  -5   5   4 17488.3 966.492   1
  -5   5   3 5180.77 611.456   1
  -5   5   2 1367.02 687.082   1
  -5  -6  -9 33970.6 1620.80  -2
   5  -5  -2 33970.6 1620.80   1
  -5  -5  -9 1800.81 358.923  -2
   5  -5  -1 1800.81 358.923   1
   5   4   9 3611.31 428.835  -2
  -5   5   0 3611.31 428.835   1
  -5  -3  -9 39653.1 946.362  -2
   5  -5   1 39653.1 946.362   1
  -5  -2  -9 86293.0 1371.13  -2
   5  -5   2 86293.0 1371.13   1
  -5  -1  -9 21745.7 776.213  -2
   5  -5   3 21745.7 776.213   1
   5   0   9 3117.56 506.301  -2
  -5   5  -4 3117.56 506.301   1
   5  -1   9 1385.84 428.811  -2
  -5   5  -5 1385.84 428.811   1
   5  -2   9 1223.99 453.347  -2
  -5   5  -6 1223.99 453.347   1
  -5   3  -9 12315.0 856.488  -2
   5  -5   7 12315.0 856.488   1
  -5   4  -9 5898.63 657.251  -2
   5  -5   8 5898.63 657.251   1
  -5   5  -9 511.296 547.319  -2
   5  -5   9 511.296 547.319   1
   5  -6   9 127.816 622.178  -2
  -5   5 -10 127.816 622.178   1
  -5   4   8 505.597 775.145   1
   5  -4  -7 2917.99 622.586   1
   5  -4  -6 851.835 463.907   1
   5  -4  -5 7618.26 736.056   1
  -5   4   4 45233.8 1369.73   1
   5  -4  -3 9789.66 731.442   1
   5  -4  -2 8655.24 639.941   1
   5  -4  -1 2633.48 378.609   1
  -5  -5  -8 9746.91 968.485  -2
   5  -4  -1 9746.91 968.485   1
  -5  -4  -8 4457.04 403.736  -2
   5  -4   0 4457.04 403.736   1
   5   3   8 29578.9 712.847  -2
  -5   4  -1 29578.9 712.847   1
  -5  -2  -8 18509.9 581.133  -2
   5  -4   2 18509.9 581.133   1
  -5  -1  -8 6551.87 436.850  -2
   5  -4   3 6551.87 436.850   1
  -5   0  -8 2296.65 412.949  -2
   5  -4   4 2296.65 412.949   1
   5  -1   8 55161.7 1022.64  -2
  -5   4  -5 55161.7 1022.64   1
   5  -2   8 27924.5 1086.42  -2
  -5   4  -6 27924.5 1086.42   1
   5  -3   8 6361.99 654.813  -2
  -5   4  -7 6361.99 654.813   1
  -5   4  -8 15302.2 897.834  -2
   5  -4   8 15302.2 897.834   1
   5  -5   8 6739.94 728.189  -2
  -5   4  -9 6739.94 728.189   1
   5  -6   8 6101.76 759.635  -2
  -5   4 -10 6101.76 759.635   1
  -5   7  -8 3527.01 1171.13  -2
   5  -4  11 3527.01 1171.13   1
   5  -3  -8-174.055 527.955   1
   5  -3  -7 3789.74 625.343   1
  -5   3   6 6725.34 705.539   1
   5  -3  -5 26126.0 1093.95   1
  -5   3   4 30885.0 1113.74   1
  -5   3   3 4767.63 370.627   1
  -5   3   2 7706.39 434.613   1
   5  -3  -1 3162.04 316.506   1
   5  -3   0 34693.3 963.641   1
  -5  -4  -7 68929.2 1817.16  -2
   5  -3   0 68929.2 1817.16   1
   5   3   7 20767.8 653.563  -2
  -5   3  -1 20767.8 653.563   1
   5   2   7 14092.6 428.107  -2
  -5   3  -2 14092.6 428.107   1
   5   1   7 19647.2 699.382  -2
  -5   3  -3 19647.2 699.382   1
  -5   0  -7 52284.3 1146.70  -2
   5  -3   4 52284.3 1146.70   1
   5  -1   7 23191.5 702.671  -2
  -5   3  -5 23191.5 702.671   1
   5  -2   7 7794.60 613.406  -2
  -5   3  -6 7794.60 613.406   1
  -5   3  -7 4120.91 521.876  -2
   5  -3   7 4120.91 521.876   1
   5  -4   7 6286.43 651.556  -2
  -5   3  -8 6286.43 651.556   1
   5  -5   7 12189.4 852.783  -2
  -5   3  -9 12189.4 852.783   1
  -5   6  -7 7952.86 751.835  -2
   5  -3  10 7952.86 751.835   1
   5  -7   7 1976.96 638.831  -2
  -5   3 -11 1976.96 638.831   1
  -5   8  -7 3549.86 1229.72  -2
   5  -3  12 3549.86 1229.72   1
   5  -2  -8-104.892 497.429   1
  -5   2   7-87.4219 452.859   1
   5  -2  -6 5779.67 658.647   1
   5  -2  -5 6260.05 614.961   1
  -5   2   4 6768.09 606.657   1
  -5   2   3 1969.11 297.484   1
   5  -2  -2 47880.2 692.291   1
   5  -2  -1 61860.6 995.394   1
  -5   2   0 6767.42 394.518   1
  -5   2  -1 1319.28 272.586   1
   5   3   6 2267.66 384.399  -2
  -5   2  -1 2267.66 384.399   1
   5   2   6 10450.2 305.991  -2
  -5   2  -2 10450.2 305.991   1
   5   1   6 22232.4 617.152  -2
  -5   2  -3 22232.4 617.152   1
   5   0   6 63810.5 875.372  -2
  -5   2  -4 63810.5 875.372   1
  -5   1  -6 42887.1 798.694  -2
   5  -2   5 42887.1 798.694   1
  -5   2  -6 134.907 300.963  -2
   5  -2   6 134.907 300.963   1
   5  -3   6 8807.47 647.102  -2
  -5   2  -7 8807.47 647.102   1
   5  -4   6 26776.4 1077.67  -2
  -5   2  -8 26776.4 1077.67   1
  -5   5  -6 1184.44 455.838  -2
   5  -2   9 1184.44 455.838   1
   5  -6   6 9656.06 812.383  -2
  -5   2 -10 9656.06 812.383   1
  -5   7  -6 2998.75 585.494  -2
   5  -2  11 2998.75 585.494   1
   5  -8   6 3366.18 681.961  -2
  -5   2 -12 3366.18 681.961   1
   5  -1  -8 1005.33 482.773   1
   5  -1  -7 6427.86 720.728   1
   5  -1  -6 13007.6 839.484   1
   5  -1  -5 145.277 358.196   1
   5  -1  -4 3210.46 346.574   1
   5  -1  -3 26318.3 718.944   1
  -5   1   2 13657.7 366.714   1
   5  -1  -1 69689.7 678.162   1
  -5   1   0 14381.2 489.499   1
   5  -1   1 190.315 62.9525   1
   5   2   5 2145.36 236.189  -2
  -5   1  -2 2145.36 236.189   1
   5   1   5 4661.31 193.214  -2
  -5   1  -3 4661.31 193.214   1
  -5   0  -5 31009.5 542.021  -2
   5  -1   4 31009.5 542.021   1
   5  -1   5 364.386 173.111  -2
  -5   1  -5 364.386 173.111   1
  -5   2  -5 46143.3 1074.00  -2
   5  -1   6 46143.3 1074.00   1
  -5   3  -5 22725.7 886.300  -2
   5  -1   7 22725.7 886.300   1
  -5   4  -5 52633.7 1246.14  -2
   5  -1   8 52633.7 1246.14   1
   5  -5   5 1774.96 456.295  -2
  -5   1  -9 1774.96 456.295   1
   5  -6   5 3401.50 579.284  -2
  -5   1 -10 3401.50 579.284   1
  -5   7  -5 13270.7 921.747  -2
   5  -1  11 13270.7 921.747   1
   5  -8   5 6427.54 792.694  -2
  -5   1 -12 6427.54 792.694   1
  -5   9  -5 1882.09 852.745  -2
   5  -1  13 1882.09 852.745   1
   5   0  -8 12458.3 958.389   1
  -5   0   7 15176.2 940.973   1
   5   0  -6 2116.37 486.039   1
  -5   0   5 123.684 272.057   1
   5   0  -4 9653.26 508.865   1
   5   0  -3 47174.5 750.222   1
   5   0  -2 113606. 912.621   1
   5   0  -1 19551.1 574.674   1
   5   0   0 21003.6 565.708   1
   5   0   1 30984.9 536.468   1
   5   0   2 34263.1 551.728   1
   5   0   3 13697.8 531.254   1
  -5  -1  -4 40085.0 995.363  -2
   5   0   3 40085.0 995.363   1
   5   0   4 2058.63 228.407  -2
  -5   0  -4 2058.63 228.407   1
   5  -1   4 27817.2 479.631  -2
  -5   0  -5 27817.2 479.631   1
   5   0   6 13260.6 285.995   1
   5  -2   4 64476.9 1098.75  -2
  -5   0  -6 64476.9 1098.75   1
  -5   3  -4 50757.4 1008.41  -2
   5   0   7 50757.4 1008.41   1
   5  -4   4 1978.20 321.408  -2
  -5   0  -8 1978.20 321.408   1
   5  -5   4 3471.67 411.314  -2
  -5   0  -9 3471.67 411.314   1
   5  -6   4 23785.7 955.207  -2
  -5   0 -10 23785.7 955.207   1
  -5   7  -4 14190.4 815.071  -2
   5   0  11 14190.4 815.071   1
   5  -8   4 7486.64 769.862  -2
  -5   0 -12 7486.64 769.862   1
   5   1  -8 25978.6 1271.77   1
   5   1  -7 14365.5 929.350   1
  -5  -1   6 3513.43 364.883   1
  -5  -1   5 1737.76 280.470   1
  -5  -1   4 9951.63 492.946   1
  -5  -1   3 517.513 175.968   1
  -5  -1   2 2579.07 213.666   1
  -5  -1   1 1177.56 159.959   1
  -5  -1   0 76653.4 1266.67   1
  -5  -1  -1 37044.0 877.568   1
   5   1   2 134551. 1156.35   1
   5   1   3 28330.6 475.429   1
   5   1   4 27843.0 527.988   1
  -5   0  -3 41702.0 869.974  -2
   5   1   4 41702.0 869.974   1
   5  -1   3 4621.58 205.649  -2
  -5  -1  -5 4621.58 205.649   1
   5  -2   3 23864.8 578.757  -2
  -5  -1  -6 23864.8 578.757   1
  -5   3  -3 19669.6 629.757  -2
   5   1   7 19669.6 629.757   1
  -5   4  -3 7283.36 498.693  -2
   5   1   8 7283.36 498.693   1
   5  -5   3 21155.2 818.931  -2
  -5  -1  -9 21155.2 818.931   1
  -5   6  -3 16160.5 800.754  -2
   5   1  10 16160.5 800.754   1
   5  -7   3 16751.9 862.922  -2
  -5  -1 -11 16751.9 862.922   1
   5  -8   3 1090.77 459.551  -2
  -5  -1 -12 1090.77 459.551   1
   5  -9   3 1547.10 711.101  -2
  -5  -1 -13 1547.10 711.101   1
  -5  -2   8 5343.69 589.289   1
  -5  -2   7 4193.05 427.012   1
  -5  -2   6 6533.62 506.987   1
  -5  -2   5 21457.7 744.043   1
  -5  -2   4 31201.9 805.042   1
  -5  -2   3 5438.16 295.544   1
  -5  -2   2 19138.5 457.476   1
  -5  -2   1 2379.11 195.641   1
  -5  -2   0 64924.8 540.970   1
  -5  -2  -1 11925.3 222.965   1
   5   2   2 26081.0 292.552   1
  -5  -2  -3 849.075 89.6963   1
   5   2   4 8670.00 272.260   1
   5   2   5 593.279 344.911   1
   5  -1   2 2097.09 249.386  -2
  -5  -2  -5 2097.09 249.386   1
  -5   2  -2 10924.8 389.624  -2
   5   2   6 10924.8 389.624   1
  -5   3  -2 13752.2 496.811  -2
   5   2   7 13752.2 496.811   1
  -5   4  -2 20626.2 584.640  -2
   5   2   8 20626.2 584.640   1
   5  -5   2 84837.9 1249.99  -2
  -5  -2  -9 84837.9 1249.99   1
   5  -6   2 28124.5 976.939  -2
  -5  -2 -10 28124.5 976.939   1
  -5   7  -2 12096.9 620.547  -2
   5   2  11 12096.9 620.547   1
  -5   8  -2 1502.69 574.456  -2
   5   2  12 1502.69 574.456   1
   5  -9   2 6708.24 865.541  -2
  -5  -2 -13 6708.24 865.541   1
  -5  -3   8 5858.55 620.833   1
   5   3  -7 136.856 399.010   1
  -5  -3   6 8764.81 589.234   1
   5   3  -5 32399.4 907.853   1
  -5  -3   4 32390.3 840.888   1
  -5  -3   3 4398.21 289.572   1
   5   3  -2 78.7218 117.581   1
  -5  -3   1 236.608 74.1707   1
  -5  -3   0 5162.41 248.285   1
   5   3   1 23603.3 563.230   1
   5   3   2 20532.9 263.293   1
  -5  -3  -3 244498. 1222.93   1
  -5  -3  -4 42043.4 455.666   1
  -5  -3  -5 60753.1 577.187   1
   5   3   6 1075.26 376.807   1
   5  -2   1 2342.35 253.143  -2
  -5  -3  -6 2342.35 253.143   1
   5  -3   1 20669.2 484.569  -2
  -5  -3  -7 20669.2 484.569   1
  -5   4  -1 29484.7 625.981  -2
   5   3   8 29484.7 625.981   1
   5  -5   1 40009.3 812.067  -2
  -5  -3  -9 40009.3 812.067   1
  -5   6  -1 561.146 301.044  -2
   5   3  10 561.146 301.044   1
   5  -7   1 2509.96 471.172  -2
  -5  -3 -11 2509.96 471.172   1
   5  -8   1 16985.2 999.796  -2
  -5  -3 -12 16985.2 999.796   1
   5  -9   1 13322.9 1079.26  -2
  -5  -3 -13 13322.9 1079.26   1
  -5  -4   8 1410.82 584.830   1
  -5  -4   7 202.054 409.788   1
  -5  -4   6 22234.8 875.948   1
  -5  -4   5 17684.3 727.119   1
   5   4  -4 256.126 361.754   1
  -5  -4   3 6053.19 342.352   1
  -5  -4   2 28520.9 461.700   1
  -5  -4   1 3798.97 212.315   1
  -5  -4   0 3976.05 294.128   1
  -5  -4  -1 9262.18 313.742   1
   5   4   2 6738.14 326.859   1
  -5  -4  -3 69753.1 570.270   1
  -5  -4  -4 2333.91 158.293   1
  -5  -4  -5 3865.53 188.773   1
   5   4   6 85300.9 807.495   1
   5  -2   0 100551. 1365.65  -2
  -5  -4  -6 100551. 1365.65   1
   5   4   7 37810.4 898.562   1
   5  -3   0 73263.1 1110.92  -2
  -5  -4  -7 73263.1 1110.92   1
   5  -4   0 3993.62 282.524  -2
  -5  -4  -8 3993.62 282.524   1
   5  -5   0 3044.20 287.005  -2
  -5  -4  -9 3044.20 287.005   1
   5  -6   0 1021.21 314.268  -2
  -5  -4 -10 1021.21 314.268   1
   5  -7   0 10936.3 715.163  -2
  -5  -4 -11 10936.3 715.163   1
   5  -8   0 36527.3 1528.13  -2
  -5  -4 -12 36527.3 1528.13   1
   5  -9   0 6990.62 727.253  -2
  -5  -4 -13 6990.62 727.253   1
  -5  -5   7 1185.35 431.206   1
  -5  -5   6 11466.0 585.501   1
  -5  -5   5 191.685 283.540   1
  -5  -5   4 17910.7 613.354   1
  -5  -5   3 7203.70 381.908   1
  -5  -5   2 54470.1 845.041   1
   5   5  -1 4543.66 255.958   1
  -5  -5   0 271.359 143.852   1
  -5  -5  -1 3680.30 210.191   1
   5   5   2 1210.71 146.140   1
   5   5   3 2121.39 128.751   1
  -5  -5  -4 19323.4 361.457   1
  -5  -5  -5 42673.8 488.863   1
  -5  -5  -6 19282.3 494.556   1
   5   5   7 7440.24 398.679   1
   5  -3  -1 11481.9 915.456  -2
  -5  -5  -7 11481.9 915.456   1
   5  -4  -1 9778.89 459.856  -2
  -5  -5  -8 9778.89 459.856   1
   5  -5  -1 1902.94 260.281  -2
  -5  -5  -9 1902.94 260.281   1
   5  -6  -1 13648.5 680.347  -2
  -5  -5 -10 13648.5 680.347   1
  -5   7   1 25115.9 938.536  -2
   5   5  11 25115.9 938.536   1
   5  -8  -1 24834.0 1055.69  -2
  -5  -5 -12 24834.0 1055.69   1
   5  -9  -1 6522.88 887.590  -2
  -5  -5 -13 6522.88 887.590   1
   5   6  -7 2326.31 490.976   1
   5   6  -6 746.854 391.336   1
  -5  -6   5 182.161 344.077   1
  -5  -6   4 435.770 281.453   1
  -5  -6   3 41095.1 746.406   1
   5   6  -2 11378.2 524.311   1
  -5  -6   1 676.571 192.879   1
  -5  -6   0 4644.01 250.547   1
  -5  -6  -1 4056.20 231.612   1
   5   6   2 1061.41 144.236   1
  -5  -6  -3 479.510 129.120   1
  -5  -6  -4 195.146 113.304   1
  -5  -6  -5 96997.8 1027.72   1
  -5  -6  -6 92788.2 1026.73   1
  -5  -6  -7 7869.78 360.938   1
  -5  -6  -8 3401.23 369.435   1
   5  -4  -2 13045.5 759.894  -2
  -5  -6  -8 13045.5 759.894   1
  -5  -6  -9 30906.5 1253.65   1
   5  -5  -2 33590.2 949.072  -2
  -5  -6  -9 33590.2 949.072   1
   5  -6  -2 21912.7 908.545  -2
  -5  -6 -10 21912.7 908.545   1
   5  -7  -2 17404.9 802.912  -2
  -5  -6 -11 17404.9 802.912   1
   5  -8  -2 1993.95 528.905  -2
  -5  -6 -12 1993.95 528.905   1
   5  -9  -2 869.244 931.074  -2
  -5  -6 -13 869.244 931.074   1
  -5  -7   6 2005.29 473.460   1
  -5  -7   5 7592.27 612.337   1
  -5  -7   4 653.934 374.325   1
  -5  -7   3 21726.9 669.366   1
   5   7  -2 269.091 277.472   1
  -5  -7   1 13813.0 409.626   1
  -5  -7   0 33123.1 588.828   1
  -5  -7  -1 50455.7 696.600   1
  -5  -7  -2 3994.67 250.297   1
   5   7   3 14918.5 433.334   1
  -5  -7  -4 21672.9 527.211   1
  -5  -7  -5 5801.03 324.157   1
  -5  -7  -6 20085.9 527.793   1
  -5  -7  -7 1976.81 249.838   1
  -5  -7  -8 7699.37 478.084   1
  -5  -7  -9 24521.0 1193.13   1
   5  -5  -3 30362.1 1125.56  -2
  -5  -7  -9 30362.1 1125.56   1
   5  -6  -3 9083.77 666.589  -2
  -5  -7 -10 9083.77 666.589   1
   5  -7  -3 395.661 501.217  -2
  -5  -7 -11 395.661 501.217   1
   5  -8  -3 1002.29 558.861  -2
  -5  -7 -12 1002.29 558.861   1
  -5  -8   5 6153.48 631.263   1
  -5  -8   4 233.530 379.810   1
  -5  -8   3 65.4046 352.005   1
   5   8  -2 12885.9 643.957   1
   5   8  -1 33414.7 912.800   1
  -5  -8   0 16477.6 530.916   1
  -5  -8  -1 1451.89 259.279   1
   5   8   2 3157.23 345.611   1
  -5  -8  -3 3410.95 264.315   1
   5   8   4 7129.61 355.895   1
  -5  -8  -5 2646.90 270.526   1
  -5  -8  -6 1750.00 252.462   1
  -5  -8  -7 3746.95 390.294   1
  -5  -8  -8 30095.6 865.840   1
  -5  -8  -9 20810.7 751.911   1
   5   8  10 3453.60 781.358   1
   5  -6  -4 3932.83 931.821  -2
  -5  -8 -10 3932.83 931.821   1
   5  -7  -4 1989.76 568.365  -2
  -5  -8 -11 1989.76 568.365   1
  -5   8   4 2471.19 653.506  -2
   5   8  12 2471.19 653.506   1
   5   8  13 3440.26 1189.72   1
  -5  -9   5 4502.68 1056.30   1
  -5  -9   4 3263.45 540.935   1
   5   9  -3 8.84947 380.082   1
   5   9  -2 862.478 357.221   1
  -5  -9   1 1134.21 355.947   1
  -5  -9   0 16883.8 586.278   1
  -5  -9  -1 3351.97 339.886   1
   5   9   2 28148.8 799.225   1
  -5  -9  -3 51336.6 1040.90   1
  -5  -9  -4 8607.28 404.841   1
  -5  -9  -5 1850.71 267.979   1
   5   9   6 255.350 270.811   1
  -5  -9  -7 20194.1 734.858   1
  -5  -9  -8 27122.2 849.832   1
  -5  -9  -9 12097.6 650.711   1
  -5  -9 -10 816.415 499.828   1
   5  -7  -5 3046.39 614.015  -2
  -5  -9 -11 3046.39 614.015   1
   5   9  12 2105.45 961.015   1
  -5 -10   3 15347.3 822.760   1
   5  10  -2 4529.77 526.412   1
  -5 -10   1 3283.69 467.831   1
  -5 -10   0 118.071 362.116   1
  -5 -10  -1 11358.8 543.288   1
  -5 -10  -2 21423.9 678.564   1
   5  10   3 23772.4 794.596   1
  -5 -10  -4 2935.24 391.762   1
   5  10   5 224.866 292.818   1
  -5 -10  -6 6809.00 498.338   1
  -5 -10  -7 3094.86 427.061   1
   5  10   8-81.2366 351.698   1
  -5 -10  -9-201.855 481.982   1
   5  10  10 4918.88 706.758   1
   5  10  11 17209.4 1132.49   1
  -5 -11   3 2330.32 924.581   1
   5  11  -2 173.456 543.838   1
  -5 -11   1-33.2967 452.763   1
  -5 -11   0 2905.53 503.394   1
  -5 -11  -1 15050.3 642.450   1
  -5 -11  -2 4536.03 424.465   1
   5  11   3 8728.90 577.881   1
   5  11   4 8213.77 735.671   1
   5  11   5 6950.22 688.195   1
   5  11   6 16938.9 961.343   1
  -5 -11  -7 2159.87 413.871   1
  -5 -11  -8 98.9961 373.043   1
  -5 -11  -9-183.451 498.826   1
  -5 -11 -10 2899.01 866.297   1
   5  12  -1 2372.36 774.101   1
  -5 -12   0 351.504 456.501   1
  -5 -12  -1 1999.80 504.303   1
  -5 -12  -2 511.482 430.766   1
   5  12   3 46.2958 519.385   1
   5  12   4 4693.76 669.891   1
  -5 -12  -5 25746.4 1203.23   1
   5  12   6 8165.54 815.993   1
   5  12   7 514.325 509.807   1
  -5 -12  -8 473.255 481.301   1
  -5 -12  -9 1020.92 692.513   1
   5  13   3 3086.63 902.577   1
   5  13   4 8235.50 1193.16   1
   5  13   5 22672.4 1818.27   1
   6  -9   2-245.838 772.914   1
   6   8  13 713.705 1240.95  -2
  -6   8   3 713.705 1240.95   1
   6   7  13 19533.4 2130.09  -2
  -6   8   2 19533.4 2130.09   1
   6   6  13 15649.1 1317.71  -2
  -6   8   1 15649.1 1317.71   1
   6   5  13 4887.28 909.377  -2
  -6   8   0 4887.28 909.377   1
  -6  -4 -13 2941.76 798.142  -2
   6  -8   1 2941.76 798.142   1
  -6   8  -2 226.866 563.395   1
   6  -8   3 1525.32 765.626   1
   6   2  13 2707.87 1235.33  -2
  -6   8  -3 2707.87 1235.33   1
   6  -8   4 259.671 710.066   1
   6  -8   5 204.442 693.521   1
   6   9  12 161.546 886.019  -2
  -6   7   4 161.546 886.019   1
   6   8  12 129.909 731.016  -2
  -6   7   3 129.909 731.016   1
   6   7  12 3570.36 879.391  -2
  -6   7   2 3570.36 879.391   1
   6   6  12 2123.17 818.988  -2
  -6   7   1 2123.17 818.988   1
  -6  -5 -12 6912.13 911.400  -2
   6  -7   0 6912.13 911.400   1
  -6  -4 -12 14824.6 1133.63  -2
   6  -7   1 14824.6 1133.63   1
   6  -7   2 3668.09 851.105   1
   6   3  12 19985.4 1204.54  -2
  -6   7  -2 19985.4 1204.54   1
   6  -7   3-110.138 486.506   1
   6   2  12 8708.22 1482.96  -2
  -6   7  -3 8708.22 1482.96   1
   6  -7   4 668.358 438.892   1
   6   1  12 1225.83 1074.53  -2
  -6   7  -4 1225.83 1074.53   1
   6  -7   5 4111.66 856.779   1
   6   0  12 4498.91 1305.23  -2
  -6   7  -5 4498.91 1305.23   1
   6  -7   6 4733.93 983.026   1
   6  -1  12 6436.07 1458.52  -2
  -6   7  -6 6436.07 1458.52   1
   6  -7   7 5817.00 1111.10   1
   6  10  11 1927.12 1030.27  -2
  -6   6   5 1927.12 1030.27   1
   6   9  11 4462.17 964.311  -2
  -6   6   4 4462.17 964.311   1
  -6  -8 -11 6554.17 1034.38  -2
   6  -6  -3 6554.17 1034.38   1
   6   7  11 8376.52 1067.07  -2
  -6   6   2 8376.52 1067.07   1
   6   6  11 2238.51 703.734  -2
  -6   6   1 2238.51 703.734   1
   6   5  11 14838.6 1122.45  -2
  -6   6   0 14838.6 1122.45   1
   6   4  11 23139.3 1201.48  -2
  -6   6  -1 23139.3 1201.48   1
   6   3  11 18554.2 744.353  -2
  -6   6  -2 18554.2 744.353   1
   6   2  11 4361.46 533.856  -2
  -6   6  -3 4361.46 533.856   1
   6  -6   4 1166.03 405.737   1
   6   1  11 1573.30 1002.50  -2
  -6   6  -4 1573.30 1002.50   1
   6  -6   5 239.259 606.415   1
   6   0  11 1172.80 1026.80  -2
  -6   6  -5 1172.80 1026.80   1
   6  -6   6 566.157 603.961   1
   6  -1  11 780.173 1051.86  -2
  -6   6  -6 780.173 1051.86   1
   6  -6   7 326.301 653.069   1
   6  -2  11 2509.08 1178.18  -2
  -6   6  -7 2509.08 1178.18   1
   6  -6   8 562.771 685.317   1
   6  -3  11 3525.15 1335.75  -2
  -6   6  -8 3525.15 1335.75   1
   6  11  10 4952.25 1302.65  -2
  -6   5   6 4952.25 1302.65   1
   6  10  10 11119.3 1131.81  -2
  -6   5   5 11119.3 1131.81   1
  -6  -9 -10 19144.3 1381.19  -2
   6  -5  -4 19144.3 1381.19   1
  -6  -8 -10 4613.60 849.199  -2
   6  -5  -3 4613.60 849.199   1
  -6  -7 -10 114.138 613.618  -2
   6  -5  -2 114.138 613.618   1
   6   6  10 2298.35 716.438  -2
  -6   5   1 2298.35 716.438   1
   6   5  10 12435.3 771.746  -2
  -6   5   0 12435.3 771.746   1
   6   4  10 20773.7 880.895  -2
  -6   5  -1 20773.7 880.895   1
   6   3  10 2976.59 431.995  -2
  -6   5  -2 2976.59 431.995   1
  -6  -2 -10 8701.41 600.943  -2
   6  -5   3 8701.41 600.943   1
   6   1  10 14190.1 702.548  -2
  -6   5  -4 14190.1 702.548   1
   6  -5   5 2420.94 740.444   1
   6   0  10 7863.32 1222.46  -2
  -6   5  -5 7863.32 1222.46   1
   6  -5   6 395.527 612.516   1
   6  -1  10 8328.07 1392.01  -2
  -6   5  -6 8328.07 1392.01   1
   6  -5   7 116.783 598.492   1
   6  -2  10 1550.66 1058.89  -2
  -6   5  -7 1550.66 1058.89   1
   6  -5   8 5255.42 954.959   1
   6  -3  10 5261.38 1247.03  -2
  -6   5  -8 5261.38 1247.03   1
   6  -5   9 10245.1 1318.67   1
   6  -4  10 12471.6 1695.14  -2
  -6   5  -9 12471.6 1695.14   1
  -6 -11  -9 6575.76 965.331  -2
   6  -4  -6 6575.76 965.331   1
  -6 -10  -9 13842.8 1117.29  -2
   6  -4  -5 13842.8 1117.29   1
  -6  -9  -9 9815.22 989.925  -2
   6  -4  -4 9815.22 989.925   1
   6   8   9 3502.32 705.232  -2
  -6   4   3 3502.32 705.232   1
   6   7   9 11050.1 1021.39  -2
  -6   4   2 11050.1 1021.39   1
   6   6   9 1096.41 372.908  -2
  -6   4   1 1096.41 372.908   1
  -6  -5  -9 3496.88 500.047  -2
   6  -4   0 3496.88 500.047   1
  -6  -4  -9 475.002 353.948  -2
   6  -4   1 475.002 353.948   1
   6   3   9 6089.73 494.694  -2
  -6   4  -2 6089.73 494.694   1
   6   2   9 84612.7 1466.57  -2
  -6   4  -3 84612.7 1466.57   1
  -6  -1  -9 109762. 1549.33  -2
   6  -4   4 109762. 1549.33   1
   6  -4   5 3247.67 581.295   1
   6   0   9 10158.0 822.377  -2
  -6   4  -5 10158.0 822.377   1
   6  -4   6 352.168 583.294   1
   6  -1   9 4798.15 1084.45  -2
  -6   4  -6 4798.15 1084.45   1
   6  -4   7 2248.54 720.681   1
   6  -2   9 3270.66 1030.96  -2
  -6   4  -7 3270.66 1030.96   1
   6  -4   8 4774.79 902.679   1
   6  -3   9 5951.67 1231.60  -2
  -6   4  -8 5951.67 1231.60   1
   6  -4   9 727.183 724.416   1
   6  -4   9 3599.02 1172.37  -2
  -6   4  -9 3599.02 1172.37   1
   6  -4  10-283.698 782.926   1
   6  -5   9 13590.5 1725.68  -2
  -6   4 -10 13590.5 1725.68   1
  -6   3   7 395.816 803.875   1
  -6   3   6 7502.82 1182.32   1
  -6 -11  -8 10637.2 1415.80  -2
   6  -3  -6 10637.2 1415.80   1
  -6 -10  -8 9948.78 917.374  -2
   6  -3  -5 9948.78 917.374   1
  -6  -9  -8 1548.71 606.316  -2
   6  -3  -4 1548.71 606.316   1
   6   8   8 25055.1 1238.91  -2
  -6   3   3 25055.1 1238.91   1
  -6  -7  -8 49469.8 1282.19  -2
   6  -3  -2 49469.8 1282.19   1
   6   6   8 2606.94 450.536  -2
  -6   3   1 2606.94 450.536   1
   6   5   8 20912.0 940.907  -2
  -6   3   0 20912.0 940.907   1
  -6  -4  -8 4300.96 501.246  -2
   6  -3   1 4300.96 501.246   1
   6   3   8 10448.5 582.099  -2
  -6   3  -2 10448.5 582.099   1
  -6  -2  -8 31423.4 956.874  -2
   6  -3   3 31423.4 956.874   1
   6   1   8 34316.1 935.828  -2
  -6   3  -4 34316.1 935.828   1
  -6   0  -8 8020.22 517.477  -2
   6  -3   5 8020.22 517.477   1
   6  -1   8 3243.75 614.247  -2
  -6   3  -6 3243.75 614.247   1
   6  -3   7 8157.71 937.314   1
   6  -2   8 11574.0 1300.55  -2
  -6   3  -7 11574.0 1300.55   1
   6  -3   8 730.936 602.226   1
   6  -3   8 2471.70 981.310  -2
  -6   3  -8 2471.70 981.310   1
   6  -3   9 348.953 664.993   1
   6  -4   8 4721.26 1217.03  -2
  -6   3  -9 4721.26 1217.03   1
   6  -3  10 755.060 704.790   1
   6  -5   8 6061.38 1317.16  -2
  -6   3 -10 6061.38 1317.16   1
   6  -3  11 1738.91 818.712   1
   6  -6   8 4437.79 1284.19  -2
  -6   3 -11 4437.79 1284.19   1
   6  -2  -7 824.106 535.118   1
   6  -2  -6 3150.04 633.521   1
   6  10   7 837.529 630.304  -2
  -6   2   5 837.529 630.304   1
  -6  -9  -7 7542.50 793.896  -2
   6  -2  -4 7542.50 793.896   1
   6   8   7 28739.9 902.205  -2
  -6   2   3 28739.9 902.205   1
   6   7   7 17704.4 760.202  -2
  -6   2   2 17704.4 760.202   1
   6   6   7 10916.9 662.051  -2
  -6   2   1 10916.9 662.051   1
   6   5   7 5155.97 515.922  -2
  -6   2   0 5155.97 515.922   1
   6   4   7 12742.6 724.151  -2
  -6   2  -1 12742.6 724.151   1
   6   3   7 10210.8 559.472  -2
  -6   2  -2 10210.8 559.472   1
   6   2   7 25463.1 780.014  -2
  -6   2  -3 25463.1 780.014   1
   6   1   7 12202.6 605.583  -2
  -6   2  -4 12202.6 605.583   1
  -6   0  -7 9978.56 517.530  -2
   6  -2   5 9978.56 517.530   1
   6  -1   7 106984. 1919.12  -2
  -6   2  -6 106984. 1919.12   1
  -6   2  -7 21464.7 761.569  -2
   6  -2   7 21464.7 761.569   1
   6  -2   8 5635.82 839.751   1
   6  -3   7 12034.2 798.516  -2
  -6   2  -8 12034.2 798.516   1
   6  -2   9-13.1930 607.812   1
   6  -4   7 2870.76 1024.14  -2
  -6   2  -9 2870.76 1024.14   1
   6  -2  10 773.800 631.020   1
   6  -5   7 956.443 1026.91  -2
  -6   2 -10 956.443 1026.91   1
   6  -2  11 2106.82 835.584   1
   6  -6   7 3303.11 1128.45  -2
  -6   2 -11 3303.11 1128.45   1
   6  -2  12 766.616 735.108   1
   6  -1  -7 3950.01 673.169   1
   6  -1  -6 4182.18 651.098   1
   6  -1  -5 2421.42 537.132   1
   6  -1  -4 3219.23 572.061   1
  -6  -9  -6 4887.48 682.330  -2
   6  -1  -4 4887.48 682.330   1
  -6  -8  -6 23988.7 807.691  -2
   6  -1  -3 23988.7 807.691   1
  -6  -7  -6 31675.6 899.089  -2
   6  -1  -2 31675.6 899.089   1
   6   6   6 20244.6 769.453  -2
  -6   1   1 20244.6 769.453   1
  -6  -5  -6 82989.6 1515.74  -2
   6  -1   0 82989.6 1515.74   1
   6   4   6 26354.4 915.156  -2
  -6   1  -1 26354.4 915.156   1
   6   3   6 2893.06 304.767  -2
  -6   1  -2 2893.06 304.767   1
   6   2   6 434.997 234.724  -2
  -6   1  -3 434.997 234.724   1
   6   1   6 45288.7 1050.45  -2
  -6   1  -4 45288.7 1050.45   1
   6   0   6 33512.4 652.471  -2
  -6   1  -5 33512.4 652.471   1
   6  -1   6 192515. 1915.51  -2
  -6   1  -6 192515. 1915.51   1
  -6   2  -6 104470. 1436.95  -2
   6  -1   7 104470. 1436.95   1
  -6   3  -6 3019.97 443.067  -2
   6  -1   8 3019.97 443.067   1
   6  -1   9 2748.13 704.631   1
  -6   4  -6 3866.87 611.112  -2
   6  -1   9 3866.87 611.112   1
   6  -1  10 7044.38 964.176   1
   6  -5   6 8162.35 795.361  -2
  -6   1 -10 8162.35 795.361   1
   6  -1  11 534.263 595.369   1
  -6   6  -6 983.023 623.702  -2
   6  -1  11 983.023 623.702   1
   6  -1  12 311.872 757.885   1
   6  -7   6 5411.76 1384.22  -2
  -6   1 -12 5411.76 1384.22   1
   6   0  -7 36.4981 523.065   1
   6   0  -6 48.8231 515.870   1
   6   0  -5 5462.10 641.288   1
   6   0  -4 9087.36 659.997   1
  -6  -9  -5 12157.0 1154.96  -2
   6   0  -4 12157.0 1154.96   1
   6   0  -3 513.556 409.957   1
   6   8   5 226.209 334.154  -2
  -6   0   3 226.209 334.154   1
  -6  -7  -5 4092.38 359.235  -2
   6   0  -2 4092.38 359.235   1
   6   6   5 80226.9 1302.63  -2
  -6   0   1 80226.9 1302.63   1
  -6  -5  -5 151980. 1849.60  -2
   6   0   0 151980. 1849.60   1
   6   4   5 89320.0 1498.15  -2
  -6   0  -1 89320.0 1498.15   1
   6   3   5 2833.32 315.768  -2
  -6   0  -2 2833.32 315.768   1
   6   2   5 2234.04 249.286  -2
  -6   0  -3 2234.04 249.286   1
   6   1   5 13138.2 592.413  -2
  -6   0  -4 13138.2 592.413   1
   6   0   5 22697.8 696.150  -2
  -6   0  -5 22697.8 696.150   1
   6  -1   5 34128.5 847.174  -2
  -6   0  -6 34128.5 847.174   1
  -6   2  -5 10638.5 565.130  -2
   6   0   7 10638.5 565.130   1
   6  -3   5 7810.62 538.042  -2
  -6   0  -8 7810.62 538.042   1
   6  -4   5 10024.9 618.284  -2
  -6   0  -9 10024.9 618.284   1
   6   0  10 5153.22 844.979   1
  -6   5  -5 7846.02 779.957  -2
   6   0  10 7846.02 779.957   1
   6   0  11-73.0272 601.613   1
   6  -6   5 1326.13 910.786  -2
  -6   0 -11 1326.13 910.786   1
   6   0  12 1453.83 665.362   1
   6  -7   5 5590.40 1265.82  -2
  -6   0 -12 5590.40 1265.82   1
   6   0  13 1131.84 692.441   1
   6   1  -7 3204.34 615.095   1
   6   1  -6 2870.85 578.027   1
   6   1  -5 1318.25 363.012   1
   6   1  -4 837.645 374.006   1
  -6  -9  -4 1262.86 743.323  -2
   6   1  -4 1262.86 743.323   1
  -6  -1   3 886.433 264.877   1
  -6  -8  -4 11550.4 1065.32  -2
   6   1  -3 11550.4 1065.32   1
   6   1  -2-75.7422 481.094   1
   6   7   4 20809.5 788.727  -2
  -6  -1   2 20809.5 788.727   1
   6   6   4 103071. 1312.26  -2
  -6  -1   1 103071. 1312.26   1
   6   5   4 58203.9 1314.18  -2
  -6  -1   0 58203.9 1314.18   1
   6   4   4 3834.61 480.459  -2
  -6  -1  -1 3834.61 480.459   1
   6   3   4 8116.00 403.097  -2
  -6  -1  -2 8116.00 403.097   1
  -6  -2  -4 38671.5 806.978  -2
   6   1   3 38671.5 806.978   1
  -6  -1  -4 37118.2 675.074  -2
   6   1   4 37118.2 675.074   1
   6   0   4 13255.2 536.096  -2
  -6  -1  -5 13255.2 536.096   1
   6  -1   4 44706.0 1068.99  -2
  -6  -1  -6 44706.0 1068.99   1
   6  -2   4 12267.6 642.110  -2
  -6  -1  -7 12267.6 642.110   1
   6  -3   4 37314.1 1030.34  -2
  -6  -1  -8 37314.1 1030.34   1
  -6   4  -4 109045. 1478.80  -2
   6   1   9 109045. 1478.80   1
  -6   5  -4 13300.9 652.701  -2
   6   1  10 13300.9 652.701   1
   6   1  11-133.484 570.360   1
   6  -6   4 1560.81 492.509  -2
  -6  -1 -11 1560.81 492.509   1
   6   1  12 132.445 552.343   1
   6  -7   4 1905.89 670.602  -2
  -6  -1 -12 1905.89 670.602   1
   6  -8   4 1080.78 983.457  -2
  -6  -1 -13 1080.78 983.457   1
   6   2  -7 1738.86 623.238   1
   6   2  -6 2903.29 437.800   1
  -6  -2   5 16187.1 630.554   1
  -6  -2   4 5277.56 445.664   1
   6   2  -3 1259.57 289.208   1
   6   8   3 48806.4 1488.82  -2
  -6  -2   3 48806.4 1488.82   1
  -6  -2   2 45648.8 908.307   1
   6   7   3 49430.6 1316.38  -2
  -6  -2   2 49430.6 1316.38   1
  -6  -2   1 2504.01 637.070   1
   6   6   3 12061.7 443.705  -2
  -6  -2   1 12061.7 443.705   1
   6   5   3 2642.97 230.492  -2
  -6  -2   0 2642.97 230.492   1
   6   4   3 15985.9 313.101  -2
  -6  -2  -1 15985.9 313.101   1
   6   3   3 141640. 1364.99  -2
  -6  -2  -2 141640. 1364.99   1
   6   2   3 213363. 1914.82  -2
  -6  -2  -3 213363. 1914.82   1
   6   1   3 38688.7 716.694  -2
  -6  -2  -4 38688.7 716.694   1
   6   0   3 2049.70 201.175  -2
  -6  -2  -5 2049.70 201.175   1
  -6   1  -3 160.504 138.051  -2
   6   2   6 160.504 138.051   1
   6  -2   3 25226.2 766.843  -2
  -6  -2  -7 25226.2 766.843   1
  -6   3  -3 32298.0 874.887  -2
   6   2   8 32298.0 874.887   1
   6  -4   3 84362.9 1343.52  -2
  -6  -2  -9 84362.9 1343.52   1
   6  -5   3 8364.26 482.407  -2
  -6  -2 -10 8364.26 482.407   1
  -6   6  -3 3830.57 466.075  -2
   6   2  11 3830.57 466.075   1
   6   2  12 6164.63 954.113   1
   6  -7   3 8071.72 764.075  -2
  -6  -2 -12 8071.72 764.075   1
   6  -8   3 1787.16 610.212  -2
  -6  -2 -13 1787.16 610.212   1
   6   3  -7 1956.04 615.781   1
  -6  -3   6 4489.54 500.565   1
  -6  -3   5 345.858 326.574   1
  -6  -3   4 16872.7 693.157   1
  -6  -3   3 6725.64 369.331   1
  -6  -3   2 21944.7 551.245   1
  -6  -3   1 3046.47 317.392   1
   6   6   2 6647.69 564.238  -2
  -6  -3   1 6647.69 564.238   1
  -6  -3   0 607.630 205.687   1
   6   5   2 16957.0 706.790  -2
  -6  -3   0 16957.0 706.790   1
   6   4   2 58804.8 694.241  -2
  -6  -3  -1 58804.8 694.241   1
   6   3   2 92666.4 801.340   1
   6   3   2 219534. 1835.91  -2
  -6  -3  -2 219534. 1835.91   1
   6   2   2 140258. 743.287  -2
  -6  -3  -3 140258. 743.287   1
   6   1   2 8963.29 328.639  -2
  -6  -3  -4 8963.29 328.639   1
   6   0   2 2816.75 233.563  -2
  -6  -3  -5 2816.75 233.563   1
   6  -1   2 3155.79 246.882  -2
  -6  -3  -6 3155.79 246.882   1
  -6   2  -2 10682.3 483.517  -2
   6   3   7 10682.3 483.517   1
  -6   3  -2 10508.5 500.242  -2
   6   3   8 10508.5 500.242   1
  -6   4  -2 6589.42 433.083  -2
   6   3   9 6589.42 433.083   1
  -6   5  -2 2951.51 353.677  -2
   6   3  10 2951.51 353.677   1
  -6   6  -2 18840.5 678.908  -2
   6   3  11 18840.5 678.908   1
  -6   7  -2 20838.5 877.091  -2
   6   3  12 20838.5 877.091   1
   6  -8   2 579.788 608.035  -2
  -6  -3 -13 579.788 608.035   1
   6   4  -7 2741.57 905.431   1
  -6  -4   6 5051.91 554.189   1
  -6  -4   5 315.864 369.796   1
  -6  -4   4 8681.64 541.479   1
  -6  -4   3 7633.40 399.564   1
  -6  -4   2 12973.6 459.099   1
   6   4  -1 11678.4 421.133   1
  -6  -4   0 2481.41 241.616   1
   6   4   1 32232.2 744.210   1
  -6  -4  -2 6292.02 448.441   1
   6   3   1 56806.2 927.218  -2
  -6  -4  -2 56806.2 927.218   1
  -6  -4  -3 8608.58 277.864   1
   6   2   1 16331.4 550.826  -2
  -6  -4  -3 16331.4 550.826   1
   6   1   1 3993.03 235.282  -2
  -6  -4  -4 3993.03 235.282   1
   6   0   1 95581.2 934.613  -2
  -6  -4  -5 95581.2 934.613   1
   6  -1   1 26832.1 572.151  -2
  -6  -4  -6 26832.1 572.151   1
   6  -2   1 15491.6 396.578  -2
  -6  -4  -7 15491.6 396.578   1
   6  -3   1 4734.46 388.143  -2
  -6  -4  -8 4734.46 388.143   1
   6  -4   1 445.177 266.487  -2
  -6  -4  -9 445.177 266.487   1
   6  -5   1 20511.0 628.331  -2
  -6  -4 -10 20511.0 628.331   1
   6  -6   1 23045.5 884.474  -2
  -6  -4 -11 23045.5 884.474   1
   6  -7   1 16484.0 813.364  -2
  -6  -4 -12 16484.0 813.364   1
   6  -8   1 3017.94 636.979  -2
  -6  -4 -13 3017.94 636.979   1
  -6  -5   7 2335.77 581.878   1
  -6  -5   6 3437.81 535.908   1
  -6  -5   5 10683.4 672.684   1
  -6  -5   4 11159.7 624.674   1
  -6  -5   3 9703.52 461.621   1
  -6  -5   2 4263.54 318.101   1
  -6  -5   1 2735.48 223.939   1
   6   5   0 12216.0 414.428   1
  -6  -5  -1 73500.5 903.275   1
  -6  -4   0 75863.2 1646.00  -2
   6   5   1 75863.2 1646.00   1
  -6  -5  -2 17371.6 501.830   1
  -6  -3   0 16268.6 1069.16  -2
   6   5   2 16268.6 1069.16   1
  -6  -2   0 3000.09 312.925  -2
   6   5   3 3000.09 312.925   1
   6   1   0 55752.6 587.515  -2
  -6  -5  -4 55752.6 587.515   1
  -6   0   0 157742. 1148.55  -2
   6   5   5 157742. 1148.55   1
   6  -1   0 85092.6 1236.08  -2
  -6  -5  -6 85092.6 1236.08   1
   6  -2   0 5304.01 350.104  -2
  -6  -5  -7 5304.01 350.104   1
  -6   3   0 21172.1 598.122  -2
   6   5   8 21172.1 598.122   1
  -6   4   0 3314.62 345.655  -2
   6   5   9 3314.62 345.655   1
   6  -5   0 13237.7 552.718  -2
  -6  -5 -10 13237.7 552.718   1
   6  -6   0 16610.8 819.892  -2
  -6  -5 -11 16610.8 819.892   1
   6  -7   0 7174.66 640.913  -2
  -6  -5 -12 7174.66 640.913   1
   6  -8   0 4495.70 756.368  -2
  -6  -5 -13 4495.70 756.368   1
   6   6  -6 1456.28 631.806   1
  -6  -6   5 19824.8 869.893   1
  -6  -6   4 1453.48 393.733   1
  -6  -6   3 1775.01 299.301   1
  -6  -6   2 4723.93 373.367   1
   6   6  -1 28697.9 794.157   1
   6   6   0 34812.6 675.842   1
  -6  -6  -1 1757.76 200.710   1
  -6  -6  -2 2772.56 249.548   1
  -6  -3   1 5350.80 650.660  -2
   6   6   2 5350.80 650.660   1
  -6  -6  -3 8742.86 456.369   1
   6   2  -1 12200.2 483.105  -2
  -6  -6  -3 12200.2 483.105   1
  -6  -6  -4 84783.9 1405.63   1
   6   1  -1 106317. 1117.14  -2
  -6  -6  -4 106317. 1117.14   1
  -6   0   1 79589.8 865.197  -2
   6   6   5 79589.8 865.197   1
   6  -1  -1 22192.7 577.335  -2
  -6  -6  -6 22192.7 577.335   1
   6  -2  -1 12444.9 514.091  -2
  -6  -6  -7 12444.9 514.091   1
  -6   3   1 2612.03 313.359  -2
   6   6   8 2612.03 313.359   1
   6  -4  -1 1154.31 302.373  -2
  -6  -6  -9 1154.31 302.373   1
  -6   5   1 2885.08 403.701  -2
   6   6  10 2885.08 403.701   1
   6  -6  -1 1393.44 457.863  -2
  -6  -6 -11 1393.44 457.863   1
   6  -7  -1 2648.69 521.990  -2
  -6  -6 -12 2648.69 521.990   1
  -6   8   1 17535.2 1080.03  -2
   6   6  13 17535.2 1080.03   1
  -6  -7   6 9171.46 1416.71   1
  -6  -7   5 6429.58 753.451   1
  -6  -7   4 1043.96 501.279   1
  -6  -7   3 3025.21 359.188   1
  -6  -7   2 3373.34 355.523   1
  -6  -7   1 35839.8 910.136   1
  -6  -7   0 6096.93 312.969   1
  -6  -7  -1 297.121 186.570   1
  -6  -7  -2 346.213 185.721   1
  -6  -7  -3 978.606 180.628   1
   6   1  -2 21882.3 570.067  -2
  -6  -7  -4 21882.3 570.067   1
   6   0  -2 4386.45 363.098  -2
  -6  -7  -5 4386.45 363.098   1
   6  -1  -2 27459.3 712.682  -2
  -6  -7  -6 27459.3 712.682   1
  -6   2   2 18060.1 651.676  -2
   6   7   7 18060.1 651.676   1
   6  -3  -2 51528.7 1109.38  -2
  -6  -7  -8 51528.7 1109.38   1
  -6   4   2 11343.6 677.688  -2
   6   7   9 11343.6 677.688   1
   6  -5  -2-96.9019 493.090  -2
  -6  -7 -10-96.9019 493.090   1
   6  -6  -2 8778.24 742.910  -2
  -6  -7 -11 8778.24 742.910   1
  -6   7   2 4264.67 648.273  -2
   6   7  12 4264.67 648.273   1
  -6   8   2 19175.9 1414.39  -2
   6   7  13 19175.9 1414.39   1
  -6  -8   5 1829.65 905.900   1
  -6  -8   4 1696.14 604.499   1
  -6  -8   3 20035.1 825.848   1
   6   8  -2 2983.64 530.744   1
   6   8  -1 9512.98 696.696   1
  -6  -8   0 6062.85 478.228   1
  -6  -8  -1 999.266 252.499   1
  -6  -8  -2 21034.2 605.075   1
   6   8   3 43123.9 957.673   1
  -6  -8  -4 11243.9 547.365   1
   6   1  -3 13397.1 825.871  -2
  -6  -8  -4 13397.1 825.871   1
   6   8   5 183.587 314.959   1
   6   0  -3 725.468 420.334  -2
  -6  -8  -5 725.468 420.334   1
   6  -1  -3 23682.3 671.423  -2
  -6  -8  -6 23682.3 671.423   1
  -6   2   3 29066.9 759.330  -2
   6   8   7 29066.9 759.330   1
   6  -3  -3 26316.9 974.920  -2
  -6  -8  -8 26316.9 974.920   1
   6  -4  -3 3378.77 538.949  -2
  -6  -8  -9 3378.77 538.949   1
   6  -5  -3 4808.86 693.391  -2
  -6  -8 -10 4808.86 693.391   1
   6  -6  -3 7677.11 747.431  -2
  -6  -8 -11 7677.11 747.431   1
  -6   7   3 239.237 498.394  -2
   6   8  12 239.237 498.394   1
  -6  -9   4 3124.31 954.817   1
  -6  -9   3 19235.6 882.806   1
  -6  -9   2 18328.5 999.631   1
  -6  -9   1 1127.75 451.250   1
  -6  -9   0 7569.38 554.556   1
  -6  -9  -1 10839.7 500.042   1
  -6  -9  -2 16694.8 592.911   1
   6   9   3 5280.36 453.045   1
   6   9   4 121.150 313.191   1
   6   9   5 2551.02 449.960   1
   6   0  -4 11078.1 706.367  -2
  -6  -9  -5 11078.1 706.367   1
   6   9   6 2102.01 527.941   1
   6  -1  -4 6058.88 518.493  -2
  -6  -9  -6 6058.88 518.493   1
   6  -2  -4 7832.57 586.917  -2
  -6  -9  -7 7832.57 586.917   1
   6  -3  -4 1296.88 438.121  -2
  -6  -9  -8 1296.88 438.121   1
   6  -4  -4 11863.7 790.616  -2
  -6  -9  -9 11863.7 790.616   1
   6  -5  -4 23373.6 1464.70  -2
  -6  -9 -10 23373.6 1464.70   1
   6  -6  -4 5758.72 825.621  -2
  -6  -9 -11 5758.72 825.621   1
  -6   7   4 755.321 866.000  -2
   6   9  12 755.321 866.000   1
  -6 -10   3 6567.84 782.903   1
   6  10  -2 656.896 504.053   1
  -6 -10   1 306.532 465.204   1
  -6 -10   0 1792.56 419.993   1
  -6 -10  -1 3070.39 451.857   1
  -6 -10  -2 10963.4 544.942   1
   6  10   3 156.447 345.164   1
   6  10   4 3318.14 411.753   1
   6  10   5 3419.28 429.075   1
   6  10   6 721.629 450.175   1
   6  -1  -5 3843.23 773.563  -2
  -6 -10  -6 3843.23 773.563   1
  -6 -10  -7 191.148 568.994   1
   6  -2  -5 1489.42 583.519  -2
  -6 -10  -7 1489.42 583.519   1
   6  -3  -5 11046.8 729.585  -2
  -6 -10  -8 11046.8 729.585   1
   6  -4  -5 15553.3 870.746  -2
  -6 -10  -9 15553.3 870.746   1
   6  -5  -5 13640.9 1204.27  -2
  -6 -10 -10 13640.9 1204.27   1
   6  -6  -5 2115.15 1087.78  -2
  -6 -10 -11 2115.15 1087.78   1
  -6 -11   2 84.1490 823.723   1
   6  11  -1 9051.97 857.830   1
  -6 -11   0 12323.5 769.619   1
  -6 -11  -1 19219.1 875.877   1
   6  11   2-33.6337 318.720   1
  -6 -11  -3 807.867 314.041   1
  -6 -11  -4 152.971 365.574   1
   6  11   5 15710.5 949.740   1
   6  11   6 3128.40 581.758   1
  -6 -11  -7-325.848 694.527   1
  -6   2   6 4358.25 1157.06  -2
   6  11   7 4358.25 1157.06   1
   6  -3  -6 10234.5 765.776  -2
  -6 -11  -8 10234.5 765.776   1
   6  -4  -6 6609.77 725.847  -2
  -6 -11  -9 6609.77 725.847   1
   6  -5  -6 6127.36 1292.19  -2
  -6 -11 -10 6127.36 1292.19   1
  -6 -12   0 2036.20 656.692   1
  -6 -12  -1 2545.46 518.535   1
  -6 -12  -2 1175.06 445.343   1
  -6 -12  -3 11362.5 751.060   1
  -6 -12  -4 860.001 525.696   1
   6  12   5 9265.02 841.839   1
   6  12   6 2764.60 637.219   1
  -6 -12  -7 4156.03 692.064   1
   6  -3  -7 4004.74 1092.90  -2
  -6 -12  -8 4004.74 1092.90   1
   6  13   3 2922.47 972.451   1
   6  13   4 363.683 809.713   1
   6  13   5 182.050 782.661   1
   7  -8   2 327.444 777.860   1
  -7   7   1 2924.03 725.758   1
   7  -7   0 15288.8 1124.36   1
  -7   7  -1 5211.06 808.309   1
  -7   7  -2 106.262 535.528   1
  -7   7  -3 68.5575 424.194   1
  -7   7  -4 1686.37 505.455   1
   7  -7   5 5162.02 1022.77   1
   7   9  12 4243.34 1311.57  -2
  -7   6   3 4243.34 1311.57   1
  -7   6   2 3201.59 704.131   1
  -7   6   1 5689.95 803.098   1
  -7   6   0 8385.95 861.610   1
  -7   6  -1 3166.98 635.602   1
   7  -6   2 92.1484 348.479   1
  -7   6  -3 438.956 325.011   1
  -7   6  -4 5288.89 708.466   1
  -7   6  -5 323.482 486.988   1
  -7   6  -6-295.248 552.070   1
  -7   6  -7 1361.43 630.475   1
   7  10  11 1077.67 1095.73  -2
  -7   5   4 1077.67 1095.73   1
   7   9  11 2229.14 811.518  -2
  -7   5   3 2229.14 811.518   1
   7   8  11 16129.9 1212.24  -2
  -7   5   2 16129.9 1212.24   1
  -7   5   1 10558.9 1374.72   1
  -7  -7 -11 21609.9 1729.71  -2
   7  -5  -1 21609.9 1729.71   1
   7  -5   0 1643.74 572.316   1
  -7   5  -1 391.578 314.334   1
  -7   5  -2 14788.4 638.212   1
   7  -5   3 18907.1 706.627   1
   7  -5   4 12866.2 696.404   1
  -7   5  -5 493.918 472.559   1
  -7   5  -6-98.6744 527.396   1
  -7   5  -7 453.633 513.792   1
  -7   5  -8 2958.05 650.821   1
   7  11  10 2696.54 1309.68  -2
  -7   4   5 2696.54 1309.68   1
  -7 -10 -10 1304.64 684.926  -2
   7  -4  -4 1304.64 684.926   1
   7   9  10 9339.06 1037.00  -2
  -7   4   3 9339.06 1037.00   1
   7   8  10 21740.2 1236.41  -2
  -7   4   2 21740.2 1236.41   1
   7   7  10 4284.31 744.611  -2
  -7   4   1 4284.31 744.611   1
  -7   4   0 1255.51 405.874   1
  -7  -6 -10 1343.43 824.990  -2
   7  -4   0 1343.43 824.990   1
  -7   4  -1 1053.74 326.327   1
   7  -4   2 12813.7 654.296   1
   7  -4   3 5338.50 508.742   1
   7   3  10 17161.3 1443.43  -2
  -7   4  -3 17161.3 1443.43   1
   7  -4   4 326.170 317.020   1
  -7   4  -5 1400.19 463.551   1
  -7   4  -6 1250.74 463.033   1
  -7   4  -7 1788.72 503.740   1
  -7   4  -8 916.178 522.648   1
  -7   4  -9 668.430 526.964   1
  -7 -11  -9 998.549 711.345  -2
   7  -3  -5 998.549 711.345   1
  -7 -10  -9 16675.0 1352.05  -2
   7  -3  -4 16675.0 1352.05   1
  -7  -9  -9 21009.2 1350.76  -2
   7  -3  -3 21009.2 1350.76   1
   7   8   9 19520.0 1171.90  -2
  -7   3   2 19520.0 1171.90   1
   7   7   9 1077.31 440.480  -2
  -7   3   1 1077.31 440.480   1
   7   6   9 4857.36 517.800  -2
  -7   3   0 4857.36 517.800   1
   7  -3   1 7540.87 638.711   1
  -7  -5  -9 7763.58 958.746  -2
   7  -3   1 7763.58 958.746   1
   7  -3   2 29058.4 856.039   1
   7   4   9 38629.9 1768.74  -2
  -7   3  -2 38629.9 1768.74   1
   7  -3   3 5459.52 473.597   1
   7   3   9 15980.5 1287.43  -2
  -7   3  -3 15980.5 1287.43   1
   7  -3   4 134.403 267.339   1
  -7   3  -5 3886.44 538.501   1
   7  -3   6 14904.6 853.157   1
  -7   3  -7 3309.10 552.367   1
   7  -3   8 148.690 614.573   1
   7  -2   9 550.493 936.852  -2
  -7   3  -8 550.493 936.852   1
  -7   3  -9 246.486 505.846   1
  -7   3 -10 4388.18 737.326   1
   7  11   8 25677.2 1722.91  -2
  -7   2   5 25677.2 1722.91   1
   7  10   8 30733.4 1781.71  -2
  -7   2   4 30733.4 1781.71   1
  -7  -9  -8 5843.42 863.735  -2
   7  -2  -3 5843.42 863.735   1
   7   8   8 201.797 432.705  -2
  -7   2   2 201.797 432.705   1
   7   7   8 2977.28 477.990  -2
  -7   2   1 2977.28 477.990   1
   7   6   8 39636.9 1020.10  -2
  -7   2   0 39636.9 1020.10   1
   7   5   8 33065.4 914.808  -2
  -7   2  -1 33065.4 914.808   1
  -7   2  -2 12556.1 1205.05   1
   7   4   8 54263.4 1062.82  -2
  -7   2  -2 54263.4 1062.82   1
  -7   2  -3 1943.30 275.945   1
   7  -2   4 19791.9 677.073   1
   7   2   8 25301.8 1396.61  -2
  -7   2  -4 25301.8 1396.61   1
   7  -2   5 3459.46 419.921   1
   7   1   8 14900.0 1215.10  -2
  -7   2  -5 14900.0 1215.10   1
   7  -2   6 16844.8 882.966   1
   7  -2   7 103.626 591.946   1
   7  -1   8 8594.31 1164.40  -2
  -7   2  -7 8594.31 1164.40   1
  -7   2  -8 4563.05 621.000   1
  -7   2  -9 352.019 428.506   1
  -7   2 -10 643.945 523.569   1
  -7   2 -11 1019.79 571.515   1
   7  12   7 16423.7 1387.76  -2
  -7   1   6 16423.7 1387.76   1
   7  11   7 41137.0 1990.88  -2
  -7   1   5 41137.0 1990.88   1
   7  10   7 21328.5 1250.04  -2
  -7   1   4 21328.5 1250.04   1
  -7  -9  -7 305.525 425.686  -2
   7  -1  -3 305.525 425.686   1
  -7  -8  -7 2612.63 490.764  -2
   7  -1  -2 2612.63 490.764   1
   7   7   7 14372.7 784.888  -2
  -7   1   1 14372.7 784.888   1
   7   6   7 20825.8 835.794  -2
  -7   1   0 20825.8 835.794   1
   7   5   7 16663.2 709.028  -2
  -7   1  -1 16663.2 709.028   1
   7   4   7 12072.1 505.270  -2
  -7   1  -2 12072.1 505.270   1
  -7   1  -3 1435.11 372.738   1
   7   3   7 10942.6 686.645  -2
  -7   1  -3 10942.6 686.645   1
   7  -1   4 10753.0 506.045   1
   7   2   7 13491.9 1047.34  -2
  -7   1  -4 13491.9 1047.34   1
   7  -1   5 14291.2 546.709   1
  -7   1  -6 1355.30 418.721   1
  -7   1  -7 1778.27 455.792   1
   7  -1   8 10668.1 753.813   1
  -7   1  -9 304.698 443.530   1
   7  -1  10 1486.26 709.286   1
   7  -4   7 3841.48 1131.74  -2
  -7   1 -10 3841.48 1131.74   1
   7  -1  11 915.118 708.588   1
   7  -5   7 545.959 1116.47  -2
  -7   1 -11 545.959 1116.47   1
   7  -1  12 1496.10 746.299   1
  -7 -12  -6 15781.1 1299.18  -2
   7   0  -6 15781.1 1299.18   1
  -7 -11  -6 11457.8 1159.35  -2
   7   0  -5 11457.8 1159.35   1
  -7 -10  -6 3686.08 789.209  -2
   7   0  -4 3686.08 789.209   1
  -7  -9  -6 7732.84 746.678  -2
   7   0  -3 7732.84 746.678   1
  -7  -8  -6 11295.3 667.090  -2
   7   0  -2 11295.3 667.090   1
   7   7   6 88056.0 1808.52  -2
  -7   0   1 88056.0 1808.52   1
  -7  -6  -6 16359.1 798.080  -2
   7   0   0 16359.1 798.080   1
  -7  -5  -6 17465.0 713.591  -2
   7   0   1 17465.0 713.591   1
   7   4   6 8213.01 432.149  -2
  -7   0  -2 8213.01 432.149   1
   7   3   6 22769.6 598.307  -2
  -7   0  -3 22769.6 598.307   1
   7   0   4 16541.0 679.451   1
   7   2   6 18032.4 788.064  -2
  -7   0  -4 18032.4 788.064   1
   7   0   5 6165.44 390.287   1
   7   1   6 17385.8 1095.92  -2
  -7   0  -5 17385.8 1095.92   1
  -7   0  -6 10216.0 930.627   1
  -7   0  -7 1253.77 418.894   1
   7   0   8 13648.1 805.825   1
   7   0   9 3550.78 766.439   1
   7  -3   6 16859.2 1388.10  -2
  -7   0  -9 16859.2 1388.10   1
   7   0  10 19.4147 585.698   1
   7  -4   6 1022.62 932.542  -2
  -7   0 -10 1022.62 932.542   1
   7   0  11 3524.50 835.036   1
   7  -5   6 2130.71 1152.17  -2
  -7   0 -11 2130.71 1152.17   1
  -7   0 -12 1140.42 580.381   1
  -7 -12  -5 11062.9 1126.45  -2
   7   1  -6 11062.9 1126.45   1
  -7 -11  -5 3871.49 799.464  -2
   7   1  -5 3871.49 799.464   1
  -7 -10  -5 11038.2 829.851  -2
   7   1  -4 11038.2 829.851   1
  -7  -9  -5 51375.2 1554.77  -2
   7   1  -3 51375.2 1554.77   1
   7   8   5 57847.1 1326.74  -2
  -7  -1   2 57847.1 1326.74   1
  -7  -7  -5 14219.1 708.225  -2
   7   1  -1 14219.1 708.225   1
   7   6   5 1868.56 365.777  -2
  -7  -1   0 1868.56 365.777   1
   7   5   5 5713.42 509.755  -2
  -7  -1  -1 5713.42 509.755   1
   7   4   5 29706.3 847.352  -2
  -7  -1  -2 29706.3 847.352   1
   7   3   5 38739.2 740.158  -2
  -7  -1  -3 38739.2 740.158   1
   7   2   5 44367.6 747.670  -2
  -7  -1  -4 44367.6 747.670   1
  -7  -1  -5 2063.05 253.677   1
   7   1   5 5229.89 668.113  -2
  -7  -1  -5 5229.89 668.113   1
   7   1   6 10040.5 916.893   1
   7   0   5 17502.4 1096.28  -2
  -7  -1  -6 17502.4 1096.28   1
   7   1   7 22658.2 1258.12   1
   7  -1   5 39726.2 1555.94  -2
  -7  -1  -7 39726.2 1555.94   1
   7   1   8 11836.2 1005.30   1
   7  -2   5 15144.6 1172.99  -2
  -7  -1  -8 15144.6 1172.99   1
   7   1   9 275.113 537.892   1
   7  -3   5 4421.85 905.360  -2
  -7  -1  -9 4421.85 905.360   1
   7   1  10 1910.01 656.516   1
   7  -4   5 3878.23 974.205  -2
  -7  -1 -10 3878.23 974.205   1
   7   1  11 3118.03 808.440   1
   7  -5   5 4500.06 1082.59  -2
  -7  -1 -11 4500.06 1082.59   1
  -7  -1 -12 1684.59 564.016   1
   7   1  13 614.506 699.683   1
  -7 -12  -4 4381.24 845.660  -2
   7   2  -6 4381.24 845.660   1
  -7 -11  -4 1566.24 536.134  -2
   7   2  -5 1566.24 536.134   1
  -7 -10  -4 16311.5 916.251  -2
   7   2  -4 16311.5 916.251   1
  -7  -9  -4 42203.3 1671.04  -2
   7   2  -3 42203.3 1671.04   1
   7   8   4 49727.1 1370.30  -2
  -7  -2   2 49727.1 1370.30   1
  -7  -7  -4 4821.06 443.705  -2
   7   2  -1 4821.06 443.705   1
  -7  -6  -4 12049.8 731.422  -2
   7   2   0 12049.8 731.422   1
   7   5   4 8839.86 629.447  -2
  -7  -2  -1 8839.86 629.447   1
   7   4   4 11991.0 659.183  -2
  -7  -2  -2 11991.0 659.183   1
   7   3   4 1599.57 297.647  -2
  -7  -2  -3 1599.57 297.647   1
   7   2   4 5351.90 331.504  -2
  -7  -2  -4 5351.90 331.504   1
   7   1   4 44796.6 697.811  -2
  -7  -2  -5 44796.6 697.811   1
  -7  -2  -6 283.084 276.890   1
   7   0   4 18113.2 766.388  -2
  -7  -2  -6 18113.2 766.388   1
   7   2   7 884.381 342.687   1
   7  -1   4 12050.6 962.013  -2
  -7  -2  -7 12050.6 962.013   1
   7   2   8-48.3770 344.663   1
   7  -2   4 21976.5 1265.16  -2
  -7  -2  -8 21976.5 1265.16   1
   7   2   9 11681.4 710.280   1
   7  -3   4 14803.3 1172.93  -2
  -7  -2  -9 14803.3 1172.93   1
   7   2  10 14489.8 683.349   1
   7  -4   4 17463.8 1370.04  -2
  -7  -2 -10 17463.8 1370.04   1
   7   2  11 7469.97 736.896   1
   7  -5   4 20704.4 1120.48  -2
  -7  -2 -11 20704.4 1120.48   1
  -7  -2 -12 1782.34 435.078   1
   7  -6   4 7469.97 1199.36  -2
  -7  -2 -12 7469.97 1199.36   1
  -7  -2 -13 81.4913 554.367   1
   7   3  -6 81.5437 731.107   1
  -7 -12  -3 1620.31 1066.65  -2
   7   3  -6 1620.31 1066.65   1
  -7 -11  -3 12062.9 974.434  -2
   7   3  -5 12062.9 974.434   1
  -7 -10  -3 5134.20 775.429  -2
   7   3  -4 5134.20 775.429   1
  -7  -9  -3 33744.7 1402.30  -2
   7   3  -3 33744.7 1402.30   1
  -7  -8  -3 7214.78 597.456  -2
   7   3  -2 7214.78 597.456   1
  -7  -7  -3 25699.1 1016.93  -2
   7   3  -1 25699.1 1016.93   1
  -7  -6  -3 25640.1 1006.37  -2
   7   3   0 25640.1 1006.37   1
  -7  -5  -3 37725.8 1166.48  -2
   7   3   1 37725.8 1166.48   1
   7   4   3 33075.7 1044.46  -2
  -7  -3  -2 33075.7 1044.46   1
   7   3   3 382.682 312.263  -2
  -7  -3  -3 382.682 312.263   1
   7   2   3 2166.46 270.436  -2
  -7  -3  -4 2166.46 270.436   1
   7   1   3 38079.7 577.876  -2
  -7  -3  -5 38079.7 577.876   1
   7   0   3 23719.6 501.554  -2
  -7  -3  -6 23719.6 501.554   1
   7   3   7 9165.94 447.613   1
   7  -1   3 10979.1 654.497  -2
  -7  -3  -7 10979.1 654.497   1
  -7  -3  -8-30.2117 219.887   1
   7  -2   3 1676.08 495.595  -2
  -7  -3  -8 1676.08 495.595   1
   7   3   9 9305.90 541.120   1
   7  -3   3 16278.2 888.382  -2
  -7  -3  -9 16278.2 888.382   1
   7   3  10 11345.2 539.689   1
   7  -4   3 17704.6 1431.08  -2
  -7  -3 -10 17704.6 1431.08   1
   7   3  11 1608.91 459.703   1
   7  -5   3 21152.2 1090.24  -2
  -7  -3 -11 21152.2 1090.24   1
  -7  -3 -12 110.536 296.429   1
  -7  -3 -13 924.107 465.720   1
   7   4  -6 952.253 821.221   1
   7   4  -5 1941.50 798.143   1
   7  11   2 6227.99 1331.03  -2
  -7  -4   5 6227.99 1331.03   1
  -7 -10  -2 7902.12 854.599  -2
   7   4  -4 7902.12 854.599   1
  -7  -9  -2 2087.91 624.083  -2
   7   4  -3 2087.91 624.083   1
  -7  -8  -2 5524.15 522.235  -2
   7   4  -2 5524.15 522.235   1
  -7  -7  -2 25495.7 963.639  -2
   7   4  -1 25495.7 963.639   1
  -7  -6  -2 48273.8 1329.91  -2
   7   4   0 48273.8 1329.91   1
   7   5   2 40604.9 1092.00  -2
  -7  -4  -1 40604.9 1092.00   1
  -7  -4  -2 9730.85 642.123  -2
   7   4   2 9730.85 642.123   1
  -7  -3  -2 34793.8 1039.80  -2
   7   4   3 34793.8 1039.80   1
   7   2   2 12029.2 428.914  -2
  -7  -4  -4 12029.2 428.914   1
   7   1   2 30463.1 541.488  -2
  -7  -4  -5 30463.1 541.488   1
   7   0   2 8048.52 313.954  -2
  -7  -4  -6 8048.52 313.954   1
  -7  -4  -7 6448.31 561.039   1
   7  -1   2 12798.3 439.911  -2
  -7  -4  -7 12798.3 439.911   1
   7   4   8 41064.5 1187.79   1
   7  -2   2 57497.0 1070.05  -2
  -7  -4  -8 57497.0 1070.05   1
   7   4   9 6380.98 487.157   1
   7  -3   2 40439.6 1225.91  -2
  -7  -4  -9 40439.6 1225.91   1
   7   4  10 9526.09 566.653   1
   7  -4   2 22729.2 1066.82  -2
  -7  -4 -10 22729.2 1066.82   1
   7   4  11 97.1257 346.129   1
   7  -5   2 14822.0 987.631  -2
  -7  -4 -11 14822.0 987.631   1
  -7  -4 -12 5154.34 573.229   1
   7  -6   2 4714.79 1031.58  -2
  -7  -4 -12 4714.79 1031.58   1
   7   4  13 4858.06 508.606   1
   7   5  -5 6704.66 799.367   1
   7   5  -4 6618.73 737.475   1
  -7  -9  -1 2246.32 649.366  -2
   7   5  -3 2246.32 649.366   1
   7   8   1 1984.99 437.340  -2
  -7  -5   2 1984.99 437.340   1
  -7  -7  -1 17625.1 776.107  -2
   7   5  -1 17625.1 776.107   1
  -7  -6  -1 49702.0 1053.39  -2
   7   5   0 49702.0 1053.39   1
  -7  -5  -1 16922.5 827.349  -2
   7   5   1 16922.5 827.349   1
   7   4   1 38221.2 914.933  -2
  -7  -5  -2 38221.2 914.933   1
   7   3   1 38654.6 881.832  -2
  -7  -5  -3 38654.6 881.832   1
  -7  -2  -1 9036.19 578.457  -2
   7   5   4 9036.19 578.457   1
  -7  -1  -1 4904.27 368.552  -2
   7   5   5 4904.27 368.552   1
   7   0   1 17282.2 424.040  -2
  -7  -5  -6 17282.2 424.040   1
   7  -1   1 18737.1 526.752  -2
  -7  -5  -7 18737.1 526.752   1
   7  -2   1 34300.3 684.162  -2
  -7  -5  -8 34300.3 684.162   1
   7   5   9 298.818 484.795   1
   7  -3   1 8141.09 442.572  -2
  -7  -5  -9 8141.09 442.572   1
   7   5  10 903.915 296.058   1
   7  -4   1 2570.65 507.406  -2
  -7  -5 -10 2570.65 507.406   1
   7   5  11 1780.77 526.756   1
   7  -5   1 2110.52 671.362  -2
  -7  -5 -11 2110.52 671.362   1
   7   5  12 8115.59 664.885   1
   7  -6   1 15266.5 1517.44  -2
  -7  -5 -12 15266.5 1517.44   1
   7   5  13 4187.34 609.949   1
   7   6  -5 4012.09 701.508   1
   7   6  -4-67.3410 532.979   1
  -7  -6   3 7190.34 1018.68   1
  -7  -9   0 6769.85 1198.85  -2
   7   6  -3 6769.85 1198.85   1
   7   8   0 12142.9 581.688  -2
  -7  -6   2 12142.9 581.688   1
   7   7   0 1467.19 345.092  -2
  -7  -6   1 1467.19 345.092   1
   7   6   0 9443.89 607.477  -2
  -7  -6   0 9443.89 607.477   1
  -7  -5   0 46303.9 1024.98  -2
   7   6   1 46303.9 1024.98   1
   7   4   0 48009.0 934.319  -2
  -7  -6  -2 48009.0 934.319   1
   7   3   0 25729.7 708.448  -2
  -7  -6  -3 25729.7 708.448   1
   7   2   0 12928.4 594.781  -2
  -7  -6  -4 12928.4 594.781   1
  -7  -1   0 2354.65 365.032  -2
   7   6   5 2354.65 365.032   1
   7   0   0 16781.5 671.341  -2
  -7  -6  -6 16781.5 671.341   1
   7  -1   0 22741.5 622.146  -2
  -7  -6  -7 22741.5 622.146   1
   7  -2   0 38966.7 704.118  -2
  -7  -6  -8 38966.7 704.118   1
  -7   3   0 4340.82 351.571  -2
   7   6   9 4340.82 351.571   1
  -7  -6 -10 195.058 493.143   1
   7  -4   0 2327.00 426.203  -2
  -7  -6 -10 2327.00 426.203   1
   7   6  11 12918.5 894.501   1
   7  -5   0 16037.0 1020.98  -2
  -7  -6 -11 16037.0 1020.98   1
   7   6  12 4683.15 578.227   1
   7  -6   0 15880.1 1576.19  -2
  -7  -6 -12 15880.1 1576.19   1
   7   6  13 4724.21 625.987   1
   7   7  -4 305.852 550.446   1
   7   7  -3 9264.97 821.549   1
  -7  -7   2 145.026 381.502   1
   7   8  -1 929.907 616.528  -2
  -7  -7   2 929.907 616.528   1
   7   7  -1 24647.3 777.807  -2
  -7  -7   1 24647.3 777.807   1
  -7  -6   1 1527.63 415.401  -2
   7   7   0 1527.63 415.401   1
  -7  -5   1 18219.2 587.747  -2
   7   7   1 18219.2 587.747   1
   7   4  -1 26212.6 714.835  -2
  -7  -7  -2 26212.6 714.835   1
   7   3  -1 25296.9 718.487  -2
  -7  -7  -3 25296.9 718.487   1
  -7  -2   1 4805.81 380.584  -2
   7   7   4 4805.81 380.584   1
   7   1  -1 14667.5 687.239  -2
  -7  -7  -5 14667.5 687.239   1
   7   0  -1 92870.1 1558.16  -2
  -7  -7  -6 92870.1 1558.16   1
   7  -1  -1 14062.1 651.837  -2
  -7  -7  -7 14062.1 651.837   1
   7  -2  -1 3523.49 429.072  -2
  -7  -7  -8 3523.49 429.072   1
   7  -3  -1 1201.72 327.647  -2
  -7  -7  -9 1201.72 327.647   1
   7  -4  -1 5937.30 442.352  -2
  -7  -7 -10 5937.30 442.352   1
   7  -5  -1 25582.1 889.953  -2
  -7  -7 -11 25582.1 889.953   1
   7   7  12 1558.80 598.093   1
   7  -6  -1 7767.40 923.349  -2
  -7  -7 -12 7767.40 923.349   1
   7   7  13 82.4918 578.637   1
   7   8  -3 19043.1 1588.01   1
   7   9  -2 18410.5 1565.06  -2
  -7  -8   3 18410.5 1565.06   1
   7   8  -2 5131.68 513.683   1
   7   8  -2 10384.3 1250.25  -2
  -7  -8   2 10384.3 1250.25   1
   7   8  -1 689.820 341.080   1
  -7  -8   0 9258.42 899.700   1
  -7  -6   2 11770.3 866.039  -2
   7   8   0 11770.3 866.039   1
   7   5  -2 1796.98 318.157  -2
  -7  -8  -1 1796.98 318.157   1
   7   4  -2 5533.11 398.278  -2
  -7  -8  -2 5533.11 398.278   1
   7   3  -2 7776.72 549.787  -2
  -7  -8  -3 7776.72 549.787   1
  -7  -2   2 48740.5 1412.03  -2
   7   8   4 48740.5 1412.03   1
   7   1  -2 57163.6 1278.06  -2
  -7  -8  -5 57163.6 1278.06   1
   7   0  -2 12215.4 679.019  -2
  -7  -8  -6 12215.4 679.019   1
   7  -1  -2 2555.69 426.533  -2
  -7  -8  -7 2555.69 426.533   1
   7  -2  -2 505.241 435.972  -2
  -7  -8  -8 505.241 435.972   1
   7  -3  -2 21492.5 949.298  -2
  -7  -8  -9 21492.5 949.298   1
   7  -4  -2 24361.2 848.259  -2
  -7  -8 -10 24361.2 848.259   1
   7  -5  -2 18378.0 814.535  -2
  -7  -8 -11 18378.0 814.535   1
   7  -6  -2 5022.26 595.089  -2
  -7  -8 -12 5022.26 595.089   1
   7  -7  -2 1601.51 1148.15  -2
  -7  -8 -13 1601.51 1148.15   1
   7   9  -3 6426.34 1301.66  -2
  -7  -9   3 6426.34 1301.66   1
   7   9  -2-430.081 533.344   1
   7   8  -3 17372.6 1590.36  -2
  -7  -9   2 17372.6 1590.36   1
  -7  -9   1 5123.14 666.491   1
   7   9   0 432.470 477.894   1
   7   5  -3 2522.18 536.520  -2
  -7  -9  -1 2522.18 536.520   1
   7   4  -3 1648.28 403.320  -2
  -7  -9  -2 1648.28 403.320   1
   7   3  -3 32104.7 956.571  -2
  -7  -9  -3 32104.7 956.571   1
  -7  -2   3 41329.6 1313.45  -2
   7   9   4 41329.6 1313.45   1
   7   1  -3 54702.3 1553.97  -2
  -7  -9  -5 54702.3 1553.97   1
   7   0  -3 8385.31 480.425  -2
  -7  -9  -6 8385.31 480.425   1
   7  -1  -3 134.960 404.352  -2
  -7  -9  -7 134.960 404.352   1
   7  -2  -3 5887.08 690.040  -2
  -7  -9  -8 5887.08 690.040   1
   7  -3  -3 20124.4 1033.54  -2
  -7  -9  -9 20124.4 1033.54   1
   7  -4  -3 10072.5 781.343  -2
  -7  -9 -10 10072.5 781.343   1
  -7   5   3 1970.29 604.223  -2
   7   9  11 1970.29 604.223   1
  -7 -10   2 3607.45 951.088   1
   7  10  -1 16070.6 1052.09   1
   7  10   0 12064.4 902.306   1
   7  10   1 6760.45 718.578   1
   7   5  -4 12817.9 1442.88  -2
  -7 -10  -1 12817.9 1442.88   1
   7   4  -4 7953.50 567.661  -2
  -7 -10  -2 7953.50 567.661   1
   7   3  -4 6136.92 538.743  -2
  -7 -10  -3 6136.92 538.743   1
  -7  -2   4 15036.5 877.088  -2
   7  10   4 15036.5 877.088   1
  -7  -1   4 12482.4 858.332  -2
   7  10   5 12482.4 858.332   1
   7   0  -4 3244.88 770.134  -2
  -7 -10  -6 3244.88 770.134   1
   7  -1  -4 20710.3 978.984  -2
  -7 -10  -7 20710.3 978.984   1
   7  -2  -4 31879.9 1352.22  -2
  -7 -10  -8 31879.9 1352.22   1
   7  -3  -4 18122.0 1085.63  -2
  -7 -10  -9 18122.0 1085.63   1
   7  -4  -4 1418.78 733.192  -2
  -7 -10 -10 1418.78 733.192   1
   7  -5  -4 787.712 725.817  -2
  -7 -10 -11 787.712 725.817   1
  -7 -11   1 10287.2 1247.24   1
   7  11   0 282.150 500.333   1
  -7 -11  -1 85.8468 559.325   1
   7   5  -5 5574.14 1307.24  -2
  -7 -11  -1 5574.14 1307.24   1
   7  11   2 5988.14 991.122   1
   7   4  -5 7710.26 879.932  -2
  -7 -11  -2 7710.26 879.932   1
   7   3  -5 13382.2 719.616  -2
  -7 -11  -3 13382.2 719.616   1
  -7  -2   5 1665.77 508.244  -2
   7  11   4 1665.77 508.244   1
  -7  -1   5 3810.48 757.469  -2
   7  11   5 3810.48 757.469   1
  -7   0   5 11606.2 1167.00  -2
   7  11   6 11606.2 1167.00   1
  -7   1   5 42724.4 1966.19  -2
   7  11   7 42724.4 1966.19   1
  -7   2   5 26235.0 1378.31  -2
   7  11   8 26235.0 1378.31   1
   7  -3  -5 1292.59 602.257  -2
  -7 -11  -9 1292.59 602.257   1
   7  -4  -5 4590.30 1201.15  -2
  -7 -11 -10 4590.30 1201.15   1
   7  12   1 19215.0 1703.38   1
   7   5  -6 29114.1 2253.71  -2
  -7 -12  -1 29114.1 2253.71   1
   7  12   2 5804.70 1096.46   1
   7   4  -6 7490.05 1455.27  -2
  -7 -12  -2 7490.05 1455.27   1
   7   3  -6 2062.05 797.952  -2
  -7 -12  -3 2062.05 797.952   1
   7   2  -6 3668.69 679.255  -2
  -7 -12  -4 3668.69 679.255   1
  -7  -1   6 11413.5 1133.38  -2
   7  12   5 11413.5 1133.38   1
  -7   0   6 16555.7 1298.41  -2
   7  12   6 16555.7 1298.41   1
  -7   1   6 14701.0 1336.12  -2
   7  12   7 14701.0 1336.12   1
   7  -2  -6 4156.93 1204.28  -2
  -7 -12  -8 4156.93 1204.28   1
   7  -3  -6-165.536 1034.97  -2
  -7 -12  -9-165.536 1034.97   1
   7  13   4-306.407 954.128   1
   8  -7   2 1284.81 751.058   1
   8  -6   0 11.0700 775.450   1
  -8   6  -1 246.309 568.741   1
   8  -6   2 2237.09 711.641   1
  -8   6  -3 575.868 1084.40   1
  -8   6  -4 1991.98 572.396   1
  -8   6  -5 955.909 579.098   1
  -8   5   1 1193.63 607.905   1
  -8   5   0 4799.66 751.311   1
  -8   5  -1-140.736 510.114   1
  -8   5  -2 1263.29 420.997   1
  -8   5  -3 257.747 369.056   1
  -8   5  -4-245.234 426.234   1
  -8   5  -5 2771.79 554.618   1
  -8   5  -6 7333.81 867.054   1
   8  -5   7 1305.90 606.585   1
  -8   4   2 738.892 560.180   1
  -8   4   1 997.996 562.674   1
   8  -4   0 8888.66 855.791   1
   8  -4   1 1630.13 404.640   1
  -8   4  -2 3909.93 502.989   1
  -8   4  -3 191.481 308.734   1
  -8   4  -4 6473.25 598.261   1
  -8   4  -5 5612.06 623.802   1
   8  -4   6 8266.08 817.554   1
  -8   4  -7 2293.79 607.306   1
  -8   4  -8 1733.79 609.589   1
   8  -3  -3 2712.90 668.592   1
   8  -3  -2 259.839 519.000   1
   8  -3  -1 8923.56 842.690   1
   8  -3   0 25465.8 917.779   1
   8  -3   1 5510.12 529.240   1
   8  -3   2 1362.81 342.792   1
  -8   3  -3 1888.83 337.813   1
  -8   3  -4 949.959 305.327   1
  -8   3  -5 242.311 377.812   1
  -8   3  -6 239.585 437.392   1
   8  -3   7 989.053 487.725   1
   8  -3   8 11122.9 939.881   1
  -8   3  -9 5438.83 751.849   1
   8  -2  -4 964.677 573.392   1
   8  -2  -3 285.670 536.679   1
   8  -2  -2-39.8834 512.479   1
  -8   2   1 365.665 340.966   1
   8  -2   0 5323.67 511.592   1
  -8   2  -1 110.969 335.738   1
   8  -2   2 18482.8 759.847   1
  -8   2  -3 11313.2 539.354   1
  -8   2  -4 6041.30 427.086   1
  -8   2  -5 4099.45 490.032   1
  -8   2  -6 50.1129 433.974   1
  -8   2  -7 951.303 450.765   1
   8  -2   8 14321.3 963.010   1
   8  -2   9 5966.10 775.326   1
  -8   2 -10 683.111 579.042   1
  -8 -11  -8 3454.96 864.368  -2
   8  -1  -4 3454.96 864.368   1
  -8   1   3 804.424 805.316   1
  -8 -10  -8 3786.78 1114.80  -2
   8  -1  -3 3786.78 1114.80   1
   8  -1  -2 590.924 354.040   1
  -8   1   1 1199.27 343.271   1
  -8   1   0 1919.02 370.886   1
  -8   1  -1 107.922 326.636   1
   8  -1   2 26652.4 855.701   1
   8  -1   3 25068.7 692.396   1
   8  -1   4 2458.45 320.012   1
  -8   1  -5 122.659 386.945   1
   8  -1   6 11091.3 634.475   1
  -8   1  -7 2071.67 473.098   1
   8  -1   8 8905.62 795.576   1
   8  -1   9-62.1983 511.745   1
  -8   1 -10 811.351 503.091   1
  -8   1 -11 5522.39 792.001   1
  -8 -11  -7 17659.6 1307.50  -2
   8   0  -4 17659.6 1307.50   1
   8  10   7 33580.7 1478.50  -2
  -8   0   3 33580.7 1478.50   1
   8   0  -2 3279.98 584.761   1
  -8  -9  -7 9277.75 1220.33  -2
   8   0  -2 9277.75 1220.33   1
   8   0  -1 404.657 280.763   1
  -8   0   0 326.262 324.030   1
   8   0   1 28533.4 877.328   1
  -8   0  -2 21597.1 758.889   1
  -8   0  -3 14374.6 529.810   1
   8   0   4 65.6646 230.077   1
  -8   0  -5 2381.21 294.450   1
   8   0   6 13731.7 658.332   1
  -8   0  -7 2532.91 485.368   1
  -8   0  -8 1418.96 452.973   1
  -8   0  -9 84.9070 448.345   1
  -8   0 -10 799.566 525.632   1
  -8   0 -11 4532.70 730.731   1
  -8   0 -12 3283.64 719.615   1
  -8 -11  -6 9005.28 1024.13  -2
   8   1  -4 9005.28 1024.13   1
  -8 -10  -6 11331.2 800.145  -2
   8   1  -3 11331.2 800.145   1
  -8  -9  -6 3012.50 558.980  -2
   8   1  -2 3012.50 558.980   1
   8   1  -1 2333.66 512.110   1
  -8  -8  -6 5225.04 626.848  -2
   8   1  -1 5225.04 626.848   1
   8   1   0 635.661 272.871   1
   8   1   1 369.634 322.092   1
  -8  -1  -2 591.762 298.485   1
  -8  -1  -3 1739.81 316.058   1
  -8  -1  -4 4721.51 332.900   1
  -8  -1  -5 71375.5 984.409   1
  -8  -1  -6 15118.6 642.917   1
   8   1   7 55.7236 309.882   1
   8   1   8 110.365 366.051   1
   8   1   9 1122.06 442.175   1
  -8  -1 -10 6679.45 740.438   1
   8   1  11 2551.77 590.770   1
  -8  -1 -12 369.890 538.355   1
  -8 -11  -5 6348.01 784.504  -2
   8   2  -4 6348.01 784.504   1
  -8 -10  -5 19990.1 1006.43  -2
   8   2  -3 19990.1 1006.43   1
  -8  -9  -5 8868.42 700.672  -2
   8   2  -2 8868.42 700.672   1
  -8  -8  -5 51608.6 1030.37  -2
   8   2  -1 51608.6 1030.37   1
   8   2   0 14362.0 827.637   1
  -8  -7  -5 21106.3 952.593  -2
   8   2   0 21106.3 952.593   1
   8   2   1 233.707 318.187   1
  -8  -6  -5 2754.07 734.668  -2
   8   2   1 2754.07 734.668   1
  -8  -2  -2 2176.10 300.261   1
  -8  -2  -3 6364.34 382.554   1
   8   2   4 18272.5 642.995   1
   8   2   5 33548.0 670.687   1
   8   2   6 27014.0 770.400   1
  -8  -2  -7 46.3255 282.987   1
  -8  -2  -8 1038.52 378.972   1
   8   2   9 5655.45 586.322   1
  -8  -2 -10 2914.99 445.561   1
  -8  -2 -11 296.258 380.348   1
  -8  -2 -12 697.255 488.690   1
   8   2  13 528.383 743.040   1
  -8 -12  -4 606.798 1148.07  -2
   8   3  -5 606.798 1148.07   1
  -8 -11  -4 2817.33 654.879  -2
   8   3  -4 2817.33 654.879   1
  -8 -10  -4 929.330 644.853  -2
   8   3  -3 929.330 644.853   1
  -8  -9  -4 42265.7 1557.98  -2
   8   3  -2 42265.7 1557.98   1
   8   8   4 60433.2 1279.48  -2
  -8  -3   1 60433.2 1279.48   1
   8   7   4 54856.8 1202.93  -2
  -8  -3   0 54856.8 1202.93   1
  -8  -3  -1-66.7453 500.545   1
  -8  -6  -4 2505.64 551.542  -2
   8   3   1 2505.64 551.542   1
   8   3   2 3710.71 394.985   1
   8   3   3 5962.27 456.516   1
   8   3   4 27132.2 804.889   1
   8   3   5 4608.84 426.868   1
   8   3   6 6830.73 384.353   1
   8   3   7 18310.0 574.929   1
  -8  -3  -8 20607.9 550.097   1
   8   3   9 3287.50 351.937   1
  -8  -3 -10 296.539 277.910   1
  -8  -3 -11 516.991 303.186   1
  -8  -3 -12 2647.88 499.828   1
  -8  -3 -13 171.850 498.633   1
  -8 -12  -3 287.444 1220.19  -2
   8   4  -5 287.444 1220.19   1
  -8 -11  -3 5361.35 914.479  -2
   8   4  -4 5361.35 914.479   1
  -8 -10  -3 4477.14 823.207  -2
   8   4  -3 4477.14 823.207   1
  -8  -9  -3 20199.9 1257.72  -2
   8   4  -2 20199.9 1257.72   1
  -8  -8  -3 15932.8 807.584  -2
   8   4  -1 15932.8 807.584   1
   8   7   3 11325.7 649.077  -2
  -8  -4   0 11325.7 649.077   1
  -8  -6  -3 23936.7 818.563  -2
   8   4   1 23936.7 818.563   1
   8   4   2 6801.63 593.043   1
   8   5   3 22733.4 1383.66  -2
  -8  -4  -2 22733.4 1383.66   1
   8   4   3 12774.4 596.064   1
   8   4   4 337.446 282.527   1
   8   4   5 3761.45 372.527   1
  -8  -4  -6 1647.41 295.218   1
   8   4   7 20447.6 694.886   1
   8   4   8 38543.9 804.944   1
  -8  -4  -9 7321.99 405.419   1
  -8  -4 -10 50.8499 249.430   1
  -8  -4 -11 70.9859 254.454   1
  -8  -4 -12 510.067 360.951   1
  -8  -4 -13 539.413 471.733   1
  -8 -11  -2 7210.20 1095.87  -2
   8   5  -4 7210.20 1095.87   1
  -8 -10  -2 12766.5 1254.68  -2
   8   5  -3 12766.5 1254.68   1
  -8  -9  -2 5309.87 856.572  -2
   8   5  -2 5309.87 856.572   1
   8   8   2 1803.42 471.901  -2
  -8  -5   1 1803.42 471.901   1
  -8  -7  -2 4745.25 553.195  -2
   8   5   0 4745.25 553.195   1
  -8  -6  -2 71320.8 1359.60  -2
   8   5   1 71320.8 1359.60   1
  -8  -5  -2 39013.9 1581.70   1
  -8  -5  -2 73502.8 1648.63  -2
   8   5   2 73502.8 1648.63   1
   8   5   3 17438.9 795.948   1
   8   4   2 23408.1 1374.62  -2
  -8  -5  -3 23408.1 1374.62   1
  -8  -5  -4 2509.32 344.632   1
   8   5   5 3767.50 366.651   1
   8   5   6 506.717 358.555   1
  -8  -5  -7 11862.8 571.769   1
   8   5   8 7906.60 510.215   1
   8  -1   2 37239.1 1727.12  -2
  -8  -5  -8 37239.1 1727.12   1
  -8  -5  -9 42.6153 240.519   1
  -8  -5 -10 8415.10 415.848   1
   8   5  11 4562.69 365.281   1
  -8  -5 -12 1904.12 420.237   1
  -8  -5 -13-69.2402 454.356   1
  -8 -11  -1 20949.8 2263.05  -2
   8   6  -4 20949.8 2263.05   1
  -8 -10  -1 2652.01 784.543  -2
   8   6  -3 2652.01 784.543   1
  -8  -9  -1 2756.10 745.094  -2
   8   6  -2 2756.10 745.094   1
  -8  -8  -1 8944.46 764.110  -2
   8   6  -1 8944.46 764.110   1
  -8  -7  -1 19052.4 929.283  -2
   8   6   0 19052.4 929.283   1
  -8  -6  -1 85497.7 1356.78  -2
   8   6   1 85497.7 1356.78   1
  -8  -5  -1 73319.6 1152.65  -2
   8   6   2 73319.6 1152.65   1
  -8  -6  -3 2625.80 533.948   1
  -8  -4  -1 23177.5 825.178  -2
   8   6   3 23177.5 825.178   1
  -8  -6  -4 3288.95 411.360   1
  -8  -3  -1 2364.83 815.692  -2
   8   6   4 2364.83 815.692   1
  -8  -6  -5 3452.12 504.058   1
  -8  -6  -6 25610.3 1015.10   1
   8   6   7 1129.33 313.003   1
   8   0   1 28171.6 1452.23  -2
  -8  -6  -7 28171.6 1452.23   1
   8   6   8 580.786 260.265   1
   8  -1   1 338.095 786.592  -2
  -8  -6  -8 338.095 786.592   1
  -8  -6  -9 2128.55 309.409   1
  -8  -6 -10 7091.16 496.992   1
  -8  -6 -11 8957.98 508.976   1
  -8  -6 -12 542.412 357.580   1
   8   6  13 2129.99 518.852   1
  -8 -10   0 5239.71 999.492  -2
   8   7  -3 5239.71 999.492   1
  -8  -9   0 2451.75 796.764  -2
   8   7  -2 2451.75 796.764   1
  -8  -8   0 5128.15 701.434  -2
   8   7  -1 5128.15 701.434   1
  -8  -7   0 12541.7 864.172  -2
   8   7   0 12541.7 864.172   1
  -8  -6   0 18728.0 932.301  -2
   8   7   1 18728.0 932.301   1
   8   5   0 4790.64 447.626  -2
  -8  -7  -2 4790.64 447.626   1
  -8  -4   0 10103.6 524.146  -2
   8   7   3 10103.6 524.146   1
  -8  -3   0 56210.8 1217.55  -2
   8   7   4 56210.8 1217.55   1
  -8  -2   0 20679.3 811.059  -2
   8   7   5 20679.3 811.059   1
   8   7   6 1240.19 432.476   1
  -8  -1   0 2251.15 519.215  -2
   8   7   6 2251.15 519.215   1
   8   7   7 3133.71 420.289   1
   8   0   0 3002.35 803.348  -2
  -8  -7  -7 3002.35 803.348   1
  -8  -7  -8 165.821 242.912   1
  -8  -7  -9 7769.69 444.536   1
  -8  -7 -10 7279.26 520.859   1
  -8  -7 -11 2659.97 488.634   1
   8   7  12 36.5108 440.668   1
   8  10  -1 6242.40 1360.37  -2
  -8  -8   3 6242.40 1360.37   1
  -8  -9   1 19439.5 1457.34  -2
   8   8  -2 19439.5 1457.34   1
   8   8  -1 16554.8 1068.21  -2
  -8  -8   1 16554.8 1068.21   1
   8   7  -1 4997.55 674.736  -2
  -8  -8   0 4997.55 674.736   1
  -8  -6   1 9586.02 774.734  -2
   8   8   1 9586.02 774.734   1
   8   5  -1 2124.00 470.326  -2
  -8  -8  -2 2124.00 470.326   1
  -8  -4   1 16267.7 837.035  -2
   8   8   3 16267.7 837.035   1
  -8  -3   1 57377.2 1300.00  -2
   8   8   4 57377.2 1300.00   1
   8   2  -1 51969.1 1220.27  -2
  -8  -8  -5 51969.1 1220.27   1
  -8  -8  -6 3252.62 754.484   1
  -8  -1   1 5318.63 521.518  -2
   8   8   6 5318.63 521.518   1
   8   8   7 88.9061 394.981   1
   8   0  -1 751.983 529.744  -2
  -8  -8  -7 751.983 529.744   1
   8   8   8 286.103 322.398   1
   8  -1  -1 1875.63 757.218  -2
  -8  -8  -8 1875.63 757.218   1
   8   8   9 982.946 389.382   1
   8  -2  -1 1586.87 779.353  -2
  -8  -8  -9 1586.87 779.353   1
  -8  -8 -10 1199.90 361.789   1
  -8  -8 -11 328.320 432.452   1
   8   8  12 376.436 812.692   1
  -8  -8   2 19549.4 1489.90  -2
   8   9  -1 19549.4 1489.90   1
  -8  -7   2 2383.34 664.631  -2
   8   9   0 2383.34 664.631   1
  -8  -6   2 2274.13 743.652  -2
   8   9   1 2274.13 743.652   1
  -8  -5   2 4447.88 850.729  -2
   8   9   2 4447.88 850.729   1
  -8  -4   2 20878.9 1020.08  -2
   8   9   3 20878.9 1020.08   1
  -8  -3   2 42887.3 1274.79  -2
   8   9   4 42887.3 1274.79   1
   8   2  -2 8215.53 681.423  -2
  -8  -9  -5 8215.53 681.423   1
  -8  -1   2 4136.57 558.558  -2
   8   9   6 4136.57 558.558   1
   8   9   7 5766.69 657.075   1
   8   0  -2 10203.0 828.483  -2
  -8  -9  -7 10203.0 828.483   1
  -8  -9  -8 815.640 644.085   1
   8  -1  -2 1874.56 602.745  -2
  -8  -9  -8 1874.56 602.745   1
   8   9   9 942.367 480.736   1
   8  -2  -2 1062.82 860.612  -2
  -8  -9  -9 1062.82 860.612   1
  -8  -9 -10 272.172 342.951   1
  -8  -9 -11 3293.59 549.185   1
   8   8  -3 5753.42 1345.60  -2
  -8 -10   1 5753.42 1345.60   1
  -8  -7   3 7003.91 1014.13  -2
   8  10   0 7003.91 1014.13   1
  -8  -6   3 1634.12 631.431  -2
   8  10   1 1634.12 631.431   1
  -8  -5   3 12285.7 1238.78  -2
   8  10   2 12285.7 1238.78   1
  -8  -4   3 4073.52 643.721  -2
   8  10   3 4073.52 643.721   1
  -8  -3   3 573.895 489.460  -2
   8  10   4 573.895 489.460   1
  -8  -2   3 18900.5 966.477  -2
   8  10   5 18900.5 966.477   1
   8   1  -3 11846.0 785.899  -2
  -8 -10  -6 11846.0 785.899   1
  -8   0   3 35679.1 1446.89  -2
   8  10   7 35679.1 1446.89   1
  -8   1   3 6665.32 855.638  -2
   8  10   8 6665.32 855.638   1
  -8 -10  -9 313.680 697.413   1
   8  -2  -3 520.484 703.249  -2
  -8 -10  -9 520.484 703.249   1
  -8 -10 -10 1695.50 477.277   1
   8  10  11-308.494 817.449   1
  -8  -6   4 19654.9 2251.01  -2
   8  11   1 19654.9 2251.01   1
  -8  -5   4 7960.05 1114.28  -2
   8  11   2 7960.05 1114.28   1
  -8  -4   4 3839.66 911.038  -2
   8  11   3 3839.66 911.038   1
  -8  -3   4 2099.47 620.853  -2
   8  11   4 2099.47 620.853   1
  -8  -2   4 5625.37 728.169  -2
   8  11   5 5625.37 728.169   1
  -8  -1   4 8207.27 962.800  -2
   8  11   6 8207.27 962.800   1
  -8   0   4 16616.0 1186.72  -2
   8  11   7 16616.0 1186.72   1
  -8   1   4 3782.43 813.717  -2
   8  11   8 3782.43 813.717   1
  -8 -11  -9 788.885 718.923   1
  -8 -11 -10 795.956 734.812   1
   8  -3  -4 6024.17 1322.80  -2
  -8 -11 -10 6024.17 1322.80   1
  -8  -4   5 1022.92 1129.45  -2
   8  12   3 1022.92 1129.45   1
  -8  -3   5 1137.56 1089.51  -2
   8  12   4 1137.56 1089.51   1
   8   2  -5 3603.37 846.414  -2
  -8 -12  -5 3603.37 846.414   1
  -8  -1   5 7102.08 1459.77  -2
   8  12   6 7102.08 1459.77   1
   9  -5   1 419.116 857.035   1
   9  -5   2 712.749 751.347   1
   9  -5   4 11051.2 1010.95   1
  -9   5  -5 7599.36 942.813   1
   9  -4   0 10365.3 1413.36   1
  -9   4  -1-14.3146 587.888   1
  -9   4  -2 208.507 546.106   1
  -9   4  -3 216.574 385.723   1
  -9   4  -4 1913.20 505.880   1
  -9   4  -5 954.891 484.868   1
  -9   4  -6 727.341 439.063   1
  -9   4  -7 3394.81 1020.74   1
  -9   3   1 3142.76 696.314   1
   9  -3   0 1489.86 573.874   1
  -9   3  -1-143.583 363.391   1
  -9   3  -2 2437.90 456.789   1
   9  -3   3 3261.48 476.507   1
  -9   3  -4 2060.69 489.503   1
  -9   3  -5 919.262 395.198   1
  -9   3  -6 44.8430 441.399   1
  -9   3  -7 2910.39 668.220   1
   9   0  10 8039.87 1393.45  -2
  -9   3  -7 8039.87 1393.45   1
   9  -3   8 10354.3 963.965   1
   9  -2  10 7660.61 1558.52  -2
  -9   3  -9 7660.61 1558.52   1
   9  -2  -2 11251.4 1387.13   1
   9  -2  -1 2480.10 625.903   1
  -9   2   0 250.692 381.233   1
  -9   2  -1 7084.34 634.482   1
   9  -2   2 25744.3 960.660   1
   9  -2   3 9582.55 651.619   1
  -9   2  -4 427.611 378.111   1
  -9   2  -5 87.2046 379.655   1
  -9   2  -6 806.161 400.783   1
  -9   2  -7 3930.02 551.441   1
  -9   2  -8 3046.03 666.178   1
  -9   2  -9 772.743 575.648   1
   9  -3   9 7704.95 1543.88  -2
  -9   2 -10 7704.95 1543.88   1
   9  -1  -2 1767.91 665.664   1
   9  -1  -1-65.7576 391.019   1
  -9   1   0 496.502 376.797   1
   9  -1   1 17052.5 813.198   1
   9  -1   2 8537.39 625.732   1
   9  -1   3 1071.98 359.474   1
  -9   1  -4 2742.25 429.265   1
  -9   1  -5 801.013 455.672   1
  -9   1  -6 2015.07 431.951   1
  -9   1  -7 341.656 383.080   1
  -9   1  -8 197.849 451.513   1
  -9   1  -9 1417.63 596.387   1
   9  -1  10 8657.61 1270.39   1
   9  -3   8 20669.2 1923.01  -2
  -9   1 -10 20669.2 1923.01   1
   9   0  -2 1338.25 524.225   1
   9   0  -1 1845.69 419.186   1
   9   0   0 3300.45 402.877   1
   9   0   1 16188.4 781.688   1
  -9   0  -2 2792.13 457.353   1
  -9   0  -3 808.222 335.327   1
  -9   0  -4 4070.23 441.490   1
   9   0   5 5154.74 666.269   1
  -9   0  -6 2778.48 435.900   1
  -9   0  -7 214.056 355.285   1
  -9   0  -8 1421.66 405.724   1
  -9   0  -9 77.8449 497.860   1
   9   0  10 6760.36 1137.67   1
   9  -3   7 10399.3 1462.54  -2
  -9   0 -10 10399.3 1462.54   1
   9   0  11 470.522 701.097   1
   9  -4   7 3245.22 1198.15  -2
  -9   0 -11 3245.22 1198.15   1
   9   1  -3 113.112 574.265   1
   9   1  -2-80.8529 410.549   1
  -9  -1   1 3572.54 510.133   1
   9   1   0 8159.70 526.997   1
   9   1   1 1257.33 315.746   1
  -9  -1  -2 182.291 322.559   1
   9   1   3 14752.1 680.256   1
   9   1   4 23660.8 809.550   1
   9   1   5 12990.6 842.705   1
  -9  -1  -6 4550.71 619.196   1
  -9  -1  -7 1804.48 381.532   1
  -9  -1  -8 1313.07 378.145   1
  -9  -1  -9 135.783 377.277   1
  -9  -1 -10 2139.16 628.806   1
   9   1  11-293.610 706.827   1
   9  -4   6-217.616 1070.13  -2
  -9  -1 -11-217.616 1070.13   1
   9   2  -3 549.252 436.635   1
   9   2  -2 8188.43 674.133   1
  -9  -2   1 20107.1 743.847   1
   9   2   0 15715.6 660.221   1
   9   2   1 640.516 296.156   1
  -9  -2  -2 994.490 304.690   1
  -9  -2  -3 430.322 287.356   1
   9   2   4 21475.2 677.705   1
  -9  -2  -5-125.052 428.568   1
  -9  -2  -6 847.396 428.050   1
   9   2   7 16829.8 931.145   1
  -9  -2  -8 1424.56 437.340   1
  -9  -2  -9 55.4888 303.298   1
  -9  -2 -10 2207.99 447.497   1
  -9  -2 -11 2876.48 520.922   1
  -9  -2 -12 8341.16 914.749   1
   9   3  -4 226.764 907.270   1
   9   3  -3 2697.60 681.327   1
   9   3  -2 5545.94 627.045   1
   9   3  -1 3647.30 432.249   1
   9   3   0 320.156 297.733   1
   9   3   1 1163.33 375.745   1
   9   3   2 9057.57 589.398   1
   9   3   3 3598.07 375.121   1
  -9  -3  -4 4758.42 383.341   1
   9   3   5 8468.85 454.886   1
  -9  -3  -6 5976.31 526.853   1
   9   3   7 9202.17 593.037   1
   9   3   8 7462.31 758.931   1
   9   3   9 431.000 445.708   1
  -9  -3 -10 1609.40 415.395   1
  -9  -3 -11 17.9212 368.902   1
  -9  -3 -12 457.568 505.181   1
   9   4  -3 8510.27 917.320   1
   9   4  -2 9779.67 891.179   1
   9   4  -1 136.427 369.013   1
   9   4   0 340.163 358.063   1
   9   4   1 1267.91 360.138   1
  -9  -4  -2 11473.0 649.503   1
   9   4   3 740.895 316.218   1
   9   4   4 268.283 313.745   1
  -9  -4  -5 400.068 299.405   1
   9   4   6 12928.7 639.654   1
   9   4   7 8937.32 766.205   1
   9   4   8 439.817 428.607   1
   9   4   9 3642.33 603.733   1
   9   4  10 9197.15 796.917   1
   9   4  11 1660.13 502.043   1
   9   4  12-117.681 672.364   1
  -9  -4 -13-99.2607 844.456   1
   9   5  -3 4432.01 1128.30   1
   9   5  -2 6351.73 781.141   1
  -9  -5   1 471.718 387.688   1
   9   5   0 2022.45 422.244   1
   9   5   1 9791.78 617.610   1
  -9  -5  -2 15288.3 721.190   1
   9   5   3 954.359 321.417   1
   9   5   4 5643.20 490.450   1
   9   5   5 6170.02 487.835   1
   9   5   6 1798.19 468.716   1
   9   5   7 168.225 430.080   1
   9   5   8 4043.01 571.790   1
  -9  -5  -9 16256.5 955.117   1
  -9  -5 -10 8188.44 1121.75   1
   9   5  11 431.947 336.473   1
   9   5  12 77.8830 586.545   1
   9   6  -2 1511.55 599.916   1
   9   6  -1 13566.9 757.176   1
  -9  -6   0 3655.73 492.166   1
   9   6   1 3350.50 441.084   1
   9   6   2 636.227 282.824   1
  -9  -6  -3 3760.53 447.101   1
   9   6   4 2877.92 410.891   1
   9   6   5 4408.23 594.991   1
   9   6   6 241.566 420.049   1
   9   6   7 708.381 430.894   1
   9   6   8 4571.96 612.858   1
  -9  -6  -9 12718.3 625.946   1
  -9  -6 -10 3290.55 437.351   1
   9   6  11-78.1261 411.200   1
   9   6  12-142.790 865.111   1
   9  10   1 7357.29 1331.68  -2
  -9  -7   2 7357.29 1331.68   1
   9   7  -1 3937.06 561.823   1
  -9  -7   0 1225.66 394.837   1
  -9  -7  -1 7722.67 612.463   1
  -9  -7  -2 6959.94 550.748   1
   9   7   3 2175.44 427.493   1
   9   7   4 3006.33 454.850   1
   9   7   5 4538.03 495.447   1
   9   7   6 1093.03 388.704   1
   9   7   7 11001.4 674.159   1
  -9  -7  -8 7468.31 515.096   1
  -9  -7  -9 1690.77 363.892   1
  -9  -7 -10 3522.45 453.823   1
   9   7  11 4979.64 589.019   1
   9   9   0 21552.6 1806.52  -2
  -9  -8   1 21552.6 1806.52   1
   9   8   0 557.447 392.848   1
   9   8   1 2697.48 463.159   1
   9   8   2 5652.73 713.017   1
   9   8   3 8987.68 607.372   1
   9   8   4 4570.97 496.536   1
   9   8   5 57.8569 364.291   1
  -9  -8  -6 3954.03 506.064   1
   9   8   7 4210.28 514.021   1
   9   8   8 1408.77 350.101   1
   9   8   9 1237.36 353.896   1
   9   8  10 247.669 418.823   1
  -9  -8 -11 15446.9 864.192   1
  -9  -9   1 186.243 744.658   1
   9   8  -1 19509.7 1674.66  -2
  -9  -9   0 19509.7 1674.66   1
   9   9   1 12495.7 985.034   1
   9   9   2 654.994 570.534   1
   9   9   3 916.071 403.350   1
   9   9   4 639.096 385.292   1
   9   9   5 19264.9 868.890   1
   9   9   6 3609.22 545.693   1
   9   9   7 11749.1 743.024   1
   9   9   8 1709.94 374.440   1
   9   9   9 729.708 424.292   1
  -9  -9 -10 2465.50 535.300   1
  -9  -9 -11 4314.40 669.105   1
   9   7  -2 8185.34 1304.67  -2
  -9 -10  -1 8185.34 1304.67   1
  -9 -10  -2 3136.52 687.231   1
   9  10   3 502.050 530.991   1
   9  10   4-96.5148 457.968   1
   9  10   5 12479.3 785.947   1
   9  10   6 456.563 425.540   1
   9  10   7 911.667 414.698   1
   9  10   8 407.595 548.454   1
   9  10   9 2063.67 634.347   1
  -9 -10 -10 4998.34 728.908   1
   9  11   3 3541.25 1126.04   1
   9  11   4 8609.74 1349.64   1
   9  11   5 7721.36 813.065   1
   9  11   6 1600.21 870.961   1
   9  11   7 313.878 760.513   1
   9  12   5 666.159 835.566   1
  10  -3   1 1659.51 770.705   1
  10  -3   2 5043.96 1004.31   1
  10  -3   3 1883.47 704.841   1
  10  -3   4 135.151 695.140   1
  10  -3   5 2298.14 892.101   1
  10   1  11 3982.00 1324.53  -2
 -10   3  -7 3982.00 1324.53   1
  10  -2   1 349.671 687.919   1
 -10   2  -2 647.117 399.595   1
 -10   2  -3 436.993 557.879   1
 -10   2  -4 3571.75 716.545   1
 -10   2  -5 6401.35 795.941   1
 -10   2  -6 3097.09 674.577   1
 -10   2  -7 1760.36 673.481   1
 -10   2  -8 465.605 1021.61   1
  10   0  10 2881.42 1124.07  -2
 -10   2  -8 2881.42 1124.07   1
  10  -1  10 5547.09 1586.46  -2
 -10   2  -9 5547.09 1586.46   1
  10  -1   0 2796.94 930.363   1
 -10   1  -1 2186.46 505.345   1
 -10   1  -2 994.195 416.998   1
 -10   1  -3 1636.94 434.639   1
 -10   1  -4 3378.09 667.428   1
 -10   1  -5 561.678 565.553   1
 -10   1  -6 340.365 491.010   1
 -10   1  -7 524.689 536.100   1
 -10   1  -8 8371.08 939.733   1
 -10   1  -9 2491.00 1132.29   1
  10  -1   9 7096.90 1553.33  -2
 -10   1  -9 7096.90 1553.33   1
 -10   1 -10 862.618 1105.97   1
  10  -2   9 4653.79 1492.01  -2
 -10   1 -10 4653.79 1492.01   1
  10   0  -1 10640.7 1404.87   1
  10   0   0 5453.39 546.081   1
 -10   0  -1 66.1369 337.413   1
  10   0   2 1602.19 441.254   1
 -10   0  -3 6569.90 599.396   1
 -10   0  -4 3469.73 644.710   1
 -10   0  -5 1345.18 548.893   1
 -10   0  -6-121.143 496.177   1
 -10   0  -7 2811.28 643.083   1
 -10   0  -8 7848.72 900.635   1
 -10   0  -9-59.5804 572.264   1
 -10   0 -10 984.617 885.147   1
  10   1  -1 3013.54 534.252   1
 -10  -1   0 777.713 381.730   1
  10   1   1 7589.35 574.347   1
  10   1   2 9155.58 579.982   1
 -10  -1  -3 3096.10 403.211   1
 -10  -1  -4 1928.02 525.617   1
 -10  -1  -5 68.0787 467.505   1
 -10  -1  -6 5026.61 696.006   1
 -10  -1  -7 7625.18 779.504   1
 -10  -1  -8 4351.98 717.326   1
 -10  -1  -9-67.8400 501.013   1
  10   1  10 1655.59 826.492   1
  10   2  -2 825.546 842.526   1
  10   2  -1 377.519 448.447   1
  10   2   0 991.017 391.167   1
  10   2   1 5230.88 508.272   1
  10   2   2 18592.7 751.963   1
 -10  -2  -3 338.315 313.547   1
 -10  -2  -4 314.509 302.903   1
  10   2   5 5325.39 539.967   1
 -10  -2  -6 8190.43 657.535   1
 -10  -2  -7 2317.32 490.367   1
 -10  -2  -8 1560.48 434.853   1
  10   2   9-73.4004 504.939   1
  10   2  10 1042.72 579.027   1
  10   2  11 3341.74 709.379   1
  10   3  -2 671.783 828.482   1
  10   3  -1 26.8799 446.731   1
  10   3   0 10129.7 619.282   1
  10   3   1 6954.59 537.478   1
 -10  -3  -2 20380.6 766.561   1
 -10  -3  -3-149.336 311.695   1
  10   3   4 433.871 314.347   1
  10   3   5 6187.42 576.654   1
  10   3   6 9587.05 677.810   1
 -10  -3  -7 497.054 388.020   1
  10   3   8 56.7685 495.026   1
 -10  -3  -9 4081.99 1029.99   1
  10   3  10 3681.88 707.416   1
  10   3  11 3321.44 696.274   1
 -10  -3 -12 507.338 825.034   1
  10   4  -1 1093.91 461.340   1
 -10  -4   0 781.997 352.990   1
  10   4   1 331.550 373.828   1
  10   4   2 799.141 391.036   1
  10   4   3 6746.45 601.936   1
  10   4   4 37649.3 929.537   1
 -10  -4  -5 23001.0 896.334   1
 -10  -4  -6 706.094 350.120   1
  10   4   7 887.075 475.946   1
  10   4   8 1157.98 515.119   1
 -10  -4  -9 8418.74 855.622   1
  10   4  10 3456.27 662.995   1
  10   4  11-227.174 521.250   1
  10   4  12 203.743 743.908   1
  10   5  -1 9640.35 962.412   1
  10   5   0 1631.66 438.569   1
  10   5   1 915.953 397.177   1
  10   5   2-27.1283 390.654   1
  10   5   3 8334.29 645.985   1
  10   5   4 6620.62 573.958   1
  10   5   5 8152.92 600.106   1
 -10  -5  -6-81.9053 500.796   1
  10   5   7-50.7082 520.344   1
  10   5   8 2361.81 589.972   1
  10   5   9 1899.30 588.889   1
  10   5  10 214.215 488.424   1
  10   5  11 137.961 531.525   1
  10   5  12 672.747 772.759   1
 -10  -6   1 2215.70 912.915   1
  10   6   0 200.053 411.759   1
  10   6   1-6.78667 375.855   1
 -10  -6  -2 844.624 393.377   1
 -10  -6  -3 10398.8 675.293   1
  10   6   4 7265.64 772.332   1
  10   6   5 1658.90 543.070   1
  10   6   6 4039.39 635.157   1
  10   6   7 16368.5 1051.81   1
 -10  -6  -8 12197.6 946.787   1
 -10  -6  -9 837.698 464.838   1
  10   6  10 850.142 435.638   1
  10   6  11 1359.66 524.837   1
 -10  -7   0-7.24278 475.190   1
  10   7   1 12953.5 804.344   1
  10   7   2 3014.40 483.187   1
  10   7   3 2983.44 462.603   1
  10   7   4-43.2608 375.431   1
  10   7   5 1605.93 451.806   1
  10   7   6 4938.76 584.728   1
  10   7   7 10388.3 768.516   1
  10   7   8 5161.33 598.107   1
  10   7   9 3678.43 562.383   1
  10   7  10 457.506 411.153   1
 -10  -7 -11 2489.30 936.407   1
 -10  -8   0 2380.61 665.035   1
 -10  -8  -1 24747.6 1794.55   1
  10   8   2 964.905 554.559   1
  10   8   3 1214.91 520.918   1
  10   8   4-0.02078 417.550   1
  10   8   5 1211.18 430.128   1
  10   8   6 7577.81 647.215   1
  10   8   7 4256.00 572.448   1
  10   8   8 445.109 434.309   1
  10   8   9 2449.84 510.536   1
 -10  -8 -10 2176.61 612.055   1
 -10  -8 -11 709.501 748.249   1
 -10  -9  -2 2723.21 880.953   1
  10   9   3 38.1020 556.353   1
  10   9   4 554.158 402.206   1
  10   9   5 3221.68 522.462   1
  10   9   6 1947.17 481.822   1
 -10  -9  -7-146.883 426.229   1
  10   9   8 553.290 438.619   1
 -10  -9  -9 2275.24 846.529   1
 -10  -9 -10 6904.77 1141.48   1
  10  10   4 5943.46 1235.23   1
  10  10   5 1491.25 541.942   1
  10  10   6 115.738 528.678   1
  10  10   7 1660.68 598.376   1
  10  11   6-536.941 899.788   1
  11  -1   2 79.5902 770.909   1
  11  -1   3 1064.72 838.978   1
  11  -1   4 1811.05 831.897   1
  11   0   1 2747.40 697.285   1
  11   0   2 3533.28 569.768   1
 -11   0  -3 2328.86 679.626   1
 -11   0  -4 678.451 590.474   1
 -11   0  -5-162.620 564.413   1
 -11   0  -6 2518.88 1155.88   1
  11   2   9 14789.8 1783.02  -2
 -11   0  -7 14789.8 1783.02   1
  11   1   9 3025.73 1307.04  -2
 -11   0  -8 3025.73 1307.04   1
  11   0   9 1276.52 1335.78  -2
 -11   0  -9 1276.52 1335.78   1
  11   1   1 9512.99 836.837   1
  11   1   2 6820.32 635.495   1
 -11  -1  -3 24.9106 449.205   1
 -11  -1  -4 31.2168 453.617   1
 -11  -1  -5 220.019 550.416   1
 -11  -1  -6 5418.40 791.588   1
 -11  -1  -7 2647.88 661.569   1
  11   1   8 384.753 1125.73  -2
 -11  -1  -8 384.753 1125.73   1
  11   2   1 10642.2 800.521   1
  11   2   2 5742.17 558.725   1
  11   2   3 180.919 365.561   1
 -11  -2  -4 158.940 447.278   1
 -11  -2  -5 45.2098 428.742   1
 -11  -2  -6 849.918 454.430   1
 -11  -2  -7 441.773 468.342   1
  11   1   7 4700.73 1370.27  -2
 -11  -2  -8 4700.73 1370.27   1
  11   3   1 1017.82 417.810   1
  11   3   2 1208.09 399.772   1
  11   3   3 4384.43 511.334   1
  11   3   4 14415.6 862.339   1
 -11  -3  -5 1521.79 466.074   1
 -11  -3  -6 232.495 429.682   1
  11   3   7 2269.77 623.070   1
  11   3   8 248.082 600.481   1
  11   0   6 11078.3 1534.59  -2
 -11  -3  -9 11078.3 1534.59   1
  11   4   1 149.817 443.482   1
  11   4   2 1671.02 429.191   1
  11   4   3 6941.53 564.758   1
 -11  -4  -4 8759.10 708.518   1
  11   4   5 147.112 407.761   1
  11   4   6 207.980 522.618   1
  11   4   7 784.204 528.042   1
  11   4   8 89.5047 545.662   1
  11   4   9-4.73550 550.306   1
 -11  -5  -1 404.377 528.742   1
 -11  -5  -2 127.616 436.812   1
  11   5   3 7359.14 675.219   1
  11   5   4 3468.75 546.491   1
  11   5   5 1976.27 604.836   1
  11   5   6 5624.24 801.420   1
  11   5   7 4608.09 734.750   1
  11   5   8 1296.27 539.609   1
  11   5   9 453.208 552.404   1
  11   5  10 753.116 569.469   1
 -11  -6  -1 7003.43 819.327   1
 -11  -6  -2 1674.80 548.885   1
  11   6   3 2295.26 627.826   1
  11   6   4 450.070 557.100   1
  11   6   5 10912.7 987.595   1
  11   6   6 5291.43 772.515   1
  11   6   7 4767.91 769.692   1
  11   6   8 592.770 541.774   1
  11   6   9 1773.82 638.554   1
  11   6  10 524.414 860.034   1
 -11  -7  -3-90.8324 722.916   1
  11   7   4-83.2322 447.374   1
  11   7   5 1580.94 492.009   1
  11   7   6 6548.08 679.425   1
  11   7   7-0.05440 447.175   1
  11   7   8 3313.79 584.710   1
  11   7   9 4916.45 1022.32   1
  11   7  10 1671.67 901.159   1
  11   8   5 497.323 507.823   1
  11   8   6 749.602 569.847   1
  11   8   7 1540.00 642.555   1
  11   8   8 5855.33 1226.20   1
  11   8   9 2492.23 959.036   1
  11   9   5-160.560 782.599   1
  11   9   6 866.846 789.418   1
  11   9   7 7794.59 1419.55   1
  11   9   8 8769.10 1375.76   1
  12   4   8 731.508 1184.22  -2
 -12  -2  -6 731.508 1184.22   1
  12   6   7 5853.96 1297.24  -2
 -12  -3  -4 5853.96 1297.24   1
  12   5   7 889.361 1078.77  -2
 -12  -3  -5 889.361 1078.77   1
 -12  -4  -4-590.600 804.201   1
   0   0  -6 18592.3 978.851   2
   0   0   7 4803.44 310.920   2
   0   0  -8 5134.71 298.432   2
   0   0   9 10078.9 454.872   2
   0   0  10 1011.00 409.195   2
   0   0 -11-117.614 499.370   2
   0   0 -12 7320.22 865.323   2
   0  -1  12 1197.06 823.277   2
   0   1 -11 5903.08 574.098   2
   0   1 -10 3304.64 452.688   2
   0   1  -9 2914.23 305.906   2
   0  -1   8 19153.1 771.072   2
   0   1  -7 34546.1 604.344   2
   0  -1   6 93637.4 975.214   2
   0   1  -5 33188.0 637.260   2
   0   1  -2 95379.3 689.491   2
   0   1  -1 3428.57 75.8240   2
   0  -1  -7 5994.20 326.613   2
   0  -1  -8 12562.0 407.761   2
   0   1   9 45224.5 987.407   2
   0  -1 -10 2380.92 532.227   2
   0   1  11 2213.72 559.899   2
   0  -1 -12 1074.08 567.708   2
   0   2 -11 2488.81 482.281   2
   0  -2  10 3275.72 351.709   2
   0  -2   9-55.7418 273.505   2
   0   2  -8 2120.21 295.686   2
   0  -2   7 29725.2 739.071   2
   0   2  -6 45565.2 644.294   2
   0   2  -5 2694.30 194.167   2
   0   2  -4 529.712 141.371   2
   0   2  -3 2496.90 186.443   2
   0  -2   2 221.988 72.1134   2
   0  -2   1 109738. 461.372   2
   0   2   0 44532.8 772.582   2
   0   2   8 3916.36 392.434   2
   0  -2  -9 911.904 458.465   2
   0   2  10 1708.63 500.305   2
   0  -2 -11 9899.82 859.531   2
   0   2  12 6581.80 833.507   2
   0   3 -11 1864.99 493.577   2
   0   3 -10 157.247 292.688   2
   0   3  -9 1149.23 301.331   2
   0   3  -8 5561.85 391.232   2
   0   3  -7 5071.41 339.424   2
   0   3  -6 49773.9 773.198   2
   0   3  -5 3695.53 224.123   2
   0   3  -4 68194.8 658.861   2
   0   3  -3 75839.5 986.672   2
   0  -3   2 95593.1 877.755   2
   0   3  -1 81.1170 92.6266   2
   0  -3   0 8317.41 189.220   2
   0  -3 -10 11676.5 840.683   2
   0  -3 -11 4921.64 748.909   2
   0  -4  11 717.707 596.513   2
   0   4 -10-279.374 376.834   2
   0   4  -9 2084.86 427.606   2
   0   4  -8 41648.6 1057.70   2
   0   4  -7 1245.47 330.308   2
   0   4  -6 132.521 268.272   2
   0   4  -5 6983.45 488.645   2
   0   4  -4 59757.8 1099.31   2
   0   4  -3 151844. 1588.35   2
   0  -4   2 44445.1 596.870   2
   0  -4   1 13706.1 498.594   2
   0   4   0 455.716 66.4804   2
   0  -4 -11 312.452 585.758   2
   0  -5  10 4503.63 565.015   2
   0  -5   9 5625.53 673.106   2
   0  -5   8 2255.39 499.405   2
   0   5  -7 1979.15 456.352   2
   0   5  -6 4750.98 499.584   2
   0   5  -5 58371.1 1265.13   2
   0   5  -4 46585.2 875.621   2
   0   5  -3 55094.8 882.207   2
   0  -5   2 1198.85 111.434   2
   0  -5   1 7861.11 217.691   2
   0  -5   0 536.521 66.8293   2
   0  -6   9 5570.61 726.888   2
   0  -6   8 6187.61 717.943   2
   0   6  -7 326.901 407.738   2
   0  -6   6 768.831 340.527   2
   0   6  -5 14090.1 606.467   2
   0  -6   4 229.663 263.422   2
   0   6  -3 550.591 248.645   2
   0  -6   2 456.194 169.512   2
   0  -6   1 133808. 802.344   2
   0   6   0 69813.3 918.045   2
   0  -7   9 560.748 867.432   2
   0   7  -8 1215.29 447.048   2
   0   7  -7 7629.16 604.455   2
   0   7  -6 22396.3 849.527   2
   0   7  -5 18078.8 717.399   2
   0   7  -4 9025.85 513.240   2
   0   7  -3 5605.58 318.305   2
   0   7  -2 32570.7 620.861   2
   0  -7   1 20847.7 502.924   2
   0  -7   0 92288.2 1015.29   2
   0   7   1 5003.27 335.166   2
   0  -8   8 49.5630 746.815   2
   0  -8   7 9406.61 696.023   2
   0  -8   6 5646.52 554.656   2
   0  -8   5 216.889 338.428   2
   0   8  -4 5400.71 494.461   2
   0   8  -3 828.100 326.624   2
   0   8  -2 25187.1 609.550   2
   0  -8   1 270.472 242.957   2
   0  -8   0 2080.43 232.508   2
   0   8   1 45263.6 778.392   2
   0   8   2 8233.17 696.879   2
   0  -9   7 10326.5 1325.14   2
   0  -9   6 858.887 456.490   2
   0  -9   5-391.117 407.460   2
   0  -9   4 563.793 362.648   2
   0   9  -3 4255.07 458.491   2
   0   9  -2 8066.08 524.314   2
   0   9  -1 1503.28 270.037   2
   0  -9   0 878.829 239.966   2
   0  -9  -1 8591.09 463.063   2
   0  -9  -2 27591.9 853.791   2
   0   9   3 8006.39 725.275   2
   0 -10   6-149.269 843.562   2
   0 -10   5 1789.40 501.936   2
   0  10  -4 11088.6 720.754   2
   0  10  -3 15873.0 786.355   2
   0  10  -2 811.999 365.532   2
   0  10  -1 6311.35 515.471   2
   0 -10   0 6541.83 442.947   2
   0 -10  -1 12026.5 604.274   2
   0 -10  -2 1789.38 443.392   2
   0 -10  -3 362.047 563.209   2
   0 -11   5 4241.15 1064.93   2
   0 -11   4 3565.10 901.117   2
   0 -11   3-34.2869 542.228   2
   0  11  -2 290.880 537.038   2
   0  11  -1 1995.74 569.341   2
   0  11   0 119.082 488.748   2
   0 -11  -1 2463.37 414.663   2
   0 -11  -2 393.739 355.516   2
   0 -11  -3 11328.9 817.373   2
   0 -11  -4 14497.0 1272.65   2
   0 -12   2 1401.52 802.731   2
   0 -12   1 4287.30 986.513   2
   0 -12   0 115.271 685.629   2
   0  12   1-103.249 534.034   2
   0  12   2 2445.92 625.108   2
   0 -12  -3 3886.21 557.040   2
   0 -12  -4 3621.40 700.666   2
   0 -12  -5 1061.84 563.281   2
   1 -12  -3 2183.74 852.618   2
   1 -12  -2 154.042 532.643   2
  -1  12   1 455.465 766.543   2
  -1  11   6 9722.73 1281.23   2
  -1  11   5 8248.67 844.515   2
   1 -11  -4 756.130 545.638   2
   1 -11  -3 3182.08 610.675   2
   1 -11  -2 8984.81 672.826   2
   1 -11  -1 7193.82 598.817   2
  -1  11   0 2506.40 582.970   2
  -1  11  -1 3943.56 664.366   2
  -1  11  -2 1023.33 519.099   2
  -1  11  -3 17626.2 913.195   2
  -1  11  -4 9816.13 912.934   2
   1 -10  -7 2005.03 548.079   2
   1 -10  -6 2828.36 594.635   2
   1 -10  -5 1112.99 478.369   2
   1 -10  -4 148.606 450.736   2
   1 -10  -3 20150.6 998.715   2
   1 -10  -2 19958.6 973.466   2
   1 -10  -1 6154.96 516.274   2
   1 -10   0 1444.82 329.665   2
  -1  10  -1 1560.84 293.406   2
  -1  10  -2 2681.35 417.003   2
  -1  10  -3 7783.87 639.716   2
  -1  10  -4 146.805 428.958   2
   1 -10   5 1028.26 430.823   2
   1 -10   6 4032.57 1046.78   2
  -1   9   9 1389.25 795.856   2
  -1   9   8 8657.26 815.825   2
  -1   9   7 1499.75 450.243   2
  -1   9   6 1354.13 398.771   2
   1  -9  -5 485.454 319.599   2
  -1   9   4 10606.6 744.993   2
  -1   9   3 27199.7 1053.27   2
   1  -9  -2 17315.8 860.182   2
   1  -9  -1 4129.66 430.039   2
   1  -9   0-32.8926 214.148   2
  -1   9  -1 1165.84 243.752   2
  -1   9  -2 2338.72 316.347   2
  -1   9  -3 5803.09 511.413   2
   1  -9   4 106.443 380.519   2
   1  -9   5 4489.75 535.492   2
  -1   9  -6 9276.20 718.712   2
   1  -9   7 5830.36 1110.32   2
   1  -8  -7 809.127 412.181   2
   1  -8  -6 193.490 311.235   2
   1  -8  -5-14.0390 254.884   2
  -1   8   4 7221.50 385.795   2
  -1   8   3 38839.7 717.389   2
  -1   8   2 2789.14 248.692   2
   1  -8  -1 69.1730 163.061   2
   1  -8   0 70848.4 889.758   2
   1  -8   1 34164.9 649.974   2
  -1   8  -2 9140.63 433.766   2
  -1   8  -3 541.721 238.568   2
   1  -8   4 462.377 320.301   2
   1  -8   5 5340.77 505.396   2
  -1   8  -6 13030.1 740.589   2
   1  -8   7 2129.74 530.845   2
   1  -8   8 89.0838 476.417   2
   1  -7  -6 1659.61 388.309   2
  -1   7   5 42348.8 1070.34   2
  -1   7   4 2039.32 265.382   2
  -1   7   3 3220.32 266.630   2
  -1   7   2 17693.1 370.614   2
  -1   7   1 10688.6 299.262   2
   1  -7   0 58711.5 561.373   2
   1  -7   1 54970.2 636.226   2
  -1   7  -2 4019.19 300.286   2
  -1   7  -3 90.1871 214.907   2
   1  -7   4 252.317 270.459   2
   1  -7   5 1836.37 372.130   2
   1  -7   6 1434.89 381.428   2
   1  -7   7 3065.23 493.378   2
   1  -7   8 5341.11 594.917   2
   1  -7   9 10332.5 980.084   2
   1  -6  -7 5757.14 661.409   2
   1  -6  -6 43024.9 1637.19   2
  -1   6   5 24818.4 603.903   2
  -1   6   4 1063.83 149.937   2
  -1   6   3 27696.0 299.135   2
   1  -6  -2 2371.64 103.528   2
  -1   6   1 43034.0 502.861   2
   1  -6   0 18713.7 194.254   2
   1  -6   1 8887.92 255.184   2
   1  -6   2 3756.01 237.148   2
  -1   6  -3 5245.72 302.950   2
   1  -6   4 2722.41 323.991   2
   1  -6   5 2100.72 330.899   2
   1  -6   6 5633.87 472.497   2
   1  -6   7 439.820 349.771   2
  -1   6  -8 13410.5 750.066   2
  -1   6  -9 7362.75 664.463   2
   1  -6  10 1380.60 789.660   2
  -1   5   4 1527.82 144.493   2
  -1   5   3 11288.7 159.181   2
  -1   5   2 33932.6 312.741   2
   1  -5  -1 2005.64 97.6849   2
   1  -5   0 68069.6 438.476   2
   1  -5   1 19367.1 380.349   2
   1  -5   2 43134.3 568.631   2
  -1   5  -3 160742. 1229.06   2
  -1   5  -4 17060.7 563.128   2
  -1   5  -5 1139.13 280.937   2
   1  -5   6 164.705 302.813   2
  -1   5  -7 105.616 402.627   2
   1  -5   8 4461.26 595.352   2
   1  -5   9 1119.07 521.940   2
   1  -5  10 5085.16 734.135   2
   1  -4  -4 2476.10 180.918   2
  -1   4   3 20998.2 332.574   2
  -1   4   2 99209.1 474.340   2
  -1   4   1 458.202 68.1600   2
  -1   4   0 3435.39 132.559   2
   1  -4   1 38981.6 468.718   2
  -1   4  -2 3244.35 178.959   2
  -1   4  -3 25931.1 472.694   2
   1  -4   4 1096.59 219.276   2
  -1   4  -5 47395.8 1079.05   2
  -1   4  -6 29329.8 943.076   2
   1  -4   7 622.716 356.309   2
   1  -4   8 2109.67 461.165   2
   1  -4   9 385.920 421.234   2
  -1   4 -10 10958.4 874.295   2
  -1   4 -11 6507.27 818.124   2
  -1   3   5 16078.0 388.461   2
  -1   3   4 31735.6 289.335   2
  -1   3   3 194318. 898.437   2
  -1   3   2 23073.9 190.691   2
  -1   3   1 5079.98 117.057   2
  -1   3   0 4679.10 139.990   2
   1  -3   1 12200.5 246.886   2
  -1   3  -2 50196.3 547.375   2
  -1   3  -3 47293.0 845.242   2
  -1   3  -4 83355.5 1210.15   2
   1  -3   5 241.886 276.459   2
  -1   3  -6 7477.20 424.944   2
  -1   3  -7 3092.60 344.974   2
  -1   3  -8 1232.56 334.772   2
  -1   3  -9 808.534 338.072   2
  -1   3 -10 7061.65 592.727   2
  -1   3 -11 2850.70 521.932   2
   1  -3  12 273.394 552.090   2
  -1   2   3 34703.6 549.345   2
  -1   2   2 2100.46 69.7315   2
  -1   2   1 416.333 44.8102   2
  -1   2   0 13675.2 162.042   2
  -1   2  -1 305.523 81.8026   2
  -1   2  -2 1428.08 124.981   2
  -1   2  -3 4008.58 272.527   2
  -1   2  -4 154362. 1252.62   2
  -1   2  -5 52499.9 776.124   2
  -1   2  -6 118159. 1113.41   2
  -1   2  -7 222.299 207.732   2
  -1   2  -8 34942.3 751.404   2
  -1   2  -9 2162.62 320.554   2
  -1   2 -10 193.028 300.684   2
  -1   2 -11 1130.03 350.541   2
  -1   2 -12 1022.68 447.685   2
  -1   1   1 22587.4 176.169   2
   1  -1   0 602011. 4608.88   2
  -1   1  -1 901.433 67.8718   2
  -1   1  -2 16029.2 205.089   2
  -1   1  -3 7717.73 188.250   2
  -1   1  -4 2919.75 159.599   2
  -1   1  -5 563.501 129.353   2
  -1   1  -6 4406.25 233.780   2
  -1   1  -7 40372.4 631.804   2
  -1   1  -8 15506.1 462.458   2
  -1   1  -9 17288.6 525.846   2
  -1   1 -10 1653.11 324.174   2
  -1   1 -11 1004.31 296.296   2
  -1   1 -12 3749.52 722.475   2
   1   0  -2 299285. 2250.74   2
  -1   0   1 4074.44 94.9677   2
   1   0   0-0.05238 275.726   2
  -1   0  -1 463.408 43.6803   2
  -1   0  -2 25872.5 242.301   2
   1   0   3 20325.6 301.713   2
   1   0   4 5041.89 225.020   2
  -1   0  -5 374.891 141.062   2
  -1   0  -6 471.778 159.541   2
  -1   0  -7 100335. 1040.63   2
  -1   0  -8 20489.6 558.290   2
  -1   0  -9 20550.4 606.626   2
  -1   0 -10 2385.15 267.660   2
  -1   0 -11 649.480 378.702   2
  -1   0 -12 1197.54 584.008   2
   1   1  -1 175777. 675.513   2
   1   1   0 3649.09 75.4279   2
   1   1   1 10546.8 189.796   2
   1   1   2 534810. 4099.73   2
  -1  -1  -3 1066.61 105.090   2
  -1  -1  -4 1832.81 145.742   2
   1   1   5 2330.51 171.993   2
  -1  -1  -6 37352.1 574.337   2
  -1  -1  -7 27478.9 556.348   2
  -1  -1  -8 13731.6 463.055   2
  -1  -1  -9 427.020 226.004   2
  -1  -1 -10 7217.35 516.425   2
  -1  -1 -11 10303.3 839.010   2
  -1  -1 -12 3386.89 537.762   2
  -1  -2  11 431.664 485.384   2
  -1  -2  10-243.129 704.310   2
   1   2  -1 1898.45 114.792   2
   1   2   0 135041. 798.036   2
   1   2   1 36953.4 242.669   2
   1   2   2 745.029 64.3471   2
  -1  -2  -3 52814.4 353.429   2
  -1  -2  -4 7285.61 222.715   2
   1   2   5 87632.9 806.322   2
   1   2   6 15479.9 410.945   2
   1   2   7 13056.8 429.304   2
  -1  -2  -8 1374.66 197.463   2
  -1  -2  -9 17232.3 616.131   2
  -1  -2 -10 55964.9 1503.61   2
  -1  -2 -11 10324.8 837.037   2
  -1  -2 -12 3828.04 693.912   2
  -1  -3  11-146.694 847.400   2
  -1  -3  10 777.363 714.866   2
  -1  -3   9 10774.5 1148.72   2
   1   3   0 16600.0 391.123   2
   1   3   1 248097. 2074.35   2
  -1  -3  -2 20162.8 627.021   2
   1   3   3 51967.3 350.306   2
  -1  -3  -4 69226.4 406.090   2
   1   3   5 53750.1 361.564   2
   1   3   6 1624.87 123.986   2
   1   3   7 997.124 130.468   2
   1   3   8 2905.10 246.697   2
  -1  -3  -9 6410.51 473.209   2
  -1  -3 -10 18974.6 981.854   2
  -1  -3 -11 703.300 506.062   2
  -1  -3 -12 574.977 550.732   2
  -1  -4  10 3437.47 945.692   2
  -1  -4   9 14765.3 1293.25   2
  -1  -4   8 2942.22 471.309   2
   1   4   2 3512.01 140.330   2
  -1  -4  -3 23168.1 301.980   2
  -1  -4  -4 87018.7 1102.15   2
   1   4   5 35680.3 634.630   2
   1   4   6 1936.53 242.425   2
   1   4   7 3779.09 317.304   2
   1   4   8 26024.8 720.802   2
   1   4   9 3189.04 385.525   2
  -1  -4 -10 12336.1 872.099   2
  -1  -4 -11 469.216 525.821   2
   1   4  12 3796.53 696.181   2
  -1  -5  10 1302.22 835.622   2
  -1  -5   9 7228.78 1077.08   2
  -1  -5   8 4219.73 836.736   2
   1   5   5 1412.85 223.109   2
   1   5   6 699.080 198.642   2
   1   5   7 9711.35 446.441   2
   1   5   8 37782.9 847.144   2
   1   5   9 823.465 444.955   2
  -1  -5 -10 1775.15 537.777   2
   1   5  11 3571.92 655.111   2
   1   5  12 5989.94 845.906   2
  -1  -6   9-110.746 752.947   2
  -1  -6   8 491.709 715.907   2
   1   6  -7 8258.32 1019.98   2
  -1  -6  -4 864.413 83.7442   2
   1   6   6 33063.5 1115.81   2
   1   6   7 45684.4 878.489   2
   1   6   8 12499.6 736.890   2
  -1  -6  -9 115.562 425.784   2
  -1  -6 -10 54.1951 475.908   2
  -1  -6 -11 587.001 577.056   2
  -1  -7   8 496.788 802.291   2
   1   7  -6 11212.8 1119.11   2
   1   7   7 35493.7 1246.52   2
   1   7   8 17.8255 415.072   2
  -1  -7  -9-210.700 449.877   2
  -1  -7 -10 6394.56 747.210   2
  -1  -7 -11 3135.80 685.928   2
  -1  -8   7 983.835 809.605   2
   1   8  -5 668.234 651.197   2
  -1  -8  -9 5012.24 649.541   2
  -1  -8 -10 8737.91 871.869   2
  -1  -8 -11 1751.44 652.151   2
   1   9  -4 7654.91 984.509   2
  -1  -9 -10 6811.34 843.956   2
  -1 -12   3 5992.37 1072.38   2
   2 -12  -1 1621.02 803.304   2
   2 -11  -4 3077.11 901.738   2
   2 -11  -3 1799.69 489.416   2
   2 -11  -2 3380.51 511.172   2
   2 -11  -1 2910.66 512.082   2
   2 -11   0 919.905 418.405   2
   2 -11   1 1710.61 721.036   2
  -2  11  -2 2628.75 661.629   2
  -2  11  -4-496.843 786.658   2
  -2  10   6-83.6574 798.235   2
   2 -10  -5-86.0249 459.476   2
   2 -10  -4 876.491 531.049   2
   2 -10  -3 5413.48 667.373   2
   2 -10  -2 1279.71 410.604   2
   2 -10  -1 2054.62 426.361   2
   2 -10   0 1860.72 425.014   2
   2 -10   1 2827.11 455.916   2
  -2  10  -2 2304.87 441.160   2
  -2  10  -3 7819.77 642.063   2
  -2  10  -4 3693.53 689.968   2
  -2  10  -5 11618.0 1044.95   2
  -2   9   8 8172.96 1355.29   2
   2  -9  -7 1552.58 450.280   2
   2  -9  -6 827.092 387.391   2
   2  -9  -5 4611.67 503.585   2
  -2   9   4 12011.4 651.242   2
   2  -9  -3 12429.5 837.906   2
   2  -9  -2 988.937 421.254   2
   2  -9  -1 2345.10 386.973   2
   2  -9   0 1797.44 383.792   2
  -2   9  -1 11446.7 472.125   2
  -2   9  -2 834.259 285.468   2
  -2   9  -3 6616.00 463.297   2
  -2   9  -4 10673.7 674.445   2
  -2   9  -5 7923.40 817.001   2
  -2   9  -6 1739.92 598.599   2
   2  -8  -8 543.724 530.490   2
   2  -8  -7 373.484 512.506   2
   2  -8  -6 4946.36 586.113   2
  -2   8   5 18922.7 769.527   2
  -2   8   4 2606.03 376.191   2
   2  -8  -3 243.737 312.029   2
   2  -8  -2 28294.6 779.989   2
   2  -8  -1 15579.6 582.198   2
   2  -8   0 3162.83 308.564   2
  -2   8  -1 3559.56 301.145   2
  -2   8  -2 1794.67 261.359   2
  -2   8  -3 267.131 260.546   2
  -2   8  -4 4340.12 469.462   2
   2  -8   5 3614.45 467.879   2
   2  -8   6 732.750 408.119   2
   2  -8   7 5282.12 585.515   2
   2  -7  -9 1949.03 483.619   2
   2  -7  -8 649.670 393.045   2
   2  -7  -7 309.933 345.549   2
   2  -7  -6 3062.62 397.723   2
   2  -7  -5 12249.7 571.328   2
   2  -7  -4 52.9167 231.575   2
   2  -7  -3 328.181 205.740   2
   2  -7  -2 545.182 252.083   2
   2  -7  -1 5594.93 302.300   2
   2  -7   0 813.708 179.468   2
  -2   7  -1 355.872 163.710   2
  -2   7  -2 45175.0 731.193   2
  -2   7  -3 9289.35 431.180   2
  -2   7  -4 6569.19 476.459   2
   2  -7   5 711.490 336.877   2
   2  -7   6 1311.11 379.419   2
  -2   7  -7 17629.1 840.449   2
  -2   7  -8 24660.6 1262.35   2
   2  -6 -10 6890.57 806.862   2
  -2   6   9-22.3722 538.237   2
   2  -6  -8-73.5580 469.112   2
  -2   6   7 237.366 385.461   2
   2  -6  -6 7845.98 503.034   2
   2  -6  -5 7219.68 450.403   2
   2  -6  -4 3306.85 248.713   2
  -2   6   3 64940.1 691.139   2
  -2   6   2 30352.4 384.955   2
   2  -6  -1 16915.3 284.439   2
   2  -6   0 742.391 111.287   2
  -2   6  -1 28844.0 377.853   2
  -2   6  -2 18584.5 356.534   2
  -2   6  -3 12150.4 438.729   2
  -2   6  -4 1152.24 291.657   2
  -2   6  -5-14.6941 310.780   2
  -2   6  -6 12050.8 619.960   2
  -2   6  -7 8211.20 595.594   2
  -2   6  -8 688.045 409.618   2
   2  -6   9 102.665 441.472   2
  -2   5  10-3.13946 561.930   2
  -2   5   9 4558.71 504.731   2
   2  -5  -8 7456.92 547.303   2
   2  -5  -7 15467.2 638.859   2
   2  -5  -6 837.573 277.911   2
   2  -5  -5 4204.73 320.498   2
  -2   5   4 16599.3 433.627   2
   2  -5  -3 780.969 102.731   2
  -2   5   2 22147.7 319.762   2
  -2   5   1 2257.00 128.619   2
   2  -5   0 21543.9 282.008   2
   2  -5   1 96614.7 656.538   2
   2  -5   2 3122.76 216.299   2
   2  -5   3 3543.50 258.026   2
  -2   5  -4 5570.89 379.775   2
  -2   5  -5 28618.2 768.699   2
  -2   5  -6 12103.2 584.957   2
  -2   5  -7 6795.92 516.147   2
   2  -5   8 2186.91 411.445   2
   2  -5   9 751.449 509.179   2
  -2   5 -10 18496.0 1532.00   2
   2  -4  -9 10715.3 808.122   2
   2  -4  -8 11490.9 628.643   2
   2  -4  -7 12016.7 575.972   2
  -2   4   6 1059.37 274.788   2
   2  -4  -5 12036.0 468.636   2
   2  -4  -4 12956.7 251.673   2
   2  -4  -3 797.705 86.9289   2
  -2   4   2 889.760 108.293   2
  -2   4   1 54406.3 447.047   2
   2  -4   0 77214.6 496.750   2
   2  -4   1 410.177 75.3852   2
   2  -4   2 30761.3 360.121   2
  -2   4  -3 355.497 154.938   2
  -2   4  -4 45401.5 823.845   2
  -2   4  -5 23730.8 654.147   2
  -2   4  -6 2460.31 414.016   2
  -2   4  -7 7340.12 600.943   2
   2  -4   8 4970.28 554.914   2
   2  -4   9 2189.80 521.079   2
  -2   4 -10 12826.0 922.426   2
  -2   4 -11 4654.59 711.089   2
   2  -3  -8 12892.8 637.175   2
  -2   3   7 1384.66 329.155   2
   2  -3  -6 36128.3 813.629   2
   2  -3  -5 4045.76 212.755   2
   2  -3  -4 18337.9 354.722   2
   2  -3  -3 661.880 114.051   2
   2  -3  -2 747.649 64.5082   2
  -2   3   1 31883.8 346.699   2
   2  -3   0 293352. 937.016   2
   2  -3   1 36709.2 445.747   2
  -2   3  -2 1556.95 99.0782   2
  -2   3  -3 3927.28 211.304   2
  -2   3  -4 77167.6 970.838   2
  -2   3  -5 28421.0 822.713   2
  -2   3  -6 5320.31 463.898   2
   2  -3   7 4411.65 475.543   2
  -2   3  -8 13518.3 764.897   2
  -2   3  -9 8289.94 690.535   2
  -2   3 -10 690.198 465.136   2
   2  -3  11 0.19441 519.702   2
  -2   3 -12 3400.92 859.056   2
   2  -2  -7 17432.2 646.065   2
   2  -2  -6 29898.2 573.957   2
   2  -2  -5 3650.44 164.697   2
   2  -2  -4 16013.2 178.442   2
   2  -2  -3 16200.9 324.733   2
   2  -2  -2 58701.5 491.863   2
   2  -2  -1 102808. 450.555   2
   2  -2   0 16766.9 181.820   2
  -2   2  -1 798.576 110.503   2
  -2   2  -2 183355. 660.608   2
  -2   2  -3 204732. 1327.27   2
  -2   2  -4 94272.3 907.368   2
  -2   2  -5 4668.94 279.227   2
  -2   2  -6 18751.3 470.153   2
  -2   2  -7 1753.11 235.631   2
  -2   2  -8 5433.76 423.605   2
  -2   2  -9 7625.27 517.388   2
  -2   2 -10 770.259 364.142   2
  -2   2 -11 1687.00 420.978   2
  -2   2 -12 801.358 441.410   2
  -2   1   7 27627.6 1056.36   2
  -2   1   6 43250.7 791.152   2
   2  -1  -5 11974.7 362.459   2
   2  -1  -4 13736.4 347.377   2
   2  -1  -3 10691.2 195.026   2
   2  -1  -2 5575.90 174.628   2
   2  -1  -1 3044.23 124.450   2
  -2   1   0 10101.5 185.863   2
  -2   1  -1 28099.4 297.243   2
  -2   1  -2 278380. 930.783   2
  -2   1  -3 46540.5 532.567   2
  -2   1  -4 13029.4 300.112   2
  -2   1  -5 8104.56 279.203   2
  -2   1  -6 5929.56 284.104   2
  -2   1  -7 62410.5 852.804   2
  -2   1  -8 23416.2 538.704   2
  -2   1  -9 114.665 252.065   2
  -2   1 -10 1930.94 322.698   2
  -2   1 -11 1224.52 387.388   2
  -2   1 -12 3037.60 690.482   2
  -2   0   5 1722.05 246.531   2
  -2   0   4 247389. 1361.87   2
  -2   0   3 55022.3 689.156   2
  -2   0   2 23571.3 277.297   2
  -2   0   1 30487.9 236.199   2
   2   0   0 16522.0 230.341   2
   2   0   1 20829.0 187.935   2
   2   0   2 726298. 3987.80   2
  -2   0  -3 71937.3 535.731   2
  -2   0  -4 103583. 754.603   2
  -2   0  -5 59290.1 587.827   2
  -2   0  -6 41351.7 553.770   2
  -2   0  -7 11105.2 346.665   2
  -2   0  -8 1724.16 222.631   2
  -2   0  -9 2988.18 284.875   2
  -2   0 -10 905.721 256.127   2
  -2   0 -11 3862.86 373.482   2
  -2   0 -12 424.556 498.033   2
  -2   0 -13 1058.10 803.846   2
  -2  -1   4 76046.2 926.953   2
  -2  -1   3 194203. 1317.82   2
  -2  -1   2 12733.8 249.677   2
   2   1  -1 4970.99 112.872   2
  -2  -1   0 171718. 563.210   2
  -2  -1  -1 1402.20 79.2575   2
   2   1   2 166.837 94.9347   2
  -2  -1  -3 102963. 769.977   2
  -2  -1  -4 13683.6 296.138   2
  -2  -1  -5 181190. 1111.99   2
   2   1   6 65143.2 750.264   2
   2   1   7 425.722 176.453   2
  -2  -1  -8 197.881 200.511   2
  -2  -1  -9 21180.7 598.829   2
  -2  -1 -10 11124.9 504.724   2
  -2  -1 -11 2742.33 443.162   2
  -2  -1 -12-47.3678 425.016   2
  -2  -1 -13 711.669 839.065   2
  -2  -2   3 5509.51 221.676   2
   2   2  -2 75083.4 397.331   2
   2   2  -1 229862. 644.164   2
   2   2   0 15351.7 185.603   2
  -2  -2  -1 128598. 461.241   2
  -2  -2  -2 2075.79 106.594   2
   2   2   3 3712.97 143.130   2
   2   2   4 18572.5 417.270   2
  -2  -2  -5 62737.0 650.949   2
  -2  -2  -6 14224.0 369.714   2
   2   2   7 624.665 167.164   2
   2   2   8 17939.0 557.768   2
  -2  -2  -9 273.681 242.741   2
  -2  -2 -10 8871.57 706.492   2
   2   2  11 324.123 454.018   2
   2   2  12 4720.61 723.544   2
  -2  -2 -13 1471.99 916.412   2
   2   3  -3 750.885 303.300   2
   2   3  -2 3415.47 141.172   2
   2   3  -1 590070. 3100.10   2
  -2  -3   0 381771. 1359.86   2
   2   3   1 22715.3 215.982   2
   2   3   2 1485.15 102.638   2
   2   3   3 2073.05 133.600   2
   2   3   4 54887.7 548.441   2
  -2  -3  -5 60080.4 613.772   2
   2   3   6 2239.59 180.686   2
   2   3   7 38.7643 149.193   2
   2   3   8 61538.6 905.785   2
   2   3   9 1443.17 404.234   2
  -2  -3 -10 6114.35 522.400   2
   2   3  11 3294.41 476.334   2
   2   3  12 6441.89 798.289   2
  -2  -4   2 87009.3 732.265   2
  -2  -4   1 12339.4 204.650   2
   2   4   0 94230.1 620.142   2
  -2  -4  -1 50556.8 321.834   2
   2   4   2 15663.3 290.645   2
   2   4   3 123337. 802.276   2
   2   4   4 28688.0 410.191   2
  -2  -4  -5 26349.9 399.325   2
  -2  -4  -6 10347.8 190.025   2
   2   4   7 7500.46 206.408   2
   2   4   8 45560.0 920.722   2
   2   4   9 163.209 280.232   2
   2   4  10 8139.71 549.523   2
  -2  -4 -11 6485.28 728.571   2
   2   4  12 2238.10 596.789   2
  -2  -5   2 13589.3 354.443   2
  -2  -5   1 10151.0 237.220   2
   2   5   0 149.482 96.1753   2
   2   5   1 104936. 474.854   2
   2   5   2 183146. 737.331   2
   2   5   3 2900.26 147.114   2
   2   5   4 1310.93 134.617   2
   2   5   5 2138.00 150.789   2
   2   5   6 654.964 101.064   2
   2   5   7 3885.24 335.029   2
   2   5   8 439.176 278.258   2
   2   5   9 2093.97 354.367   2
  -2  -5 -10 6617.49 670.463   2
  -2  -5 -11 6149.23 708.999   2
   2   5  12 1049.18 574.343   2
   2   6   0 14721.6 362.641   2
   2   6   1 21097.1 314.820   2
   2   6   2 124142. 582.784   2
   2   6   3 46240.9 297.136   2
   2   6   4 24809.5 387.828   2
   2   6   5 825.104 115.343   2
   2   6   6 11559.5 463.239   2
   2   6   7 4392.01 354.643   2
   2   6   8 555.289 264.140   2
   2   6   9 3716.21 414.437   2
   2   6  10 9198.11 756.138   2
   2   6  11 3181.95 628.693   2
  -2  -6 -12 294.689 562.299   2
   2   7   2 22984.9 417.731   2
  -2  -7  -3 15817.3 285.179   2
   2   7   4 28591.5 441.359   2
   2   7   5 22570.2 595.479   2
   2   7   6 2419.44 288.123   2
   2   7   7 9643.14 481.688   2
   2   7   8 10886.3 548.823   2
   2   7   9 10606.1 765.350   2
   2   7  10 1846.57 529.465   2
  -2  -7 -11 1767.55 567.383   2
  -2  -8  -2 165.760 317.097   2
  -2  -8  -3 47762.2 638.342   2
   2   8   4 11824.1 401.199   2
   2   8   5 36461.3 682.166   2
   2   8   6 2164.42 266.440   2
   2   8   7 9227.69 497.232   2
   2   8   8 1870.95 456.303   2
   2   8   9 407.158 441.099   2
  -2  -8 -10 122.706 508.918   2
  -2  -8 -11 385.366 582.637   2
  -2  -9  -3 105.790 341.476   2
  -2  -9  -4 9920.32 610.394   2
  -2  -9  -5 1160.39 294.360   2
   2   9   6 7041.42 401.959   2
   2   9   7 29136.6 718.923   2
   2   9   8 3965.24 552.180   2
   2   9   9 275.724 439.504   2
  -2  -9 -10 318.491 547.744   2
   2   9  11 3758.37 1039.64   2
  -2 -10  -5 2616.25 447.765   2
   2  10   6 12658.4 627.717   2
   2  10   7 5267.19 619.003   2
   2  10   8 7484.08 742.309   2
   2  10   9 2599.30 550.557   2
  -2 -10 -10 1899.34 604.281   2
  -2 -11  -6 6897.07 1015.96   2
  -2 -11  -7 1202.14 496.247   2
   2  11   8 628.734 500.271   2
   2  11   9 5888.42 845.119   2
   3 -11  -1 3575.91 857.277   2
   3 -11   0 17587.1 1627.38   2
   3 -10  -4 1427.70 550.414   2
   3 -10  -3 877.307 513.663   2
   3 -10  -2 956.430 437.004   2
   3 -10  -1 13650.6 791.729   2
   3 -10   0 7436.83 648.050   2
   3 -10   1 6677.45 758.254   2
  -3  10  -4 6742.20 1127.00   2
  -3   9   6 23391.0 1232.98   2
   3  -9  -5 3851.11 523.780   2
   3  -9  -4 593.910 396.801   2
   3  -9  -3 154.757 460.534   2
   3  -9  -2 1251.47 402.616   2
   3  -9  -1 10066.8 653.050   2
   3  -9   0 238.084 375.073   2
   3  -9   1 41.1101 358.293   2
  -3   9  -2 2968.99 378.331   2
  -3   9  -3 6581.34 709.158   2
  -3   9  -4 3490.66 841.027   2
  -3   9  -5 1435.88 752.295   2
   3  -8  -7 4027.05 687.990   2
  -3   8   6 6283.56 610.183   2
   3  -8  -5 1704.04 425.227   2
   3  -8  -4 825.471 374.324   2
   3  -8  -3 11865.0 641.751   2
   3  -8  -2 4794.99 459.369   2
   3  -8  -1 3320.96 354.782   2
   3  -8   0 1866.32 352.695   2
   3  -8   1 231.873 255.171   2
  -3   8  -2 28657.6 753.139   2
  -3   8  -3 34747.7 949.531   2
  -3   8  -4 3553.27 777.270   2
  -3   8  -5 397.940 696.313   2
  -3   8  -6 920.615 735.383   2
   3  -7  -8 739.115 569.823   2
   3  -7  -7 2614.54 587.905   2
   3  -7  -6 1643.11 528.410   2
   3  -7  -5 356.839 442.936   2
  -3   7   4 16511.5 713.913   2
   3  -7  -3 62538.2 1198.18   2
   3  -7  -2 5538.62 444.998   2
   3  -7  -1 5354.74 406.696   2
   3  -7   0 6279.53 315.877   2
   3  -7   1 7753.53 345.843   2
  -3   7  -2 18867.5 460.182   2
  -3   7  -3 1966.04 335.548   2
  -3   7  -4 161.977 300.307   2
  -3   7  -5 2094.97 665.441   2
  -3   7  -6 12202.1 1204.80   2
  -3   7  -7 3379.93 823.097   2
   3  -6  -9 7737.87 815.649   2
   3  -6  -8 3254.39 500.040   2
   3  -6  -7 1854.08 395.116   2
   3  -6  -6 204.083 303.773   2
   3  -6  -5 11922.2 584.525   2
   3  -6  -4 54192.1 1008.12   2
   3  -6  -3 40819.8 736.255   2
   3  -6  -2 876.107 276.491   2
   3  -6  -1 486.580 135.463   2
   3  -6   0 396.972 144.373   2
  -3   6  -1 421.112 131.471   2
  -3   6  -2 2589.80 247.133   2
  -3   6  -3 600.034 214.451   2
  -3   6  -4 21759.8 687.371   2
  -3   6  -5 11449.5 999.910   2
  -3   6  -6 8130.49 1006.50   2
  -3   6  -7 478.806 711.758   2
  -3   6  -8 5015.09 943.453   2
   3  -5 -10 6468.95 1093.77   2
  -3   5   9 5900.55 612.098   2
   3  -5  -8 710.659 320.645   2
   3  -5  -7 257.631 279.363   2
   3  -5  -6 300.936 248.602   2
   3  -5  -5 464.546 224.752   2
   3  -5  -4 24502.4 683.248   2
   3  -5  -3 94.3721 176.070   2
   3  -5  -2 3141.66 170.734   2
   3  -5  -1 60671.0 544.167   2
   3  -5   0 99501.8 579.299   2
  -3   5  -1 6842.49 247.770   2
  -3   5  -2 4246.25 257.753   2
  -3   5  -3 137.811 170.727   2
   3  -5   4 507.507 205.301   2
  -3   5  -5 34958.8 865.313   2
  -3   5  -6 5962.56 578.415   2
  -3   5  -7 1904.33 608.120   2
  -3   5  -8 9633.61 1074.86   2
  -3   5  -9 824.019 675.402   2
   3  -4 -10 6285.32 1159.82   2
   3  -4  -9 6386.58 587.740   2
   3  -4  -8 62.2265 292.436   2
   3  -4  -7 605.324 270.228   2
   3  -4  -6 29837.8 706.459   2
   3  -4  -5 14915.2 486.740   2
   3  -4  -4 14843.9 446.254   2
   3  -4  -3 53.0918 156.958   2
   3  -4  -2 11108.4 275.994   2
   3  -4  -1 34149.6 402.366   2
   3  -4   0 138397. 681.230   2
  -3   4  -1 445.785 145.267   2
  -3   4  -2 391.339 146.973   2
  -3   4  -3 2011.16 192.231   2
   3  -4   4 161.009 215.298   2
  -3   4  -5 16111.6 575.646   2
  -3   4  -6 21673.7 702.157   2
  -3   4  -7 26070.2 1019.19   2
  -3   4  -8 14661.5 858.864   2
  -3   4  -9 18411.2 1354.92   2
  -3   4 -10-63.2084 637.667   2
   3  -3 -10 540.378 696.266   2
   3  -3  -9 1913.28 432.295   2
  -3   3   8 8153.57 559.808   2
   3  -3  -7 29756.1 745.335   2
   3  -3  -6 26530.3 653.572   2
   3  -3  -5 408.209 209.242   2
   3  -3  -4 91.7828 133.806   2
   3  -3  -3 5394.57 221.500   2
   3  -3  -2 123146. 826.669   2
   3  -3  -1 130525. 638.964   2
   3  -3   0 229.461 81.9665   2
  -3   3  -1 8124.38 328.921   2
  -3   3  -2 46556.6 621.853   2
  -3   3  -3 5307.50 146.377   2
   3  -3   4 103.039 174.289   2
   3  -3   5-75.1589 209.155   2
  -3   3  -6 7151.92 421.964   2
  -3   3  -7 2289.21 426.970   2
  -3   3  -8 4107.48 525.786   2
  -3   3  -9 1286.82 611.991   2
  -3   3 -10 7617.57 954.008   2
  -3   3 -11 4632.17 925.238   2
  -3   2  10 783.468 546.320   2
  -3   2   9 379.254 495.490   2
  -3   2   8 20206.8 770.118   2
  -3   2   7 17581.6 859.687   2
   3  -2  -6 31903.2 691.779   2
   3  -2  -5 192.096 150.844   2
   3  -2  -4 11892.7 321.748   2
   3  -2  -3 373.570 121.878   2
   3  -2  -2 1350.44 150.410   2
   3  -2  -1 3429.21 187.421   2
   3  -2   0 10435.2 232.215   2
   3  -2   1 8443.75 266.395   2
  -3   2  -2 203027. 1027.87   2
  -3   2  -3 39499.2 366.909   2
  -3   2  -4 10141.4 274.863   2
   3  -2   5 3248.50 209.298   2
   3  -2   6 3891.27 295.086   2
   3  -2   7 4980.44 363.692   2
  -3   2  -8 18939.7 649.430   2
  -3   2  -9 6104.90 804.000   2
  -3   2 -10 7774.58 692.238   2
  -3   2 -11 10393.5 1139.41   2
  -3   2 -12 1685.17 854.904   2
  -3   1  10 105.950 581.357   2
  -3   1   9 2611.90 562.329   2
  -3   1   8 27028.2 1103.07   2
  -3   1   7 3211.82 475.505   2
  -3   1   6 4801.40 362.823   2
  -3   1   5 8229.89 335.062   2
  -3   1   4 19151.1 435.615   2
  -3   1   3 51931.5 641.329   2
  -3   1   2 60805.5 648.671   2
   3  -1  -1 14338.2 196.367   2
   3  -1   0 907.825 107.768   2
   3  -1   1 92897.1 707.243   2
  -3   1  -2 87164.8 460.669   2
  -3   1  -3 37329.5 343.263   2
  -3   1  -4 13474.9 298.372   2
  -3   1  -5 52193.7 739.755   2
  -3   1  -6 1594.25 190.479   2
  -3   1  -7 8901.71 364.542   2
  -3   1  -8 210.429 210.275   2
  -3   1  -9 24775.1 773.656   2
  -3   1 -10 15631.8 709.253   2
  -3   1 -11 7465.86 686.869   2
  -3   1 -12-286.006 670.547   2
  -3   0  10 319.054 602.571   2
  -3   0   9 4668.94 681.463   2
  -3   0   8 8139.74 708.004   2
  -3   0   7 1177.25 308.118   2
  -3   0   6 2584.25 315.879   2
  -3   0   5 84896.6 921.065   2
  -3   0   4 101030. 928.158   2
  -3   0   3 104873. 880.030   2
  -3   0   2 36122.0 385.260   2
  -3   0   1 173.628 63.2705   2
   3   0   0 13312.0 255.967   2
   3   0   1 24192.0 290.936   2
   3   0   2 33493.8 296.524   2
   3   0   3 165802. 695.110   2
  -3   0  -4 127640. 1001.51   2
  -3   0  -5 11669.7 312.315   2
  -3   0  -6 978.162 164.470   2
  -3   0  -7 1024.13 194.599   2
  -3   0  -8 3249.99 285.094   2
  -3   0  -9 11040.1 468.392   2
  -3   0 -10 2836.92 345.923   2
   3   0  11 2145.20 394.941   2
   3   0  12 2200.91 600.000   2
   3   1 -10 15944.2 1190.69   2
  -3  -1   9 16077.0 977.377   2
  -3  -1   8 696.172 335.188   2
  -3  -1   7 184.529 278.561   2
  -3  -1   6 151.781 185.804   2
  -3  -1   5 40179.1 633.665   2
  -3  -1   4 2492.64 196.003   2
  -3  -1   3 5506.84 228.889   2
   3   1  -2 69920.4 553.425   2
   3   1  -1 10716.2 186.261   2
   3   1   0 623.250 71.2763   2
  -3  -1  -1 16900.0 214.453   2
  -3  -1  -2 19456.4 253.721   2
  -3  -1  -3 6697.19 184.432   2
  -3  -1  -4 193682. 976.659   2
  -3  -1  -5 42088.7 645.757   2
  -3  -1  -6 33371.3 634.516   2
  -3  -1  -7 42111.8 778.067   2
  -3  -1  -8 16085.8 555.770   2
  -3  -1  -9 4511.54 299.559   2
  -3  -1 -10 717.001 259.283   2
  -3  -1 -11 152.812 284.254   2
  -3  -1 -12 13351.9 981.223   2
  -3  -1 -13 4972.61 1068.63   2
  -3  -2   8 246.270 299.076   2
  -3  -2   7 3275.02 338.665   2
  -3  -2   6 27323.6 755.787   2
  -3  -2   5 21560.2 461.295   2
  -3  -2   4 7780.25 251.793   2
   3   2  -3 10644.2 254.667   2
   3   2  -2 33941.1 359.487   2
   3   2  -1 159592. 599.805   2
   3   2   0 235588. 1089.60   2
   3   2   1 2691.73 89.1044   2
  -3  -2  -2 14841.4 252.732   2
  -3  -2  -3 35345.8 320.116   2
  -3  -2  -4 47754.6 564.369   2
  -3  -2  -5 8460.48 409.042   2
  -3  -2  -6 62176.2 736.524   2
   3   2   7 39446.1 648.639   2
   3   2   8 44717.9 746.588   2
   3   2   9 134.744 223.590   2
  -3  -2 -10 622.925 296.288   2
   3   2  11 6412.74 677.032   2
  -3  -2 -12 13447.2 801.108   2
  -3  -2 -13 3243.79 711.033   2
  -3  -3   8 1828.47 396.557   2
  -3  -3   7 13653.1 634.864   2
  -3  -3   6 18002.6 641.231   2
   3   3  -5 888.584 194.804   2
   3   3  -4 12720.2 352.811   2
   3   3  -3 69168.8 670.596   2
   3   3  -2 108047. 674.267   2
   3   3  -1 559.309 76.2097   2
   3   3   0 61.8420 79.8592   2
   3   3   1 258071. 757.339   2
   3   3   2 2002.48 145.244   2
  -3  -3  -3 21523.6 440.437   2
   3   3   4 1568.98 179.127   2
   3   3   5 1748.33 169.234   2
  -3  -3  -6 150885. 1123.12   2
  -3  -3  -7 71937.8 839.025   2
   3   3   8 10070.2 438.048   2
  -3  -3  -9 29.2928 225.393   2
   3   3  10 13146.5 803.651   2
  -3  -3 -11 79.6310 365.889   2
  -3  -3 -12 297.431 410.973   2
   3   3  13 3.18750 620.608   2
  -3  -4   7 14052.7 650.126   2
  -3  -4   6 8001.22 478.102   2
  -3  -4   5 3786.51 281.596   2
   3   4  -4 11822.0 347.953   2
   3   4  -3 2072.76 168.542   2
   3   4  -2 33892.3 404.579   2
  -3  -4   1 83.2061 85.3555   2
  -3  -4   0 9216.82 183.146   2
   3   4   1 115752. 828.122   2
   3   4   2 455.580 87.6617   2
  -3  -4  -3 14414.3 292.764   2
  -3  -4  -4 48227.3 684.358   2
   3   4   5 1334.26 159.703   2
  -3  -4  -6 20506.7 431.655   2
  -3  -4  -7 12980.6 380.332   2
   3   4   8 2694.71 243.699   2
  -3  -4  -9 1513.56 332.918   2
   3   4  10 44608.3 1078.23   2
   3   4  11 3511.64 485.745   2
   3   4  12 327.846 525.774   2
  -3  -4 -13-7.90050 823.420   2
   3   5  -6 620.719 413.029   2
  -3  -5   5 618.216 375.587   2
  -3  -5   4 13880.7 409.583   2
  -3  -5   3 4102.07 213.004   2
  -3  -5   2 6900.36 220.389   2
  -3  -5   1 22838.2 318.805   2
   3   5   0 113309. 562.802   2
   3   5   1 1640.21 100.853   2
   3   5   2 92420.4 654.469   2
  -3  -5  -3 20551.8 383.633   2
  -3  -5  -4 38536.0 642.852   2
   3   5   5 2415.36 191.375   2
   3   5   6 3103.25 216.061   2
   3   5   7 66.8242 153.756   2
   3   5   8 1275.11 292.535   2
   3   5   9 49480.4 1058.84   2
   3   5  10 29746.1 910.122   2
   3   5  11 204.937 369.578   2
  -3  -5 -12 1066.46 563.464   2
  -3  -6   5 7691.81 620.504   2
  -3  -6   4 22176.5 852.105   2
  -3  -6   3 564.196 283.569   2
  -3  -6   2 1764.89 203.358   2
   3   6  -1 3606.70 203.684   2
  -3  -6   0 16696.5 345.163   2
   3   6   1 45314.6 528.527   2
   3   6   2 14556.3 265.757   2
   3   6   3 145403. 812.539   2
  -3  -6  -4 96056.5 881.821   2
   3   6   5 511.079 144.608   2
   3   6   6 386.929 147.244   2
   3   6   7 18778.5 609.152   2
   3   6   8 11894.2 547.559   2
   3   6   9 40160.0 978.261   2
   3   6  10 6605.82 520.748   2
  -3  -6 -11-47.7810 500.115   2
  -3  -6 -12 387.423 567.972   2
  -3  -7   4 2769.22 447.943   2
   3   7  -3 3461.71 362.882   2
   3   7  -2 14337.2 437.482   2
   3   7  -1 13794.3 369.999   2
  -3  -7   0 8238.16 226.373   2
   3   7   1 3730.64 195.282   2
   3   7   2 28004.0 371.721   2
   3   7   3 54414.8 508.885   2
  -3  -7  -4 15227.3 313.463   2
   3   7   5 4447.44 225.191   2
   3   7   6 1157.51 249.814   2
   3   7   7 13238.6 553.425   2
   3   7   8 126.647 279.848   2
   3   7   9 2471.84 374.198   2
   3   7  10 67.4230 351.941   2
  -3  -7 -11 3068.29 586.740   2
   3   7  12 13194.1 1053.60   2
   3   8  -4 11515.1 984.576   2
   3   8  -3 1483.43 376.253   2
   3   8  -2 12471.2 608.055   2
   3   8  -1 5257.60 336.029   2
  -3  -8   0 4173.75 297.649   2
  -3  -8  -1 1637.45 170.761   2
   3   8   2 20734.9 447.697   2
   3   8   3 26074.1 510.233   2
  -3  -8  -4 16541.8 453.792   2
   3   8   5 2787.51 260.361   2
   3   8   6 3107.41 283.403   2
   3   8   7 25387.5 751.355   2
   3   8   8 1827.53 327.030   2
   3   8   9 1208.45 353.593   2
   3   8  10 2054.68 535.021   2
   3   8  11 4175.43 713.073   2
   3   8  12 16675.4 1636.01   2
  -3  -9   2 3345.91 693.723   2
  -3  -9   1-173.058 485.186   2
  -3  -9   0 3681.61 359.106   2
  -3  -9  -1 27395.5 577.375   2
   3   9   2 20427.2 446.556   2
   3   9   3 1741.61 216.243   2
  -3  -9  -4 716.473 262.600   2
  -3  -9  -5 54159.5 1039.88   2
   3   9   6 46641.8 999.582   2
   3   9   7 19702.1 607.594   2
   3   9   8 2062.53 352.755   2
   3   9   9 897.244 458.311   2
   3   9  10-8.48204 501.310   2
  -3  -9 -11 2437.56 633.430   2
  -3 -10   1 2336.67 613.596   2
  -3 -10   0 8583.35 655.273   2
   3  10   1 23708.3 586.404   2
   3  10   2 90.7405 208.040   2
  -3 -10  -3 383.917 281.694   2
  -3 -10  -4 1391.62 314.868   2
  -3 -10  -5 13454.8 616.280   2
   3  10   6 13449.9 634.551   2
  -3 -10  -7 149.027 287.235   2
  -3 -10  -8 969.992 392.684   2
  -3 -10  -9 6067.56 1065.16   2
  -3 -10 -10 3827.29 966.688   2
   3  10  11 839.680 873.060   2
  -3 -11   0 526.125 401.477   2
  -3 -11  -1 8020.87 546.067   2
   3  11   2-29.9010 278.301   2
  -3 -11  -3 1293.62 348.768   2
  -3 -11  -4 20541.3 777.647   2
  -3 -11  -5 9671.91 595.999   2
   3  11   6 1124.64 359.364   2
  -3 -11  -7 247.131 600.750   2
  -3 -11  -8 2598.92 900.891   2
  -3 -11  -9 2812.26 866.933   2
   3  12   2-121.244 759.403   2
  -3 -12  -3 5777.11 531.932   2
  -3 -12  -4 4185.59 599.703   2
  -3 -12  -5 542.367 339.731   2
  -3 -12  -6 800.454 422.856   2
  -3 -12  -7 3477.37 882.205   2
  -3 -12  -8 12745.4 1465.57   2
   3  13   3 16335.9 1512.80   2
  -3 -13  -4 3845.49 661.254   2
   3  13   5-132.286 789.095   2
  -4   9   5 154.477 820.258   2
   4  -9  -4 592.504 406.795   2
   4  -9  -3 1634.69 570.660   2
   4  -9  -2 2646.16 596.481   2
  -4   8   6 330.738 798.220   2
   4  -8  -5 4203.51 566.059   2
   4  -8  -4 9421.74 670.925   2
   4  -8  -3 7368.12 599.424   2
   4  -8  -2 476.501 388.462   2
   4  -8  -1 33.9557 333.760   2
   4  -7  -7 775.568 550.700   2
   4  -7  -6 85.7987 545.773   2
   4  -7  -5 1871.00 551.534   2
   4  -7  -4 8242.01 595.085   2
   4  -7  -3 7111.96 541.342   2
   4  -7  -2 2060.46 381.248   2
   4  -7  -1 222.499 275.887   2
  -4   7   0 33.5816 369.844   2
  -4   7  -1 353.334 320.881   2
  -4   7  -2 548.478 460.061   2
   4  -6  -8 1869.08 844.980   2
   4  -6  -7-25.4763 542.846   2
  -4   6   6 943.418 511.330   2
   4  -6  -5 9246.01 748.381   2
   4  -6  -4 8467.73 688.882   2
   4  -6  -3 213.574 306.370   2
   4  -6  -2 7023.46 495.877   2
   4  -6  -1 6106.65 451.227   2
   4  -6   0 11853.8 410.677   2
  -4   6  -1 9191.35 462.341   2
  -4   6  -2 3637.30 593.882   2
   4  -5  -9 1963.38 790.481   2
   4  -5  -8 425.340 516.669   2
   4  -5  -7 1501.12 537.087   2
  -4   5   6 8486.07 564.390   2
  -4   5   5 12013.7 590.851   2
   4  -5  -4 438.386 280.742   2
   4  -5  -3 5543.06 394.213   2
   4  -5  -2 40562.3 737.692   2
   4  -5  -1 11515.5 356.512   2
   4  -5   0 1873.70 187.704   2
   4  -5   1 2726.21 226.285   2
  -4   5  -2 3677.64 309.461   2
  -4   5  -3 11168.7 852.643   2
   4  -4  -9 965.902 796.850   2
   4  -4  -8 2014.08 445.383   2
   4  -4  -7 3537.91 436.980   2
  -4   4   6 8615.12 550.259   2
   4  -4  -5 2816.53 369.830   2
  -4   4   4 12952.1 554.755   2
   4  -4  -3 2346.92 295.154   2
   4  -4  -2 33374.5 732.197   2
   4  -4  -1 222.281 150.629   2
   4  -4   0 1829.02 176.402   2
   4  -4   1 40459.2 593.872   2
  -4   4  -2 28140.3 524.693   2
  -4   4  -3 360.668 194.141   2
  -4   4  -4 2999.56 559.054   2
   4  -3  -9 189.223 790.194   2
   4  -3  -8 2233.98 440.434   2
   4  -3  -7 1921.25 379.340   2
   4  -3  -6 2197.25 353.962   2
  -4   3   5 114.531 281.966   2
  -4   3   4 40088.6 861.393   2
   4  -3  -3 6327.74 306.348   2
   4  -3  -2 16008.7 420.669   2
   4  -3  -1 131.605 66.0186   2
   4  -3   0 22194.7 472.872   2
   4  -3   1 24905.0 448.647   2
   4  -3   2 18427.4 450.403   2
  -4   3  -3 2084.57 191.605   2
  -4   3  -4 5661.11 341.859   2
  -4   3  -5 10780.8 461.616   2
  -4   2   9 2227.33 596.170   2
  -4   2   8 10581.0 837.925   2
  -4   2   7 5599.05 484.505   2
   4  -2  -6 48.4378 286.960   2
  -4   2   5 7286.93 439.006   2
  -4   2   4 311.257 178.834   2
   4  -2  -3 5943.97 292.100   2
   4  -2  -2 1421.14 183.599   2
   4  -2  -1 19627.7 433.882   2
   4  -2   0 103132. 1059.39   2
   4  -2   1 120848. 631.688   2
   4  -2   2 74.6176 145.448   2
  -4   2  -3 89.8751 127.146   2
  -4   2  -4 78944.0 659.309   2
  -4   2  -5 37900.6 553.329   2
  -4   2  -6 9567.13 404.502   2
  -4   2  -7 180.255 252.137   2
  -4   1   9 7734.85 815.841   2
  -4   1   8 5107.72 666.299   2
  -4   1   7 400.937 414.499   2
   4  -1  -6 3400.86 373.279   2
  -4   1   5 12945.5 444.740   2
  -4   1   4 28914.8 586.208   2
   4  -1  -3 10789.3 363.641   2
   4  -1  -2 43965.7 635.252   2
   4  -1  -1 66455.4 494.827   2
   4  -1   0 3815.00 182.541   2
   4  -1   1 13603.1 297.115   2
   4  -1   2 10774.4 219.574   2
  -4   1  -3 35187.6 374.239   2
  -4   1  -4 109950. 790.368   2
  -4   1  -5 3574.95 212.412   2
  -4   1  -6 58.8085 191.054   2
  -4   1  -7 530.683 222.113   2
  -4   1  -8 23874.9 1067.57   2
  -4   0   9 2065.98 588.244   2
  -4   0   8 33.2187 482.162   2
  -4   0   7 8307.58 678.946   2
  -4   0   6 4974.69 332.288   2
   4   0  -5 118.687 189.244   2
   4   0  -4 1961.27 224.721   2
   4   0  -3 14069.9 393.873   2
   4   0  -2 20353.3 335.510   2
   4   0  -1 20601.8 321.381   2
   4   0   0 68385.8 550.880   2
   4   0   1 5674.03 187.880   2
   4   0   2 42289.6 409.019   2
   4   0   3 58012.8 396.759   2
  -4   0  -4 189269. 995.557   2
  -4   0  -5 7166.98 311.545   2
  -4   0  -6 12279.8 424.137   2
   4   0   7 2740.28 294.465   2
  -4   0  -8 7495.91 517.277   2
  -4  -1   9 1192.95 546.269   2
  -4  -1   8 822.904 467.960   2
  -4  -1   7 19784.5 746.614   2
  -4  -1   6 6563.24 451.466   2
  -4  -1   5 9681.12 380.669   2
   4   1  -4 8421.00 336.913   2
   4   1  -3 26778.1 504.450   2
   4   1  -2 42015.7 488.784   2
   4   1  -1 3973.43 189.861   2
   4   1   0 2445.51 121.614   2
   4   1   1 15621.1 265.168   2
   4   1   2 125471. 552.985   2
  -4  -1  -3 51453.4 570.124   2
  -4  -1  -4 53699.6 475.185   2
  -4  -1  -5 67258.7 647.333   2
  -4  -1  -6 35676.2 544.699   2
  -4  -1  -7 31282.9 578.301   2
  -4  -1  -8 12577.5 515.103   2
  -4  -1  -9 546.953 331.697   2
   4   2  -9 1184.66 485.521   2
   4   2  -8 4648.52 537.861   2
   4   2  -7 26793.5 768.574   2
  -4  -2   6 3970.28 389.923   2
  -4  -2   5 6604.57 431.332   2
   4   2  -4 19959.2 448.556   2
   4   2  -3 41869.8 591.219   2
   4   2  -2 3026.78 164.936   2
   4   2  -1 1091.62 82.1291   2
  -4  -2   0 18979.8 440.706   2
   4   2   1 93686.0 489.935   2
   4   2   2 140309. 559.162   2
   4   2   3 262.893 119.387   2
  -4  -2  -4 10773.4 231.708   2
  -4  -2  -5 2964.77 235.634   2
  -4  -2  -6 109675. 1146.73   2
  -4  -2  -7 42147.8 783.971   2
  -4  -2  -8 4138.91 338.011   2
  -4  -2  -9 462.929 267.763   2
   4   2  10 3745.46 397.940   2
   4   3  -8-167.190 351.718   2
   4   3  -7 180.764 293.909   2
   4   3  -6 57.1943 268.320   2
   4   3  -5 25048.5 645.608   2
   4   3  -4 81352.1 1021.99   2
   4   3  -3 3518.38 171.827   2
   4   3  -2 7844.54 205.839   2
   4   3  -1 10075.3 274.279   2
   4   3   0 47761.5 592.759   2
  -4  -3  -1 48298.4 700.859   2
   4   3   2 23725.3 291.564   2
  -4  -3  -3 8838.71 218.853   2
  -4  -3  -4 19976.8 294.761   2
  -4  -3  -5 28064.4 508.996   2
  -4  -3  -6 41012.1 651.122   2
  -4  -3  -7 5816.70 308.109   2
  -4  -3  -8 6770.20 350.261   2
  -4  -3  -9 1549.00 295.782   2
  -4  -3 -10 13129.3 586.118   2
   4   3  11 25.9317 458.496   2
  -4  -4   9 446.946 788.116   2
   4   4  -8 6894.56 648.526   2
   4   4  -7 1171.41 345.489   2
   4   4  -6 6339.57 379.451   2
   4   4  -5 4900.80 320.105   2
   4   4  -4 61816.2 821.217   2
   4   4  -3 356.156 166.967   2
   4   4  -2 16799.9 287.025   2
   4   4  -1 35974.1 347.228   2
  -4  -4   0 49200.0 467.116   2
  -4  -4  -1 115.026 47.1496   2
   4   4   2 12346.4 302.814   2
  -4  -4  -3 19441.7 599.070   2
  -4  -4  -4 20068.6 327.742   2
  -4  -4  -5 110294. 1152.09   2
   4   4   6 1318.66 211.863   2
   4   4   7 350.967 202.553   2
  -4  -4  -8 18817.5 572.921   2
  -4  -4  -9 31688.2 765.565   2
  -4  -4 -10 8989.80 698.147   2
   4   4  11 1056.58 483.633   2
   4   4  12 1556.69 542.110   2
  -4  -5   8 28.1230 422.289   2
  -4  -5   7 1763.61 386.891   2
   4   5  -6 4610.53 431.176   2
   4   5  -5 14100.0 569.732   2
   4   5  -4 11889.5 403.681   2
   4   5  -3 11427.9 366.180   2
   4   5  -2 70354.8 587.656   2
  -4  -5   1 67772.4 549.073   2
  -4  -5   0 34012.0 320.381   2
   4   5   1 25143.0 365.000   2
   4   5   2 1221.59 153.133   2
   4   5   3 64194.1 590.828   2
  -4  -5  -4 25701.8 423.036   2
  -4  -5  -5 9387.59 386.689   2
  -4  -5  -6 9327.07 392.256   2
  -4  -5  -7 21993.4 587.128   2
  -4  -5  -8 2972.40 264.146   2
   4   5   9 9337.32 557.066   2
   4   5  10 127.684 344.365   2
   4   5  11 5055.68 520.919   2
   4   5  12 2139.64 596.063   2
  -4  -5 -13 411.169 737.693   2
  -4  -6   8 180.294 893.599   2
  -4  -6   7 4110.72 507.399   2
  -4  -6   6 1029.24 414.707   2
   4   6  -5 681.446 403.384   2
  -4  -6   4 1999.74 421.818   2
  -4  -6   3 2627.75 398.652   2
  -4  -6   2 47874.1 801.244   2
   4   6  -1 70343.9 549.883   2
   4   6   0 30170.9 342.549   2
   4   6   1 7222.28 241.829   2
   4   6   2 28188.9 501.940   2
   4   6   3 4448.57 193.297   2
  -4  -6  -4 31315.0 517.280   2
  -4  -6  -5 56.6380 143.182   2
  -4  -6  -6 790.057 205.763   2
  -4  -6  -7 4317.64 321.105   2
   4   6   8 16326.8 625.533   2
   4   6   9 532.343 320.339   2
   4   6  10 97.5760 342.281   2
   4   6  11 6315.92 572.789   2
   4   6  12 2601.39 500.784   2
  -4  -7   7 7065.18 671.590   2
  -4  -7   6 518.735 393.224   2
  -4  -7   5 159.778 408.511   2
  -4  -7   4 217.919 382.410   2
  -4  -7   3 26309.0 933.046   2
   4   7  -2 20826.3 520.975   2
   4   7  -1 11672.5 328.219   2
  -4  -7   0 3066.21 194.992   2
   4   7   1 114.112 121.888   2
   4   7   2 24799.8 494.219   2
   4   7   3 13234.1 319.335   2
  -4  -7  -4 3110.19 191.851   2
  -4  -7  -5 17724.3 449.172   2
  -4  -7  -6 3986.72 261.330   2
  -4  -7  -7 6780.43 568.706   2
   4   7   8 8039.41 504.328   2
   4   7   9 23899.2 807.600   2
   4   7  10 8669.24 593.114   2
   4   7  11 8338.12 655.308   2
  -4  -7 -12 4787.75 781.278   2
   4   8  -7 4087.81 1005.33   2
  -4  -8   6 378.828 450.763   2
  -4  -8   5 741.641 448.479   2
  -4  -8   4 276.426 409.346   2
   4   8  -3 12639.8 613.301   2
  -4  -8   2 3115.71 353.624   2
   4   8  -1 2525.52 253.807   2
   4   8   0 25170.5 461.571   2
   4   8   1 124096. 1079.45   2
   4   8   2 33836.1 790.341   2
   4   8   3 8529.35 326.563   2
  -4  -8  -4 1669.80 221.298   2
  -4  -8  -5 17809.5 481.458   2
   4   8   6 8250.02 459.770   2
  -4  -8  -7 4003.16 384.962   2
   4   8   8 256.005 313.933   2
   4   8   9 6899.51 530.922   2
   4   8  10 893.614 377.485   2
   4   8  11 1155.71 545.802   2
  -4  -8 -12 500.206 563.670   2
  -4  -9   5 31926.7 1981.77   2
  -4  -9   4 2206.04 821.527   2
  -4  -9   3 2148.46 671.385   2
  -4  -9   2 3026.31 428.153   2
   4   9  -1 1416.96 310.731   2
   4   9   0 10491.0 480.449   2
   4   9   1 12696.9 423.291   2
   4   9   2 7042.94 461.547   2
   4   9   3 9929.12 380.017   2
  -4  -9  -4 2845.31 273.372   2
  -4  -9  -5 1795.38 299.383   2
  -4  -9  -6 773.687 277.185   2
  -4  -9  -7 1058.09 409.795   2
  -4  -9  -8 5658.45 609.206   2
   4   9   9 6058.83 519.632   2
   4   9  10 3148.79 613.018   2
   4   9  11-32.6840 535.928   2
   4   9  12 3615.39 1101.55   2
  -4 -10   4 4760.67 744.528   2
   4  10  -3 734.526 401.780   2
  -4 -10   2 811.310 376.005   2
   4  10  -1 1105.23 366.026   2
   4  10   0 8321.08 475.653   2
  -4 -10  -1 3996.91 358.073   2
   4  10   2 788.930 211.635   2
   4  10   3 6831.60 408.402   2
  -4 -10  -4 14605.3 830.246   2
  -4 -10  -5 1225.53 422.320   2
  -4 -10  -6 47.5444 391.778   2
  -4 -10  -7 1985.14 453.650   2
  -4 -10  -8 4878.48 623.819   2
  -4 -10  -9-78.9542 469.592   2
  -4 -10 -10 1575.82 815.246   2
  -4 -11   3 15653.2 1075.20   2
  -4 -11   2 1043.93 547.958   2
   4  11  -1 8538.28 623.190   2
   4  11   0 2529.30 368.115   2
   4  11   1 730.491 378.064   2
   4  11   2 2756.42 355.911   2
  -4 -11  -3 22095.6 1038.97   2
  -4 -11  -4 10275.4 753.061   2
  -4 -11  -5 2386.02 478.697   2
  -4 -11  -6 8663.82 728.507   2
  -4 -11  -7 1356.90 503.531   2
  -4 -11  -8 2403.23 527.373   2
  -4 -11  -9-17.0021 705.671   2
  -4 -12   2 8382.58 1192.49   2
  -4 -12   1 1644.63 844.182   2
   4  12   0 262.296 527.933   2
   4  12   1 2632.41 410.017   2
   4  12   2 679.104 383.341   2
  -4 -12  -3 7968.98 765.656   2
  -4 -12  -4 389.370 448.312   2
  -4 -12  -5 3480.40 614.230   2
  -4 -12  -6 13358.4 933.122   2
  -4 -12  -7 2990.62 588.623   2
  -4 -12  -8 88.9605 650.350   2
   4  13   1 183.313 868.598   2
   4  13   2 378.548 444.158   2
  -4 -13  -3 407.184 493.692   2
  -4 -13  -4 312.852 478.883   2
  -4 -13  -5 2055.26 561.870   2
  -4 -13  -6 989.521 529.175   2
  -5   9  -4 2943.64 944.810   2
   5  -6  -6 10217.0 932.931   2
   5  -6  -5 1553.08 542.025   2
  -5   6   4 525.921 470.770   2
   5  -5  -7 1406.93 729.089   2
   5  -5  -6 1137.73 532.226   2
   5  -5  -5 285.840 473.780   2
   5  -5  -4 20461.6 767.118   2
   5  -5  -3 5133.05 680.369   2
   5  -5  -2 1338.64 467.645   2
   5  -4  -8 1537.18 752.746   2
   5  -4  -7 3432.39 501.652   2
   5  -4  -6 1044.23 384.792   2
   5  -4  -5 8627.61 577.302   2
   5  -4  -4 48883.1 1075.22   2
   5  -4  -3 10597.2 543.248   2
   5  -4  -2 9743.88 766.919   2
  -5   4   1 2320.61 462.936   2
   5  -3  -8-384.939 701.139   2
   5  -3  -7 3514.29 510.552   2
   5  -3  -6 8269.04 574.323   2
   5  -3  -5 27088.0 848.449   2
   5  -3  -4 31245.5 852.979   2
   5  -3  -3 5113.51 404.516   2
   5  -3  -2 7681.87 364.715   2
  -5   3   1 2951.40 301.492   2
  -5   3   0 34312.7 597.808   2
  -5   2   8 165.404 555.848   2
  -5   2   7 113.512 473.422   2
   5  -2  -6 5996.17 502.310   2
   5  -2  -5 6604.73 474.592   2
   5  -2  -4 6508.73 446.317   2
   5  -2  -3 2377.19 259.698   2
   5  -2  -2 47200.1 757.889   2
   5  -2  -1 62165.4 838.457   2
  -5   2   0 6803.80 269.403   2
  -5   2  -1 1104.27 369.275   2
  -5   1   8 596.806 560.751   2
  -5   1   7 6375.91 712.093   2
  -5   1   6 13685.3 834.644   2
   5  -1  -5 129.296 281.600   2
   5  -1  -4 2782.78 278.969   2
   5  -1  -3 24592.3 577.267   2
   5  -1  -2 13636.7 436.553   2
   5  -1  -1 59003.9 518.012   2
   5  -1   0 13583.8 301.268   2
   5  -1   1 359.212 129.171   2
  -5   1  -2 1646.01 399.629   2
  -5   0   8 11672.9 965.431   2
  -5   0   7 14737.3 940.569   2
  -5   0   6 2238.45 499.769   2
   5   0  -5 9.68445 233.766   2
   5   0  -4 9655.60 405.147   2
   5   0  -3 46564.0 754.070   2
   5   0  -2 108797. 1077.30   2
   5   0  -1 19982.5 359.015   2
   5   0   0 21349.0 359.069   2
   5   0   1 29385.5 430.669   2
   5   0   2 32750.5 446.673   2
  -5   0  -3 12790.0 376.311   2
  -5  -1   8 27287.1 1258.88   2
  -5  -1   7 13883.4 906.825   2
  -5  -1   6 2994.21 406.381   2
  -5  -1   5 1597.63 328.908   2
   5   1  -4 9283.67 395.861   2
   5   1  -3 486.534 195.001   2
   5   1  -2 2032.08 167.066   2
   5   1  -1 1255.42 144.856   2
   5   1   0 77129.9 616.943   2
   5   1   1 35553.4 442.957   2
   5   1   2 126314. 650.533   2
  -5  -1  -3 26449.4 413.519   2
  -5  -1  -4 27120.6 710.667   2
  -5  -2   9 2403.27 983.980   2
   5   2  -8 5400.03 616.283   2
   5   2  -7 4060.00 429.144   2
  -5  -2   6 6121.53 490.451   2
  -5  -2   5 20809.4 720.485   2
  -5  -2   4 30509.8 794.352   2
   5   2  -3 5657.31 298.077   2
   5   2  -2 18853.3 382.275   2
   5   2  -1 1769.49 80.0817   2
   5   2   0 67262.8 733.061   2
  -5  -2  -1 11154.8 228.413   2
   5   2   2 26470.7 269.795   2
  -5  -2  -3 1118.41 180.410   2
  -5  -2  -4 8400.49 301.006   2
   5   3  -8 6764.53 830.009   2
   5   3  -7-52.3628 341.220   2
   5   3  -6 8575.06 491.994   2
   5   3  -5 30057.9 760.179   2
   5   3  -4 31366.7 713.548   2
   5   3  -3 4686.74 319.737   2
   5   3  -2 118.075 155.464   2
   5   3  -1 279.854 141.047   2
   5   3   0 5216.25 251.831   2
   5   3   1 22908.4 433.594   2
  -5  -3  -2 18915.4 314.655   2
  -5  -3  -3 233720. 1472.73   2
  -5  -3  -4 40233.4 597.192   2
  -5  -3  -5 52508.9 513.458   2
   5   3   6 1033.71 251.215   2
  -5  -4   8 1681.39 869.169   2
   5   4  -7 479.636 427.185   2
   5   4  -6 20527.2 849.737   2
   5   4  -5 17700.3 610.132   2
   5   4  -4 412.827 234.101   2
   5   4  -3 5658.79 345.832   2
   5   4  -2 27719.6 521.501   2
   5   4  -1 3649.48 221.248   2
   5   4   0 3544.47 202.944   2
  -5  -4  -1 8972.59 383.413   2
   5   4   2 5924.58 165.529   2
   5   4   3 67733.6 703.071   2
  -5  -4  -4 1774.22 137.394   2
  -5  -4  -5 3334.21 181.136   2
  -5  -4  -6 81289.5 1101.96   2
  -5  -4  -7 36261.4 983.117   2
  -5  -5   8 1857.80 923.491   2
   5   5  -7 899.587 469.373   2
   5   5  -6 9901.07 672.777   2
   5   5  -5 159.718 342.549   2
   5   5  -4 17047.4 705.513   2
   5   5  -3 7306.27 372.850   2
   5   5  -2 52194.6 706.552   2
  -5  -5   1 4315.72 262.545   2
  -5  -5   0 275.061 154.761   2
   5   5   1 3780.27 235.879   2
  -5  -5  -2 975.440 89.5081   2
   5   5   3 2351.51 190.546   2
  -5  -5  -4 18043.3 546.462   2
  -5  -5  -5 39540.8 468.834   2
  -5  -5  -6 18577.6 583.364   2
  -5  -5  -7 6936.47 408.578   2
  -5  -5  -8 7025.95 505.751   2
   5   6  -7 2132.64 517.435   2
   5   6  -6 525.757 410.799   2
   5   6  -5 82.5823 360.621   2
  -5  -6   4 492.210 328.545   2
  -5  -6   3 39247.0 970.601   2
  -5  -6   2 10594.7 516.624   2
  -5  -6   1 751.458 256.117   2
   5   6   0 4782.05 231.503   2
   5   6   1 3488.60 171.365   2
   5   6   2 942.503 174.019   2
   5   6   3 708.817 160.828   2
  -5  -6  -4 285.303 223.374   2
  -5  -6  -5 92991.9 825.947   2
  -5  -6  -6 90331.6 903.896   2
  -5  -6  -7 7541.19 433.490   2
  -5  -6  -8 3151.75 334.997   2
   5   6   9 28647.5 1560.20   2
  -5  -7   6 1949.66 572.214   2
  -5  -7   5 7925.52 605.010   2
  -5  -7   4 630.695 342.713   2
  -5  -7   3 21603.7 779.159   2
  -5  -7   2 180.271 244.098   2
   5   7  -1 14016.2 491.979   2
   5   7   0 33570.7 678.070   2
   5   7   1 47958.8 760.185   2
   5   7   2 3974.65 267.750   2
   5   7   3 13613.5 406.588   2
  -5  -7  -4 19621.5 506.029   2
  -5  -7  -5 5775.62 402.338   2
  -5  -7  -6 18626.0 617.229   2
   5   7   7 1651.39 282.291   2
  -5  -7  -8 6729.25 618.571   2
  -5  -7  -9 20927.6 989.524   2
   5   7  10 6102.97 974.758   2
   5   8  -6 2318.15 825.047   2
  -5  -8   5 5437.59 582.112   2
   5   8  -4 143.334 338.841   2
   5   8  -3 46.2535 294.752   2
   5   8  -2 12826.0 483.439   2
   5   8  -1 32099.1 662.338   2
  -5  -8   0 15970.8 596.002   2
   5   8   1 1426.02 237.324   2
   5   8   2 3074.93 222.932   2
   5   8   3 2803.47 247.127   2
  -5  -8  -4 7154.96 438.682   2
  -5  -8  -5 2368.18 325.485   2
  -5  -8  -6 1867.09 304.996   2
  -5  -8  -7 3432.34 507.639   2
  -5  -8  -8 30148.9 1141.02   2
  -5  -8  -9 18086.8 959.577   2
   5   8  10 1900.91 516.848   2
   5   9  -5 4690.68 1158.54   2
   5   9  -4 2772.96 525.353   2
   5   9  -3 42.2415 392.177   2
   5   9  -2 844.703 374.567   2
  -5  -9   1 1244.84 305.369   2
   5   9   0 16591.3 594.560   2
   5   9   1 3032.21 397.712   2
   5   9   2 26308.2 793.512   2
   5   9   3 47569.8 1007.55   2
  -5  -9  -4 8840.93 505.717   2
  -5  -9  -5 1984.31 334.546   2
  -5  -9  -6 275.766 363.857   2
  -5  -9  -7 17131.0 909.377   2
  -5  -9  -8 23093.6 1043.61   2
  -5  -9  -9 10697.2 820.061   2
  -5  -9 -10 314.813 473.713   2
  -5  -9 -11 542.472 566.988   2
   5  10  -4 301.626 884.391   2
   5  10  -3 13707.5 823.658   2
   5  10  -2 5062.68 547.019   2
   5  10  -1 3071.83 390.764   2
   5  10   0 6.13989 294.551   2
   5  10   1 10580.5 621.089   2
   5  10   2 21696.0 788.432   2
   5  10   3 23066.3 686.770   2
  -5 -10  -4 2548.60 372.807   2
  -5 -10  -5 465.296 406.431   2
  -5 -10  -6 6016.09 639.094   2
  -5 -10  -7 3339.62 554.726   2
  -5 -10  -8 132.735 437.528   2
  -5 -10  -9-305.876 458.167   2
  -5 -10 -10 3679.12 686.776   2
  -5 -11   2 242.835 449.037   2
   5  11  -1 120.686 401.929   2
   5  11   0 2382.53 474.210   2
   5  11   1 14818.4 755.236   2
   5  11   2 3854.60 481.326   2
   5  11   3 8227.92 509.671   2
  -5 -11  -4 8281.23 740.638   2
  -5 -11  -5 5508.12 678.014   2
  -5 -11  -6 14416.0 931.275   2
  -5 -11  -7 1939.23 511.556   2
  -5 -11  -8-531.139 491.105   2
  -5 -11  -9 22.5911 494.547   2
   5  12  -1 2517.48 512.196   2
   5  12   0 554.867 545.118   2
   5  12   1 2712.11 509.249   2
   5  12   2 370.605 337.228   2
  -5 -12  -3 101.344 480.943   2
  -5 -12  -4 4438.70 641.465   2
  -5 -12  -5 21857.7 1148.72   2
  -5 -12  -6 6726.26 775.973   2
  -5 -12  -7 600.901 506.344   2
  -5 -12  -8 918.972 464.545   2
   5  13   1 1989.65 597.887   2
   5  13   2-47.3758 559.137   2
  -5 -13  -3 3452.43 979.862   2
  -5 -13  -4 7065.83 805.531   2
  -5 -13  -5 21013.2 1200.31   2
  -5 -13  -6 2231.20 624.222   2
   5  13   7 165.368 741.684   2
  -6   8  -4 516.569 709.235   2
  -6   8  -5 395.095 662.088   2
  -6   7  -3-96.6831 575.870   2
  -6   7  -4 359.985 640.357   2
  -6   7  -5 3157.72 791.394   2
  -6   7  -6 4100.83 1037.13   2
  -6   7  -7 5703.44 1137.29   2
  -6   6  -4 1491.09 620.765   2
  -6   6  -5 266.195 564.000   2
  -6   6  -6 229.945 666.092   2
  -6   6  -7 305.316 706.644   2
  -6   6  -8 286.992 715.682   2
  -6   5  -5 2753.57 747.399   2
  -6   5  -6-76.3283 676.258   2
  -6   5  -7-133.593 628.885   2
  -6   5  -8 4264.27 962.862   2
  -6   5  -9 11391.0 1338.27   2
  -6   4  -6 420.246 592.682   2
  -6   4  -7 1276.24 641.782   2
  -6   4  -8 4224.04 880.373   2
  -6   4  -9 1725.08 744.642   2
  -6   4 -10 171.718 803.809   2
  -6   3  -7 7206.46 894.670   2
  -6   3  -8 783.899 575.378   2
  -6   3  -9 97.9205 673.821   2
  -6   3 -10 509.025 641.615   2
  -6   3 -11 2585.00 910.113   2
  -6   2   7 798.859 583.913   2
   6  -2  -6 2531.02 730.389   2
   6  -2  -5 479.310 553.325   2
  -6   2  -8 4882.99 810.217   2
  -6   2  -9 804.752 619.205   2
  -6   2 -10 1465.82 652.756   2
  -6   2 -11 1724.79 844.427   2
  -6   2 -12 498.615 696.555   2
  -6   1   7 3819.83 676.737   2
  -6   1   6 4534.76 660.882   2
  -6   1   5 2490.88 531.153   2
  -6   1  -9 3563.29 714.774   2
  -6   1 -10 6470.05 956.741   2
  -6   1 -11 585.807 666.915   2
  -6   1 -12 665.214 703.669   2
  -6   0   7-104.479 548.934   2
  -6   0   6 278.393 505.467   2
  -6   0   5 4839.26 604.674   2
  -6   0   4 8456.55 633.652   2
  -6   0   3 299.860 339.100   2
  -6   0  -9 6202.46 675.378   2
  -6   0 -10 3485.96 765.246   2
  -6   0 -11 575.142 547.560   2
  -6   0 -12 564.189 635.493   2
  -6   0 -13 628.684 744.117   2
  -6  -1   7 3705.10 681.590   2
  -6  -1   6 2623.56 556.921   2
  -6  -1   5 1550.77 370.649   2
  -6  -1   4 1055.70 334.774   2
  -6  -1   3 738.387 301.457   2
   6   1  -1 19694.2 707.185   2
  -6  -1 -11 297.901 360.872   2
  -6  -1 -12-125.832 466.044   2
  -6  -1 -13-197.190 697.518   2
  -6  -2   8 118.120 816.856   2
   6   2  -7 2330.29 521.785   2
  -6  -2   6 2758.80 449.974   2
  -6  -2   5 15512.2 715.840   2
  -6  -2   4 5411.91 460.918   2
  -6  -2   3 1400.88 347.065   2
   6   2  -2 46001.2 635.928   2
   6   2  -1 3108.68 318.149   2
   6   2   1 5592.01 248.842   2
  -6  -2 -12 5812.74 685.385   2
  -6  -2 -13-210.258 691.644   2
   6   3  -7 1737.23 638.602   2
   6   3  -6 3498.83 413.336   2
   6   3  -5 130.317 307.768   2
   6   3  -4 16518.6 605.744   2
   6   3  -3 7234.96 424.536   2
   6   3  -2 20367.2 483.012   2
   6   3  -1 2818.86 252.471   2
   6   3   0 754.221 214.185   2
   6   3   1 53048.6 1133.27   2
  -6  -3  -2 96366.0 930.854   2
   6   3  13 310.447 565.637   2
   6   4  -7 1934.55 663.866   2
   6   4  -6 4830.06 557.422   2
   6   4  -5 599.345 304.522   2
   6   4  -4 7446.23 448.215   2
   6   4  -3 6812.00 406.794   2
   6   4  -2 12620.8 409.329   2
   6   4  -1 11407.1 368.682   2
   6   4   0 2599.27 254.885   2
  -6  -4  -1 32077.4 741.981   2
  -6  -5   7 2797.43 871.472   2
   6   5  -6 2611.07 511.538   2
   6   5  -5 11208.8 690.885   2
   6   5  -4 10336.2 627.878   2
   6   5  -3 9134.79 452.708   2
   6   5  -2 4097.30 281.257   2
   6   5  -1 2329.54 230.769   2
  -6  -5   0 11485.6 412.335   2
  -6  -5  -1 68616.9 1081.35   2
   6   5   2 16046.4 541.284   2
   6   6  -6 1653.15 486.527   2
   6   6  -5 18140.1 861.009   2
   6   6  -4 1403.37 394.039   2
  -6  -6   3 1514.72 463.981   2
  -6  -6   2 4596.32 426.412   2
  -6  -6   1 26606.3 774.808   2
  -6  -6   0 33414.2 639.560   2
   6   6   1 1589.21 232.718   2
  -6  -6  -2 3231.60 315.810   2
   6   6   3 9089.42 859.007   2
  -6  -7   5 6171.39 769.921   2
  -6  -7   4 692.012 518.083   2
  -6  -7   3 3342.24 529.726   2
  -6  -7   2 3586.43 416.894   2
   6   7  -1 35486.5 782.914   2
   6   7   0 5761.41 359.491   2
   6   7   1 183.934 215.514   2
   6   7   2 355.137 202.682   2
  -6  -7  -3 864.900 267.760   2
  -6  -7  -4 21215.0 1173.58   2
   6   8  -5 535.762 779.772   2
  -6  -8   4 1819.42 569.442   2
   6   8  -3 20391.9 853.843   2
   6   8  -2 3593.43 377.369   2
   6   8  -1 8658.29 463.211   2
   6   8   0 5317.72 381.473   2
   6   8   1 1115.41 246.700   2
   6   8   2 18737.2 543.224   2
  -6  -8  -3 41912.2 893.973   2
  -6  -8  -4 10552.1 489.959   2
  -6  -8  -5 1.86537 413.538   2
   6   9  -4 3188.35 956.047   2
   6   9  -3 20994.7 1173.61   2
   6   9  -2 19679.5 1053.81   2
   6   9  -1 919.863 396.695   2
   6   9   0 7428.35 532.319   2
   6   9   1 10557.4 590.811   2
   6   9   2 16304.8 675.335   2
   6   9   3 4662.44 426.092   2
  -6  -9  -4 241.078 360.036   2
  -6  -9  -5 2303.41 428.292   2
  -6  -9  -6 3462.28 614.691   2
   6  10  -3 6549.80 1218.18   2
   6  10  -2 506.029 571.330   2
   6  10  -1 275.301 419.568   2
   6  10   0 1567.40 415.630   2
   6  10   1 2626.08 423.754   2
   6  10   2 11328.4 627.135   2
   6  10   3-66.2032 334.823   2
  -6 -10  -4 2346.04 409.171   2
  -6 -10  -5 3701.53 439.826   2
  -6 -10  -6 526.229 459.102   2
   6  11  -2-206.906 758.008   2
   6  11  -1 9608.91 892.578   2
   6  11   0 12057.8 764.948   2
   6  11   1 17985.8 844.432   2
   6  11   2 35.2727 366.406   2
   6  11   3 726.173 317.668   2
  -6 -11  -4 237.948 354.139   2
  -6 -11  -5 12796.9 921.811   2
  -6 -11  -6 2358.85 586.354   2
  -6 -11  -7 29.0544 466.675   2
   6  11   8 2377.68 927.047   2
   6  12   0 1538.64 628.308   2
   6  12   1 2591.32 512.879   2
  -6 -12  -2 1447.00 555.349   2
  -6 -12  -3 10875.6 919.502   2
  -6 -12  -4 1118.01 521.598   2
  -6 -12  -5 7871.13 825.016   2
  -6 -12  -6 1983.67 593.869   2
  -6 -12  -7 3591.55 721.345   2
  -6 -12  -8 3316.73 669.633   2
   6  12   9 1097.91 865.692   2
  -7   7   1 2730.47 549.542   2
   7  -7   0 15368.0 772.369   2
   7  -7   1 5946.09 554.051   2
   7  -7   2 445.276 372.713   2
  -7   7  -3-87.6294 364.170   2
   7  -7   4 1517.86 573.185   2
   7  -7   5 5150.83 745.210   2
  -7   7  -6 2310.65 896.557   2
  -7   6   3 2225.90 899.644   2
  -7   6   1 6444.21 746.272   2
  -7   6   0 10425.3 700.423   2
  -7   6  -1 3195.52 501.553   2
   7  -6   2-28.3503 404.001   2
  -7   6  -3 424.385 321.989   2
   7  -6   4 5332.07 571.164   2
   7  -6   5-93.4050 488.202   2
   7  -6   6 392.664 493.810   2
   7  -6   7 1504.52 632.590   2
  -7   5   0 2513.51 567.465   2
  -7   5  -1 315.407 313.602   2
  -7   5  -2 15014.8 600.803   2
  -7   5  -3 16875.1 733.164   2
  -7   5  -4 12741.2 679.952   2
  -7   5  -5 469.591 588.460   2
  -7   5  -6 137.963 677.901   2
  -7   5  -7 479.002 614.319   2
   7  -5   8 3407.58 634.126   2
  -7   4   0 859.744 368.251   2
  -7   4  -1 904.634 301.615   2
  -7   4  -2 11929.5 613.593   2
  -7   4  -3 5218.11 409.336   2
  -7   4  -4 235.268 389.888   2
  -7   4  -5 688.117 599.189   2
  -7   4  -6 1417.64 654.287   2
  -7   4  -7 2487.34 772.970   2
   7  -4   8-24.7774 541.013   2
   7  -4   9 419.519 549.526   2
  -7   3  -1 7429.94 837.779   2
  -7   3  -2 28436.6 807.173   2
  -7   3  -3 5428.10 450.349   2
  -7   3  -4 376.647 356.971   2
  -7   3  -5 3542.71 731.274   2
  -7   3  -6 13475.1 1154.47   2
   7  -3   7 3075.76 544.758   2
   7  -3   8 408.500 450.153   2
   7  -3   9 280.480 486.516   2
   7  -3  10 4066.72 729.126   2
  -7   2  -2 11647.4 707.319   2
  -7   2  -3 1324.77 286.697   2
  -7   2  -4 21059.5 819.032   2
  -7   2  -5 2886.73 719.535   2
  -7   2  -6 16244.6 860.153   2
  -7   2  -7 257.509 422.890   2
   7  -2   8 3505.14 593.478   2
  -7   2  -9 312.595 575.452   2
   7  -2  10 1280.08 540.613   2
   7  -2  11 1011.08 577.805   2
   7  -1   2 5969.56 572.972   2
  -7   1  -3 1490.66 273.463   2
  -7   1  -4 9635.84 569.534   2
  -7   1  -5 13270.5 1031.37   2
   7  -1   6 1211.22 410.312   2
   7  -1   7 1567.52 420.803   2
  -7   1  -8 8533.86 983.964   2
   7  -1   9 693.265 444.507   2
   7  -1  10 1549.52 530.092   2
   7  -1  11 712.756 545.428   2
  -7   1 -12 991.060 784.124   2
  -7   0  -4 17173.5 632.222   2
  -7   0  -5 5839.18 529.622   2
  -7   0  -6 9683.25 652.141   2
   7   0   7 1282.64 379.744   2
  -7   0  -8 14902.2 834.382   2
  -7   0  -9 4028.87 601.880   2
   7   0  10-71.1264 458.918   2
   7   0  11 3342.99 646.065   2
   7   0  12 1142.82 565.136   2
   7   1   5 1647.67 255.359   2
  -7  -1  -6 8761.88 440.514   2
  -7  -1  -7 22609.1 659.567   2
  -7  -1  -8 10163.9 604.855   2
  -7  -1  -9 537.783 292.722   2
   7   1  10 2624.26 529.762   2
   7   1  11 3456.53 601.970   2
   7   1  12 1974.94 584.416   2
  -7  -1 -13-114.544 771.249   2
  -7  -2  -6 301.453 305.547   2
  -7  -2  -7 512.728 270.358   2
  -7  -2  -8-40.1922 285.137   2
  -7  -2  -9 10614.6 515.457   2
  -7  -2 -10 13666.6 601.869   2
  -7  -2 -11 6676.35 580.768   2
   7   2  12 1424.68 440.007   2
   7   2  13 367.679 902.199   2
  -7  -3  -7 8748.04 589.956   2
   7   3   8-65.3169 241.575   2
  -7  -3  -9 9619.40 566.876   2
  -7  -3 -10 10268.4 634.564   2
  -7  -3 -11 1468.33 350.192   2
   7   3  12 524.366 326.744   2
   7   3  13 399.416 559.636   2
  -7  -4   6 1343.52 924.901   2
  -7  -4   5 2540.52 871.394   2
   7   4   8 41299.3 1867.12   2
  -7  -4  -9 5617.25 484.284   2
  -7  -4 -10 8636.08 587.987   2
  -7  -4 -11 40.6882 358.921   2
   7   4  12 4406.76 731.550   2
   7   4  13 3229.71 734.823   2
  -7  -5   6 11006.5 1443.33   2
  -7  -5   5 6211.37 764.053   2
  -7  -5   4 5989.84 709.497   2
  -7  -5  -9 385.737 395.930   2
   7   5  10 1057.21 333.988   2
   7   5  11 1785.50 588.652   2
   7   5  12 7765.05 845.107   2
   7   5  13 4006.23 776.721   2
  -7  -6   5 3535.34 691.211   2
  -7  -6   4-210.744 576.615   2
  -7  -6   3 6180.23 665.292   2
   7   6  -2 2885.55 655.833   2
   7   6  10 549.763 722.423   2
  -7  -6 -11 11181.8 927.153   2
   7   6  12 4281.92 760.239   2
  -7  -6 -13 3161.85 795.991   2
  -7  -7   4-17.1113 594.049   2
  -7  -7   3 9579.53 806.558   2
  -7  -7   2 221.653 331.717   2
   7   7  11 16222.3 1552.84   2
   7   7  12 1098.99 621.668   2
   7   8  -4 8908.24 1276.01   2
  -7  -8   3 17897.2 1068.86   2
  -7  -8   2 4688.36 629.314   2
   7   8  -1 658.498 393.991   2
   7   8  12 512.779 559.862   2
  -7  -9   2-90.1546 825.087   2
  -7  -9   1 5423.77 707.400   2
   7   9   0-110.541 671.695   2
  -7 -10   1 15830.4 1059.40   2
  -7 -10   0 11014.2 911.565   2
  -7 -10  -1 6730.32 721.534   2
  -7 -11   0 614.253 565.211   2
  -7 -11  -1 674.743 576.293   2
  -7 -11  -2 5576.34 1011.89   2
  -7 -12  -1 18638.2 1759.92   2
  -7 -12  -2 8044.28 1147.58   2
  -7 -12  -3 2368.40 869.637   2
  -8   6   0 505.277 560.181   2
  -8   6  -1-147.196 449.001   2
  -8   6  -2 3101.83 470.026   2
   8  -6   3 1177.50 380.224   2
   8  -6   4 1501.62 454.091   2
   8  -6   5 738.433 553.076   2
  -8   6  -6 2176.77 938.824   2
  -8   5   2 7369.04 1344.76   2
   8  -5  -1 1514.85 465.540   2
   8  -5   0 4113.70 559.761   2
   8  -5   1 497.952 344.729   2
   8  -5   2 1309.56 373.356   2
  -8   5  -3 629.855 323.991   2
   8  -5   4 182.669 356.224   2
   8  -5   5 1947.19 601.011   2
   8  -5   6 6428.60 814.289   2
   8  -5   7 1168.61 610.154   2
   8  -4  -3 2227.61 589.671   2
   8  -4  -2 762.769 465.209   2
   8  -4  -1 1001.60 352.172   2
   8  -4   0 8951.36 569.866   2
   8  -4   1 1863.99 288.637   2
  -8   4  -2 4487.39 347.188   2
   8  -4   3 355.021 264.636   2
  -8   4  -4 5889.52 453.690   2
   8  -4   5 5418.47 696.109   2
  -8   4  -6 8287.77 811.005   2
   8  -4   7 2750.33 616.323   2
   8  -4   8 814.618 601.638   2
   8  -3  -4 5020.20 1088.88   2
   8  -3  -3 3141.55 528.668   2
   8  -3  -2 236.688 342.985   2
   8  -3  -1 9503.24 559.930   2
   8  -3   0 24683.8 690.999   2
   8  -3   1 5656.89 399.201   2
   8  -3   2 1461.82 273.550   2
   8  -3   3 2441.03 295.155   2
   8  -3   4 1273.37 302.126   2
   8  -3   5 690.771 412.652   2
   8  -3   6 160.754 452.602   2
   8  -3   7 560.892 483.837   2
  -8   3  -8 10862.3 937.928   2
   8  -3   9 5101.92 784.909   2
  -8   2   4 149.188 536.741   2
   8  -2  -3 120.969 651.108   2
  -8   2   2-84.3625 467.383   2
  -8   2   1 487.711 295.104   2
   8  -2   0 5376.93 380.196   2
   8  -2   1-57.6192 242.980   2
   8  -2   2 18213.8 550.372   2
  -8   2  -3 10170.8 486.585   2
  -8   2  -4 6427.97 366.035   2
  -8   2  -5 3468.06 532.489   2
   8  -2   6-96.7054 412.148   2
   8  -2   7 999.883 466.164   2
  -8   2  -8 12376.9 924.098   2
  -8   2  -9 5016.31 715.847   2
   8  -2  10 940.304 551.021   2
   8  -1  -2 317.437 585.986   2
  -8   1   1 1718.14 391.362   2
   8  -1   0 1915.82 282.472   2
  -8   1  -1 83.1585 261.434   2
  -8   1  -2 26761.5 796.119   2
  -8   1  -3 24129.2 639.135   2
  -8   1  -4 2084.64 259.851   2
   8  -1   5 21.2547 359.173   2
  -8   1  -6 11587.9 770.355   2
   8  -1   7 1983.73 491.844   2
  -8   1  -8 8384.58 776.834   2
  -8   1  -9 215.364 489.209   2
   8  -1  10-34.2730 572.205   2
   8  -1  11 4887.13 783.807   2
  -8   0   2 3088.28 535.049   2
  -8   0   1 609.038 415.133   2
  -8   0   0 307.232 328.982   2
  -8   0  -1 27977.7 792.823   2
  -8   0  -2 20248.8 910.507   2
  -8   0  -3 13359.1 485.447   2
  -8   0  -4 29.5529 242.155   2
   8   0   5 2523.28 375.357   2
  -8   0  -6 14372.9 666.960   2
   8   0   7 2452.27 478.011   2
   8   0   8 1081.15 461.876   2
   8   0   9 289.222 461.758   2
   8   0  10 1335.50 552.002   2
   8   0  11 4747.40 724.100   2
   8   0  12 3832.89 734.602   2
   8   1  -1 1767.54 636.297   2
  -8  -1   0 706.810 406.589   2
  -8  -1  -1 269.138 406.269   2
   8   1   2 628.800 258.050   2
   8   1   3 1703.34 312.917   2
  -8  -1  -4 4653.84 338.010   2
  -8  -1  -5 72474.8 1197.19   2
  -8  -1  -6 14196.5 640.738   2
  -8  -1  -7 264.164 324.372   2
  -8  -1  -8-84.0869 344.556   2
   8   1   9 1096.09 400.269   2
   8   1  10 6042.96 730.137   2
  -8  -1 -11 2346.12 610.047   2
   8   1  12 12.1628 589.915   2
  -8  -2  -1 328.636 268.934   2
  -8  -2  -2 2170.08 327.161   2
  -8  -2  -3 6039.94 440.117   2
  -8  -2  -4 17211.7 538.819   2
  -8  -2  -5 30383.6 653.678   2
  -8  -2  -6 24793.6 625.194   2
   8   2   7 61.1148 225.554   2
   8   2   8 692.508 271.466   2
   8   2   9 4963.11 507.304   2
   8   2  10 2871.70 463.433   2
   8   2  11 167.496 413.377   2
   8   2  12 667.085 469.449   2
  -8  -2 -13 458.052 766.122   2
   8   3   1-21.2878 306.311   2
  -8  -3  -2 3290.45 361.292   2
  -8  -3  -3 5071.69 429.978   2
  -8  -3  -4 25379.9 787.522   2
  -8  -3  -5 4196.29 391.734   2
   8   3   6 6563.30 374.249   2
  -8  -3  -7 17816.5 578.362   2
  -8  -3  -8 19154.9 630.492   2
   8   3   9 2768.11 350.870   2
   8   3  10 137.578 302.976   2
   8   3  11 633.006 338.686   2
   8   3  12 2737.93 533.381   2
   8   4   1 21905.9 1137.25   2
  -8  -4  -2 7037.54 576.275   2
  -8  -4  -3 11253.8 574.708   2
  -8  -4  -4 194.857 298.735   2
  -8  -4  -5 3687.98 386.761   2
   8   4   6 1684.70 334.913   2
  -8  -4  -7 19433.2 605.670   2
  -8  -4  -8 37933.7 846.635   2
  -8  -4  -9 6662.70 463.467   2
   8   4  10 267.487 288.740   2
   8   4  11 313.375 345.067   2
   8   4  12 560.671 397.209   2
  -8  -4 -13 611.333 701.612   2
   8   5   2 36721.1 1561.52   2
  -8  -5  -3 16348.6 826.419   2
  -8  -5  -4 2522.34 363.358   2
   8   5   5 3721.43 340.019   2
   8   5   6 528.012 312.786   2
  -8  -5  -7 10699.0 589.216   2
  -8  -5  -8 6136.40 529.137   2
  -8  -5  -9 109.459 329.472   2
  -8  -5 -10 7805.90 591.430   2
   8   5  11 4335.09 526.720   2
   8   5  12 2307.09 666.254   2
  -8  -5 -13-332.350 739.644   2
   8   6   4 2953.94 665.444   2
  -8  -6  -5 3129.95 393.080   2
  -8  -6  -6 24224.8 819.035   2
  -8  -6  -7 982.075 362.025   2
   8   6   8 348.033 327.101   2
   8   6   9 1897.58 407.703   2
  -8  -6 -10 6197.90 557.386   2
  -8  -6 -11 8561.11 839.214   2
   8   6  12 809.127 562.428   2
  -8  -6 -13 1778.07 871.188   2
  -8  -7  -5 4867.90 591.512   2
  -8  -7  -6 1382.19 301.642   2
   8   7   7 3325.29 425.026   2
   8   7   8 104.977 331.234   2
  -8  -7  -9 7168.87 578.281   2
  -8  -7 -10 6217.88 797.476   2
  -8  -7 -11 1947.81 647.906   2
   8   7  12-156.137 562.347   2
  -8  -8  -6 2474.43 515.435   2
  -8  -8  -7 72.0479 282.926   2
   8   8   8 115.269 348.564   2
   8   8   9 600.302 510.317   2
  -8  -8 -10 983.347 535.616   2
   8   8  11 60.5996 583.405   2
  -8  -9  -7 5828.41 699.411   2
  -8  -9  -8 1024.11 488.720   2
  -8  -9  -9 626.469 514.130   2
  -8  -9 -10-202.783 500.808   2
   8   9  11 3062.13 738.201   2
   8  10   8 5899.45 1122.00   2
  -8 -10  -9 150.608 555.679   2
  -8 -10 -10 1564.12 642.198   2
  -9   5  -3-163.910 848.531   2
  -9   5  -4 8501.47 916.551   2
  -9   5  -5 7707.12 908.834   2
   9  -4   0 11322.3 1367.93   2
  -9   4  -1 145.092 593.217   2
  -9   4  -2 477.094 403.467   2
  -9   4  -3 25.8278 447.005   2
   9  -4   4 1836.33 430.656   2
   9  -4   5 602.593 445.049   2
  -9   4  -6 596.949 498.633   2
  -9   4  -7 1883.82 890.831   2
   9  -3  -2 11082.2 949.432   2
   9  -3  -1 3144.16 531.019   2
   9  -3   0 2660.68 494.873   2
  -9   3  -1 291.945 382.082   2
  -9   3  -2 2074.89 385.709   2
  -9   3  -3 2779.67 556.420   2
   9  -3   4 1904.43 427.368   2
   9  -3   5 475.168 384.589   2
   9  -3   6 542.801 488.830   2
  -9   3  -7 3235.38 880.185   2
  -9   3  -8 7581.38 1313.53   2
   9  -2  -2 10364.8 889.214   2
   9  -2  -1 1842.65 475.770   2
  -9   2   0 434.407 390.704   2
   9  -2   1 8367.06 549.936   2
   9  -2   2 25860.1 833.356   2
  -9   2  -3 9867.84 811.299   2
  -9   2  -4 349.305 445.193   2
   9  -2   5 39.6921 359.800   2
   9  -2   6 742.932 361.216   2
   9  -2   7 3016.72 633.918   2
   9  -2   8 2212.96 610.951   2
   9  -2   9 1176.75 561.816   2
   9  -1  -3 6548.57 1229.18   2
  -9   1   2 2561.82 595.009   2
  -9   1   1-79.9437 390.890   2
  -9   1   0 381.609 324.536   2
   9  -1   1 17703.0 709.088   2
  -9   1  -2 7556.99 738.000   2
  -9   1  -3 1280.26 458.009   2
  -9   1  -4 2419.89 548.012   2
   9  -1   5 785.058 402.909   2
   9  -1   6 1871.31 405.071   2
   9  -1   7 160.798 378.413   2
   9  -1   8 314.891 437.491   2
   9  -1   9 1674.01 576.249   2
  -9   1 -10 8589.08 943.235   2
  -9   0   3 2495.50 663.544   2
  -9   0   2 1266.40 542.844   2
  -9   0   1 1980.64 370.159   2
  -9   0   0 3164.08 404.078   2
  -9   0  -1 15996.9 779.841   2
  -9   0  -2 3253.58 550.476   2
  -9   0  -3 1213.08 448.171   2
  -9   0  -4 3783.60 602.419   2
  -9   0  -5 6036.56 527.154   2
   9   0   6 2702.84 423.146   2
   9   0   7-65.4004 362.239   2
   9   0   8 948.963 405.566   2
   9   0   9 142.587 440.932   2
   9   0  10 5080.41 852.706   2
   9   0  11 228.639 566.518   2
  -9  -1   3 307.638 542.074   2
  -9  -1   2 54.5318 391.665   2
  -9  -1   1 2697.68 467.693   2
  -9  -1   0 8329.53 623.493   2
  -9  -1  -1 1186.15 382.629   2
  -9  -1  -2 34.1042 419.227   2
  -9  -1  -3 12456.4 819.309   2
  -9  -1  -4 22774.5 812.791   2
  -9  -1  -5 12124.0 656.449   2
   9   1   6 4730.44 594.297   2
   9   1   7 1884.43 384.360   2
   9   1   8 1319.01 401.513   2
   9   1   9-8.07104 398.193   2
   9   1  10 2430.29 527.902   2
   9   1  11-173.018 482.480   2
   9   1  12 6490.39 1302.05   2
  -9  -2   3 381.780 428.434   2
  -9  -2   2 7669.04 646.694   2
  -9  -2   1 19451.5 868.761   2
  -9  -2   0 15552.3 766.406   2
  -9  -2  -1 893.032 378.935   2
  -9  -2  -2 950.263 450.442   2
   9   2   3 139.481 310.077   2
  -9  -2  -4 18549.5 758.235   2
  -9  -2  -5 113.629 341.199   2
   9   2   6 946.719 432.673   2
  -9  -2  -7 16943.4 955.105   2
   9   2   8 1061.19 465.025   2
   9   2   9-147.047 364.052   2
   9   2  10 1726.63 470.806   2
   9   2  11 2894.55 582.832   2
   9   2  12 9082.94 916.328   2
  -9  -3   4 964.399 788.413   2
  -9  -3   3 2342.59 530.856   2
  -9  -3   2 4609.33 584.263   2
  -9  -3   1 3239.55 507.105   2
  -9  -3   0 491.760 359.197   2
  -9  -3  -1 811.606 374.020   2
  -9  -3  -2 8611.65 545.927   2
  -9  -3  -3 3288.68 405.968   2
   9   3   4 4267.21 461.678   2
  -9  -3  -5 7416.62 457.367   2
   9   3   6 5665.99 476.337   2
  -9  -3  -7 7641.08 536.428   2
   9   3   8 7786.47 761.990   2
   9   3   9 772.428 358.525   2
   9   3  10 1383.45 445.312   2
   9   3  11 355.634 400.763   2
  -9  -3 -12 167.499 545.216   2
  -9  -4   3 9222.33 1353.62   2
  -9  -4   2 9017.07 679.476   2
  -9  -4   1 201.004 381.871   2
  -9  -4   0 480.431 362.934   2
  -9  -4  -1 998.214 365.634   2
  -9  -4  -2 11878.4 624.948   2
  -9  -4  -3 655.269 321.716   2
  -9  -4  -4 221.949 326.452   2
   9   4   5 397.592 270.842   2
  -9  -4  -6 12232.2 624.322   2
  -9  -4  -7 8068.22 567.328   2
   9   4   8 312.792 323.338   2
  -9  -4  -9 4212.92 493.596   2
  -9  -4 -10 9859.32 594.272   2
   9   4  11 1404.28 538.096   2
   9   4  12 96.1783 542.310   2
  -9  -5   3 4954.07 1124.15   2
  -9  -5   2 5639.94 759.297   2
  -9  -5   1 238.378 509.368   2
  -9  -5   0 1715.30 410.835   2
  -9  -5  -1 8170.96 493.773   2
  -9  -5  -2 15595.5 719.764   2
  -9  -5  -3 707.641 333.218   2
  -9  -5  -4 5693.90 503.509   2
  -9  -5  -5 5624.07 435.058   2
   9   5   6 1492.05 324.688   2
  -9  -5  -7 184.914 318.843   2
   9   5   8 3885.62 483.055   2
  -9  -5  -9 15228.4 792.527   2
   9   5  10 6984.18 624.854   2
   9   5  11 558.438 373.670   2
  -9  -5 -12-380.525 761.539   2
  -9  -6   2 1305.38 600.367   2
  -9  -6   1 13050.8 977.192   2
  -9  -6   0 3145.53 641.045   2
  -9  -6  -1 2834.37 440.936   2
  -9  -6  -2 288.726 349.303   2
  -9  -6  -3 3233.10 462.846   2
  -9  -6  -4 2744.32 430.268   2
  -9  -6  -5 3239.67 379.438   2
   9   6   6 230.826 286.419   2
   9   6   7 746.595 362.867   2
   9   6   8 4598.38 521.596   2
  -9  -6  -9 12542.1 743.011   2
  -9  -6 -10 3159.59 501.281   2
   9   6  11 160.889 384.325   2
  -9  -6 -12 436.649 755.144   2
  -9  -7   1 3064.86 712.227   2
  -9  -7   0 937.498 394.949   2
  -9  -7  -1 7299.92 601.141   2
  -9  -7  -2 6491.79 559.181   2
  -9  -7  -3 1983.38 421.924   2
  -9  -7  -4 2826.63 442.417   2
  -9  -7  -5 4358.44 408.090   2
  -9  -7  -6 920.836 319.652   2
  -9  -7  -7 10430.5 571.920   2
  -9  -7  -8 7740.25 621.055   2
  -9  -7  -9 1596.00 440.709   2
   9   7  10 2819.36 534.260   2
   9   7  11 3429.84 766.924   2
  -9  -7 -12 3017.53 1116.73   2
  -9  -8   0 367.871 410.253   2
  -9  -8  -1 2309.48 441.050   2
  -9  -8  -2 5035.70 516.723   2
  -9  -8  -3 8527.98 611.697   2
  -9  -8  -4 4340.27 480.928   2
  -9  -8  -5-16.8559 308.396   2
  -9  -8  -6 4200.59 450.197   2
  -9  -8  -7 4133.08 452.770   2
  -9  -8  -8 1455.01 346.006   2
   9   8   9 924.967 410.601   2
   9   8  10 317.894 486.980   2
  -9  -8 -11 12361.0 1102.38   2
  -9  -9  -1 13005.2 986.334   2
  -9  -9  -2 390.196 578.978   2
  -9  -9  -3 646.779 525.250   2
  -9  -9  -4 761.064 474.375   2
  -9  -9  -5 18952.0 892.958   2
  -9  -9  -6 4881.30 549.887   2
  -9  -9  -7 10240.0 733.764   2
  -9  -9  -8 1369.76 423.342   2
  -9  -9  -9 1243.80 557.702   2
  -9  -9 -10 2436.15 680.815   2
  -9 -10  -2 4133.17 698.217   2
  -9 -10  -3 25.3199 564.165   2
  -9 -10  -4 318.208 528.223   2
  -9 -10  -5 12218.6 808.281   2
  -9 -10  -6 215.273 446.913   2
  -9 -10  -7 842.372 448.328   2
  -9 -10  -8-12.9551 550.262   2
  -9 -10  -9 3481.76 957.038   2
  -9 -11  -3 3844.90 1081.85   2
  -9 -11  -4 11308.3 1374.22   2
  -9 -11  -5 7825.49 1196.92   2
  -9 -11  -6 1493.27 839.153   2
 -10   4  -4 558.001 802.232   2
  10  -3   1 1545.25 812.095   2
  10  -3   2 5136.28 1005.22   2
 -10   3  -3 909.264 504.016   2
 -10   3  -4-108.083 533.953   2
 -10   3  -5 1395.08 623.656   2
  10  -3   6 1607.09 869.026   2
  10  -3   7 62.5055 923.124   2
  10  -2   0 2451.31 598.690   2
  10  -2   1 208.307 722.900   2
 -10   2  -2 55.4344 441.978   2
  10  -2   3 548.331 779.336   2
 -10   2  -4 4014.17 694.905   2
 -10   2  -5 5532.14 773.620   2
 -10   2  -6 2477.18 639.697   2
 -10   2  -7 323.165 799.924   2
  10  -2   9 868.941 1077.63   2
  10  -1   0 3430.28 637.389   2
 -10   1  -1 2165.14 505.623   2
 -10   1  -2 555.552 438.028   2
 -10   1  -3 2005.88 528.525   2
  10  -1   4 3511.70 640.009   2
 -10   1  -5 428.087 520.410   2
 -10   1  -6 509.775 520.630   2
 -10   1  -7 305.609 738.579   2
  10  -1   8 7154.90 908.077   2
  10  -1   9 1849.19 1139.67   2
  10   0  -1 9782.15 1279.15   2
 -10   0   0 5469.75 624.065   2
 -10   0  -1 114.720 411.444   2
 -10   0  -2 1731.44 476.143   2
 -10   0  -3 6611.88 769.184   2
 -10   0  -4 3662.46 634.273   2
 -10   0  -5 1769.96 573.453   2
 -10   0  -6 127.432 503.379   2
  10   0   7 2288.19 598.846   2
  10   0   8 7152.70 888.333   2
  10   0   9 392.732 613.562   2
  10   0  10 1186.51 910.206   2
 -10  -1   1 2439.25 520.918   2
 -10  -1   0 1269.05 456.006   2
 -10  -1  -1 8487.21 678.322   2
 -10  -1  -2 9087.60 695.368   2
 -10  -1  -3 3076.48 611.905   2
 -10  -1  -4 1867.52 535.988   2
 -10  -1  -5-23.3398 524.511   2
  10   1   6 5135.35 559.428   2
  10   1   7 6945.59 783.570   2
  10   1   8 3551.07 675.935   2
  10   1   9 85.6896 536.057   2
  10   1  10 1989.33 622.691   2
 -10  -2   2 1536.81 850.138   2
 -10  -2   1 180.738 463.131   2
 -10  -2   0 1082.31 440.223   2
 -10  -2  -1 5032.81 585.261   2
 -10  -2  -2 17075.9 1064.48   2
 -10  -2  -3 239.374 471.348   2
 -10  -2  -4 380.827 473.777   2
 -10  -2  -5 5099.11 530.152   2
 -10  -2  -6 6461.16 602.867   2
  10   2   7 2573.96 581.274   2
  10   2   8 1719.12 552.387   2
  10   2   9 1.22308 518.112   2
  10   2  10 1928.07 621.192   2
 -10  -3   2 342.617 596.601   2
 -10  -3   1-4.01431 448.400   2
 -10  -3   0 9027.67 707.725   2
 -10  -3  -1 6355.59 638.586   2
 -10  -3  -2 19585.4 1133.47   2
 -10  -3  -3-241.582 531.647   2
 -10  -3  -4 416.274 367.141   2
  10   3   5 5765.55 565.258   2
 -10  -3  -6 9921.50 688.223   2
  10   3   7 433.462 507.652   2
  10   3   8 423.968 478.305   2
  10   3   9 2981.07 994.003   2
  10   3  10 4126.34 757.160   2
  10   3  11 3354.24 740.014   2
 -10  -4   1 1032.75 457.754   2
 -10  -4   0 369.614 412.252   2
 -10  -4  -1 102.121 397.285   2
 -10  -4  -2 586.764 395.017   2
 -10  -4  -3 7361.50 769.147   2
 -10  -4  -4 34143.9 1054.93   2
 -10  -4  -5 21630.8 742.368   2
  10   4   6 429.462 391.008   2
  10   4   7 317.383 516.174   2
  10   4   8 904.022 522.736   2
  10   4   9 9651.21 888.470   2
  10   4  10 3095.72 709.453   2
  10   4  11 1.40504 589.245   2
 -10  -5   1 8793.68 1401.59   2
 -10  -5   0 1374.13 549.107   2
 -10  -5  -1 759.688 403.175   2
 -10  -5  -2 450.955 379.497   2
 -10  -5  -3 8506.37 645.083   2
 -10  -5  -4 6577.62 590.280   2
 -10  -5  -5 7753.38 532.189   2
  10   5   6 264.584 314.432   2
  10   5   7-34.1555 327.821   2
  10   5   8 2894.58 472.187   2
  10   5   9 1565.07 432.120   2
  10   5  10 285.614 497.628   2
  10   5  11 1281.63 596.499   2
 -10  -5 -12 1203.92 796.166   2
 -10  -6   0 568.403 521.236   2
 -10  -6  -1-28.9759 501.719   2
 -10  -6  -2 1050.29 411.006   2
 -10  -6  -3 9277.18 677.958   2
 -10  -6  -4 7284.55 613.837   2
 -10  -6  -5 1295.47 353.384   2
 -10  -6  -6 3043.54 410.467   2
 -10  -6  -7 17440.6 754.476   2
 -10  -6  -8 11301.9 749.064   2
  10   6   9 140.309 379.177   2
  10   6  10 1581.97 435.108   2
 -10  -6 -11 1026.19 564.573   2
  10   7   0 179.208 758.575   2
 -10  -7  -1 11473.1 968.877   2
 -10  -7  -2 3227.89 512.109   2
 -10  -7  -3 3090.52 496.688   2
 -10  -7  -4-69.9506 379.462   2
 -10  -7  -5 1657.64 373.902   2
 -10  -7  -6 5546.52 499.723   2
 -10  -7  -7 10727.1 639.064   2
  10   7   8 4909.31 495.458   2
  10   7   9 4164.34 547.882   2
  10   7  10 498.983 432.037   2
 -10  -7 -11 1489.69 863.221   2
  10   8   1 24112.2 1243.42   2
 -10  -8  -2 798.094 430.443   2
 -10  -8  -3 557.228 405.586   2
 -10  -8  -4 135.635 410.778   2
 -10  -8  -5 1371.89 383.035   2
 -10  -8  -6 6328.00 550.057   2
 -10  -8  -7 4294.49 488.267   2
 -10  -8  -8 390.912 369.737   2
 -10  -8  -9 2621.01 450.183   2
 -10  -8 -10 657.324 867.639   2
  10   9   1 14478.2 1120.29   2
  10   9   2 1765.42 552.844   2
 -10  -9  -3 421.951 438.807   2
 -10  -9  -4 85.5582 600.455   2
 -10  -9  -5 3176.00 539.855   2
 -10  -9  -6 2176.04 518.476   2
 -10  -9  -7 82.0810 446.532   2
 -10  -9  -8 427.950 452.227   2
 -10  -9  -9 2295.03 946.769   2
 -10 -10  -4 7408.82 872.550   2
 -10 -10  -5 1300.84 560.654   2
 -10 -10  -6-111.460 568.483   2
 -10 -10  -7 1224.85 773.206   2
 -11   1  -2 257.372 842.106   2
 -11   1  -3 608.332 847.138   2
 -11   1  -4 1420.10 870.961   2
 -11   0  -1 3178.13 1041.32   2
 -11   0  -2 1874.43 987.437   2
 -11   0  -3 2357.05 657.110   2
 -11   0  -4 344.050 573.359   2
 -11   0  -5 369.263 514.855   2
 -11  -1  -1 6376.26 1338.69   2
 -11  -1  -2 5608.26 682.944   2
 -11  -1  -3-80.7848 598.877   2
 -11  -1  -4-103.615 551.993   2
 -11  -1  -5 198.352 539.490   2
 -11  -1  -6 4785.67 772.771   2
 -11  -2  -1 9362.91 962.264   2
 -11  -2  -2 6619.11 683.491   2
 -11  -2  -3-274.088 578.816   2
 -11  -2  -4-23.9862 592.343   2
 -11  -2  -5 362.085 514.011   2
 -11  -2  -6 717.457 574.262   2
  11   2   7 325.920 446.872   2
  11   2   8 1134.07 612.697   2
 -11  -3  -1 1130.94 554.074   2
 -11  -3  -2 1199.93 468.301   2
 -11  -3  -3 4812.63 762.250   2
 -11  -3  -4 14159.2 1060.90   2
 -11  -3  -5 2717.25 621.481   2
  11   3   6 297.358 421.276   2
  11   3   7 1926.93 511.818   2
  11   3   8-287.515 632.929   2
  11   3   9 2770.71 1248.46   2
 -11  -4   0 1250.00 811.118   2
 -11  -4  -1-59.6208 571.014   2
 -11  -4  -2 2257.34 534.414   2
 -11  -4  -3 5836.21 820.306   2
 -11  -4  -4 8017.61 891.485   2
 -11  -4  -5 439.722 418.249   2
  11   4   6-232.075 457.368   2
  11   4   7 229.737 448.030   2
  11   4   8 315.815 561.600   2
  11   4   9 453.319 558.259   2
 -11  -5  -2-123.953 471.950   2
 -11  -5  -3 8092.82 860.721   2
 -11  -5  -4 2561.84 689.315   2
 -11  -5  -5 2481.14 493.398   2
 -11  -5  -6 5362.19 657.613   2
  11   5   7 4512.06 614.777   2
  11   5   8 588.053 466.803   2
  11   5   9 896.153 562.787   2
 -11  -5 -10 739.217 800.439   2
  11   6   2 1332.56 764.728   2
 -11  -6  -3 1766.79 599.735   2
 -11  -6  -4 710.429 475.554   2
 -11  -6  -5 9593.31 656.529   2
 -11  -6  -6 4419.41 506.922   2
 -11  -6  -7 3714.95 481.363   2
  11   6   8 481.690 424.427   2
  11   6   9 1323.27 632.997   2
 -11  -6 -10 1590.27 855.880   2
  11   7   3-85.2807 772.309   2
 -11  -7  -4 420.438 447.201   2
 -11  -7  -5 1549.07 410.033   2
 -11  -7  -6 6439.60 576.947   2
 -11  -7  -7 202.952 362.920   2
 -11  -7  -8 2356.25 468.355   2
 -11  -7  -9 3837.17 635.579   2
 -11  -7 -10 1296.46 646.298   2
  11   8   3 1129.13 596.515   2
  11   8   4 895.093 547.361   2
 -11  -8  -5 215.757 384.327   2
 -11  -8  -6 1228.13 403.379   2
 -11  -8  -7 1296.63 421.058   2
 -11  -8  -8 4877.89 692.840   2
 -11  -8  -9 3181.38 596.745   2
  11   9   4 750.954 787.495   2
  12   6   6 3082.06 1002.91   2
;
_shelx_hkl_checksum              75819
_shelx_shelxl_version_number     2014/7
_olex2_exptl_crystal_mounting_method tip-mounted
_olex2_submission_special_instructions 'No special instructions were received'
loop_
_space_group_symop_operation_xyz
'x, y, z'
'-x, -y, -z'
loop_
_atom_site_label
_atom_site_type_symbol
_atom_site_fract_x
_atom_site_fract_y
_atom_site_fract_z
_atom_site_U_iso_or_equiv
_atom_site_adp_type
_atom_site_occupancy
_atom_site_site_symmetry_order
_atom_site_calc_flag
_atom_site_refinement_flags_posn
Co1 Co 0.16052(3) 0.59412(3) 0.11239(3) 0.01274(7) Uani 1 1 d .
F2 F -0.10789(17) 0.16518(13) 0.44633(15) 0.0364(3) Uani 1 1 d .
F6 F 0.36535(19) 1.04155(15) -0.29647(14) 0.0426(3) Uani 1 1 d .
F4 F 0.45462(16) 1.10042(13) -0.13621(15) 0.0321(3) Uani 1 1 d .
F1 F -0.36288(17) 0.30582(14) 0.59405(13) 0.0346(3) Uani 1 1 d .
F3 F -0.32011(17) 0.29387(15) 0.35183(13) 0.0341(3) Uani 1 1 d .
O2 O -0.21269(17) 0.55158(14) 0.46226(13) 0.0199(3) Uani 1 1 d .
O1 O -0.01312(16) 0.43381(13) 0.24430(13) 0.0156(2) Uani 1 1 d .
O4 O 0.15849(16) 0.97235(13) 0.05320(15) 0.0211(3) Uani 1 1 d .
O7 O -0.02937(16) 0.71350(14) -0.00123(15) 0.0151(2) Uani 1 1 d .
O8 O 0.35892(16) 0.47349(14) 0.21487(15) 0.0145(2) Uani 1 1 d .
O5 O 0.03205(18) 0.73582(15) 0.29246(16) 0.0181(3) Uani 1 1 d .
O6 O 0.29946(18) 0.44617(15) -0.06319(15) 0.0178(3) Uani 1 1 d .
C1 C -0.1460(2) 0.44348(19) 0.38023(19) 0.0155(3) Uani 1 1 d .
C3 C 0.2981(2) 0.89049(19) -0.0383(2) 0.0159(3) Uani 1 1 d .
C4 C 0.4341(2) 0.9802(2) -0.1811(2) 0.0224(4) Uani 1 1 d .
F5 F 0.60310(16) 0.88954(13) -0.24548(16) 0.0433(4) Uani 1 1 d .
O3 O 0.34331(15) 0.74370(12) -0.03480(13) 0.0152(2) Uani 1 1 d .
C2 C -0.2355(3) 0.2996(2) 0.4452(2) 0.0207(4) Uani 1 1 d .
H6A H 0.405(3) 0.440(3) -0.113(3) 0.031 Uiso 1 1 d R
H6B H 0.253(3) 0.385(3) -0.067(3) 0.031 Uiso 1 1 d R
H8A H 0.414(3) 0.391(3) 0.188(3) 0.037(7) Uiso 1 1 d .
H5A H -0.059(3) 0.714(3) 0.356(3) 0.039(7) Uiso 1 1 d .
H8B H 0.319(3) 0.466(3) 0.327(3) 0.053(8) Uiso 1 1 d .
H5B H 0.044(3) 0.824(3) 0.256(3) 0.050(8) Uiso 1 1 d .
H7A H -0.004(3) 0.688(3) -0.090(3) 0.033(6) Uiso 1 1 d .
H7B H -0.068(3) 0.814(3) -0.013(3) 0.032(6) Uiso 1 1 d .
loop_
_atom_site_aniso_label
_atom_site_aniso_U_11
_atom_site_aniso_U_22
_atom_site_aniso_U_33
_atom_site_aniso_U_23
_atom_site_aniso_U_13
_atom_site_aniso_U_12
Co1 0.01174(11) 0.01118(11) 0.01336(11) -0.00223(7) -0.00198(8) -0.00377(8)
F2 0.0409(7) 0.0161(5) 0.0493(8) 0.0039(5) -0.0166(6) -0.0104(5)
F6 0.0557(9) 0.0461(8) 0.0263(7) 0.0139(6) -0.0175(6) -0.0247(7)
F4 0.0323(6) 0.0200(6) 0.0401(7) -0.0023(5) -0.0038(5) -0.0169(5)
F1 0.0422(7) 0.0423(7) 0.0174(5) -0.0020(5) 0.0044(5) -0.0313(6)
F3 0.0461(7) 0.0448(7) 0.0263(6) 0.0062(5) -0.0179(5) -0.0329(6)
O2 0.0213(6) 0.0177(6) 0.0147(6) -0.0033(5) 0.0007(5) -0.0066(5)
O1 0.0156(6) 0.0161(6) 0.0141(6) -0.0026(5) -0.0023(5) -0.0065(4)
O4 0.0180(6) 0.0126(6) 0.0251(7) -0.0028(5) -0.0015(5) -0.0034(5)
O7 0.0168(6) 0.0111(6) 0.0161(6) -0.0027(5) -0.0050(5) -0.0029(5)
O8 0.0144(6) 0.0134(6) 0.0133(6) -0.0026(5) -0.0035(5) -0.0023(5)
O5 0.0194(7) 0.0155(6) 0.0169(6) -0.0043(5) -0.0021(5) -0.0063(5)
O6 0.0133(6) 0.0180(6) 0.0207(6) -0.0086(5) -0.0002(5) -0.0062(5)
C1 0.0151(8) 0.0156(8) 0.0151(8) 0.0010(6) -0.0059(6) -0.0050(6)
C3 0.0171(8) 0.0147(8) 0.0168(8) 0.0005(6) -0.0066(7) -0.0067(6)
C4 0.0202(9) 0.0159(8) 0.0243(9) -0.0007(7) -0.0023(7) -0.0058(7)
F5 0.0232(6) 0.0204(6) 0.0552(8) -0.0041(6) 0.0136(6) -0.0060(5)
O3 0.0148(6) 0.0110(5) 0.0172(6) -0.0017(4) -0.0029(5) -0.0042(4)
C2 0.0245(9) 0.0223(9) 0.0162(8) 0.0011(7) -0.0051(7) -0.0133(7)
loop_
_atom_type_symbol
_atom_type_description
_atom_type_scat_dispersion_real
_atom_type_scat_dispersion_imag
_atom_type_scat_source
C C 0.0033 0.0016 'International Tables Vol C Tables 4.2.6.8 and 6.1.1.4'
H H 0.0000 0.0000 'International Tables Vol C Tables 4.2.6.8 and 6.1.1.4'
Co Co 0.3494 0.9721 'International Tables Vol C Tables 4.2.6.8 and 6.1.1.4'
F F 0.0171 0.0103 'International Tables Vol C Tables 4.2.6.8 and 6.1.1.4'
O O 0.0106 0.0060 'International Tables Vol C Tables 4.2.6.8 and 6.1.1.4'
loop_
_geom_angle_atom_site_label_1
_geom_angle_atom_site_label_2
_geom_angle_atom_site_label_3
_geom_angle
O7 Co1 O1 88.49(5)
O7 Co1 O3 90.87(5)
O8 Co1 O1 92.83(5)
O8 Co1 O7 177.35(5)
O8 Co1 O3 87.64(4)
O5 Co1 O1 92.74(5)
O5 Co1 O7 93.57(5)
O5 Co1 O8 88.67(5)
O5 Co1 O6 177.10(6)
O5 Co1 O3 91.80(5)
O6 Co1 O1 87.47(5)
O6 Co1 O7 89.32(5)
O6 Co1 O8 88.44(5)
O6 Co1 O3 88.02(5)
O3 Co1 O1 175.44(4)
C1 O1 Co1 127.49(10)
O2 C1 O1 128.43(15)
O2 C1 C2 118.06(14)
O1 C1 C2 113.49(14)
O4 C3 C4 116.11(14)
O4 C3 O3 128.89(15)
O3 C3 C4 114.96(14)
F6 C4 F4 106.86(15)
F6 C4 C3 109.74(15)
F4 C4 C3 111.54(14)
F5 C4 F6 108.01(16)
F5 C4 F4 107.33(15)
F5 C4 C3 113.10(15)
C3 O3 Co1 123.78(10)
F2 C2 F1 107.61(15)
F2 C2 F3 107.50(15)
F2 C2 C1 111.55(14)
F1 C2 F3 107.51(14)
F1 C2 C1 112.23(14)
F3 C2 C1 110.23(14)
loop_
_geom_bond_atom_site_label_1
_geom_bond_atom_site_label_2
_geom_bond_distance
Co1 O1 2.1213(11)
Co1 O7 2.1006(12)
Co1 O8 2.0882(12)
Co1 O5 2.0646(12)
Co1 O6 2.0703(12)
Co1 O3 2.1192(11)
F2 C2 1.323(2)
F6 C4 1.332(2)
F4 C4 1.337(2)
F1 C2 1.3247(19)
F3 C2 1.335(2)
O2 C1 1.2309(19)
O1 C1 1.2611(18)
O4 C3 1.231(2)
C1 C2 1.552(2)
C3 C4 1.549(2)
C3 O3 1.2539(19)
C4 F5 1.322(2)
loop_
_twin_individual_id
_twin_individual_mass_fraction_refined
1 0.5106(6)
2 0.4894(6)
