#------------------------------------------------------------------------------
#$Date: 2019-11-24 03:20:29 +0200 (Sun, 24 Nov 2019) $
#$Revision: 236462 $
#$URL: file:///home/coder/svn-repositories/cod/cif/7/23/67/7236715.cif $
#------------------------------------------------------------------------------
#
# This file is available in the Crystallography Open Database (COD),
# http://www.crystallography.net/
#
# All data on this site have been placed in the public domain by the
# contributors.
#
data_7236715
loop_
_publ_author_name
'Lei, Yunxiang'
'Zhou, Yibin'
'Qian, Lebin'
'Wang, Yuxiang'
'Liu, Miaochang'
'Huang, Xiaobo'
'Wu, Ge'
'Wu, Huayue'
'Ding, Jinchang'
'Cheng, Yixiang'
_publ_section_title
;
 Polymorphism and mechanochromism of N-alkylated 1,4-dihydropyridine
 derivatives containing different electron-withdrawing end groups
;
_journal_issue                   21
_journal_name_full               'Journal of Materials Chemistry C'
_journal_page_first              5183
_journal_paper_doi               10.1039/C7TC00362E
_journal_volume                  5
_journal_year                    2017
_chemical_formula_sum            'C16 H14 O4'
_chemical_formula_weight         270.27
_space_group_crystal_system      triclinic
_space_group_IT_number           2
_space_group_name_Hall           '-P 1'
_space_group_name_H-M_alt        'P -1'
_atom_sites_solution_hydrogens   mixed
_audit_creation_method           SHELXL-2013
_audit_update_record
;
2016-08-08 deposited with the CCDC.
2017-05-09 downloaded from the CCDC.
;
_cell_angle_alpha                78.510(5)
_cell_angle_beta                 87.882(5)
_cell_angle_gamma                83.349(4)
_cell_formula_units_Z            2
_cell_length_a                   5.0293(11)
_cell_length_b                   9.305(2)
_cell_length_c                   14.420(3)
_cell_measurement_reflns_used    1141
_cell_measurement_temperature    293(2)
_cell_measurement_theta_max      56.140
_cell_measurement_theta_min      4.495
_cell_volume                     656.8(2)
_computing_cell_refinement       'Bruker SMART'
_computing_data_collection       'Bruker SMART'
_computing_data_reduction        'Bruker SHELXTL'
_computing_molecular_graphics    'Bruker SHELXTL'
_computing_publication_material  'Bruker SHELXTL'
_computing_structure_refinement  'SHELXL-2013 (Sheldrick, 2013)'
_computing_structure_solution    'Bruker SHELXTL'
_diffrn_ambient_temperature      293(2)
_diffrn_measured_fraction_theta_full 0.996
_diffrn_measured_fraction_theta_max 0.995
_diffrn_measurement_device_type  'CCD area detector'
_diffrn_measurement_method       'phi and omega scans'
_diffrn_radiation_type           MoK\a
_diffrn_radiation_wavelength     0.71073
_diffrn_reflns_av_R_equivalents  0.0262
_diffrn_reflns_av_unetI/netI     0.0435
_diffrn_reflns_Laue_measured_fraction_full 0.996
_diffrn_reflns_Laue_measured_fraction_max 0.995
_diffrn_reflns_limit_h_max       6
_diffrn_reflns_limit_h_min       -6
_diffrn_reflns_limit_k_max       11
_diffrn_reflns_limit_k_min       -11
_diffrn_reflns_limit_l_max       17
_diffrn_reflns_limit_l_min       -15
_diffrn_reflns_number            3806
_diffrn_reflns_point_group_measured_fraction_full 0.996
_diffrn_reflns_point_group_measured_fraction_max 0.995
_diffrn_reflns_theta_full        25.242
_diffrn_reflns_theta_max         25.499
_diffrn_reflns_theta_min         2.247
_exptl_absorpt_coefficient_mu    0.098
_exptl_absorpt_correction_T_max  0.7456
_exptl_absorpt_correction_T_min  0.6154
_exptl_absorpt_correction_type   multi-scan
_exptl_absorpt_process_details   sadabs
_exptl_crystal_colour            colorless
_exptl_crystal_density_diffrn    1.367
_exptl_crystal_description       prismatic
_exptl_crystal_F_000             284
_exptl_crystal_size_max          0.220
_exptl_crystal_size_mid          0.100
_exptl_crystal_size_min          0.060
_refine_diff_density_max         0.191
_refine_diff_density_min         -0.211
_refine_diff_density_rms         0.045
_refine_ls_extinction_coef       0.014(5)
_refine_ls_extinction_expression Fc^*^=kFc[1+0.001xFc^2^\l^3^/sin(2\q)]^-1/4^
_refine_ls_extinction_method     SHELXL
_refine_ls_goodness_of_fit_ref   1.088
_refine_ls_hydrogen_treatment    mixed
_refine_ls_matrix_type           full
_refine_ls_number_parameters     192
_refine_ls_number_reflns         2432
_refine_ls_number_restraints     2
_refine_ls_restrained_S_all      1.088
_refine_ls_R_factor_all          0.0679
_refine_ls_R_factor_gt           0.0544
_refine_ls_shift/su_max          0.000
_refine_ls_shift/su_mean         0.000
_refine_ls_structure_factor_coef Fsqd
_refine_ls_weighting_details
'w=1/[\s^2^(Fo^2^)+(0.0652P)^2^+0.1930P] where P=(Fo^2^+2Fc^2^)/3'
_refine_ls_weighting_scheme      calc
_refine_ls_wR_factor_gt          0.1350
_refine_ls_wR_factor_ref         0.1447
_reflns_Friedel_coverage         0.000
_reflns_number_gt                1973
_reflns_number_total             2432
_reflns_threshold_expression     'I > 2\s(I)'
_cod_data_source_file            c7tc00362e2.cif
_cod_data_source_block           cd16212
_cod_database_code               7236715
_shelx_space_group_comment
; 
The symmetry employed for this shelxl refinement is uniquely defined 
by the following loop, which should always be used as a source of 
symmetry information in preference to the above space-group names. 
They are only intended as comments. 
;
_shelx_estimated_absorpt_t_min   0.979
_shelx_estimated_absorpt_t_max   0.994
_shelxl_version_number           2013-4
_shelx_res_file
; 
TITL cd16212 in P-1 
CELL 0.71073   5.0293   9.3051  14.4202  78.510  87.882  83.349 
ZERR    2.00   0.0011   0.0020   0.0030   0.005   0.005   0.004 
LATT 1 
SFAC C  H  O 
UNIT 32 28 8 
OMIT  -3.00  51.00 
L.S. 10 
ACTA 
BOND $H 
FMAP 2 
PLAN 20 
HTAB O4 O1 
HTAB C16 O2_$1 
EQIV $1 -x+1, -y, -z 
HTAB C14 O2 
HTAB C11 O1 
size 0.22 0.10 0.06 
dfix 0.82 0.02 o4 h4a o4 h4b 
wpdb -1 
mpla o3 c10 > c14 
mpla  c1 > c9 
htab 
conf 
WGHT    0.065200    0.193000 
EXTI    0.014461 
FVAR       0.22529 
MOLE 1 
O1    3    0.346324    0.207691    0.388031    11.00000    0.04660    0.05141 = 
         0.03817   -0.01740   -0.00335    0.01021 
O2    3    0.334288    0.175008    0.064704    11.00000    0.04807    0.06724 = 
         0.03795   -0.01937   -0.00525    0.01529 
O3    3    1.100577   -0.164917    0.268669    11.00000    0.03340    0.03800 = 
         0.04662   -0.01289   -0.00472    0.00705 
O4    3    0.266343    0.434169    0.497931    11.00000    0.05600    0.07954 = 
         0.12394   -0.06732   -0.00522    0.00196 
C1    1    0.291515    0.223745    0.303701    11.00000    0.03058    0.03528 = 
         0.03610   -0.01013    0.00068   -0.00223 
C2    1    0.422709    0.148190    0.232277    11.00000    0.02735    0.03514 = 
         0.03694   -0.00927   -0.00075    0.00042 
C3    1    0.284513    0.205805    0.142658    11.00000    0.03102    0.03858 = 
         0.03828   -0.01208    0.00031   -0.00021 
C4    1    0.061422    0.316805    0.162235    11.00000    0.02949    0.03297 = 
         0.04090   -0.00741    0.00086   -0.00009 
C5    1    0.066692    0.328986    0.256223    11.00000    0.03254    0.03411 = 
         0.04080   -0.00989    0.00135    0.00186 
C6    1   -0.119659    0.425036    0.292587    11.00000    0.04179    0.04954 = 
         0.04734   -0.01768    0.00145    0.00685 
AFIX  43 
H6    2   -0.117979    0.432254    0.355961    11.00000   -1.20000 
AFIX   0 
C7    1   -0.308921    0.510169    0.231663    11.00000    0.04161    0.04691 = 
         0.06225   -0.01809    0.00092    0.01450 
AFIX  43 
H7    2   -0.434740    0.576788    0.254233    11.00000   -1.20000 
AFIX   0 
C8    1   -0.313980    0.497839    0.138142    11.00000    0.03903    0.04675 = 
         0.05799   -0.00610   -0.00813    0.01309 
AFIX  43 
H8    2   -0.443418    0.556188    0.098673    11.00000   -1.20000 
AFIX   0 
C9    1   -0.129432    0.399931    0.101767    11.00000    0.03744    0.04392 = 
         0.04465   -0.00907   -0.00475    0.00360 
AFIX  43 
H9    2   -0.134291    0.390701    0.038827    11.00000   -1.20000 
AFIX   0 
C10   1    0.646834    0.043007    0.245194    11.00000    0.02731    0.03280 = 
         0.03900   -0.00983    0.00111   -0.00228 
C11   1    0.779689   -0.005560    0.333469    11.00000    0.03175    0.03915 = 
         0.03624   -0.01115   -0.00022    0.00036 
AFIX  43 
H11   2    0.714004    0.032862    0.385664    11.00000   -1.20000 
AFIX   0 
C12   1    0.997757   -0.105613    0.343118    11.00000    0.03392    0.03325 = 
         0.03916   -0.00637   -0.00126   -0.00343 
C13   1    0.982728   -0.121300    0.182802    11.00000    0.03369    0.03884 = 
         0.04503   -0.01491   -0.00258    0.00144 
C14   1    0.765443   -0.022402    0.169885    11.00000    0.03290    0.04238 = 
         0.03754   -0.01318   -0.00453    0.00210 
AFIX  43 
H14   2    0.689613    0.004460    0.110210    11.00000   -1.20000 
AFIX   0 
C15   1    1.156458   -0.162053    0.429952    11.00000    0.04385    0.05286 = 
         0.04576   -0.00375   -0.00814    0.00583 
AFIX 137 
H15A  2    1.314333   -0.112121    0.426248    11.00000   -1.50000 
H15B  2    1.207159   -0.266090    0.435660    11.00000   -1.50000 
H15C  2    1.050701   -0.144514    0.484205    11.00000   -1.50000 
AFIX   0 
C16   1    1.125771   -0.194612    0.110229    11.00000    0.04373    0.06032 = 
         0.05571   -0.02786   -0.00273    0.01436 
AFIX 137 
H16A  2    1.030072   -0.166729    0.051852    11.00000   -1.50000 
H16B  2    1.137087   -0.299705    0.131217    11.00000   -1.50000 
H16C  2    1.302879   -0.164926    0.100572    11.00000   -1.50000 
AFIX   0 
H4A   2    0.284754    0.369409    0.465870    11.00000    0.10112 
H4B   2    0.374219    0.474192    0.461782    11.00000    0.29295 
HKLF 4 
  
REM  cd16212 in P-1 
REM R1 =  0.0544 for    1973 Fo > 4sig(Fo)  and  0.0679 for all    2432 data 
REM    192 parameters refined using      2 restraints 
  
END 
  
WGHT      0.0651      0.1935 
  
REM Instructions for potential hydrogen bonds 
HTAB C11 O1 
HTAB C14 O2 
HTAB C16 O2_$1 
HTAB O4 O1 
  
REM Highest difference peak  0.191,  deepest hole -0.211,  1-sigma level  0.045 
Q1    1  -0.0027  0.2696  0.2204  11.00000  0.05    0.19 
Q2    1   0.3292  0.1408  0.2000  11.00000  0.05    0.17 
Q3    1   0.3732  0.2464  0.1018  11.00000  0.05    0.16 
Q4    1  -0.2254  0.3112  0.4276  11.00000  0.05    0.15 
Q5    1   0.7621  0.0427  0.1968  11.00000  0.05    0.15 
Q6    1   0.4865  0.0887  0.2408  11.00000  0.05    0.15 
Q7    1  -0.0604  0.3078  0.2966  11.00000  0.05    0.14 
Q8    1   0.0697  0.3979  0.2759  11.00000  0.05    0.14 
Q9    1   0.8137 -0.1250  0.1939  11.00000  0.05    0.14 
Q10   1   0.2749  0.4737  0.4339  11.00000  0.05    0.14 
Q11   1  -0.0512  0.4212  0.0246  11.00000  0.05    0.14 
Q12   1   0.8307 -0.1075  0.3414  11.00000  0.05    0.14 
Q13   1   0.3290  0.1467  0.2705  11.00000  0.05    0.14 
Q14   1   0.1891  0.2130  0.4520  11.00000  0.05    0.14 
Q15   1   0.1246  0.3649  0.2002  11.00000  0.05    0.13 
Q16   1   0.0636  0.4370  0.5134  11.00000  0.05    0.13 
Q17   1   1.2384 -0.1047  0.2435  11.00000  0.05    0.13 
Q18   1   0.9397 -0.0235  0.1745  11.00000  0.05    0.13 
Q19   1  -0.3064  0.6998  0.2261  11.00000  0.05    0.13 
Q20   1   1.0493 -0.2313  0.4731  11.00000  0.05    0.12 
;
_shelx_res_checksum              93589
_shelx_hkl_file
; 
  -1   0   0   68.16    2.19 
  -2   0   0   40.26    1.34 
  -3   0   0   29.78    1.05 
  -4   0   0    1.00    0.13 
   5   0   0    2.74    0.21 
   6   0   0   -0.06    0.08 
   6  -1   0    0.69    0.14 
   5  -1   0   12.71    0.57 
   4  -1   0   10.16    0.45 
   3  -1   0    0.70    0.10 
   2  -1   0   80.76    2.62 
   1  -1   0   29.60    0.97 
   0  -1   0   26.43    0.85 
   0   1   0   26.57    0.82 
  -1  -1   0   29.42    0.97 
   1   1   0   29.49    0.92 
  -2  -1   0  110.02    3.54 
  -3  -1   0    8.31    0.36 
  -4  -1   0    2.71    0.19 
  -5  -1   0    0.04    0.07 
   5   1   0    0.20    0.06 
   6  -2   0    0.04    0.08 
   5  -2   0    0.22    0.09 
   4  -2   0    0.88    0.12 
   3  -2   0    1.75    0.13 
   2  -2   0   63.93    2.09 
   1  -2   0    3.54    0.16 
   0  -2   0    0.01    0.02 
   0   2   0    0.02    0.01 
  -1  -2   0    5.33    0.23 
   1   2   0    5.43    0.21 
  -2  -2   0    0.62    0.07 
   2   2   0    0.66    0.07 
  -3  -2   0    0.13    0.05 
   3   2   0    0.16    0.05 
  -4  -2   0    4.51    0.26 
   4   2   0    4.77    0.24 
  -5  -2   0    1.70    0.19 
   5   2   0    1.89    0.14 
  -6  -2   0    0.39    0.12 
   6  -3   0    0.34    0.12 
   5  -3   0    7.66    0.40 
   4  -3   0    0.20    0.07 
   3  -3   0   15.48    0.60 
   2  -3   0    1.99    0.13 
   1  -3   0    0.73    0.07 
   0  -3   0  131.21    4.14 
   0   3   0  128.96    3.96 
  -1  -3   0   33.59    1.12 
   1   3   0   33.61    1.06 
  -2  -3   0    0.88    0.09 
   2   3   0    0.83    0.05 
   2   3   0    0.93    0.08 
  -3  -3   0    1.44    0.13 
   3   3   0    1.85    0.12 
  -4  -3   0    6.88    0.34 
   4   3   0    6.19    0.30 
  -5  -3   0    0.11    0.07 
   5   3   0    0.08    0.05 
  -6  -3   0    1.63    0.21 
   6  -4   0   -0.06    0.09 
   5  -4   0    0.45    0.12 
   4  -4   0    0.15    0.07 
   3  -4   0   24.36    0.89 
   2  -4   0   11.81    0.46 
   1  -4   0   57.34    1.88 
   0  -4   0    0.03    0.02 
  -1  -4   0   10.62    0.40 
   1   4   0   10.80    0.39 
  -2  -4   0  267.00    8.51 
   2   4   0  267.51    8.13 
  -3  -4   0    5.61    0.28 
   3   4   0    5.52    0.20 
   3   4   0    5.41    0.25 
  -4  -4   0    1.85    0.18 
   4   4   0    1.71    0.15 
  -5  -4   0    1.55    0.19 
   5   4   0    1.56    0.15 
  -6  -4   0    0.08    0.07 
   5  -5   0    0.64    0.13 
   4  -5   0    3.47    0.24 
   3  -5   0   13.44    0.54 
   2  -5   0    5.74    0.27 
   1  -5   0    0.01    0.03 
   0  -5   0   27.32    0.94 
  -1  -5   0    9.35    0.37 
   1   5   0    9.57    0.36 
  -2  -5   0   38.20    1.32 
   2   5   0   38.69    1.25 
  -3  -5   0    0.44    0.09 
   3   5   0    0.33    0.07 
  -4  -5   0    0.75    0.13 
   4   5   0    0.76    0.10 
  -5  -5   0    0.84    0.14 
   5   5   0    0.96    0.12 
  -6  -5   0    0.09    0.07 
   5  -6   0    0.13    0.09 
   4  -6   0    0.15    0.07 
   3  -6   0    1.15    0.13 
   2  -6   0    3.50    0.20 
   1  -6   0    1.20    0.11 
   0  -6   0   22.54    0.80 
  -1  -6   0    0.36    0.03 
  -1  -6   0    0.30    0.06 
   1   6   0    0.40    0.07 
  -2  -6   0    0.15    0.05 
   2   6   0    0.09    0.04 
  -3  -6   0    4.13    0.25 
   3   6   0    4.10    0.22 
  -4  -6   0    0.47    0.10 
   4   6   0    0.31    0.07 
  -5  -6   0    0.12    0.07 
   5   6   0    0.12    0.06 
   5  -7   0    3.72    0.28 
   4  -7   0    0.28    0.09 
   3  -7   0    5.79    0.31 
   2  -7   0    0.58    0.10 
   1  -7   0    7.33    0.33 
   0  -7   0    0.72    0.10 
  -1  -7   0    0.67    0.10 
   1   7   0    0.65    0.10 
  -2  -7   0    0.67    0.11 
   2   7   0    0.97    0.11 
  -3  -7   0    2.54    0.19 
   3   7   0    2.83    0.18 
  -4  -7   0    0.04    0.06 
   4   7   0    0.08    0.04 
  -5  -7   0    0.14    0.08 
   5   7   0    0.00    0.04 
   4  -8   0    0.02    0.06 
   3  -8   0    0.22    0.07 
   2  -8   0    1.26    0.14 
   1  -8   0    4.93    0.26 
   0  -8   0    0.70    0.11 
  -1  -8   0    2.07    0.17 
   1   8   0    2.26    0.16 
  -2  -8   0    0.41    0.10 
   2   8   0    0.38    0.07 
  -3  -8   0    0.40    0.10 
   3   8   0    0.59    0.10 
  -4  -8   0    4.81    0.30 
   4   8   0    4.21    0.26 
  -5  -8   0    0.24    0.09 
   5   8   0    0.02    0.05 
   3  -9   0    0.57    0.12 
   2  -9   0    1.39    0.16 
   1  -9   0    0.99    0.14 
   0  -9   0    0.35    0.09 
  -1  -9   0    1.13    0.15 
  -2  -9   0    0.25    0.09 
   2   9   0    0.09    0.05 
  -3  -9   0    0.44    0.12 
   3   9   0    0.47    0.09 
  -4  -9   0    4.20    0.29 
   4   9   0    4.20    0.26 
  -5  -9   0    0.01    0.06 
   5   9   0    0.09    0.06 
   3 -10   0    0.60    0.13 
   2 -10   0    0.08    0.08 
   1 -10   0    2.26    0.21 
   0 -10   0    1.29    0.16 
  -1 -10   0    0.08    0.07 
  -2 -10   0    1.37    0.18 
   2  10   0    1.13    0.15 
  -3 -10   0    0.07    0.08 
   3  10   0    0.06    0.06 
  -4 -10   0    0.08    0.07 
   4  10   0    0.03    0.06 
   2 -11   0   -0.01    0.07 
   1 -11   0    0.81    0.15 
   0 -11   0    1.40    0.18 
  -1 -11   0    0.48    0.12 
  -2 -11   0    0.24    0.09 
  -3 -11   0    0.24    0.11 
   3  11   0    0.07    0.07 
   0 -12   0    0.17    0.09 
  -1 -12   0    0.52    0.12 
  -1 -12   1    0.66    0.13 
  -3 -11   1    0.05    0.07 
  -2 -11   1    0.33    0.10 
  -1 -11   1    0.20    0.09 
   0 -11   1    0.59    0.12 
   1 -11   1    0.79    0.14 
   2 -11   1    0.21    0.08 
   4  10  -1    0.17    0.09 
  -4 -10   1    0.18    0.07 
   3  10  -1    0.26    0.07 
  -3 -10   1    0.03    0.07 
  -2 -10   1    0.72    0.14 
  -1 -10   1    0.22    0.09 
   0 -10   1    2.47    0.20 
   1 -10   1    0.41    0.11 
   2 -10   1    0.04    0.07 
   3 -10   1    0.01    0.07 
   4   9  -1    0.50    0.10 
  -4  -9   1    0.62    0.13 
   3   9  -1    0.29    0.08 
  -3  -9   1    0.42    0.11 
   2   9  -1    0.04    0.05 
  -2  -9   1    0.15    0.08 
  -1  -9   1    0.23    0.08 
   0  -9   1    3.61    0.23 
   1  -9   1    0.88    0.13 
   2  -9   1    3.85    0.25 
   3  -9   1    0.35    0.09 
   5   8  -1   -0.06    0.05 
  -5  -8   1    0.11    0.06 
   4   8  -1    1.48    0.16 
  -4  -8   1    1.62    0.20 
   3   8  -1    0.04    0.04 
  -3  -8   1   -0.04    0.06 
   2   8  -1    0.16    0.06 
  -2  -8   1    0.20    0.08 
  -1  -8   1    6.90    0.34 
   0  -8   1    0.35    0.08 
   1  -8   1    2.13    0.17 
   2  -8   1    0.65    0.11 
   3  -8   1    0.06    0.06 
   4  -8   1    0.42    0.10 
   5   7  -1    0.11    0.05 
  -5  -7   1    0.22    0.08 
   4   7  -1    0.08    0.04 
  -4  -7   1    0.08    0.07 
   3   7  -1    8.01    0.37 
  -3  -7   1    8.95    0.42 
   2   7  -1    1.73    0.13 
  -2  -7   1    1.96    0.16 
   1   7  -1    4.00    0.21 
  -1  -7   1    3.82    0.22 
   0  -7   1    0.03    0.04 
   1  -7   1    2.61    0.17 
   2  -7   1   10.31    0.44 
   3  -7   1    2.64    0.19 
   4  -7   1    0.42    0.10 
  -6  -6   1    0.61    0.11 
   5   6  -1    0.60    0.10 
  -5  -6   1    0.53    0.12 
   4   6  -1    1.15    0.12 
  -4  -6   1    1.41    0.18 
   3   6  -1   60.89    1.91 
  -3  -6   1   57.89    2.03 
   2   6  -1    3.49    0.19 
  -2  -6   1    3.52    0.21 
   1   6  -1   -0.01    0.03 
  -1  -6   1    0.02    0.03 
  -1  -6   1    0.09    0.02 
   0  -6   1   16.87    0.63 
   1  -6   1    3.02    0.17 
   2  -6   1   16.89    0.64 
   3  -6   1    0.48    0.09 
   4  -6   1    0.20    0.07 
   5  -6   1    0.06    0.08 
  -6  -5   1   -0.06    0.06 
   5   5  -1    1.41    0.14 
  -5  -5   1    1.62    0.19 
   4   5  -1    0.54    0.08 
  -4  -5   1    0.36    0.09 
   3   5  -1    0.49    0.08 
  -3  -5   1    0.39    0.09 
   2   5  -1    8.81    0.34 
  -2  -5   1    8.04    0.36 
   1   5  -1   29.85    1.00 
  -1  -5   1   30.02    1.05 
  -1  -5   1   31.21    0.92 
   0  -5   1    1.71    0.11 
   1  -5   1    1.26    0.10 
   2  -5   1    9.17    0.38 
   3  -5   1    0.09    0.05 
   4  -5   1    8.58    0.41 
   5  -5   1    0.25    0.09 
  -6  -4   1    0.46    0.11 
   5   4  -1    1.32    0.13 
  -5  -4   1    1.07    0.16 
   4   4  -1    0.60    0.09 
  -4  -4   1    0.63    0.12 
   3   4  -1    0.16    0.04 
  -3  -4   1    0.11    0.05 
   2   4  -1    5.70    0.24 
  -2  -4   1    5.51    0.27 
   1   4  -1    1.79    0.10 
  -1  -4   1    1.46    0.11 
   0  -4   1    0.24    0.05 
   1  -4   1   56.27    1.84 
   2  -4   1    3.05    0.17 
   3  -4   1    0.51    0.09 
   4  -4   1    0.04    0.06 
   5  -4   1    0.08    0.07 
   6  -4   1    0.10    0.09 
  -6  -3   1    0.16    0.09 
   5   3  -1    0.54    0.09 
  -5  -3   1    0.45    0.11 
   4   3  -1    1.42    0.13 
  -4  -3   1    1.31    0.15 
   3   3  -1   15.32    0.54 
  -3  -3   1   14.73    0.59 
   2   3  -1    5.98    0.24 
  -2  -3   1    5.87    0.27 
   1   3  -1    9.05    0.33 
  -1  -3   1    9.45    0.35 
   0  -3   1    7.05    0.27 
   1  -3   1   42.17    1.38 
   2  -3   1    0.05    0.04 
   3  -3   1    9.75    0.41 
   4  -3   1   15.77    0.63 
   5  -3   1    0.67    0.12 
   6  -3   1    0.44    0.13 
  -6  -2   1    1.04    0.17 
   5   2  -1    0.21    0.06 
  -5  -2   1    0.28    0.10 
   4   2  -1    9.29    0.38 
  -4  -2   1    9.13    0.43 
   3   2  -1    4.24    0.20 
  -3  -2   1    4.13    0.23 
   2   2  -1   10.28    0.36 
  -2  -2   1   10.06    0.40 
   1   2  -1  890.86   28.05 
  -1  -2   1 1000.00   29.40 
  -1  -2   1  899.54   27.79 
   0  -2   1   83.42    2.66 
   1  -2   1   28.34    0.93 
   2  -2   1   22.25    0.77 
   3  -2   1    0.77    0.10 
   4  -2   1    4.62    0.25 
   5  -2   1    0.10    0.07 
   6  -2   1    0.25    0.10 
  -6  -1   1    7.03    0.41 
   5   1  -1    4.64    0.24 
  -5  -1   1    4.81    0.30 
   4   1  -1    0.64    0.09 
  -4  -1   1    0.60    0.11 
   3   1  -1   22.62    0.77 
  -3  -1   1   23.38    0.84 
   2   1  -1   19.55    0.64 
  -2  -1   1   19.51    0.69 
   1   1  -1   19.35    0.60 
  -1  -1   1   18.97    0.58 
  -1  -1   1   18.68    0.64 
   0  -1   1   45.74    1.46 
   1  -1   1  102.10    3.25 
   2  -1   1   13.55    0.49 
   3  -1   1    1.96    0.14 
   4  -1   1    0.01    0.05 
   5  -1   1    0.30    0.09 
   6  -1   1    1.00    0.17 
   6   0  -1    0.41    0.13 
  -5   0   1    0.07    0.08 
  -4   0   1    0.55    0.11 
  -3   0   1   17.32    0.66 
  -2   0   1    7.32    0.30 
  -1   0   1    1.41    0.08 
  -1   0   1    1.35    0.07 
  -1   0  -1    0.03    0.01 
  -2   0  -1    0.26    0.05 
  -3   0  -1    9.60    0.40 
  -4   0  -1    4.46    0.25 
   5   0   1    2.29    0.20 
   6   0   1    0.48    0.12 
   6  -1  -1    1.65    0.20 
   5  -1  -1    0.05    0.06 
   4  -1  -1    3.83    0.24 
  -3   1   1    0.19    0.06 
  -2   1   1    0.30    0.06 
   1  -1  -1   47.62    1.55 
   0  -1  -1   48.53    1.54 
   0   1   1   48.03    1.48 
   0   1   1   48.30    1.45 
  -2  -1  -1    0.64    0.07 
  -3  -1  -1   14.34    0.55 
  -4  -1  -1    0.31    0.08 
  -5  -1  -1    2.24    0.21 
   6   1   1    1.77    0.20 
   6  -2  -1    0.24    0.11 
   5  -2  -1    0.27    0.09 
   4  -2  -1    9.06    0.42 
   3  -2  -1    5.27    0.27 
   2  -2  -1   27.79    0.96 
   1  -2  -1    1.57    0.09 
   0  -2  -1   35.84    1.15 
   0   2   1   36.34    1.08 
   0   2   1   35.02    1.11 
  -1  -2  -1  513.50   16.52 
   1   2   1  519.02   15.80 
   1   2   1  536.91   15.54 
  -2  -2  -1   13.55    0.49 
   2   2   1   13.22    0.47 
   2   2   1   13.40    0.44 
  -3  -2  -1    0.08    0.04 
   3   2   1    0.11    0.04 
  -4  -2  -1    2.68    0.18 
   4   2   1    2.45    0.17 
  -5  -2  -1    0.11    0.07 
   5   2   1    0.07    0.04 
   5   2   1    0.10    0.04 
   6  -3  -1    0.24    0.12 
   5  -3  -1    0.75    0.14 
   4  -3  -1   11.13    0.49 
   3  -3  -1    6.59    0.32 
   2  -3  -1    0.97    0.10 
   1  -3  -1   30.18    1.01 
   0  -3  -1    7.64    0.28 
   0   3   1    7.71    0.27 
  -1  -3  -1  119.02    3.77 
   1   3   1  117.81    3.61 
   1   3   1  117.67    3.53 
  -2  -3  -1    0.09    0.03 
   2   3   1    0.09    0.02 
   2   3   1    0.11    0.04 
  -3  -3  -1    0.09    0.05 
   3   3   1    0.15    0.04 
   3   3   1    0.13    0.04 
  -4  -3  -1    0.94    0.12 
   4   3   1    1.06    0.12 
   4   3   1    1.00    0.09 
  -5  -3  -1    0.23    0.08 
   5   3   1    0.11    0.04 
   6  -4  -1    0.14    0.11 
   5  -4  -1    0.27    0.09 
   4  -4  -1    2.53    0.19 
   3  -4  -1    0.36    0.08 
   2  -4  -1    2.15    0.14 
   1  -4  -1   22.77    0.79 
   0  -4  -1   -0.01    0.02 
   0   4   1    0.03    0.02 
  -1  -4  -1    0.65    0.06 
   1   4   1    0.71    0.07 
  -2  -4  -1   14.61    0.54 
   2   4   1   14.19    0.51 
  -3  -4  -1    0.86    0.10 
   3   4   1    0.92    0.10 
   3   4   1    0.94    0.06 
  -4  -4  -1    0.73    0.12 
   4   4   1    0.66    0.10 
  -5  -4  -1    0.23    0.08 
   5   4   1    0.04    0.04 
   5  -5  -1    0.13    0.08 
   4  -5  -1    2.13    0.20 
   3  -5  -1    2.22    0.17 
   2  -5  -1    1.75    0.13 
   1  -5  -1    2.02    0.13 
   0  -5  -1    4.66    0.21 
   0   5   1    4.54    0.20 
  -1  -5  -1    0.01    0.03 
   1   5   1    0.08    0.03 
  -2  -5  -1   11.47    0.46 
   2   5   1   11.85    0.44 
  -3  -5  -1    0.22    0.07 
   3   5   1    0.29    0.06 
  -4  -5  -1    0.14    0.06 
   4   5   1    0.11    0.04 
  -5  -5  -1    0.93    0.15 
   5   5   1    1.15    0.14 
   6   5   1    0.02    0.05 
   5  -6  -1    0.12    0.08 
   4  -6  -1    0.03    0.06 
   3  -6  -1    2.80    0.19 
   2  -6  -1    3.55    0.21 
   1  -6  -1    0.05    0.04 
   0  -6  -1    0.27    0.06 
  -1  -6  -1    0.13    0.05 
   1   6   1    0.17    0.05 
  -2  -6  -1    4.36    0.22 
   2   6   1    3.69    0.20 
  -3  -6  -1    8.31    0.38 
   3   6   1    7.84    0.35 
  -4  -6  -1    0.05    0.05 
   4   6   1    0.02    0.03 
  -5  -6  -1    0.48    0.11 
   5   6   1    0.30    0.07 
   6   6   1    0.43    0.10 
   5  -7  -1    0.73    0.15 
   4  -7  -1    0.14    0.08 
   3  -7  -1    0.47    0.10 
   2  -7  -1    1.59    0.14 
   1  -7  -1    0.24    0.07 
   0  -7  -1    3.08    0.18 
  -1  -7  -1    0.28    0.07 
   1   7   1    0.27    0.07 
  -2  -7  -1    0.22    0.07 
   2   7   1    0.08    0.04 
  -3  -7  -1    6.87    0.35 
   3   7   1    7.36    0.34 
  -4  -7  -1    0.21    0.08 
   4   7   1    0.34    0.07 
  -5  -7  -1    0.11    0.07 
   5   7   1    0.09    0.05 
   4  -8  -1    0.16    0.08 
   3  -8  -1    0.00    0.05 
   2  -8  -1    3.90    0.24 
   1  -8  -1    0.39    0.08 
   0  -8  -1    0.62    0.10 
  -1  -8  -1    1.58    0.15 
   1   8   1    1.44    0.14 
  -2  -8  -1    0.11    0.06 
   2   8   1    0.07    0.04 
  -3  -8  -1    0.01    0.06 
   3   8   1    0.05    0.04 
  -4  -8  -1    1.47    0.18 
   4   8   1    1.16    0.15 
  -5  -8  -1    0.05    0.06 
   5   8   1   -0.01    0.05 
   3  -9  -1    0.43    0.11 
   2  -9  -1    0.72    0.12 
   1  -9  -1    4.83    0.27 
   0  -9  -1   -0.01    0.05 
  -1  -9  -1    0.13    0.07 
  -2  -9  -1    0.76    0.13 
   2   9   1    0.67    0.11 
  -3  -9  -1    0.01    0.07 
   3   9   1    0.07    0.05 
  -4  -9  -1    0.23    0.09 
   4   9   1    0.45    0.10 
  -5  -9  -1   -0.02    0.07 
   5   9   1    0.13    0.07 
   3 -10  -1    0.25    0.09 
   2 -10  -1    0.07    0.06 
   1 -10  -1    0.49    0.10 
   0 -10  -1    0.52    0.11 
  -1 -10  -1    0.39    0.10 
  -2 -10  -1    0.08    0.07 
   2  10   1    0.06    0.05 
  -3 -10  -1    0.16    0.09 
   3  10   1    0.01    0.05 
  -4 -10  -1    0.09    0.08 
   4  10   1    0.09    0.07 
   2 -11  -1    0.06    0.07 
   1 -11  -1    0.17    0.07 
   0 -11  -1    0.11    0.07 
  -1 -11  -1    0.10    0.06 
  -2 -11  -1    0.63    0.13 
  -3 -11  -1    0.15    0.09 
   3  11   1    0.09    0.08 
   0 -12  -1    0.87    0.14 
  -1 -12  -1    0.16    0.08 
  -2 -12  -1    0.09    0.07 
  -3 -11   2    0.09    0.08 
  -2 -11   2    0.14    0.08 
  -1 -11   2    0.84    0.15 
   0 -11   2    0.81    0.16 
   1 -11   2    1.01    0.16 
   4  10  -2    0.05    0.07 
  -4 -10   2    0.07    0.06 
  -3 -10   2    0.11    0.07 
  -2 -10   2    1.41    0.18 
  -1 -10   2    0.05    0.07 
   0 -10   2    0.14    0.08 
   1 -10   2    0.38    0.10 
   2 -10   2    0.01    0.07 
   4   9  -2    1.75    0.18 
  -4  -9   2    1.75    0.21 
   3   9  -2    0.25    0.07 
  -3  -9   2    0.21    0.09 
  -2  -9   2    0.17    0.08 
  -1  -9   2    0.14    0.08 
   0  -9   2    0.77    0.13 
   1  -9   2    4.86    0.28 
   2  -9   2    0.64    0.12 
   3  -9   2    0.11    0.07 
  -5  -8   2    0.47    0.12 
   4   8  -2    8.90    0.40 
  -4  -8   2    8.62    0.46 
   3   8  -2    1.19    0.14 
  -3  -8   2    1.10    0.16 
   2   8  -2    0.04    0.03 
  -2  -8   2    0.01    0.05 
  -1  -8   2    1.58    0.16 
   0  -8   2    0.05    0.05 
   1  -8   2    4.48    0.24 
   1  -8   2    4.76    0.26 
   2  -8   2    0.80    0.12 
   3  -8   2    0.10    0.06 
   4  -8   2    0.40    0.10 
   5   7  -2    0.05    0.04 
  -5  -7   2    0.15    0.07 
   4   7  -2   -0.02    0.03 
  -4  -7   2    0.15    0.08 
   3   7  -2    1.06    0.12 
  -3  -7   2    1.29    0.16 
   2   7  -2    1.90    0.14 
  -2  -7   2    1.50    0.16 
  -1  -7   2    0.25    0.07 
   0  -7   2    0.04    0.03 
   0  -7   2    0.01    0.04 
   1  -7   2    1.44    0.14 
   2  -7   2    0.42    0.09 
   3  -7   2    2.60    0.19 
   4  -7   2    0.13    0.07 
  -5  -6   2    0.38    0.11 
   4   6  -2    0.12    0.04 
  -4  -6   2    0.01    0.05 
   3   6  -2    1.66    0.13 
  -3  -6   2    1.89    0.19 
   2   6  -2    0.90    0.10 
  -2  -6   2    0.87    0.12 
  -1  -6   2    0.07    0.01 
  -1  -6   2    0.02    0.04 
   0  -6   2    9.40    0.42 
   0  -6   2   11.51    0.38 
   1  -6   2    0.93    0.10 
   2  -6   2    1.50    0.13 
   3  -6   2    0.02    0.04 
   4  -6   2    0.14    0.07 
   5  -6   2    0.31    0.09 
  -6  -5   2    0.04    0.06 
  -5  -5   2    0.07    0.06 
   4   5  -2    0.51    0.08 
  -4  -5   2    0.64    0.13 
   3   5  -2    0.70    0.09 
  -3  -5   2    0.89    0.12 
   2   5  -2    2.02    0.13 
  -2  -5   2    2.00    0.14 
   1   5  -2    0.10    0.04 
  -1  -5   2    0.13    0.05 
  -1  -5   2    0.14    0.02 
   0  -5   2    1.37    0.09 
   0  -5   2    1.51    0.11 
   1  -5   2    0.37    0.06 
   2  -5   2    2.27    0.15 
   3  -5   2   11.24    0.47 
   4  -5   2    0.09    0.05 
   5  -5   2    0.27    0.09 
  -6  -4   2    0.27    0.08 
  -5  -4   2    1.90    0.21 
   4   4  -2    0.01    0.03 
  -4  -4   2    0.08    0.06 
   3   4  -2    2.27    0.14 
  -3  -4   2    2.41    0.18 
   2   4  -2  120.20    3.66 
  -2  -4   2  118.10    3.86 
   1   4  -2   15.36    0.53 
  -1  -4   2   14.78    0.56 
  -1  -4   2   15.42    0.47 
   0  -4   2    0.00    0.03 
   0  -4   2    0.02    0.02 
   1  -4   2    3.62    0.18 
   2  -4   2    0.03    0.04 
   3  -4   2    1.37    0.12 
   4  -4   2    0.85    0.12 
   5  -4   2    0.01    0.06 
  -6  -3   2    0.97    0.18 
  -5  -3   2    0.06    0.07 
   4   3  -2    1.31    0.10 
  -4  -3   2    1.35    0.16 
   3   3  -2    1.41    0.10 
  -3  -3   2    1.40    0.14 
   2   3  -2    4.23    0.18 
  -2  -3   2    3.65    0.20 
   1   3  -2    3.68    0.16 
  -1  -3   2    3.63    0.12 
  -1  -3   2    3.68    0.18 
   0  -3   2    0.72    0.07 
   1  -3   2    1.20    0.08 
   2  -3   2    1.60    0.11 
   3  -3   2    0.66    0.09 
   4  -3   2    0.53    0.09 
   5  -3   2    0.42    0.10 
  -6  -2   2    0.45    0.11 
  -5  -2   2    0.07    0.07 
   4   2  -2    2.75    0.16 
  -4  -2   2    2.86    0.21 
   3   2  -2    3.99    0.18 
  -3  -2   2    3.83    0.22 
   2   2  -2    0.13    0.03 
  -2  -2   2    0.03    0.03 
   1   2  -2    0.54    0.05 
  -1  -2   2    0.46    0.06 
  -1  -2   2    0.54    0.03 
   0  -2   2    2.30    0.10 
   1  -2   2    3.87    0.16 
   2  -2   2    4.42    0.20 
   3  -2   2    1.40    0.11 
   4  -2   2   12.06    0.50 
   5  -2   2    0.29    0.09 
  -6  -1   2    0.13    0.09 
  -5  -1   2    0.25    0.10 
   4   1  -2    0.81    0.09 
  -4  -1   2    0.80    0.13 
   3   1  -2    0.66    0.07 
  -3  -1   2    0.71    0.10 
   2   1  -2    0.68    0.05 
  -2  -1   2    0.61    0.08 
   1   1  -2   31.28    0.97 
  -1  -1   2   31.52    0.95 
  -1  -1   2   31.56    1.05 
   0  -1   2    8.64    0.30 
   0  -1   2    8.78    0.28 
   1  -1   2    0.27    0.03 
   2  -1   2    4.33    0.19 
   3  -1   2    0.12    0.06 
   4  -1   2    0.41    0.09 
   5  -1   2    2.40    0.19 
   6  -1   2    0.32    0.10 
   6   0  -2    0.65    0.16 
  -5   0   2    1.42    0.19 
  -4   0   2    0.09    0.06 
  -3   0   2    1.05    0.12 
  -2   0   2    2.16    0.14 
   1   0  -2   42.58    1.30 
  -1   0   2   42.31    1.39 
  -1   0   2   42.16    1.29 
   0   0   2  165.82    5.22 
   0   0   2  162.20    4.86 
   1   0   2    1.53    0.07 
   1   0   2    1.46    0.08 
   4   0   2    0.41    0.09 
   5   0   2    0.41    0.09 
   6   0   2    0.38    0.09 
   6  -1  -2    0.07    0.09 
   5  -1  -2    5.09    0.31 
  -4   1   2    0.81    0.13 
  -3   1   2    1.63    0.15 
  -2   1   2    3.43    0.19 
  -1   1   2    1.26    0.08 
  -1   1   2    1.12    0.07 
  -1  -1  -2   13.22    0.44 
   1   1   2   13.43    0.42 
   2   1   2   11.52    0.40 
  -3  -1  -2    1.75    0.12 
  -4  -1  -2    3.55    0.21 
  -5  -1  -2    0.43    0.10 
   5   1   2    0.47    0.09 
   6   1   2    1.03    0.14 
   6   1   2    0.99    0.15 
   6  -2  -2   -0.03    0.08 
   5  -2  -2    1.70    0.19 
   4  -2  -2    0.97    0.14 
   3  -2  -2    1.37    0.14 
   2  -2  -2   11.90    0.46 
   1  -2  -2    0.21    0.04 
  -1   2   2    0.13    0.04 
   0  -2  -2    6.04    0.22 
   0   2   2    5.90    0.21 
   0   2   2    5.98    0.21 
   1   2   2   58.16    1.67 
   1   2   2   53.48    1.73 
   2   2   2    1.67    0.11 
   2   2   2    1.67    0.09 
  -3  -2  -2    8.41    0.34 
   3   2   2    7.57    0.30 
  -4  -2  -2    0.29    0.07 
   4   2   2    0.19    0.06 
  -5  -2  -2    0.11    0.06 
   5   2   2    0.00    0.04 
   5   2   2    0.07    0.04 
   6   2   2    2.70    0.20 
   6  -3  -2    0.26    0.11 
   5  -3  -2    0.30    0.10 
   4  -3  -2    6.07    0.33 
   3  -3  -2    0.59    0.10 
   2  -3  -2    2.05    0.14 
   1  -3  -2   14.07    0.51 
   0  -3  -2   13.68    0.47 
   0   3   2   13.27    0.44 
   0   3   2   13.75    0.45 
  -1  -3  -2   33.02    1.08 
   1   3   2   32.89    1.05 
   1   3   2   33.31    1.00 
  -2  -3  -2    1.91    0.12 
   2   3   2    1.98    0.13 
   2   3   2    2.11    0.09 
  -3  -3  -2    0.09    0.04 
   3   3   2    0.16    0.04 
   3   3   2    0.14    0.05 
  -4  -3  -2    0.96    0.12 
   4   3   2    1.01    0.10 
   4   3   2    0.73    0.11 
  -5  -3  -2    0.19    0.07 
   5   3   2    0.14    0.05 
   6   3   2    0.57    0.11 
   6  -4  -2    0.38    0.12 
   5  -4  -2    0.10    0.08 
   4  -4  -2    5.22    0.30 
   3  -4  -2    1.06    0.13 
   2  -4  -2   11.07    0.44 
   1  -4  -2    8.09    0.32 
   0  -4  -2    4.94    0.21 
   0   4   2    5.05    0.20 
   0   4   2    4.93    0.20 
  -1  -4  -2   21.69    0.75 
   1   4   2   22.05    0.68 
   1   4   2   22.25    0.73 
  -2  -4  -2    4.82    0.22 
   2   4   2    4.96    0.17 
   2   4   2    4.80    0.22 
  -3  -4  -2    1.17    0.11 
   3   4   2    1.23    0.13 
   3   4   2    1.25    0.07 
  -4  -4  -2    3.81    0.23 
   4   4   2    3.93    0.23 
  -5  -4  -2    1.48    0.17 
   5   4   2    1.32    0.15 
   6   4   2    0.24    0.08 
   5  -5  -2    0.15    0.09 
   4  -5  -2    0.32    0.09 
   3  -5  -2    3.41    0.22 
   2  -5  -2    0.54    0.08 
   1  -5  -2    5.44    0.25 
   0  -5  -2   31.05    1.05 
   0   5   2   31.34    1.01 
  -1  -5  -2    1.25    0.09 
   1   5   2    1.28    0.09 
   1   5   2    1.20    0.07 
  -2  -5  -2    1.61    0.11 
   2   5   2    1.47    0.11 
  -3  -5  -2    1.81    0.14 
   3   5   2    1.78    0.13 
  -4  -5  -2    0.13    0.05 
   4   5   2    0.03    0.04 
  -5  -5  -2    0.27    0.07 
   5   5   2    0.16    0.06 
   6   5   2    0.04    0.05 
   5  -6  -2    0.18    0.10 
   4  -6  -2    0.24    0.09 
   3  -6  -2    3.18    0.21 
   2  -6  -2    0.94    0.11 
   1  -6  -2    0.37    0.07 
   0  -6  -2    1.95    0.13 
   0   6   2    2.23    0.13 
  -1  -6  -2    0.91    0.09 
   1   6   2    0.98    0.10 
  -2  -6  -2    1.35    0.12 
   2   6   2    1.20    0.12 
  -3  -6  -2    1.25    0.13 
   3   6   2    1.45    0.14 
  -4  -6  -2    0.36    0.08 
   4   6   2    0.24    0.07 
  -5  -6  -2    0.20    0.08 
   5   6   2    0.25    0.07 
   6   6   2    0.03    0.06 
   5  -7  -2    2.35    0.25 
   4  -7  -2    1.47    0.18 
   3  -7  -2    0.26    0.08 
   2  -7  -2   13.27    0.54 
   1  -7  -2    1.44    0.13 
   0  -7  -2    0.05    0.04 
  -1  -7  -2    3.65    0.20 
   1   7   2    3.72    0.20 
  -2  -7  -2    0.27    0.07 
   2   7   2    0.24    0.06 
  -3  -7  -2    0.18    0.07 
   3   7   2    0.18    0.05 
  -4  -7  -2    0.04    0.06 
   4   7   2    0.02    0.04 
   5   7   2    0.09    0.06 
   4  -8  -2    0.42    0.12 
   3  -8  -2    0.23    0.08 
   2  -8  -2    1.33    0.14 
   1  -8  -2    1.01    0.12 
   0  -8  -2    3.03    0.19 
  -1  -8  -2    1.46    0.14 
   1   8   2    1.27    0.13 
  -2  -8  -2    1.53    0.15 
   2   8   2    1.53    0.15 
  -3  -8  -2    0.00    0.06 
   3   8   2    0.03    0.03 
  -4  -8  -2    0.22    0.08 
   4   8   2    0.19    0.07 
   5   8   2    0.10    0.07 
   4  -9  -2    0.27    0.10 
   3  -9  -2    0.78    0.13 
   2  -9  -2    0.93    0.13 
   1  -9  -2    0.38    0.09 
   0  -9  -2    0.03    0.05 
  -1  -9  -2    0.50    0.10 
   1   9   2    0.35    0.08 
  -2  -9  -2    1.70    0.17 
   2   9   2    1.62    0.17 
  -3  -9  -2    0.01    0.07 
   3   9   2   -0.03    0.03 
  -4  -9  -2    0.17    0.09 
   4   9   2    0.14    0.06 
   5   9   2    0.09    0.07 
   3 -10  -2    0.43    0.11 
   2 -10  -2    0.22    0.09 
   1 -10  -2    0.47    0.10 
   0 -10  -2    0.79    0.13 
  -1 -10  -2    0.09    0.07 
  -2 -10  -2    0.10    0.07 
   2  10   2   -0.01    0.04 
  -3 -10  -2    0.11    0.08 
   3  10   2    0.29    0.09 
  -4 -10  -2   -0.03    0.07 
   4  10   2    0.09    0.07 
   2 -11  -2    0.41    0.10 
   1 -11  -2    0.17    0.07 
   0 -11  -2    1.87    0.20 
  -1 -11  -2    0.44    0.11 
  -2 -11  -2    0.15    0.08 
   2  11   2    0.25    0.09 
  -3 -11  -2    0.19    0.08 
   3  11   2    0.52    0.12 
   0 -12  -2    0.05    0.06 
  -1 -12  -2    0.50    0.12 
  -2 -12  -2    0.29    0.09 
  -2 -11   3    0.09    0.08 
  -1 -11   3    0.41    0.11 
   0 -11   3    1.65    0.21 
   1 -11   3    0.05    0.08 
  -3 -10   3   -0.01    0.07 
  -2 -10   3    0.26    0.09 
  -1 -10   3    0.02    0.06 
   0 -10   3    0.68    0.14 
   1 -10   3    0.24    0.09 
   2 -10   3    0.06    0.07 
   4   9  -3   -0.03    0.04 
  -4  -9   3    0.22    0.07 
   3   9  -3    0.08    0.05 
  -3  -9   3    0.08    0.07 
  -2  -9   3   -0.02    0.06 
  -1  -9   3    0.19    0.08 
   0  -9   3    0.10    0.07 
   1  -9   3    0.58    0.11 
   2  -9   3    0.33    0.09 
   2  -9   3    0.34    0.09 
   3  -9   3    0.16    0.08 
   3  -9   3    0.26    0.08 
  -5  -8   3    0.07    0.06 
   4   8  -3    0.46    0.09 
  -4  -8   3    0.27    0.08 
   3   8  -3    0.33    0.07 
  -3  -8   3    0.20    0.09 
  -2  -8   3    0.43    0.11 
  -1  -8   3    1.44    0.16 
   0  -8   3    0.04    0.05 
   1  -8   3    4.39    0.24 
   1  -8   3    4.36    0.26 
   2  -8   3    0.07    0.05 
   2  -8   3    0.09    0.07 
   3  -8   3    0.36    0.09 
   3  -8   3    0.38    0.10 
   4  -8   3    0.34    0.09 
   4  -8   3    0.23    0.07 
  -5  -7   3   -0.07    0.06 
   4   7  -3    0.38    0.07 
  -4  -7   3    0.42    0.11 
   3   7  -3    0.43    0.08 
  -3  -7   3    0.33    0.11 
   2   7  -3    0.10    0.04 
  -2  -7   3    0.01    0.06 
  -1  -7   3    0.24    0.08 
   0  -7   3    0.20    0.04 
   0  -7   3    0.21    0.06 
   1  -7   3    0.10    0.05 
   1  -7   3    0.25    0.06 
   2  -7   3    4.99    0.27 
   3  -7   3    0.97    0.13 
   4  -7   3   -0.03    0.05 
  -5  -6   3    0.04    0.08 
   4   6  -3    0.52    0.08 
  -4  -6   3    0.43    0.11 
   3   6  -3    7.90    0.34 
  -3  -6   3    7.97    0.40 
   2   6  -3    1.07    0.11 
  -2  -6   3    0.92    0.12 
  -1  -6   3    1.01    0.12 
   0  -6   3    0.51    0.08 
   0  -6   3    0.46    0.06 
   1  -6   3    0.27    0.07 
   1  -6   3    0.35    0.07 
   2  -6   3    0.21    0.06 
   3  -6   3    1.36    0.14 
   4  -6   3    0.36    0.08 
   5  -6   3    1.38    0.18 
   5  -6   3    1.23    0.16 
  -6  -5   3    0.20    0.08 
  -5  -5   3    0.09    0.07 
   4   5  -3    0.12    0.04 
  -4  -5   3    0.01    0.05 
   3   5  -3    0.42    0.07 
  -3  -5   3    0.71    0.12 
   2   5  -3    0.20    0.05 
  -2  -5   3    0.20    0.06 
  -1  -5   3    2.09    0.15 
  -1  -5   3    2.22    0.09 
   0  -5   3    1.59    0.09 
   0  -5   3    1.78    0.12 
   1  -5   3    4.86    0.23 
   1  -5   3    4.95    0.23 
   2  -5   3    1.42    0.11 
   3  -5   3    0.38    0.08 
   4  -5   3    0.12    0.06 
   5  -5   3    0.88    0.14 
  -6  -4   3    0.18    0.07 
  -5  -4   3    0.80    0.15 
   4   4  -3    1.32    0.12 
  -4  -4   3    1.48    0.17 
   3   4  -3    0.49    0.07 
  -3  -4   3    0.51    0.10 
   2   4  -3    0.20    0.05 
  -2  -4   3    0.19    0.02 
  -2  -4   3    0.16    0.06 
  -1  -4   3    2.59    0.16 
  -1  -4   3    2.83    0.11 
   0  -4   3   16.14    0.58 
   1  -4   3    1.00    0.09 
   1  -4   3    0.98    0.09 
   2  -4   3    1.10    0.10 
   3  -4   3   22.61    0.82 
   4  -4   3   -0.01    0.05 
   5  -4   3    1.96    0.18 
  -6  -3   3    0.08    0.07 
  -5  -3   3    0.25    0.10 
   4   3  -3    0.24    0.05 
  -4  -3   3    0.15    0.07 
   3   3  -3    1.56    0.10 
  -3  -3   3    1.70    0.16 
   2   3  -3    3.66    0.16 
  -2  -3   3    3.70    0.14 
  -2  -3   3    3.57    0.20 
   1   3  -3    1.44    0.09 
  -1  -3   3    1.39    0.06 
  -1  -3   3    1.38    0.11 
   0  -3   3    0.26    0.05 
   0  -3   3    0.28    0.04 
   1  -3   3    1.59    0.10 
   1  -3   3    1.38    0.10 
   2  -3   3    0.86    0.08 
   3  -3   3    2.63    0.16 
   4  -3   3    2.35    0.17 
   5  -3   3    1.19    0.15 
   6  -3   3    0.06    0.09 
  -6  -2   3    0.16    0.09 
  -5  -2   3    0.23    0.09 
   4   2  -3    0.04    0.03 
  -4  -2   3    0.05    0.06 
   3   2  -3    0.29    0.05 
  -3  -2   3    0.23    0.07 
   2   2  -3   12.92    0.44 
  -2  -2   3   12.35    0.50 
  -2  -2   3   13.83    0.44 
   1   2  -3    1.78    0.09 
  -1  -2   3    1.75    0.08 
  -1  -2   3    1.99    0.12 
   0  -2   3    4.91    0.20 
   0  -2   3    5.03    0.18 
   1  -2   3   81.00    2.58 
   1  -2   3   79.87    2.44 
   2  -2   3    6.38    0.26 
   3  -2   3    0.79    0.09 
   4  -2   3    0.16    0.06 
   5  -2   3    1.73    0.17 
   6  -2   3    0.29    0.11 
  -6  -1   3    1.54    0.21 
  -5  -1   3    0.28    0.10 
   4   1  -3    1.37    0.10 
  -4  -1   3    1.34    0.16 
   3   1  -3   16.72    0.56 
  -3  -1   3   16.13    0.65 
   2   1  -3    4.06    0.16 
  -2  -1   3    4.27    0.18 
  -2  -1   3    4.16    0.21 
   1   1  -3    0.09    0.02 
  -1  -1   3    0.03    0.01 
  -1  -1   3    0.11    0.04 
   0  -1   3   26.24    0.86 
   0  -1   3   25.92    0.80 
   1  -1   3   27.74    0.88 
   1  -1   3   27.93    0.90 
   2  -1   3   26.99    0.87 
   2  -1   3   26.48    0.89 
   3  -1   3    9.16    0.36 
   4  -1   3    0.44    0.09 
   5  -1   3    1.64    0.16 
   5  -1   3    1.27    0.16 
   6  -1   3    0.00    0.06 
   6   0  -3    0.49    0.14 
  -5   0   3    2.19    0.23 
   4   0  -3    0.11    0.04 
  -4   0   3    0.24    0.08 
  -3   0   3    5.21    0.27 
   2   0  -3    7.07    0.25 
  -2   0   3    7.52    0.32 
  -2   0   3    6.90    0.28 
   1   0  -3   34.47    1.08 
  -1   0   3   35.17    1.16 
  -1   0   3   34.57    1.07 
   0   0   3   36.51    1.18 
   0   0   3   36.37    1.10 
   1   0   3   41.14    1.27 
   1   0   3   41.64    1.33 
   2   0   3   41.90    1.36 
   2   0   3   41.71    1.31 
   3   0   3    1.59    0.13 
   3   0   3    1.41    0.11 
   4   0   3    3.98    0.22 
   4   0   3    3.63    0.21 
   5   0   3    5.60    0.29 
   5   0   3    4.99    0.28 
   6   0   3    0.17    0.07 
   6  -1  -3    0.03    0.09 
   5  -1  -3    3.05    0.24 
  -4   1   3    1.54    0.18 
  -3   1   3    0.39    0.08 
  -2   1   3    8.01    0.34 
  -2   1   3    7.91    0.31 
  -1   1   3   13.73    0.49 
  -1   1   3   13.76    0.46 
   0  -1  -3   14.42    0.48 
  -1  -1  -3    2.04    0.08 
   1   1   3    2.09    0.10 
  -2  -1  -3    2.03    0.10 
   2   1   3    1.99    0.11 
  -3  -1  -3    0.02    0.02 
   3   1   3    0.04    0.04 
  -4  -1  -3    0.96    0.11 
   4   1   3    0.86    0.11 
   5   1   3    4.81    0.26 
   5   1   3    4.92    0.28 
   6   1   3    0.16    0.07 
   6  -2  -3   -0.03    0.08 
   5  -2  -3    2.56    0.23 
   4  -2  -3    0.35    0.10 
   3  -2  -3   13.13    0.54 
   2  -2  -3   11.29    0.45 
   1  -2  -3   19.95    0.69 
  -1   2   3   19.72    0.65 
   0  -2  -3   10.40    0.36 
   0   2   3   10.30    0.34 
   0   2   3   10.36    0.34 
  -1  -2  -3    0.44    0.04 
   1   2   3    0.49    0.04 
   1   2   3    0.44    0.06 
  -2  -2  -3    5.46    0.22 
   2   2   3    5.36    0.21 
  -3  -2  -3   16.25    0.62 
   3   2   3   18.28    0.59 
  -4  -2  -3    1.89    0.14 
   4   2   3    2.10    0.14 
   5   2   3    1.21    0.13 
   6   2   3    0.07    0.06 
   6  -3  -3    0.29    0.13 
   5  -3  -3    1.16    0.17 
   4  -3  -3    2.36    0.19 
   3  -3  -3    4.50    0.25 
   2  -3  -3    1.89    0.14 
   1  -3  -3  154.01    4.84 
  -1   3   3  148.85    4.54 
   0  -3  -3    2.91    0.13 
   0   3   3    3.11    0.13 
   0   3   3    2.85    0.13 
   1   3   3   21.51    0.66 
   1   3   3   21.30    0.71 
  -2  -3  -3    3.06    0.15 
   2   3   3    3.38    0.17 
   2   3   3    2.89    0.13 
   3   3   3    0.16    0.04 
   3   3   3    0.16    0.06 
  -4  -3  -3    2.38    0.16 
   4   3   3    2.26    0.14 
   4   3   3    2.50    0.17 
   5   3   3    0.09    0.05 
   6   3   3    0.05    0.05 
   6  -4  -3    0.46    0.14 
   5  -4  -3    0.11    0.08 
   4  -4  -3    0.38    0.10 
   3  -4  -3    9.64    0.43 
   2  -4  -3    0.02    0.04 
   1  -4  -3    2.80    0.15 
  -1   4   3    2.55    0.15 
   0  -4  -3   18.80    0.65 
   0   4   3   19.19    0.63 
   0   4   3   19.20    0.62 
  -1  -4  -3   10.81    0.39 
   1   4   3   10.52    0.39 
   1   4   3   10.74    0.35 
  -2  -4  -3    0.28    0.05 
   2   4   3    0.30    0.06 
   2   4   3    0.30    0.03 
  -3  -4  -3    1.88    0.13 
   3   4   3    2.02    0.10 
   3   4   3    2.01    0.15 
  -4  -4  -3    0.35    0.07 
   4   4   3    0.34    0.08 
   5   4   3    0.22    0.06 
   6   4   3    0.46    0.11 
   5  -5  -3    1.79    0.22 
   4  -5  -3    0.16    0.07 
   3  -5  -3   11.09    0.48 
   2  -5  -3    3.03    0.18 
   1  -5  -3    0.33    0.06 
   0  -5  -3    8.04    0.32 
   0   5   3    7.97    0.30 
   0   5   3    8.04    0.31 
  -1  -5  -3    0.01    0.02 
   1   5   3    0.02    0.02 
   1   5   3    0.07    0.02 
  -2  -5  -3    1.09    0.09 
   2   5   3    0.91    0.05 
   2   5   3    0.99    0.10 
  -3  -5  -3    0.14    0.05 
   3   5   3    0.08    0.05 
  -4  -5  -3    2.45    0.18 
   4   5   3    2.81    0.19 
   5   5   3    0.46    0.10 
   6   5   3    0.07    0.06 
   5  -6  -3    0.75    0.15 
   4  -6  -3    1.11    0.17 
   3  -6  -3    1.37    0.16 
   2  -6  -3    2.40    0.17 
   1  -6  -3    3.69    0.20 
   0  -6  -3    4.65    0.22 
   0   6   3    4.92    0.22 
  -1  -6  -3    4.28    0.21 
   1   6   3    4.19    0.21 
   1   6   3    4.36    0.18 
  -2  -6  -3    0.07    0.03 
   2   6   3    0.05    0.03 
  -3  -6  -3    0.14    0.05 
   3   6   3    0.10    0.05 
  -4  -6  -3    0.23    0.07 
   4   6   3    0.06    0.04 
   5   6   3    0.73    0.12 
   6   6   3   -0.02    0.06 
   5  -7  -3    0.56    0.15 
   4  -7  -3    1.99    0.21 
   3  -7  -3    3.28    0.22 
   2  -7  -3    1.12    0.13 
   1  -7  -3    0.51    0.09 
   0  -7  -3   -0.03    0.03 
   0   7   3    0.01    0.03 
  -1  -7  -3    6.97    0.32 
   1   7   3    7.55    0.32 
  -2  -7  -3    0.14    0.05 
   2   7   3    0.16    0.05 
  -3  -7  -3    0.61    0.10 
   3   7   3    0.49    0.09 
  -4  -7  -3    0.49    0.10 
   4   7   3    0.34    0.08 
   5   7   3    0.22    0.07 
   4  -8  -3    0.37    0.11 
   3  -8  -3    0.03    0.06 
   2  -8  -3   -0.01    0.05 
   1  -8  -3    9.02    0.40 
   0  -8  -3    0.21    0.06 
  -1  -8  -3    0.32    0.07 
   1   8   3    0.20    0.06 
  -2  -8  -3    2.85    0.19 
   2   8   3    2.55    0.18 
  -3  -8  -3    0.06    0.06 
   3   8   3    0.14    0.05 
  -4  -8  -3    0.21    0.08 
   4   8   3    0.08    0.05 
   5   8   3    0.07    0.06 
   4  -9  -3    0.06    0.08 
   3  -9  -3    1.28    0.16 
   2  -9  -3    0.04    0.06 
   1  -9  -3    2.17    0.17 
   0  -9  -3    1.27    0.14 
  -1  -9  -3    1.39    0.15 
   1   9   3    1.56    0.16 
  -2  -9  -3    1.57    0.16 
   2   9   3    1.37    0.15 
  -3  -9  -3   -0.01    0.06 
   3   9   3   -0.05    0.04 
  -4  -9  -3    0.11    0.08 
   4   9   3    0.09    0.07 
   5   9   3    0.06    0.07 
   3 -10  -3    0.26    0.09 
   2 -10  -3    0.35    0.09 
   1 -10  -3    0.09    0.06 
   0 -10  -3    1.23    0.15 
  -1 -10  -3    0.09    0.07 
   1  10   3    0.24    0.07 
  -2 -10  -3    0.50    0.11 
   2  10   3    0.52    0.10 
  -3 -10  -3    0.11    0.07 
   3  10   3    0.07    0.06 
   4  10   3    0.08    0.06 
   2 -11  -3    0.40    0.09 
   1 -11  -3    1.04    0.15 
   0 -11  -3    0.21    0.09 
  -1 -11  -3    0.13    0.08 
  -2 -11  -3    0.08    0.07 
   2  11   3    0.08    0.05 
  -3 -11  -3    0.16    0.08 
   3  11   3   -0.06    0.05 
   0 -12  -3    0.17    0.07 
  -1 -12  -3    1.78    0.21 
  -2 -12  -3    0.08    0.07 
  -2 -11   4    0.21    0.09 
  -1 -11   4    0.08    0.09 
   0 -11   4    0.32    0.12 
   1 -11   4    0.16    0.09 
  -3 -10   4    0.32    0.09 
  -2 -10   4    0.29    0.09 
  -1 -10   4    0.02    0.07 
   0 -10   4    2.68    0.24 
   1 -10   4    0.18    0.09 
   2 -10   4    0.40    0.11 
   4   9  -4    0.10    0.07 
  -4  -9   4    0.02    0.06 
  -3  -9   4   -0.02    0.07 
  -2  -9   4    0.11    0.08 
  -1  -9   4    0.04    0.06 
   0  -9   4    0.18    0.08 
   1  -9   4    0.73    0.12 
   2  -9   4    0.77    0.13 
   2  -9   4    0.83    0.13 
   3  -9   4    0.05    0.08 
   3  -9   4    0.12    0.07 
  -5  -8   4    0.10    0.07 
   4   8  -4    0.54    0.10 
  -4  -8   4    0.97    0.17 
  -3  -8   4    0.03    0.06 
  -2  -8   4    0.26    0.09 
  -1  -8   4    0.15    0.07 
   0  -8   4    0.04    0.05 
   1  -8   4   -0.02    0.05 
   1  -8   4    0.05    0.05 
   2  -8   4    0.80    0.12 
   2  -8   4    0.90    0.14 
   3  -8   4    0.56    0.11 
   3  -8   4    0.44    0.10 
   4  -8   4    2.03    0.22 
   4  -8   4    1.80    0.20 
  -5  -7   4    0.11    0.06 
   4   7  -4    0.12    0.04 
  -4  -7   4    0.10    0.08 
   3   7  -4    0.14    0.04 
  -3  -7   4    0.08    0.07 
  -2  -7   4    0.67    0.12 
  -1  -7   4    1.53    0.16 
   0  -7   4    0.95    0.09 
   0  -7   4    0.77    0.11 
   1  -7   4    0.91    0.11 
   1  -7   4    1.10    0.13 
   2  -7   4    0.14    0.06 
   2  -7   4    0.15    0.07 
   3  -7   4    0.27    0.08 
   3  -7   4    0.25    0.09 
   4  -7   4    0.51    0.10 
   4  -7   4    0.52    0.10 
  -5  -6   4    0.47    0.12 
   4   6  -4    0.15    0.05 
  -4  -6   4    0.13    0.08 
   3   6  -4   -0.02    0.03 
  -3  -6   4    0.07    0.06 
  -2  -6   4    0.64    0.11 
  -1  -6   4    6.90    0.33 
   0  -6   4    0.96    0.08 
   0  -6   4    0.60    0.09 
   1  -6   4    2.44    0.16 
   1  -6   4    2.23    0.15 
   2  -6   4   11.71    0.49 
   2  -6   4   12.38    0.50 
   3  -6   4    0.03    0.06 
   3  -6   4    0.15    0.06 
   4  -6   4    2.14    0.22 
   4  -6   4    1.98    0.16 
   5  -6   4    0.12    0.07 
  -6  -5   4    0.00    0.06 
  -5  -5   4    0.13    0.08 
   4   5  -4    0.24    0.05 
  -4  -5   4    0.28    0.09 
   3   5  -4    0.58    0.08 
  -3  -5   4    0.65    0.12 
   2   5  -4    0.06    0.03 
  -2  -5   4    0.03    0.05 
  -1  -5   4    1.00    0.11 
  -1  -5   4    1.09    0.06 
   0  -5   4    1.22    0.11 
   1  -5   4    0.91    0.10 
   1  -5   4    1.02    0.10 
   2  -5   4    8.61    0.38 
   2  -5   4    9.02    0.37 
   3  -5   4    0.35    0.10 
   3  -5   4    0.43    0.08 
   4  -5   4    0.35    0.10 
   4  -5   4    0.22    0.07 
   5  -5   4    0.17    0.09 
  -6  -4   4    0.07    0.06 
  -5  -4   4    0.00    0.06 
   4   4  -4    0.06    0.04 
  -4  -4   4    0.07    0.06 
   3   4  -4    0.25    0.05 
  -3  -4   4    0.17    0.07 
   2   4  -4    0.03    0.03 
  -2  -4   4    0.05    0.05 
  -2  -4   4    0.09    0.02 
  -1  -4   4    2.13    0.09 
  -1  -4   4    2.26    0.15 
   0  -4   4   16.81    0.60 
   0  -4   4   20.37    0.67 
   1  -4   4    3.34    0.17 
   1  -4   4    3.28    0.17 
   2  -4   4    1.67    0.12 
   2  -4   4    1.60    0.14 
   3  -4   4    0.09    0.04 
   3  -4   4    0.04    0.06 
   4  -4   4    1.83    0.20 
   4  -4   4    2.22    0.16 
   5  -4   4    0.94    0.16 
  -6  -3   4    1.24    0.19 
  -5  -3   4    0.71    0.14 
   4   3  -4    5.27    0.24 
  -4  -3   4    5.84    0.33 
   3   3  -4    1.02    0.08 
  -3  -3   4    1.35    0.15 
   2   3  -4    1.09    0.07 
  -2  -3   4    1.06    0.06 
  -2  -3   4    0.85    0.11 
  -1  -3   4    5.96    0.27 
  -1  -3   4    6.08    0.21 
   0  -3   4    2.82    0.15 
   0  -3   4    2.87    0.13 
   1  -3   4   26.46    0.89 
   1  -3   4   26.52    0.86 
   2  -3   4    1.44    0.13 
   2  -3   4    1.32    0.09 
   3  -3   4    0.49    0.10 
   3  -3   4    0.66    0.08 
   4  -3   4    1.09    0.12 
   4  -3   4    1.08    0.15 
   5  -3   4    0.18    0.08 
   6  -3   4    0.31    0.11 
  -6  -2   4    0.99    0.16 
  -5  -2   4    0.17    0.08 
  -4  -2   4    2.22    0.21 
   3   2  -4    5.68    0.22 
  -3  -2   4    5.55    0.30 
   2   2  -4    5.62    0.21 
  -2  -2   4    5.42    0.27 
  -2  -2   4    5.64    0.22 
  -1  -2   4    0.07    0.02 
  -1  -2   4    0.01    0.03 
   0  -2   4    9.58    0.32 
   0  -2   4    9.34    0.35 
   1  -2   4   38.67    1.22 
   1  -2   4   39.41    1.27 
   2  -2   4    5.64    0.26 
   2  -2   4    5.92    0.24 
   3  -2   4    9.19    0.37 
   3  -2   4    9.16    0.39 
   4  -2   4    2.31    0.20 
   4  -2   4    2.32    0.16 
   5  -2   4    0.18    0.07 
   6  -2   4    0.58    0.13 
  -6  -1   4    0.81    0.16 
  -5  -1   4    0.32    0.10 
  -4  -1   4    0.17    0.07 
   3   1  -4    0.43    0.05 
  -3  -1   4    0.32    0.08 
   2   1  -4    0.26    0.03 
  -2  -1   4    0.21    0.04 
  -2  -1   4    0.17    0.06 
  -1  -1   4    0.26    0.03 
  -1  -1   4    0.40    0.06 
   0  -1   4    0.30    0.04 
   0  -1   4    0.36    0.04 
   1  -1   4   17.31    0.57 
   1  -1   4   17.44    0.58 
   2  -1   4    0.11    0.04 
   2  -1   4    0.14    0.03 
   3  -1   4    1.31    0.13 
   3  -1   4    1.42    0.10 
   4  -1   4   15.80    0.61 
   4  -1   4   16.28    0.62 
   5  -1   4    0.06    0.06 
   6  -1   4    0.49    0.12 
  -6   0   4    0.52    0.12 
  -5   0   4    0.21    0.10 
  -4   0   4    0.75    0.13 
   3   0  -4    3.03    0.13 
  -3   0   4    2.82    0.19 
   2   0  -4    3.27    0.12 
  -2   0   4    3.32    0.19 
  -2   0   4    3.20    0.16 
  -1   0   4    1.19    0.09 
  -1   0   4    1.29    0.07 
   0   0   4    1.74    0.09 
   0   0   4    1.73    0.08 
   1   0   4    2.97    0.13 
   1   0   4    2.92    0.11 
   2   0   4   30.85    1.00 
   2   0   4   30.46    0.98 
   3   0   4    1.02    0.11 
   3   0   4    1.28    0.10 
   4   0   4    6.10    0.30 
   4   0   4    6.07    0.29 
   5   0   4    0.30    0.08 
   6   0   4    0.69    0.12 
   6  -1  -4    0.52    0.15 
  -5   1   4    0.35    0.11 
  -4   1   4    5.49    0.33 
  -3   1   4    0.48    0.09 
  -2   1   4   68.71    2.14 
  -2   1   4   70.10    2.29 
  -1   1   4    0.10    0.03 
  -1   1   4    0.08    0.04 
   0   1   4   42.64    1.38 
   0   1   4   42.98    1.30 
   1   1   4    4.71    0.18 
  -2  -1  -4    3.44    0.14 
   2   1   4    3.24    0.16 
  -3  -1  -4    4.13    0.19 
   3   1   4    4.10    0.20 
   4   1   4    2.05    0.15 
   4   1   4    2.09    0.15 
   5   1   4    0.16    0.06 
   6   1   4    0.14    0.06 
   6  -2  -4    0.25    0.12 
   5  -2  -4    0.19    0.10 
   4  -2  -4   11.65    0.53 
   3  -2  -4    0.29    0.08 
   2  -2  -4    3.88    0.21 
  -2   2   4    4.51    0.21 
   1  -2  -4   47.09    1.57 
  -1   2   4   48.33    1.48 
   0   2   4    7.04    0.28 
   0   2   4    9.43    0.28 
  -1  -2  -4   20.62    0.66 
   1   2   4   19.66    0.63 
  -2  -2  -4    0.15    0.03 
   2   2   4    0.13    0.04 
  -3  -2  -4    0.09    0.03 
   3   2   4    0.10    0.04 
  -4  -2  -4    0.20    0.05 
   4   2   4    0.23    0.07 
   5   2   4    1.43    0.14 
   6   2   4    0.20    0.08 
   6  -3  -4    0.68    0.16 
   5  -3  -4    0.07    0.07 
   4  -3  -4    1.29    0.16 
   3  -3  -4    2.28    0.17 
   2  -3  -4    3.43    0.19 
  -2   3   4    3.24    0.19 
   1  -3  -4    8.50    0.33 
  -1   3   4    7.97    0.32 
   0  -3  -4    5.36    0.21 
   0   3   4    5.17    0.20 
   0   3   4    5.09    0.20 
  -1  -3  -4   17.01    0.56 
   1   3   4   16.29    0.57 
   1   3   4   16.79    0.53 
  -2  -3  -4    0.56    0.05 
   2   3   4    0.47    0.08 
   2   3   4    0.50    0.05 
  -3  -3  -4   20.08    0.70 
   3   3   4   19.57    0.65 
   3   3   4   19.78    0.73 
  -4  -3  -4    2.57    0.16 
   4   3   4    2.55    0.18 
   4   3   4    2.70    0.15 
   5   3   4    0.16    0.07 
   6   3   4    1.76    0.20 
   5  -4  -4    0.25    0.10 
   4  -4  -4    0.20    0.08 
   3  -4  -4    2.26    0.17 
   2  -4  -4    1.33    0.12 
   1  -4  -4    4.71    0.22 
  -1   4   4    4.90    0.22 
   0  -4  -4    0.22    0.04 
   0   4   4    0.25    0.05 
   0   4   4    0.24    0.04 
  -1  -4  -4    2.79    0.13 
   1   4   4    3.06    0.13 
   1   4   4    3.17    0.15 
  -2  -4  -4    0.10    0.03 
   2   4   4    0.11    0.05 
   2   4   4    0.09    0.03 
  -3  -4  -4    0.15    0.05 
   3   4   4    0.18    0.06 
   3   4   4    0.20    0.04 
  -4  -4  -4    1.38    0.13 
   4   4   4    1.37    0.16 
   5   4   4    0.15    0.07 
   6   4   4    3.08    0.24 
   5  -5  -4    2.27    0.24 
   4  -5  -4    2.58    0.23 
   3  -5  -4    0.05    0.05 
   2  -5  -4    5.26    0.27 
   1  -5  -4    0.04    0.04 
  -1   5   4    0.07    0.04 
   0  -5  -4    7.60    0.30 
   0   5   4    7.30    0.29 
   0   5   4    7.59    0.30 
  -1  -5  -4    0.75    0.07 
   1   5   4    0.83    0.09 
   1   5   4    0.85    0.06 
  -2  -5  -4    0.92    0.08 
   2   5   4    0.92    0.10 
   2   5   4    1.03    0.06 
   3   5   4    3.19    0.20 
   4   5   4    0.29    0.08 
   5   5   4   -0.03    0.03 
   6   5   4    1.66    0.21 
   5  -6  -4    0.61    0.15 
   4  -6  -4    0.57    0.12 
   3  -6  -4    1.67    0.17 
   2  -6  -4   27.36    0.99 
   1  -6  -4   -0.01    0.03 
   0  -6  -4    0.01    0.04 
   0   6   4   -0.01    0.03 
   0   6   4    0.02    0.04 
  -1  -6  -4    9.10    0.37 
   1   6   4    9.59    0.34 
   1   6   4    9.34    0.37 
  -2  -6  -4    0.03    0.03 
   2   6   4    0.07    0.03 
   2   6   4    0.02    0.04 
  -3  -6  -4    1.27    0.12 
   3   6   4    1.03    0.13 
  -4  -6  -4    1.27    0.14 
   4   6   4    1.44    0.16 
   5   6   4    0.38    0.09 
   6   6   4    0.27    0.10 
   5  -7  -4    0.07    0.09 
   4  -7  -4    1.10    0.17 
   3  -7  -4    0.04    0.06 
   2  -7  -4    0.08    0.06 
   1  -7  -4    2.34    0.15 
   0  -7  -4    7.96    0.34 
   0   7   4    7.91    0.33 
  -1  -7  -4    5.94    0.27 
   1   7   4    5.34    0.23 
   1   7   4    5.94    0.27 
  -2  -7  -4    0.32    0.07 
   2   7   4    0.39    0.08 
  -3  -7  -4    0.25    0.07 
   3   7   4    0.49    0.09 
  -4  -7  -4    0.24    0.07 
   4   7   4    0.17    0.06 
   5   7   4    1.29    0.17 
   4  -8  -4    0.08    0.08 
   3  -8  -4    0.01    0.06 
   2  -8  -4    0.10    0.06 
   1  -8  -4    1.43    0.14 
   0  -8  -4    2.77    0.18 
   0   8   4    2.98    0.18 
  -1  -8  -4    1.60    0.14 
   1   8   4    1.43    0.14 
  -2  -8  -4    0.92    0.12 
   2   8   4    0.95    0.13 
  -3  -8  -4    0.04    0.05 
   3   8   4    0.04    0.04 
   4   8   4    0.16    0.07 
   5   8   4    0.49    0.11 
   4  -9  -4    0.63    0.14 
   3  -9  -4    0.98    0.15 
   2  -9  -4    0.58    0.11 
   1  -9  -4    0.54    0.10 
   0  -9  -4    2.32    0.17 
  -1  -9  -4    0.01    0.05 
   1   9   4    0.02    0.04 
  -2  -9  -4    0.12    0.07 
   2   9   4    0.13    0.06 
  -3  -9  -4    1.00    0.14 
   3   9   4    1.01    0.15 
   4   9   4    0.18    0.07 
   5   9   4    0.24    0.09 
   3 -10  -4    0.06    0.07 
   2 -10  -4    0.13    0.07 
   1 -10  -4    1.27    0.16 
   0 -10  -4    8.70    0.42 
  -1 -10  -4    0.03    0.06 
   1  10   4    0.02    0.04 
  -2 -10  -4    0.01    0.07 
   2  10   4    0.08    0.04 
  -3 -10  -4    0.59    0.12 
   3  10   4    0.75    0.13 
   4  10   4   -0.04    0.05 
   2 -11  -4    0.80    0.14 
   1 -11  -4    0.15    0.08 
   0 -11  -4    0.36    0.10 
  -1 -11  -4    1.19    0.16 
  -2 -11  -4    1.04    0.16 
   2  11   4    1.07    0.15 
  -3 -11  -4    0.96    0.15 
   3  11   4    1.00    0.16 
   0 -12  -4    0.35    0.10 
  -1 -12  -4    0.72    0.14 
  -2 -12  -4    0.09    0.07 
   2  12   4    0.11    0.04 
  -1 -11   5    0.56    0.13 
   0 -11   5    0.01    0.08 
  -3 -10   5    0.08    0.08 
  -2 -10   5    0.03    0.07 
  -1 -10   5    0.08    0.08 
   0 -10   5    0.02    0.08 
   1 -10   5    0.24    0.09 
   2 -10   5    0.39    0.11 
  -4  -9   5    0.01    0.06 
  -3  -9   5    0.18    0.08 
  -2  -9   5    0.43    0.12 
  -1  -9   5    0.01    0.06 
   0  -9   5    0.58    0.12 
   1  -9   5    0.14    0.07 
   2  -9   5   -0.04    0.06 
   3  -9   5    0.07    0.07 
   3  -9   5    0.25    0.07 
  -4  -8   5    0.08    0.06 
  -3  -8   5    0.03    0.06 
  -2  -8   5    1.65    0.19 
  -1  -8   5    0.72    0.13 
   0  -8   5    0.74    0.12 
   1  -8   5    2.05    0.15 
   1  -8   5    2.01    0.18 
   2  -8   5    0.07    0.06 
   2  -8   5    0.06    0.06 
   3  -8   5    1.03    0.15 
   3  -8   5    1.05    0.15 
  -5  -7   5    0.03    0.06 
  -4  -7   5    0.07    0.07 
  -3  -7   5    0.02    0.06 
  -2  -7   5    0.56    0.12 
  -1  -7   5    0.03    0.05 
   0  -7   5    0.28    0.07 
   1  -7   5    7.49    0.37 
   1  -7   5    8.41    0.35 
   2  -7   5    0.32    0.09 
   2  -7   5    0.47    0.09 
   3  -7   5    0.10    0.06 
   3  -7   5    0.12    0.06 
   4  -7   5    0.76    0.14 
   4  -7   5    0.52    0.11 
  -5  -6   5    0.18    0.07 
  -4  -6   5    0.29    0.10 
   3   6  -5    0.16    0.05 
  -3  -6   5    0.08    0.06 
  -2  -6   5    0.74    0.12 
  -1  -6   5    3.09    0.20 
   0  -6   5    0.54    0.07 
   0  -6   5    0.95    0.11 
   1  -6   5    3.37    0.19 
   1  -6   5    3.58    0.21 
   2  -6   5    0.85    0.11 
   2  -6   5    0.96    0.13 
   3  -6   5    0.66    0.13 
   3  -6   5    0.96    0.12 
   4  -6   5    1.59    0.16 
   4  -6   5    1.20    0.18 
  -5  -5   5    0.96    0.16 
  -4  -5   5    0.23    0.09 
   3   5  -5    0.26    0.05 
  -3  -5   5    0.03    0.05 
  -2  -5   5   -0.01    0.04 
  -1  -5   5    0.03    0.04 
  -1  -5   5    0.06    0.02 
   0  -5   5    3.32    0.17 
   0  -5   5    4.66    0.22 
   1  -5   5    1.68    0.12 
   1  -5   5    1.70    0.13 
   2  -5   5    0.81    0.10 
   2  -5   5    0.85    0.12 
   3  -5   5    0.41    0.08 
   3  -5   5    0.30    0.10 
   4  -5   5    0.04    0.05 
   4  -5   5   -0.02    0.05 
   5  -5   5    0.21    0.07 
  -6  -4   5    0.15    0.08 
  -5  -4   5    0.77    0.15 
  -4  -4   5    1.94    0.21 
   3   4  -5    0.12    0.04 
  -3  -4   5    0.03    0.05 
  -2  -4   5    0.51    0.10 
  -2  -4   5    0.46    0.04 
  -1  -4   5    0.81    0.05 
  -1  -4   5    0.92    0.11 
   0  -4   5    8.22    0.35 
   0  -4   5    8.86    0.31 
   1  -4   5    2.71    0.16 
   1  -4   5    2.96    0.16 
   2  -4   5    5.24    0.24 
   2  -4   5    4.83    0.25 
   3  -4   5    0.04    0.05 
   3  -4   5    0.16    0.05 
   4  -4   5    0.02    0.05 
   4  -4   5    0.01    0.04 
   5  -4   5    0.15    0.08 
  -6  -3   5    0.26    0.09 
  -5  -3   5    0.21    0.09 
  -4  -3   5    0.15    0.07 
   3   3  -5    1.85    0.10 
  -3  -3   5    1.86    0.11 
  -3  -3   5    1.77    0.17 
   2   3  -5    1.61    0.09 
  -2  -3   5    1.58    0.15 
  -2  -3   5    1.71    0.09 
  -1  -3   5    0.14    0.03 
  -1  -3   5    0.16    0.05 
   0  -3   5   19.32    0.69 
   0  -3   5   19.72    0.63 
   1  -3   5    7.65    0.31 
   1  -3   5    7.94    0.31 
   2  -3   5    0.60    0.09 
   2  -3   5    0.66    0.07 
   3  -3   5   16.05    0.60 
   3  -3   5   16.66    0.63 
   4  -3   5    0.97    0.11 
   4  -3   5    1.07    0.15 
   5  -3   5    2.35    0.23 
  -6  -2   5   -0.08    0.06 
  -5  -2   5    0.98    0.17 
  -4  -2   5    0.60    0.13 
   3   2  -5    0.04    0.02 
  -3  -2   5    0.02    0.03 
  -3  -2   5   -0.03    0.04 
   2   2  -5    6.01    0.22 
  -2  -2   5    5.85    0.23 
  -2  -2   5    5.97    0.29 
  -1  -2   5    0.00    0.01 
  -1  -2   5    0.03    0.04 
   0  -2   5    0.81    0.06 
   0  -2   5    0.75    0.07 
   1  -2   5    6.20    0.25 
   1  -2   5    6.21    0.24 
   2  -2   5    0.20    0.04 
   2  -2   5    0.29    0.06 
   3  -2   5   20.11    0.71 
   3  -2   5   20.20    0.73 
   4  -2   5    1.82    0.18 
   4  -2   5    1.60    0.14 
   5  -2   5    0.14    0.07 
   6  -2   5    0.36    0.11 
  -6  -1   5    0.06    0.07 
  -5  -1   5    4.06    0.30 
  -4  -1   5    0.43    0.10 
   3   1  -5    4.84    0.18 
  -3  -1   5    4.53    0.26 
  -3  -1   5    4.65    0.22 
   2   1  -5    1.10    0.05 
  -2  -1   5    1.06    0.12 
  -2  -1   5    0.95    0.07 
  -1  -1   5    1.17    0.07 
  -1  -1   5    1.13    0.10 
   0  -1   5   20.49    0.70 
   0  -1   5   20.66    0.65 
   1  -1   5    7.24    0.26 
   1  -1   5    6.99    0.27 
   2  -1   5    1.08    0.07 
   2  -1   5    1.28    0.11 
   3  -1   5   13.81    0.50 
   3  -1   5   13.94    0.53 
   4  -1   5    1.08    0.14 
   4  -1   5    1.10    0.11 
   5  -1   5    0.15    0.07 
   6  -1   5    0.03    0.06 
  -6   0   5    0.43    0.12 
  -5   0   5    5.25    0.35 
  -4   0   5    0.19    0.08 
   3   0  -5    3.79    0.14 
  -3   0   5    3.93    0.20 
  -3   0   5    3.16    0.22 
  -2   0   5   20.17    0.75 
  -2   0   5   20.47    0.68 
  -1   0   5    0.36    0.06 
  -1   0   5    0.35    0.04 
   0   0   5   30.05    0.93 
   0   0   5   29.82    0.99 
   1   0   5   55.31    1.72 
   1   0   5   57.25    1.80 
   2   0   5    0.05    0.03 
   2   0   5    0.06    0.02 
   3   0   5    0.75    0.10 
   3   0   5    0.65    0.07 
   4   0   5    2.05    0.14 
   4   0   5    2.04    0.17 
   5   0   5    1.32    0.15 
   6   0   5    0.13    0.07 
   6  -1  -5    0.03    0.09 
  -5   1   5    0.28    0.11 
  -4   1   5    1.65    0.19 
  -3   1   5    1.74    0.16 
  -2   1   5    3.98    0.20 
  -2   1   5    4.10    0.22 
  -1   1   5   33.72    1.13 
  -1   1   5   33.44    1.05 
   0   1   5   27.05    0.84 
   0   1   5   26.43    0.88 
   1   1   5    4.09    0.17 
   2   1   5   42.74    1.32 
   2   1   5   41.67    1.35 
   3   1   5   19.28    0.67 
   3   1   5   19.85    0.68 
   4   1   5    0.39    0.07 
   5   1   5    2.04    0.18 
   6   1   5    0.26    0.09 
   6  -2  -5    0.02    0.10 
   5  -2  -5    0.03    0.07 
   4  -2  -5    0.41    0.11 
  -3   2   5   13.75    0.58 
  -2   2   5    4.90    0.25 
  -2   2   5    4.88    0.23 
   1  -2  -5   24.69    0.84 
  -1   2   5   24.45    0.75 
  -1   2   5   23.55    0.79 
   0  -2  -5    5.84    0.22 
  -1  -2  -5    0.24    0.02 
   1   2   5    0.26    0.04 
  -2  -2  -5    1.48    0.07 
   2   2   5    1.48    0.09 
  -3  -2  -5    0.19    0.04 
   3   2   5    0.17    0.05 
   4   2   5    0.19    0.05 
   5   2   5   11.26    0.46 
   6   2   5    0.73    0.15 
   6  -3  -5    1.08    0.19 
   5  -3  -5    0.12    0.08 
   4  -3  -5    1.07    0.16 
   3  -3  -5   13.94    0.58 
   2  -3  -5    1.68    0.13 
  -2   3   5    1.65    0.13 
   1  -3  -5    0.27    0.05 
  -1   3   5    0.26    0.05 
  -1   3   5    0.26    0.03 
   0  -3  -5   10.68    0.38 
   0   3   5   10.80    0.38 
   0   3   5   10.71    0.37 
  -1  -3  -5    2.43    0.10 
   1   3   5    2.10    0.13 
   1   3   5    2.53    0.11 
  -2  -3  -5   13.23    0.45 
   2   3   5   12.85    0.44 
   2   3   5   12.73    0.49 
  -3  -3  -5    0.43    0.06 
   3   3   5    0.38    0.06 
   3   3   5    0.30    0.08 
   4   3   5    0.09    0.05 
   4   3   5    0.03    0.04 
   5   3   5    4.65    0.29 
   6   3   5    0.14    0.07 
   5  -4  -5    1.25    0.19 
   4  -4  -5    2.89    0.22 
   3  -4  -5   22.25    0.85 
   2  -4  -5    0.82    0.10 
  -2   4   5    1.01    0.12 
   1  -4  -5    6.46    0.28 
  -1   4   5    6.81    0.29 
   0  -4  -5   11.51    0.41 
   0   4   5   11.17    0.39 
   0   4   5   10.94    0.40 
  -1  -4  -5    0.04    0.02 
   1   4   5    0.01    0.02 
   1   4   5    0.01    0.02 
  -2  -4  -5    1.34    0.08 
   2   4   5    1.37    0.08 
   2   4   5    1.25    0.12 
  -3  -4  -5   14.35    0.54 
   3   4   5   15.12    0.58 
   3   4   5   14.51    0.50 
   4   4   5    0.29    0.08 
   4   4   5    0.32    0.06 
   5   4   5    1.83    0.20 
   6   4   5    0.41    0.11 
   5  -5  -5    0.58    0.14 
   4  -5  -5    0.08    0.08 
   3  -5  -5    1.45    0.16 
   2  -5  -5    4.90    0.26 
   1  -5  -5   15.30    0.56 
  -1   5   5   14.72    0.55 
   0  -5  -5   17.48    0.61 
   0   5   5   17.60    0.60 
   0   5   5   17.10    0.59 
  -1  -5  -5    9.44    0.35 
   1   5   5    9.30    0.37 
   1   5   5    9.39    0.34 
  -2  -5  -5    0.05    0.03 
   2   5   5    0.18    0.03 
   2   5   5    0.11    0.04 
  -3  -5  -5    2.04    0.14 
   3   5   5    2.26    0.17 
   3   5   5    2.40    0.12 
   4   5   5    2.57    0.20 
   5   5   5    1.81    0.20 
   6   5   5    0.18    0.09 
   5  -6  -5    0.37    0.12 
   4  -6  -5    0.22    0.10 
   3  -6  -5    0.78    0.13 
   2  -6  -5    0.64    0.11 
   1  -6  -5   11.99    0.49 
  -1   6   5   13.10    0.49 
   0  -6  -5    3.05    0.16 
   0   6   5    3.03    0.17 
   0   6   5    2.86    0.16 
  -1  -6  -5   10.28    0.39 
   1   6   5   10.03    0.40 
   1   6   5    9.58    0.36 
  -2  -6  -5    0.41    0.06 
   2   6   5    0.33    0.07 
   2   6   5    0.42    0.05 
  -3  -6  -5    0.05    0.03 
   3   6   5   -0.01    0.03 
   4   6   5    1.84    0.19 
   5   6   5    0.22    0.07 
   6   6   5    0.15    0.09 
   4  -7  -5    1.24    0.18 
   3  -7  -5    0.11    0.07 
   2  -7  -5    2.54    0.18 
   1  -7  -5   17.94    0.68 
   0  -7  -5    0.64    0.09 
   0   7   5    0.49    0.08 
   0   7   5    0.58    0.08 
  -1  -7  -5    0.21    0.05 
   1   7   5    0.27    0.06 
   1   7   5    0.20    0.06 
  -2  -7  -5    5.90    0.27 
   2   7   5    5.63    0.29 
  -3  -7  -5    0.19    0.06 
   3   7   5    0.25    0.07 
   4   7   5    0.79    0.12 
   5   7   5    0.01    0.05 
   4  -8  -5    0.02    0.08 
   3  -8  -5    0.98    0.15 
   2  -8  -5    4.33    0.26 
   1  -8  -5   15.71    0.62 
   0  -8  -5    0.31    0.07 
   0   8   5    0.28    0.07 
  -1  -8  -5    1.53    0.13 
   1   8   5    1.65    0.15 
  -2  -8  -5    1.08    0.12 
   2   8   5    1.00    0.13 
  -3  -8  -5    0.17    0.07 
   3   8   5    0.23    0.07 
   4   8   5   -0.04    0.04 
   5   8   5    0.24    0.09 
   3  -9  -5    1.89    0.20 
   2  -9  -5    0.07    0.06 
   1  -9  -5    0.02    0.05 
   0  -9  -5    1.49    0.15 
  -1  -9  -5    2.34    0.17 
   1   9   5    1.94    0.18 
  -2  -9  -5    3.20    0.21 
   2   9   5    3.15    0.21 
  -3  -9  -5    0.45    0.10 
   3   9   5    0.37    0.09 
   4   9   5    0.05    0.06 
   5   9   5    0.28    0.10 
   3 -10  -5    0.44    0.11 
   2 -10  -5    0.15    0.06 
   1 -10  -5    1.76    0.18 
   0 -10  -5    1.81    0.18 
  -1 -10  -5    0.12    0.07 
   1  10   5    0.21    0.07 
  -2 -10  -5    0.04    0.06 
   2  10   5    0.00    0.04 
  -3 -10  -5    0.32    0.09 
   3  10   5    0.24    0.08 
   4  10   5    0.27    0.10 
   1 -11  -5    0.11    0.07 
   0 -11  -5    0.07    0.07 
  -1 -11  -5    3.17    0.23 
   1  11   5    2.66    0.20 
  -2 -11  -5    0.11    0.08 
   2  11   5    0.22    0.07 
   3  11   5    0.19    0.06 
   0 -12  -5    1.74    0.20 
  -1 -12  -5    3.06    0.23 
  -2 -12  -5    0.07    0.07 
   2  12   5    0.10    0.05 
  -2 -10   6    0.16    0.10 
  -1 -10   6    0.40    0.12 
   0 -10   6    0.16    0.09 
   1 -10   6    0.09    0.09 
  -3  -9   6    0.34    0.10 
  -2  -9   6    0.11    0.09 
  -1  -9   6    0.16    0.09 
   0  -9   6    4.37    0.29 
   1  -9   6    1.06    0.16 
   2  -9   6    0.34    0.09 
  -4  -8   6    0.08    0.06 
  -3  -8   6    0.33    0.09 
  -2  -8   6    0.77    0.16 
  -1  -8   6    0.10    0.07 
   0  -8   6    3.43    0.24 
   1  -8   6    1.20    0.15 
   2  -8   6    0.25    0.08 
   2  -8   6   -0.04    0.06 
   3  -8   6    1.17    0.16 
   3  -8   6    0.86    0.14 
  -5  -7   6    0.19    0.08 
  -4  -7   6    0.17    0.07 
  -3  -7   6    0.13    0.07 
  -2  -7   6    0.21    0.08 
  -1  -7   6    0.39    0.09 
   0  -7   6    2.43    0.19 
   1  -7   6    0.97    0.12 
   1  -7   6    0.76    0.11 
   2  -7   6    0.09    0.06 
   2  -7   6    0.13    0.07 
   3  -7   6    0.06    0.07 
   3  -7   6    0.17    0.08 
   4  -7   6    0.05    0.05 
  -5  -6   6    0.49    0.12 
  -4  -6   6    0.14    0.06 
  -3  -6   6    0.31    0.09 
  -2  -6   6    1.66    0.18 
  -1  -6   6    1.44    0.15 
   0  -6   6    0.64    0.10 
   1  -6   6    1.91    0.15 
   1  -6   6    2.15    0.15 
   2  -6   6    1.84    0.17 
   2  -6   6    1.83    0.14 
   3  -6   6    0.19    0.08 
   3  -6   6    0.10    0.06 
   4  -6   6   -0.03    0.04 
  -5  -5   6    0.02    0.07 
  -4  -5   6    1.07    0.18 
  -3  -5   6    0.52    0.12 
  -2  -5   6    0.05    0.06 
  -1  -5   6    5.13    0.28 
  -1  -5   6    5.39    0.21 
   0  -5   6    7.74    0.36 
   0  -5   6    8.66    0.32 
   1  -5   6   -0.02    0.04 
   1  -5   6    0.10    0.04 
   2  -5   6    9.14    0.38 
   2  -5   6    8.29    0.39 
   3  -5   6    2.59    0.20 
   3  -5   6    2.06    0.15 
   4  -5   6    3.01    0.23 
   5  -5   6    1.09    0.16 
  -5  -4   6    0.70    0.13 
  -4  -4   6    0.12    0.07 
   3   4  -6    2.40    0.13 
  -3  -4   6    2.43    0.19 
  -2  -4   6    0.01    0.02 
  -2  -4   6    0.02    0.04 
  -1  -4   6    1.00    0.07 
  -1  -4   6    1.09    0.12 
   0  -4   6    0.28    0.07 
   0  -4   6    0.26    0.05 
   1  -4   6    0.07    0.04 
   1  -4   6    0.06    0.03 
   2  -4   6   27.20    0.93 
   2  -4   6   26.33    0.93 
   3  -4   6    4.45    0.22 
   3  -4   6    4.53    0.27 
   4  -4   6    0.16    0.08 
   5  -4   6    0.32    0.10 
  -6  -3   6    2.65    0.28 
  -5  -3   6    0.10    0.07 
  -4  -3   6    0.18    0.08 
   3   3  -6    1.84    0.10 
  -3  -3   6    1.64    0.11 
  -3  -3   6    1.91    0.19 
  -2  -3   6    0.07    0.02 
  -2  -3   6   -0.03    0.05 
  -1  -3   6    9.60    0.40 
   0  -3   6    4.03    0.17 
   0  -3   6    3.69    0.19 
   1  -3   6    0.07    0.04 
   1  -3   6    0.02    0.03 
   2  -3   6   22.22    0.78 
   2  -3   6   22.08    0.77 
   3  -3   6    1.25    0.15 
   3  -3   6    1.44    0.11 
   4  -3   6    0.09    0.05 
   5  -3   6    0.33    0.10 
  -6  -2   6    1.86    0.24 
  -5  -2   6    0.04    0.08 
  -4  -2   6    2.31    0.23 
  -2  -2   6    0.93    0.12 
  -1  -2   6    4.89    0.23 
  -1  -2   6    4.46    0.18 
   0  -2   6   62.63    1.92 
   0  -2   6   63.71    2.06 
   1  -2   6    0.28    0.05 
   1  -2   6    0.34    0.05 
   2  -2   6    2.97    0.17 
   2  -2   6    2.86    0.14 
   3  -2   6    1.66    0.16 
   3  -2   6    1.94    0.12 
   4  -2   6    3.12    0.21 
   5  -2   6    0.00    0.06 
   6  -2   6    0.17    0.08 
  -6  -1   6    0.72    0.14 
  -5  -1   6    1.18    0.19 
  -4  -1   6    0.34    0.10 
  -3  -1   6    1.17    0.14 
  -3  -1   6    1.11    0.11 
  -2  -1   6   23.00    0.75 
  -2  -1   6   22.72    0.84 
  -1  -1   6    5.82    0.26 
  -1  -1   6    5.67    0.22 
   0  -1   6    3.72    0.17 
   0  -1   6    3.61    0.16 
   1  -1   6   28.15    0.91 
   1  -1   6   26.82    0.88 
   2  -1   6   41.86    1.32 
   2  -1   6   40.92    1.34 
   3  -1   6    0.32    0.07 
   3  -1   6    0.47    0.06 
   4  -1   6    0.73    0.11 
   5  -1   6    0.56    0.10 
   6  -1   6    0.73    0.14 
  -6   0   6    0.04    0.07 
  -5   0   6    0.10    0.09 
  -4   0   6   11.19    0.53 
  -3   0   6    2.55    0.16 
  -3   0   6    2.38    0.18 
  -2   0   6   14.81    0.51 
  -2   0   6   14.04    0.57 
  -1   0   6    3.93    0.19 
  -1   0   6    3.73    0.16 
   0   0   6    5.83    0.23 
   0   0   6    5.70    0.22 
   1   0   6   15.42    0.51 
   1   0   6   14.78    0.50 
   2   0   6    4.64    0.21 
   2   0   6    4.47    0.17 
   3   0   6    0.00    0.03 
   3   0   6    0.03    0.04 
   4   0   6   24.05    0.86 
   5   0   6    3.50    0.23 
   6   0   6    0.41    0.10 
   6  -1  -6    0.10    0.12 
  -5   1   6    0.82    0.16 
  -4   1   6   14.51    0.65 
  -3   1   6    1.00    0.12 
  -3   1   6    1.14    0.14 
  -2   1   6    2.35    0.16 
  -2   1   6    2.06    0.13 
  -1   1   6   31.70    1.08 
  -1   1   6   31.38    1.00 
   0   1   6    7.44    0.28 
   0   1   6    7.57    0.28 
   1   1   6   14.80    0.50 
   2   1   6    0.59    0.07 
   3   1   6    0.35    0.05 
   3   1   6    0.33    0.07 
   4   1   6   12.21    0.48 
   5   1   6    0.03    0.04 
   6   1   6    0.01    0.05 
   6  -2  -6    1.21    0.21 
   5  -2  -6    1.95    0.22 
   4  -2  -6   11.17    0.53 
  -3   2   6    0.15    0.06 
  -3   2   6    0.27    0.08 
  -2   2   6   19.80    0.70 
  -2   2   6   19.96    0.75 
  -1   2   6    9.68    0.37 
  -1   2   6    9.78    0.39 
  -1   2   6   10.15    0.32 
   0  -2  -6    0.56    0.05 
   0   2   6    0.50    0.06 
   1   2   6    0.34    0.05 
   2   2   6   46.44    1.45 
   3   2   6    0.38    0.07 
   3   2   6    0.42    0.05 
   4   2   6    4.08    0.22 
   5   2   6    1.40    0.14 
   6  -3  -6    0.20    0.11 
   5  -3  -6   -0.04    0.07 
   4  -3  -6    2.04    0.21 
   3  -3  -6    4.64    0.27 
   2  -3  -6    4.14    0.23 
  -2   3   6    4.28    0.23 
   1  -3  -6   16.16    0.61 
  -1   3   6   16.56    0.58 
  -1   3   6   17.25    0.54 
   0   3   6   53.71    1.54 
   0   3   6   46.37    1.56 
  -1  -3  -6    0.43    0.04 
   1   3   6    0.46    0.06 
   1   3   6    0.56    0.07 
  -2  -3  -6   14.81    0.48 
   2   3   6   14.26    0.54 
   2   3   6   13.54    0.48 
  -3  -3  -6    1.49    0.09 
   3   3   6    1.37    0.10 
   4   3   6    3.33    0.18 
   5   3   6    0.15    0.07 
   5   3   6    0.34    0.07 
   6   3   6   -0.01    0.06 
   5  -4  -6    0.26    0.10 
   4  -4  -6    1.19    0.17 
   3  -4  -6    0.82    0.13 
   2  -4  -6   14.97    0.58 
  -2   4   6   14.68    0.57 
   1  -4  -6    2.86    0.16 
  -1   4   6    2.88    0.17 
  -1   4   6    2.93    0.13 
   0  -4  -6   22.86    0.77 
   0   4   6   22.45    0.74 
   0   4   6   22.50    0.75 
  -1  -4  -6    1.12    0.07 
   1   4   6    1.27    0.11 
   1   4   6    1.13    0.08 
  -2  -4  -6    2.95    0.14 
   2   4   6    2.90    0.18 
   2   4   6    3.05    0.14 
  -3  -4  -6    7.13    0.29 
   3   4   6    6.62    0.33 
   3   4   6    7.07    0.28 
   4   4   6    2.04    0.13 
   4   4   6    2.03    0.19 
   5   4   6    0.12    0.06 
   6   4   6    3.25    0.25 
   5  -5  -6    0.85    0.17 
   4  -5  -6    0.93    0.16 
   3  -5  -6    1.29    0.16 
   2  -5  -6   41.38    1.44 
  -2   5   6   42.09    1.39 
   1  -5  -6    0.27    0.06 
  -1   5   6    0.14    0.05 
   0  -5  -6    1.08    0.08 
   0   5   6    1.03    0.10 
   0   5   6    1.03    0.09 
   1   5   6   16.64    0.55 
   1   5   6   15.72    0.58 
  -2  -5  -6    1.21    0.09 
   2   5   6    1.24    0.08 
   2   5   6    1.22    0.13 
  -3  -5  -6    1.65    0.11 
   3   5   6    1.65    0.10 
   3   5   6    1.34    0.15 
   4   5   6    0.37    0.09 
   5   5   6    0.52    0.11 
   6   5   6    1.85    0.23 
   5  -6  -6    0.05    0.10 
   4  -6  -6    1.01    0.17 
   3  -6  -6    7.20    0.37 
   2  -6  -6   16.16    0.64 
   1  -6  -6    0.08    0.04 
  -1   6   6    0.09    0.05 
   0  -6  -6   14.00    0.52 
   0   6   6   13.93    0.50 
   0   6   6   13.80    0.51 
  -1  -6  -6    3.22    0.16 
   1   6   6    3.59    0.19 
   1   6   6    3.35    0.17 
  -2  -6  -6    2.75    0.15 
   2   6   6    2.69    0.13 
   2   6   6    2.64    0.17 
  -3  -6  -6    0.14    0.05 
   3   6   6    0.07    0.05 
   4   6   6    1.20    0.16 
   5   6   6    0.09    0.07 
   6   6   6    0.16    0.09 
   4  -7  -6    1.38    0.19 
   3  -7  -6    0.14    0.08 
   2  -7  -6    0.03    0.05 
   1  -7  -6    1.44    0.14 
  -1   7   6    1.53    0.15 
   0  -7  -6    0.96    0.10 
   0   7   6    1.21    0.11 
   0   7   6    1.14    0.12 
  -1  -7  -6    3.21    0.17 
   1   7   6    3.31    0.17 
   1   7   6    3.10    0.18 
  -2  -7  -6    2.99    0.17 
   2   7   6    2.64    0.18 
   3   7   6    0.21    0.06 
   4   7   6    1.59    0.18 
   5   7   6    0.09    0.06 
   4  -8  -6    0.15    0.09 
   3  -8  -6    0.01    0.06 
   2  -8  -6    3.31    0.23 
   1  -8  -6    4.13    0.24 
   0  -8  -6   -0.04    0.04 
   0   8   6    0.03    0.03 
   0   8   6    0.08    0.04 
  -1  -8  -6    0.37    0.08 
   1   8   6    0.48    0.09 
  -2  -8  -6    0.62    0.10 
   2   8   6    0.73    0.11 
   3   8   6    0.28    0.08 
   4   8   6    0.20    0.08 
   5   8   6    0.47    0.11 
   3  -9  -6    0.89    0.14 
   2  -9  -6    0.22    0.08 
   1  -9  -6    0.02    0.06 
   0  -9  -6    8.43    0.39 
   0   9   6    8.58    0.38 
  -1  -9  -6    0.93    0.12 
   1   9   6    0.79    0.12 
  -2  -9  -6    0.94    0.12 
   2   9   6    0.94    0.14 
   3   9   6    0.43    0.10 
   4   9   6    0.35    0.10 
   5   9   6    0.47    0.12 
   3 -10  -6    0.21    0.08 
   2 -10  -6    0.26    0.09 
   1 -10  -6    3.87    0.25 
   0 -10  -6    6.05    0.32 
  -1 -10  -6    0.13    0.06 
   1  10   6   -0.03    0.04 
  -2 -10  -6    0.52    0.11 
   2  10   6    0.54    0.11 
   3  10   6    1.27    0.17 
   4  10   6    0.02    0.06 
   2 -11  -6    0.39    0.09 
   1 -11  -6    0.05    0.06 
   0 -11  -6    1.07    0.15 
  -1 -11  -6    0.21    0.09 
   1  11   6    0.08    0.05 
  -2 -11  -6    0.09    0.08 
   2  11   6    0.09    0.06 
   3  11   6    0.21    0.06 
   0 -12  -6    0.32    0.09 
  -1 -12  -6    1.20    0.17 
   2  12   6    0.05    0.04 
  -2 -10   7   -0.01    0.09 
  -1 -10   7    1.90    0.23 
   0 -10   7    0.43    0.11 
   1 -10   7    0.07    0.08 
  -3  -9   7    0.02    0.08 
  -2  -9   7    0.18    0.10 
  -1  -9   7    0.83    0.15 
   0  -9   7    0.44    0.12 
   1  -9   7    0.04    0.08 
   2  -9   7    0.13    0.08 
  -4  -8   7    0.04    0.06 
  -3  -8   7    0.48    0.14 
  -2  -8   7    0.47    0.12 
  -1  -8   7    0.33    0.10 
   0  -8   7    1.59    0.18 
   1  -8   7    1.25    0.16 
   2  -8   7   -0.12    0.05 
   2  -8   7    0.13    0.07 
   3  -8   7   -0.05    0.07 
   3  -8   7    0.13    0.05 
  -4  -7   7    0.22    0.09 
  -3  -7   7    0.05    0.07 
  -2  -7   7    1.78    0.20 
  -1  -7   7    2.33    0.21 
   0  -7   7    0.10    0.06 
   1  -7   7    4.24    0.23 
   1  -7   7    3.86    0.24 
   2  -7   7    1.54    0.17 
   2  -7   7    1.29    0.15 
   3  -7   7    1.69    0.19 
   3  -7   7    1.73    0.17 
   4  -7   7    0.77    0.12 
  -5  -6   7    0.28    0.08 
  -4  -6   7    0.64    0.13 
  -3  -6   7    0.03    0.07 
  -2  -6   7    0.88    0.14 
  -1  -6   7   -0.06    0.04 
   0  -6   7   -0.01    0.04 
   0  -6   7    0.00    0.03 
   1  -6   7   14.47    0.59 
   1  -6   7   15.64    0.57 
   2  -6   7    3.55    0.22 
   2  -6   7    3.61    0.22 
   3  -6   7    0.16    0.06 
   3  -6   7    0.12    0.07 
   4  -6   7    0.17    0.08 
  -5  -5   7    0.03    0.06 
  -4  -5   7    1.04    0.18 
  -3  -5   7    0.12    0.07 
  -2  -5   7    1.66    0.18 
  -1  -5   7    1.40    0.09 
  -1  -5   7    1.62    0.15 
   0  -5   7    0.04    0.04 
   0  -5   7    0.08    0.03 
   1  -5   7    9.42    0.38 
   1  -5   7    9.02    0.39 
   2  -5   7    0.43    0.09 
   2  -5   7    0.54    0.09 
   3  -5   7    0.09    0.07 
   3  -5   7   -0.01    0.04 
   4  -5   7    0.62    0.12 
   5  -5   7    0.07    0.04 
  -5  -4   7    0.32    0.10 
  -4  -4   7    1.51    0.21 
  -3  -4   7    0.08    0.06 
  -2  -4   7    1.27    0.15 
  -2  -4   7    1.19    0.08 
  -1  -4   7    9.06    0.33 
  -1  -4   7    9.29    0.41 
   0  -4   7    0.69    0.10 
   0  -4   7    0.73    0.08 
   1  -4   7    0.37    0.07 
   1  -4   7    0.33    0.07 
   2  -4   7    2.92    0.19 
   2  -4   7    2.60    0.17 
   3  -4   7    2.70    0.16 
   3  -4   7    2.77    0.20 
   4  -4   7    0.02    0.05 
   5  -4   7   -0.02    0.07 
  -5  -3   7   -0.04    0.06 
  -4  -3   7    0.44    0.12 
  -3  -3   7    5.47    0.24 
  -3  -3   7    5.65    0.33 
  -2  -3   7    1.07    0.13 
  -2  -3   7    1.04    0.07 
  -1  -3   7    0.39    0.05 
  -1  -3   7    0.40    0.08 
   0  -3   7    5.71    0.23 
   0  -3   7    5.62    0.26 
   1  -3   7   14.57    0.52 
   1  -3   7   14.64    0.54 
   2  -3   7    0.59    0.10 
   2  -3   7    0.56    0.07 
   3  -3   7    0.80    0.09 
   3  -3   7    0.73    0.12 
   4  -3   7    0.33    0.09 
   5  -3   7    0.59    0.13 
  -6  -2   7    0.09    0.05 
  -5  -2   7    3.57    0.28 
  -4  -2   7    0.74    0.14 
  -3  -2   7    3.26    0.18 
  -3  -2   7    3.18    0.22 
  -2  -2   7    0.72    0.11 
  -2  -2   7    0.56    0.06 
  -1  -2   7    2.32    0.16 
  -1  -2   7    2.67    0.13 
   0  -2   7   13.27    0.45 
   0  -2   7   12.52    0.48 
   1  -2   7    5.27    0.24 
   1  -2   7    5.44    0.23 
   2  -2   7    0.34    0.07 
   2  -2   7    0.22    0.05 
   3  -2   7   23.66    0.85 
   3  -2   7   23.96    0.82 
   4  -2   7    5.36    0.30 
   5  -2   7    0.32    0.10 
  -6  -1   7    0.14    0.08 
  -5  -1   7    7.20    0.43 
  -4  -1   7    0.09    0.08 
  -3  -1   7    0.19    0.05 
  -3  -1   7    0.02    0.05 
  -2  -1   7   11.29    0.47 
  -2  -1   7   10.44    0.40 
  -1  -1   7    0.33    0.07 
  -1  -1   7    0.29    0.05 
   0  -1   7    5.47    0.22 
   0  -1   7    5.35    0.23 
   1  -1   7    2.76    0.14 
   1  -1   7    2.55    0.13 
   2  -1   7    1.80    0.13 
   2  -1   7    1.82    0.10 
   3  -1   7   14.31    0.55 
   4  -1   7    0.01    0.04 
   5  -1   7   -0.01    0.05 
   6  -1   7    0.57    0.12 
  -6   0   7    0.82    0.15 
  -5   0   7    4.44    0.32 
  -4   0   7    0.05    0.07 
  -3   0   7    6.40    0.30 
  -3   0   7    6.53    0.34 
  -2   0   7    7.18    0.29 
  -2   0   7    6.90    0.33 
  -1   0   7    2.90    0.16 
  -1   0   7    2.72    0.13 
   0   0   7    0.62    0.06 
   0   0   7    0.74    0.07 
   1   0   7   22.60    0.73 
   1   0   7   21.57    0.73 
   2   0   7    2.54    0.10 
   2   0   7    2.45    0.15 
   3   0   7    0.52    0.09 
   4   0   7    2.49    0.18 
   5   0   7    0.30    0.08 
   6   0   7    0.05    0.07 
   6  -1  -7    0.06    0.11 
  -5   1   7    0.53    0.14 
  -4   1   7    2.65    0.24 
  -3   1   7    0.37    0.08 
  -3   1   7    0.42    0.09 
  -2   1   7    3.73    0.19 
  -2   1   7    3.72    0.22 
  -1   1   7   36.55    1.25 
  -1   1   7   38.20    1.14 
  -1   1   7   36.18    1.17 
   0   1   7    0.01    0.03 
   0   1   7    0.00    0.02 
   1   1   7   18.76    0.62 
   2   1   7    0.93    0.09 
   3   1   7    1.25    0.12 
   4   1   7    0.47    0.09 
   5   1   7    0.19    0.07 
   6   1   7   -0.03    0.05 
   6  -2  -7   -0.03    0.10 
   5  -2  -7    0.36    0.12 
  -4   2   7    1.76    0.20 
  -3   2   7    3.28    0.21 
  -3   2   7    3.28    0.23 
  -2   2   7   -0.01    0.05 
  -2   2   7    0.08    0.04 
  -1   2   7    6.62    0.21 
  -1   2   7    6.26    0.29 
  -1   2   7    6.45    0.27 
   0  -2  -7    1.61    0.09 
   0   2   7    1.52    0.10 
   0   2   7    1.39    0.09 
   1   2   7   13.05    0.45 
   2   2   7   17.47    0.60 
   3   2   7    4.91    0.23 
   4   2   7    0.64    0.10 
   5   2   7    6.37    0.31 
   5  -3  -7    0.17    0.10 
   4  -3  -7    0.09    0.09 
   3  -3  -7   23.66    0.91 
  -3   3   7   23.91    0.87 
   2  -3  -7    2.14    0.16 
  -2   3   7    2.11    0.15 
   1  -3  -7    2.37    0.14 
  -1   3   7    2.33    0.10 
  -1   3   7    2.42    0.14 
   0  -3  -7   12.30    0.44 
   0   3   7   12.64    0.44 
  -1  -3  -7   10.43    0.36 
   1   3   7   10.91    0.41 
   1   3   7   10.64    0.38 
   2   3   7    3.45    0.17 
   3   3   7    2.26    0.14 
   4   3   7    1.35    0.12 
   5   3   7    4.30    0.23 
   5   3   7    4.19    0.28 
   6   3   7    0.03    0.07 
   5  -4  -7    0.37    0.12 
   4  -4  -7    4.15    0.28 
   3  -4  -7   12.61    0.55 
   2  -4  -7    0.56    0.10 
  -2   4   7    0.62    0.10 
   1  -4  -7   14.09    0.53 
  -1   4   7   13.51    0.52 
  -1   4   7   14.15    0.46 
   0  -4  -7   18.22    0.66 
   0   4   7   19.93    0.64 
   0   4   7   19.59    0.65 
  -1  -4  -7    8.02    0.28 
   1   4   7    7.84    0.33 
   1   4   7    7.63    0.30 
  -2  -4  -7    0.33    0.04 
   2   4   7    0.18    0.06 
   2   4   7    0.36    0.06 
   3   4   7    1.03    0.13 
   3   4   7    1.07    0.10 
   4   4   7    0.35    0.07 
   4   4   7    0.51    0.11 
   5   4   7    0.11    0.07 
   6   4   7    0.11    0.10 
   5  -5  -7    0.51    0.14 
   4  -5  -7    0.42    0.11 
   3  -5  -7    0.31    0.10 
   2  -5  -7    1.39    0.14 
  -2   5   7    1.65    0.16 
   1  -5  -7    0.08    0.04 
  -1   5   7    0.02    0.04 
  -1   5   7    0.03    0.02 
   0  -5  -7    0.84    0.08 
   0   5   7    0.91    0.08 
   0   5   7    0.99    0.10 
  -1  -5  -7    3.31    0.15 
   1   5   7    3.09    0.17 
   1   5   7    3.32    0.16 
  -2  -5  -7    0.15    0.04 
   2   5   7    0.09    0.05 
   2   5   7    0.13    0.04 
   3   5   7    1.57    0.17 
   3   5   7    1.70    0.11 
   4   5   7    0.07    0.06 
   5   5   7    0.08    0.06 
   6   5   7    0.30    0.10 
   5  -6  -7    0.27    0.11 
   4  -6  -7    0.07    0.08 
   3  -6  -7    0.97    0.15 
   2  -6  -7    6.62    0.33 
  -2   6   7    6.69    0.34 
   1  -6  -7    0.69    0.10 
  -1   6   7    0.55    0.10 
   0  -6  -7    3.26    0.17 
   0   6   7    2.92    0.18 
   0   6   7    3.25    0.17 
  -1  -6  -7    0.02    0.02 
   1   6   7    0.17    0.05 
   1   6   7    0.14    0.04 
  -2  -6  -7    0.38    0.06 
   2   6   7    0.41    0.08 
   2   6   7    0.45    0.06 
   3   6   7    1.28    0.15 
   4   6   7    1.19    0.17 
   5   6   7    0.16    0.08 
   4  -7  -7    0.53    0.13 
   3  -7  -7    0.03    0.07 
   2  -7  -7    0.20    0.08 
   1  -7  -7    6.20    0.30 
  -1   7   7    5.86    0.31 
   0  -7  -7    2.88    0.18 
   0   7   7    3.57    0.20 
   0   7   7    3.20    0.18 
  -1  -7  -7    1.69    0.12 
   1   7   7    1.78    0.13 
   1   7   7    1.88    0.13 
  -2  -7  -7    0.15    0.05 
   2   7   7    0.10    0.06 
   3   7   7    1.41    0.16 
   4   7   7    1.23    0.17 
   5   7   7    0.03    0.06 
   4  -8  -7    0.18    0.08 
   3  -8  -7    0.04    0.07 
   2  -8  -7    3.44    0.23 
   1  -8  -7    9.10    0.40 
   0  -8  -7    0.02    0.04 
   0   8   7    0.08    0.05 
   0   8   7    0.06    0.04 
  -1  -8  -7    0.86    0.10 
   1   8   7    1.00    0.11 
   1   8   7    0.75    0.11 
  -2  -8  -7    4.02    0.22 
   2   8   7    4.31    0.25 
   3   8   7   -0.02    0.04 
   4   8   7   -0.03    0.04 
   5   8   7    0.19    0.09 
   3  -9  -7    0.05    0.07 
   2  -9  -7    0.04    0.07 
   1  -9  -7    1.74    0.17 
   0  -9  -7    0.92    0.12 
   0   9   7    0.76    0.11 
  -1  -9  -7    0.22    0.07 
   1   9   7    0.22    0.06 
  -2  -9  -7    0.17    0.07 
   2   9   7    0.15    0.07 
   3   9   7    0.22    0.07 
   4   9   7    0.04    0.07 
   3 -10  -7    1.27    0.18 
   2 -10  -7   -0.08    0.05 
   1 -10  -7    0.06    0.06 
   0 -10  -7    2.10    0.19 
  -1 -10  -7    0.29    0.09 
   1  10   7    0.17    0.07 
   2  10   7    0.26    0.07 
   3  10   7    0.06    0.03 
   4  10   7    0.05    0.08 
   2 -11  -7    0.18    0.08 
   1 -11  -7    0.16    0.08 
   0 -11  -7    0.13    0.07 
  -1 -11  -7    0.05    0.07 
   1  11   7   -0.01    0.03 
   2  11   7   -0.02    0.04 
   3  11   7    0.21    0.06 
   0 -12  -7    0.23    0.09 
  -1 -12  -7    1.16    0.17 
   1  12   7    1.34    0.16 
   2  12   7    0.45    0.08 
  -1 -10   8    0.79    0.15 
  -3  -9   8    0.79    0.17 
  -2  -9   8    0.20    0.11 
  -1  -9   8    0.11    0.09 
   0  -9   8    1.69    0.21 
   1  -9   8    0.34    0.11 
   2  -9   8    0.44    0.12 
  -3  -8   8    0.48    0.14 
  -2  -8   8    0.05    0.08 
  -1  -8   8    0.22    0.09 
   0  -8   8    4.12    0.28 
   1  -8   8    0.96    0.15 
   2  -8   8    0.12    0.07 
   2  -8   8    0.05    0.06 
   3  -8   8    0.16    0.06 
  -4  -7   8    0.10    0.08 
  -3  -7   8    0.11    0.08 
  -2  -7   8    0.38    0.11 
  -1  -7   8    0.22    0.08 
   0  -7   8    1.23    0.16 
   1  -7   8    0.13    0.07 
   1  -7   8    0.06    0.05 
   2  -7   8    0.11    0.06 
   2  -7   8    0.02    0.06 
   3  -7   8    0.28    0.08 
  -5  -6   8    0.55    0.10 
  -4  -6   8    0.07    0.09 
  -3  -6   8    0.41    0.13 
  -2  -6   8    0.39    0.10 
  -1  -6   8    0.26    0.08 
   0  -6   8    0.25    0.06 
   0  -6   8    0.25    0.08 
   1  -6   8    2.61    0.19 
   1  -6   8    3.06    0.18 
   2  -6   8    0.62    0.11 
   2  -6   8    0.50    0.09 
   3  -6   8    0.12    0.07 
   4  -6   8    0.31    0.08 
  -5  -5   8    0.11    0.06 
  -4  -5   8    0.63    0.15 
  -3  -5   8    0.39    0.11 
  -2  -5   8    0.02    0.05 
  -1  -5   8    2.11    0.17 
  -1  -5   8    1.86    0.11 
   0  -5   8    0.61    0.10 
   0  -5   8    0.51    0.07 
   1  -5   8    1.22    0.13 
   1  -5   8    1.12    0.12 
   2  -5   8    2.13    0.15 
   2  -5   8    2.06    0.18 
   3  -5   8    0.12    0.07 
   4  -5   8    0.07    0.06 
  -5  -4   8   -0.02    0.07 
  -4  -4   8    0.89    0.17 
  -3  -4   8    0.17    0.08 
  -2  -4   8    0.27    0.04 
  -2  -4   8    0.22    0.08 
  -1  -4   8    2.77    0.14 
   0  -4   8    0.92    0.11 
   0  -4   8    0.93    0.09 
   1  -4   8    0.02    0.04 
   1  -4   8    0.07    0.05 
   2  -4   8   11.38    0.46 
   2  -4   8   11.66    0.48 
   3  -4   8    3.24    0.22 
   4  -4   8    0.00    0.05 
   5  -4   8   -0.03    0.07 
  -5  -3   8    0.53    0.12 
  -4  -3   8    0.15    0.08 
  -3  -3   8    2.37    0.14 
  -3  -3   8    2.21    0.22 
  -1  -3   8    1.00    0.07 
  -1  -3   8    0.99    0.12 
   0  -3   8    2.97    0.18 
   0  -3   8    3.07    0.15 
   1  -3   8    2.47    0.15 
   1  -3   8    2.20    0.14 
   2  -3   8    3.91    0.19 
   2  -3   8    3.25    0.20 
   3  -3   8    0.24    0.08 
   4  -3   8    0.19    0.08 
   5  -3   8    0.14    0.09 
  -5  -2   8    0.30    0.09 
  -4  -2   8    0.23    0.10 
  -3  -2   8    3.55    0.19 
  -3  -2   8    3.23    0.24 
  -2  -2   8    1.89    0.17 
  -2  -2   8    1.46    0.10 
  -1  -2   8    2.59    0.13 
  -1  -2   8    2.70    0.17 
   0  -2   8    0.25    0.05 
   0  -2   8    0.27    0.06 
   1  -2   8    2.62    0.15 
   1  -2   8    2.94    0.15 
   2  -2   8    2.99    0.15 
   2  -2   8    2.82    0.18 
   3  -2   8    2.27    0.17 
   4  -2   8    0.00    0.04 
   5  -2   8   -0.01    0.06 
  -5  -1   8    1.01    0.18 
  -4  -1   8    0.01    0.06 
  -4  -1   8    0.05    0.04 
  -3  -1   8    0.60    0.11 
  -3  -1   8    0.48    0.08 
  -2  -1   8    1.79    0.12 
  -2  -1   8    1.73    0.16 
  -1  -1   8    0.24    0.05 
  -1  -1   8    0.22    0.06 
   0  -1   8    0.89    0.09 
   0  -1   8    0.78    0.08 
   1  -1   8    1.00    0.08 
   1  -1   8    0.99    0.09 
   2  -1   8    0.52    0.08 
   2  -1   8    0.44    0.05 
   3  -1   8    1.35    0.14 
   4  -1   8    2.42    0.18 
   5  -1   8   -0.03    0.05 
  -5   0   8    0.62    0.14 
  -4   0   8   -0.05    0.06 
  -3   0   8    0.99    0.11 
  -3   0   8    0.67    0.12 
  -2   0   8    0.77    0.09 
  -2   0   8    0.62    0.10 
  -1   0   8    1.39    0.12 
  -1   0   8    1.38    0.09 
   0   0   8    5.83    0.24 
   0   0   8    5.80    0.24 
   1   0   8   15.96    0.54 
   1   0   8   15.34    0.53 
   2   0   8    0.71    0.09 
   3   0   8    0.19    0.05 
   4   0   8    6.80    0.33 
   5   0   8    0.84    0.14 
   6   0   8    0.12    0.08 
  -5   1   8    0.13    0.08 
  -4   1   8    5.68    0.35 
  -3   1   8    4.74    0.28 
  -3   1   8    4.36    0.24 
  -2   1   8    2.73    0.19 
  -2   1   8    2.74    0.16 
  -1   1   8    1.41    0.11 
  -1   1   8    1.17    0.09 
   0   1   8   24.18    0.79 
   0   1   8   23.99    0.82 
   1   1   8    3.27    0.17 
   2   1   8    5.57    0.25 
   3   1   8    2.68    0.16 
   4   1   8    2.25    0.16 
   5   1   8    0.32    0.08 
   6   1   8    0.24    0.09 
   5  -2  -8    0.91    0.18 
  -4   2   8    8.23    0.44 
  -3   2   8    0.26    0.09 
  -3   2   8    0.38    0.09 
  -2   2   8    0.89    0.11 
  -2   2   8    0.81    0.12 
  -1   2   8   24.98    0.89 
  -1   2   8   23.80    0.83 
  -1   2   8   26.16    0.78 
   0  -2  -8    3.81    0.17 
   0   2   8    3.98    0.18 
   1   2   8    4.87    0.21 
   2   2   8    0.02    0.03 
   3   2   8    1.30    0.12 
   4   2   8    3.48    0.20 
   5   2   8    0.06    0.04 
   5  -3  -8    0.22    0.11 
   4  -3  -8    1.24    0.18 
   3  -3  -8    2.00    0.19 
  -3   3   8    1.66    0.17 
   2  -3  -8    0.92    0.12 
  -2   3   8    0.93    0.12 
   1  -3  -8    0.08    0.04 
  -1   3   8    0.11    0.02 
  -1   3   8    0.11    0.04 
   0  -3  -8    1.03    0.07 
   0   3   8    0.56    0.06 
   0   3   8    0.72    0.08 
  -1  -3  -8    0.07    0.02 
   1   3   8    0.04    0.03 
   1   3   8    0.06    0.04 
   2   3   8    0.99    0.09 
   3   3   8    0.14    0.05 
   4   3   8    0.02    0.04 
   5   3   8    0.86    0.11 
   6   3   8    0.25    0.10 
   5  -4  -8    0.07    0.09 
   4  -4  -8    0.02    0.08 
   3  -4  -8    4.37    0.27 
  -3   4   8    4.30    0.27 
   2  -4  -8    4.72    0.26 
  -2   4   8    5.07    0.27 
   1  -4  -8    6.32    0.29 
  -1   4   8    6.56    0.24 
  -1   4   8    6.67    0.30 
   0   4   8    0.62    0.07 
   0   4   8    0.64    0.08 
  -1  -4  -8    1.94    0.09 
   1   4   8    2.08    0.13 
   1   4   8    1.73    0.12 
   2   4   8    2.11    0.12 
   2   4   8    1.81    0.16 
   3   4   8    2.02    0.13 
   3   4   8    2.28    0.20 
   4   4   8    0.28    0.08 
   4   4   8    0.36    0.06 
   5   4   8    0.35    0.09 
   6   4   8    1.25    0.19 
   5  -5  -8    0.01    0.09 
   4  -5  -8    0.76    0.14 
   3  -5  -8    0.35    0.10 
   2  -5  -8    0.24    0.08 
  -2   5   8    0.22    0.07 
   1  -5  -8    4.16    0.21 
  -1   5   8    3.84    0.17 
  -1   5   8    4.31    0.23 
   0  -5  -8    1.76    0.11 
   0   5   8    1.99    0.12 
   0   5   8    2.12    0.14 
  -1  -5  -8    0.14    0.04 
   1   5   8    0.21    0.05 
   1   5   8    0.23    0.06 
   2   5   8    2.00    0.12 
   2   5   8    2.09    0.16 
   3   5   8    1.85    0.12 
   3   5   8    1.73    0.18 
   4   5   8    0.05    0.05 
   5   5   8    0.52    0.12 
   6   5   8    0.40    0.11 
   5  -6  -8    0.23    0.11 
   4  -6  -8    0.15    0.09 
   3  -6  -8    0.45    0.11 
   2  -6  -8    8.99    0.42 
  -2   6   8    9.64    0.44 
   1  -6  -8    1.10    0.12 
  -1   6   8    0.91    0.08 
  -1   6   8    0.76    0.12 
   0  -6  -8    0.04    0.04 
   0   6   8    0.04    0.04 
   0   6   8    0.02    0.03 
  -1  -6  -8    7.49    0.29 
   1   6   8    6.32    0.30 
   1   6   8    7.21    0.30 
   2   6   8    0.36    0.08 
   2   6   8    0.34    0.06 
   3   6   8    0.26    0.08 
   4   6   8    0.83    0.14 
   5   6   8    0.60    0.13 
   4  -7  -8    0.28    0.11 
   3  -7  -8    0.27    0.10 
   2  -7  -8    4.14    0.25 
   1  -7  -8    3.09    0.19 
  -1   7   8    2.80    0.20 
   0  -7  -8    1.87    0.13 
   0   7   8    2.01    0.15 
   0   7   8    2.01    0.13 
  -1  -7  -8    0.46    0.07 
   1   7   8    0.42    0.08 
   1   7   8    0.60    0.09 
   2   7   8    2.72    0.15 
   2   7   8    2.41    0.18 
   3   7   8    0.17    0.06 
   4   7   8    0.79    0.14 
   5   7   8    0.00    0.06 
   4  -8  -8    3.88    0.29 
   3  -8  -8    0.01    0.06 
   2  -8  -8    0.59    0.12 
   1  -8  -8    1.58    0.15 
  -1   8   8    1.55    0.17 
   0  -8  -8    1.67    0.14 
   0   8   8    1.86    0.17 
   0   8   8    1.80    0.13 
  -1  -8  -8    0.31    0.07 
   1   8   8    0.26    0.07 
   1   8   8    0.27    0.07 
   2   8   8    0.21    0.07 
   3   8   8    0.69    0.12 
   4   8   8    0.36    0.09 
   5   8   8    0.05    0.07 
   3  -9  -8    0.08    0.06 
   2  -9  -8    0.12    0.08 
   1  -9  -8    0.11    0.06 
   0  -9  -8    0.93    0.12 
   0   9   8    0.73    0.11 
   0   9   8    0.90    0.12 
  -1  -9  -8    0.53    0.09 
   1   9   8    0.52    0.09 
   2   9   8    0.16    0.07 
   3   9   8    0.01    0.05 
   4   9   8    0.16    0.05 
   2 -10  -8    0.94    0.14 
   1 -10  -8    0.08    0.06 
   0 -10  -8    1.02    0.13 
   0  10   8    0.77    0.12 
  -1 -10  -8    2.15    0.18 
   1  10   8    1.74    0.18 
   2  10   8    0.32    0.08 
   3  10   8    0.22    0.06 
   4  10   8    0.05    0.03 
   1 -11  -8   -0.01    0.06 
   0 -11  -8    1.65    0.18 
  -1 -11  -8    1.35    0.16 
   1  11   8    1.23    0.16 
   2  11   8    0.41    0.08 
   3  11   8    0.07    0.04 
   1  12   8    0.19    0.06 
  -2  -9   9   -0.01    0.09 
  -1  -9   9    0.12    0.09 
   0  -9   9   -0.04    0.07 
   1  -9   9    0.02    0.08 
  -3  -8   9    0.05    0.08 
  -2  -8   9    0.15    0.10 
  -1  -8   9    0.25    0.11 
   0  -8   9    1.62    0.19 
   1  -8   9    0.16    0.08 
   2  -8   9    0.16    0.09 
   2  -8   9    0.10    0.06 
  -4  -7   9    0.17    0.11 
  -3  -7   9    0.12    0.09 
  -2  -7   9    0.55    0.13 
  -1  -7   9    0.31    0.10 
   0  -7   9    1.11    0.15 
   1  -7   9    1.55    0.15 
   1  -7   9    1.54    0.17 
   2  -7   9    0.03    0.06 
   2  -7   9    0.08    0.07 
   3  -7   9    0.08    0.06 
  -4  -6   9    0.04    0.10 
  -3  -6   9    0.01    0.08 
  -2  -6   9    2.03    0.21 
  -1  -6   9    0.21    0.08 
   0  -6   9    0.19    0.05 
   0  -6   9    0.12    0.07 
   1  -6   9    2.98    0.21 
   1  -6   9    2.99    0.19 
   2  -6   9    0.39    0.10 
   2  -6   9    0.41    0.09 
   3  -6   9    0.70    0.12 
   4  -6   9    0.16    0.06 
  -5  -5   9    0.12    0.07 
  -4  -5   9    0.54    0.15 
  -3  -5   9    1.04    0.17 
  -2  -5   9    0.25    0.08 
  -1  -5   9    0.75    0.12 
   0  -5   9    1.33    0.14 
   0  -5   9    1.40    0.12 
   1  -5   9    0.05    0.05 
   1  -5   9    0.03    0.04 
   2  -5   9    0.59    0.09 
   2  -5   9    0.54    0.10 
   3  -5   9    0.47    0.10 
   4  -5   9    0.01    0.05 
  -5  -4   9    0.18    0.07 
  -4  -4   9    1.16    0.20 
  -3  -4   9    0.70    0.13 
  -2  -4   9    1.39    0.17 
  -1  -4   9    0.48    0.06 
  -1  -4   9    0.51    0.10 
   0  -4   9    1.34    0.13 
   0  -4   9    1.38    0.10 
   1  -4   9    6.54    0.30 
   1  -4   9    5.90    0.28 
   2  -4   9    1.70    0.16 
   2  -4   9    1.50    0.14 
   3  -4   9    0.24    0.08 
   4  -4   9   -0.02    0.05 
  -5  -3   9    0.05    0.07 
  -4  -3   9   -0.07    0.07 
  -3  -3   9    0.18    0.08 
  -2  -3   9    0.12    0.06 
  -2  -3   9    0.11    0.03 
  -1  -3   9    0.89    0.08 
  -1  -3   9    0.87    0.12 
   0  -3   9    0.19    0.05 
   0  -3   9    0.14    0.06 
   1  -3   9    2.71    0.17 
   1  -3   9    2.96    0.17 
   2  -3   9    1.99    0.15 
   2  -3   9    2.10    0.14 
   3  -3   9    4.32    0.26 
   4  -3   9    0.19    0.08 
   5  -3   9    0.13    0.08 
  -5  -2   9    0.53    0.12 
  -4  -2   9    1.23    0.20 
  -3  -2   9    0.11    0.05 
  -3  -2   9    0.03    0.06 
  -2  -2   9    1.02    0.14 
  -2  -2   9    0.81    0.09 
  -1  -2   9    1.08    0.12 
  -1  -2   9    1.11    0.09 
   0  -2   9    7.84    0.31 
   0  -2   9    8.03    0.34 
   1  -2   9    0.42    0.07 
   1  -2   9    0.39    0.07 
   2  -2   9   -0.02    0.04 
   3  -2   9    4.56    0.26 
   4  -2   9    0.04    0.05 
   5  -2   9    0.93    0.17 
  -5  -1   9    0.87    0.18 
  -4  -1   9    1.77    0.16 
  -4  -1   9    1.77    0.22 
  -3  -1   9    0.98    0.11 
  -3  -1   9    1.33    0.17 
  -2  -1   9    0.02    0.03 
  -2  -1   9    0.01    0.05 
  -1  -1   9    7.47    0.35 
  -1  -1   9    8.42    0.32 
   0  -1   9    0.57    0.07 
   0  -1   9    0.62    0.08 
   1  -1   9    2.81    0.15 
   1  -1   9    2.57    0.14 
   2  -1   9    3.81    0.21 
   3  -1   9   -0.02    0.04 
   4  -1   9    0.32    0.08 
   5  -1   9    0.97    0.16 
  -5   0   9    3.48    0.32 
  -4   0   9    0.11    0.06 
  -4   0   9    0.11    0.08 
  -3   0   9    0.07    0.05 
  -3   0   9    0.00    0.05 
  -2   0   9    7.19    0.36 
  -2   0   9    7.88    0.32 
  -1   0   9    1.12    0.09 
  -1   0   9    1.07    0.11 
   0   0   9    5.38    0.23 
   0   0   9    5.18    0.23 
   1   0   9    0.15    0.04 
   1   0   9    0.17    0.04 
   2   0   9    5.09    0.25 
   3   0   9   11.10    0.45 
   4   0   9    0.16    0.06 
   5   0   9    0.17    0.07 
  -5   1   9    1.12    0.21 
  -4   1   9    1.58    0.20 
  -4   1   9    1.23    0.16 
  -3   1   9    1.80    0.18 
  -3   1   9    1.76    0.16 
  -2   1   9    0.08    0.04 
  -2   1   9    0.05    0.06 
  -1   1   9    8.12    0.32 
  -1   1   9    8.52    0.36 
   0   1   9    0.14    0.04 
   0   1   9    0.28    0.05 
   1   1   9   13.24    0.44 
   1   1   9   13.16    0.48 
   2   1   9    0.01    0.03 
   3   1   9   -0.01    0.03 
   4   1   9    1.36    0.14 
   5   1   9    0.74    0.12 
   5  -2  -9    0.05    0.09 
  -4   2   9    0.98    0.17 
  -3   2   9    7.22    0.36 
  -3   2   9    7.52    0.39 
  -2   2   9    5.02    0.25 
  -2   2   9    4.44    0.26 
  -1   2   9    1.43    0.07 
  -1   2   9    1.41    0.13 
  -1   2   9    1.48    0.12 
   0   2   9    4.02    0.19 
   1   2   9    2.28    0.14 
   2   2   9    3.26    0.18 
   3   2   9    3.22    0.18 
   4   2   9    0.80    0.11 
   5   2   9    2.15    0.17 
   6   2   9    0.15    0.06 
   5  -3  -9    0.98    0.18 
   4  -3  -9    0.22    0.10 
   3  -3  -9    0.36    0.10 
  -3   3   9    0.38    0.09 
   2  -3  -9    0.89    0.12 
  -2   3   9    0.64    0.11 
   1  -3  -9    3.66    0.19 
  -1   3   9    3.46    0.13 
  -1   3   9    3.33    0.19 
   0  -3  -9    0.32    0.05 
   0   3   9    0.30    0.06 
   0   3   9    0.33    0.05 
  -1  -3  -9    1.35    0.06 
   1   3   9    1.37    0.13 
   1   3   9    1.32    0.10 
   2   3   9    0.15    0.05 
   3   3   9    0.32    0.06 
   4   3   9    1.96    0.14 
   5   3   9    0.02    0.04 
   6   3   9   -0.01    0.06 
   5  -4  -9    1.00    0.17 
   4  -4  -9    0.04    0.08 
   3  -4  -9    3.69    0.25 
  -3   4   9    3.62    0.25 
   2  -4  -9    3.15    0.21 
  -2   4   9    3.44    0.22 
   1  -4  -9    0.08    0.04 
  -1   4   9    0.10    0.04 
  -1   4   9    0.13    0.03 
   0  -4  -9    3.10    0.15 
   0   4   9    2.72    0.16 
  -1  -4  -9    0.08    0.02 
   1   4   9    0.10    0.04 
   1   4   9    0.05    0.04 
   2   4   9    0.40    0.08 
   2   4   9    0.47    0.07 
   3   4   9    2.10    0.13 
   3   4   9    1.90    0.19 
   4   4   9    2.84    0.22 
   4   4   9    2.59    0.16 
   5   4   9    0.87    0.15 
   5  -5  -9    0.38    0.14 
   4  -5  -9    0.48    0.12 
   3  -5  -9    5.10    0.30 
  -3   5   9    5.09    0.31 
   2  -5  -9    3.62    0.23 
  -2   5   9    3.57    0.23 
   1  -5  -9    7.00    0.31 
  -1   5   9    6.45    0.26 
  -1   5   9    6.94    0.32 
   0   5   9    1.01    0.09 
   0   5   9    0.77    0.10 
  -1  -5  -9    6.73    0.25 
   1   5   9    6.79    0.30 
   1   5   9    6.11    0.27 
   2   5   9    1.42    0.15 
   2   5   9    1.36    0.11 
   3   5   9    3.03    0.22 
   3   5   9    3.31    0.17 
   4   5   9    0.06    0.06 
   5   5   9    0.55    0.13 
   4  -6  -9    0.31    0.11 
   3  -6  -9    0.82    0.15 
   2  -6  -9    0.26    0.08 
  -2   6   9    0.27    0.07 
   1  -6  -9    7.94    0.35 
  -1   6   9    7.49    0.36 
  -1   6   9    7.29    0.29 
   0  -6  -9    0.06    0.04 
   0   6   9    0.04    0.03 
   0   6   9    0.06    0.04 
  -1  -6  -9    1.37    0.09 
   1   6   9    1.52    0.13 
   1   6   9    1.38    0.13 
   2   6   9    2.98    0.17 
   2   6   9    3.01    0.20 
   3   6   9    1.25    0.16 
   3   6   9    0.83    0.10 
   4   6   9    0.14    0.08 
   5   6   9    0.80    0.16 
   4  -7  -9    0.16    0.08 
   3  -7  -9    0.22    0.09 
   2  -7  -9    0.15    0.08 
  -2   7   9    0.23    0.07 
   1  -7  -9    1.83    0.14 
  -1   7   9    1.50    0.17 
   0  -7  -9    3.01    0.18 
   0   7   9    3.00    0.19 
   0   7   9    3.11    0.17 
  -1  -7  -9    1.60    0.11 
   1   7   9    1.67    0.14 
   1   7   9    1.70    0.15 
   2   7   9    0.12    0.05 
   2   7   9    0.05    0.05 
   3   7   9    0.75    0.13 
   4   7   9    0.07    0.05 
   5   7   9    0.62    0.14 
   4  -8  -9    0.60    0.15 
   3  -8  -9    2.87    0.23 
   2  -8  -9    0.40    0.10 
   1  -8  -9    0.09    0.06 
  -1   8   9    0.02    0.05 
   0  -8  -9    5.14    0.25 
   0   8   9    4.78    0.24 
   0   8   9    4.68    0.27 
  -1  -8  -9    1.86    0.13 
   1   8   9    1.86    0.15 
   1   8   9    2.13    0.15 
   2   8   9    0.04    0.05 
   3   8   9    0.69    0.12 
   4   8   9    0.21    0.07 
   5   8   9    0.26    0.10 
   3  -9  -9    0.34    0.10 
   2  -9  -9    0.39    0.10 
   1  -9  -9    2.88    0.20 
   0  -9  -9    2.18    0.16 
   0   9   9    2.01    0.19 
   0   9   9    1.89    0.15 
  -1  -9  -9    1.70    0.14 
   1   9   9    1.79    0.17 
   2   9   9    0.11    0.06 
   3   9   9    0.72    0.13 
   4   9   9    0.07    0.05 
   2 -10  -9    0.57    0.11 
   1 -10  -9   -0.04    0.06 
   0 -10  -9    0.13    0.07 
   0  10   9   -0.02    0.04 
   1  10   9    0.81    0.13 
   2  10   9    0.43    0.09 
   3  10   9    0.24    0.07 
   4  10   9    0.41    0.08 
   1 -11  -9    0.25    0.09 
   0 -11  -9    0.23    0.09 
   1  11   9    0.34    0.07 
   2  11   9    1.33    0.16 
   3  11   9    0.67    0.11 
  -1  -9  10    0.54    0.14 
   0  -9  10    0.74    0.14 
  -2  -8  10    0.21    0.12 
  -1  -8  10    0.20    0.10 
   0  -8  10    0.78    0.15 
   1  -8  10    0.11    0.08 
  -3  -7  10    0.32    0.12 
  -2  -7  10    0.27    0.10 
  -1  -7  10    0.19    0.09 
   0  -7  10    0.18    0.08 
   1  -7  10    0.18    0.06 
   1  -7  10    0.18    0.08 
   2  -7  10    0.25    0.07 
   3  -7  10    0.09    0.05 
  -4  -6  10    0.22    0.13 
  -3  -6  10    0.02    0.08 
  -2  -6  10    0.19    0.09 
  -1  -6  10    0.72    0.13 
   0  -6  10    3.33    0.18 
   0  -6  10    3.24    0.23 
   1  -6  10    0.65    0.12 
   1  -6  10    0.58    0.10 
   2  -6  10    0.38    0.09 
   3  -6  10    0.37    0.08 
  -4  -5  10    0.13    0.11 
  -3  -5  10    0.10    0.08 
  -2  -5  10    0.84    0.14 
  -1  -5  10    0.39    0.09 
   0  -5  10    2.00    0.13 
   0  -5  10    1.99    0.16 
   1  -5  10    1.30    0.14 
   1  -5  10    1.21    0.14 
   2  -5  10    1.52    0.17 
   3  -5  10    0.87    0.14 
   4  -5  10    0.19    0.07 
  -5  -4  10    0.74    0.18 
  -4  -4  10    0.16    0.11 
  -3  -4  10    0.12    0.09 
  -2  -4  10    0.89    0.14 
  -1  -4  10    1.42    0.11 
  -1  -4  10    2.17    0.19 
   0  -4  10    0.05    0.05 
   0  -4  10    0.02    0.04 
   1  -4  10    0.07    0.05 
   1  -4  10    0.02    0.04 
   2  -4  10    1.54    0.16 
   3  -4  10    0.35    0.09 
   4  -4  10    0.65    0.12 
  -5  -3  10    0.20    0.12 
  -4  -3  10    0.05    0.09 
  -3  -3  10    0.13    0.08 
  -2  -3  10    0.35    0.09 
  -2  -3  10    0.20    0.04 
  -1  -3  10    0.01    0.04 
  -1  -3  10    0.01    0.02 
   0  -3  10    0.07    0.06 
   0  -3  10    0.15    0.05 
   1  -3  10    2.65    0.16 
   1  -3  10    2.43    0.16 
   2  -3  10    0.29    0.08 
   3  -3  10    0.33    0.09 
   4  -3  10    0.93    0.14 
   5  -3  10    0.70    0.16 
  -5  -2  10   -0.18    0.09 
  -4  -2  10    0.39    0.12 
  -3  -2  10    0.87    0.11 
  -3  -2  10    1.39    0.18 
  -2  -2  10    1.37    0.16 
  -2  -2  10    1.07    0.11 
  -1  -2  10    0.86    0.12 
  -1  -2  10    0.78    0.09 
   0  -2  10    0.13    0.04 
   0  -2  10    0.13    0.06 
   1  -2  10    7.56    0.33 
   1  -2  10    7.97    0.33 
   2  -2  10    8.93    0.39 
   3  -2  10    0.05    0.05 
   4  -2  10    0.09    0.06 
   5  -2  10    0.55    0.12 
  -5  -1  10    0.31    0.14 
  -4  -1  10    1.26    0.19 
  -4  -1  10    1.10    0.14 
  -3  -1  10    0.80    0.15 
  -3  -1  10    0.70    0.10 
  -2  -1  10    3.00    0.17 
  -2  -1  10    2.54    0.19 
  -1  -1  10    0.48    0.09 
  -1  -1  10    0.32    0.06 
   0  -1  10    6.97    0.30 
   0  -1  10    6.27    0.28 
   1  -1  10    1.56    0.12 
   1  -1  10    1.53    0.11 
   2  -1  10    0.07    0.05 
   3  -1  10    0.20    0.06 
   4  -1  10    0.28    0.09 
   5  -1  10    0.81    0.15 
  -5   0  10    0.00    0.11 
  -4   0  10    3.64    0.24 
  -4   0  10    3.40    0.27 
  -3   0  10    2.32    0.17 
  -3   0  10    2.23    0.22 
  -2   0  10    0.08    0.05 
  -2   0  10    0.08    0.04 
  -1   0  10    2.02    0.14 
  -1   0  10    1.80    0.12 
   0   0  10    3.13    0.17 
   0   0  10    3.16    0.17 
   1   0  10    1.58    0.12 
   1   0  10    1.41    0.09 
   2   0  10    1.76    0.13 
   3   0  10    0.72    0.10 
   4   0  10    1.36    0.16 
   5   0  10    0.80    0.14 
  -5   1  10    0.13    0.13 
  -4   1  10    0.08    0.06 
  -4   1  10    0.21    0.10 
  -3   1  10    0.18    0.06 
  -3   1  10    0.14    0.07 
  -2   1  10    2.10    0.15 
  -2   1  10    1.95    0.16 
  -1   1  10   -0.02    0.04 
  -1   1  10    0.04    0.03 
   0   1  10    0.86    0.09 
   0   1  10    0.93    0.09 
   1   1  10    0.41    0.07 
   2   1  10    1.57    0.13 
   3   1  10    4.42    0.24 
   4   1  10    0.17    0.05 
   5   1  10    0.38    0.09 
   5  -2 -10    0.10    0.10 
  -4   2  10    0.59    0.14 
  -4   2  10    0.57    0.11 
  -3   2  10    1.32    0.17 
  -3   2  10    1.81    0.18 
  -2   2  10    2.62    0.18 
  -2   2  10    2.59    0.19 
  -1   2  10    0.10    0.05 
  -1   2  10    0.11    0.06 
   0   2  10    2.64    0.16 
   0   2  10    2.88    0.15 
   1   2  10    0.03    0.03 
   2   2  10    4.87    0.23 
   3   2  10    8.62    0.37 
   4   2  10    1.59    0.15 
   5   2  10    0.00    0.05 
   5  -3 -10    0.57    0.15 
   4  -3 -10    1.84    0.22 
  -4   3  10    2.02    0.21 
   3  -3 -10    1.63    0.18 
  -3   3  10    1.43    0.17 
   2  -3 -10    5.13    0.29 
  -2   3  10    5.38    0.28 
   1  -3 -10    0.05    0.05 
  -1   3  10    0.07    0.04 
   0  -3 -10    3.74    0.18 
   0   3  10    3.83    0.20 
   0   3  10    4.02    0.18 
   1   3  10    1.97    0.14 
   1   3  10    1.66    0.12 
   2   3  10    1.43    0.12 
   3   3  10    0.64    0.09 
   4   3  10    0.98    0.12 
   5   3  10    0.09    0.05 
   5  -4 -10    0.66    0.15 
   4  -4 -10    0.20    0.10 
   3  -4 -10    0.19    0.08 
  -3   4  10    0.13    0.07 
   2  -4 -10    7.96    0.38 
  -2   4  10    7.96    0.38 
   1  -4 -10    0.13    0.05 
  -1   4  10    0.21    0.06 
   0  -4 -10    0.64    0.07 
   0   4  10    0.60    0.07 
   0   4  10    0.52    0.08 
   1   4  10    3.06    0.18 
   1   4  10    3.11    0.17 
   2   4  10    2.80    0.16 
   2   4  10    2.83    0.19 
   3   4  10    0.04    0.05 
   3   4  10    0.08    0.04 
   4   4  10    0.55    0.09 
   4   4  10    0.50    0.12 
   5   4  10    0.35    0.10 
   4  -5 -10    0.07    0.08 
   3  -5 -10    0.05    0.07 
  -3   5  10    0.05    0.06 
   2  -5 -10    0.34    0.09 
  -2   5  10    0.30    0.08 
   1  -5 -10    7.54    0.34 
  -1   5  10    7.46    0.35 
   0  -5 -10    5.77    0.26 
   0   5  10    6.81    0.30 
   1   5  10    0.15    0.05 
   1   5  10    0.14    0.05 
   2   5  10    4.99    0.27 
   2   5  10    4.71    0.23 
   3   5  10    0.36    0.07 
   3   5  10    0.24    0.08 
   4   5  10    2.78    0.22 
   5   5  10    0.76    0.16 
   4  -6 -10    0.99    0.17 
   3  -6 -10    0.04    0.07 
  -3   6  10    0.07    0.07 
   2  -6 -10    0.17    0.08 
  -2   6  10    0.21    0.07 
   1  -6 -10    4.27    0.24 
  -1   6  10    4.75    0.26 
   0  -6 -10    8.89    0.37 
   0   6  10    9.41    0.37 
   0   6  10    9.89    0.41 
   1   6  10    0.21    0.06 
   1   6  10    0.15    0.05 
   2   6  10    8.27    0.34 
   2   6  10    7.86    0.38 
   3   6  10    0.12    0.07 
   3   6  10    0.16    0.05 
   4   6  10    0.51    0.12 
   5   6  10    1.53    0.21 
   4  -7 -10    0.29    0.11 
   3  -7 -10    1.74    0.20 
   2  -7 -10    1.38    0.17 
  -2   7  10    1.58    0.19 
   1  -7 -10    0.70    0.11 
  -1   7  10    0.41    0.09 
   0  -7 -10    1.20    0.11 
   0   7  10    1.14    0.11 
   0   7  10    1.36    0.15 
   1   7  10    0.26    0.07 
   1   7  10    0.18    0.06 
   2   7  10    1.25    0.15 
   2   7  10    0.95    0.11 
   3   7  10    0.08    0.06 
   4   7  10    0.20    0.07 
   5   7  10    0.36    0.12 
   3  -8 -10    1.65    0.19 
   2  -8 -10    0.24    0.09 
  -2   8  10    0.24    0.08 
   1  -8 -10    0.04    0.06 
  -1   8  10    0.18    0.07 
   0  -8 -10    2.01    0.15 
   0   8  10    2.00    0.19 
   0   8  10    1.90    0.14 
   1   8  10    0.44    0.08 
   1   8  10    0.38    0.08 
   2   8  10    0.12    0.06 
   3   8  10    0.28    0.08 
   4   8  10    0.59    0.11 
   3  -9 -10    1.72    0.21 
   2  -9 -10    0.43    0.11 
   1  -9 -10    0.28    0.08 
  -1   9  10    0.29    0.08 
   0  -9 -10    0.34    0.09 
   0   9  10    0.31    0.08 
   0   9  10    0.38    0.08 
   1   9  10    3.81    0.23 
   2   9  10    2.27    0.21 
   3   9  10    0.09    0.05 
   4   9  10    1.28    0.17 
   2 -10 -10    0.13    0.08 
   1 -10 -10    0.15    0.07 
   0 -10 -10    0.01    0.06 
   0  10  10    0.06    0.05 
   1  10  10    0.16    0.06 
   2  10  10    1.41    0.17 
   3  10  10    0.18    0.06 
   1 -11 -10    0.77    0.14 
   1  11  10    0.12    0.05 
   2  11  10    0.39    0.08 
  -2  -8  11    0.29    0.12 
  -1  -8  11    0.88    0.17 
   0  -8  11    0.05    0.09 
  -3  -7  11    0.25    0.12 
  -2  -7  11    0.55    0.13 
  -1  -7  11    0.81    0.16 
   0  -7  11    0.28    0.09 
   1  -7  11    0.14    0.08 
   2  -7  11    1.28    0.16 
  -3  -6  11    0.91    0.18 
  -2  -6  11   -0.02    0.06 
  -1  -6  11    0.42    0.11 
   0  -6  11    0.01    0.06 
   1  -6  11    0.07    0.05 
   1  -6  11    0.11    0.07 
   2  -6  11    0.14    0.06 
   3  -6  11    0.48    0.09 
  -4  -5  11    0.30    0.14 
  -3  -5  11    0.44    0.13 
  -2  -5  11   -0.06    0.06 
  -1  -5  11    0.08    0.07 
   0  -5  11    0.23    0.06 
   0  -5  11    0.41    0.09 
   1  -5  11    0.22    0.07 
   1  -5  11    0.08    0.05 
   2  -5  11    0.04    0.05 
   3  -5  11    0.24    0.06 
  -4  -4  11    0.14    0.11 
  -3  -4  11    1.06    0.18 
  -2  -4  11    0.14    0.07 
  -1  -4  11    0.88    0.09 
  -1  -4  11    1.09    0.15 
   0  -4  11    6.28    0.32 
   0  -4  11    6.13    0.28 
   1  -4  11    2.53    0.17 
   1  -4  11    2.48    0.17 
   2  -4  11    0.00    0.05 
   3  -4  11    0.14    0.06 
   4  -4  11    1.49    0.17 
  -5  -3  11    0.29    0.13 
  -4  -3  11    0.84    0.18 
  -3  -3  11    0.21    0.10 
  -2  -3  11    0.05    0.04 
  -2  -3  11    0.10    0.07 
  -1  -3  11    0.62    0.11 
  -1  -3  11    0.70    0.09 
   0  -3  11    2.54    0.18 
   0  -3  11    2.93    0.17 
   1  -3  11    0.07    0.04 
   2  -3  11    0.09    0.06 
   3  -3  11    0.30    0.08 
   4  -3  11    2.26    0.22 
  -5  -2  11    0.84    0.19 
  -4  -2  11    1.30    0.21 
  -3  -2  11    0.41    0.08 
  -3  -2  11    0.20    0.08 
  -2  -2  11    0.34    0.10 
  -2  -2  11    0.17    0.05 
  -1  -2  11    3.79    0.20 
  -1  -2  11    3.96    0.24 
   0  -2  11    0.06    0.05 
   0  -2  11    0.07    0.04 
   1  -2  11    0.03    0.04 
   2  -2  11    0.34    0.09 
   3  -2  11    0.20    0.07 
   4  -2  11    0.97    0.15 
   5  -2  11    0.11    0.08 
  -5  -1  11    0.03    0.12 
  -4  -1  11    0.84    0.13 
  -4  -1  11    0.53    0.14 
  -3  -1  11    0.42    0.09 
  -3  -1  11    0.62    0.13 
  -2  -1  11    0.17    0.08 
  -2  -1  11    0.40    0.08 
  -1  -1  11    8.63    0.40 
  -1  -1  11    9.20    0.36 
   0  -1  11    0.67    0.09 
   0  -1  11    0.69    0.09 
   1  -1  11    4.92    0.24 
   2  -1  11    2.07    0.15 
   3  -1  11    0.02    0.04 
   4  -1  11    0.10    0.06 
   5  -1  11    0.07    0.08 
  -5   0  11   -0.01    0.11 
  -4   0  11    0.41    0.09 
  -4   0  11    0.36    0.11 
  -3   0  11    6.02    0.31 
  -3   0  11    6.82    0.37 
  -2   0  11    0.01    0.05 
  -2   0  11    0.06    0.05 
  -1   0  11    9.34    0.38 
  -1   0  11    9.70    0.42 
   0   0  11    0.45    0.07 
   0   0  11    0.51    0.08 
   1   0  11    6.49    0.29 
   2   0  11   14.40    0.55 
   3   0  11    0.30    0.07 
   4   0  11    0.12    0.05 
   5   0  11    0.06    0.07 
  -5   1  11    0.03    0.12 
  -4   1  11    0.16    0.10 
  -4   1  11    0.19    0.07 
  -3   1  11    1.18    0.15 
  -3   1  11    1.48    0.18 
  -2   1  11    2.24    0.16 
  -2   1  11    2.11    0.19 
  -1   1  11    0.10    0.04 
  -1   1  11    0.07    0.06 
   0   1  11    0.32    0.07 
   0   1  11    0.38    0.07 
   1   1  11    0.85    0.10 
   2   1  11    1.14    0.12 
   3   1  11    0.76    0.11 
   4   1  11    0.45    0.09 
   5   1  11    0.21    0.08 
   5  -2 -11    0.01    0.10 
  -4   2  11    0.15    0.07 
  -4   2  11    0.28    0.11 
  -3   2  11    2.39    0.21 
  -3   2  11    2.50    0.23 
  -2   2  11    0.32    0.08 
  -2   2  11    0.27    0.08 
  -1   2  11    1.64    0.14 
  -1   2  11    1.31    0.13 
   0   2  11    0.56    0.07 
   0   2  11    0.50    0.09 
   1   2  11    4.39    0.22 
   2   2  11    1.66    0.14 
   3   2  11    0.18    0.05 
   4   2  11    0.14    0.05 
   5   2  11    0.25    0.08 
   5  -3 -11    0.23    0.12 
   4  -3 -11    0.27    0.12 
  -4   3  11    0.17    0.07 
   3  -3 -11    0.16    0.09 
  -3   3  11    0.07    0.05 
   2  -3 -11    8.05    0.39 
  -2   3  11    8.07    0.38 
   1  -3 -11    6.52    0.30 
  -1   3  11    6.34    0.30 
   0  -3 -11    0.26    0.05 
   0   3  11    0.26    0.06 
   0   3  11    0.29    0.06 
   1   3  11   21.27    0.74 
   2   3  11    0.51    0.08 
   3   3  11    8.43    0.36 
   4   3  11    0.37    0.08 
   5   3  11   -0.01    0.05 
   4  -4 -11    0.10    0.09 
   3  -4 -11    0.13    0.08 
  -3   4  11    0.33    0.09 
   2  -4 -11    1.13    0.14 
  -2   4  11    1.34    0.16 
   1  -4 -11   21.96    0.79 
  -1   4  11   21.01    0.78 
   0  -4 -11    0.48    0.07 
   0   4  11    0.25    0.06 
   0   4  11    0.34    0.06 
   1   4  11   29.23    1.03 
   1   4  11   31.18    1.01 
   2   4  11    0.19    0.06 
   2   4  11    0.21    0.07 
   3   4  11    1.15    0.12 
   3   4  11    1.20    0.16 
   4   4  11    3.26    0.19 
   4   4  11    2.88    0.26 
   5   4  11    0.00    0.07 
   4  -5 -11    1.93    0.22 
   3  -5 -11    0.06    0.08 
  -3   5  11    0.02    0.06 
   2  -5 -11    0.04    0.07 
  -2   5  11    0.03    0.05 
   1  -5 -11    0.29    0.08 
  -1   5  11    0.20    0.07 
   0   5  11    2.60    0.17 
   0   5  11    1.78    0.12 
   1   5  11    1.16    0.12 
   1   5  11    1.66    0.15 
   2   5  11    0.11    0.07 
   2   5  11    0.33    0.06 
   3   5  11    3.20    0.18 
   3   5  11    3.08    0.22 
   4   5  11    0.90    0.11 
   4   5  11    0.87    0.14 
   5   5  11    0.26    0.09 
   4  -6 -11    2.61    0.26 
   3  -6 -11    1.35    0.17 
  -3   6  11    1.14    0.18 
   2  -6 -11    0.37    0.10 
  -2   6  11    0.48    0.11 
   1  -6 -11    0.87    0.12 
  -1   6  11    0.78    0.13 
   0  -6 -11    0.14    0.05 
   0   6  11    0.27    0.06 
   0   6  11    0.19    0.06 
   1   6  11    2.33    0.16 
   1   6  11    2.34    0.16 
   2   6  11    0.10    0.05 
   2   6  11    0.09    0.06 
   3   6  11    0.40    0.11 
   3   6  11    0.42    0.08 
   4   6  11    1.86    0.22 
   5   6  11    0.13    0.05 
   4  -7 -11    1.32    0.20 
   3  -7 -11    0.53    0.13 
   2  -7 -11    0.35    0.10 
  -2   7  11    0.29    0.10 
   1  -7 -11    0.01    0.06 
  -1   7  11    0.12    0.07 
   0  -7 -11    6.98    0.30 
   0   7  11    6.67    0.33 
   0   7  11    6.52    0.30 
   1   7  11    4.60    0.25 
   1   7  11    4.94    0.26 
   2   7  11    0.08    0.06 
   2   7  11    0.10    0.05 
   3   7  11    6.98    0.37 
   4   7  11    0.06    0.05 
   5   7  11    1.54    0.19 
   3  -8 -11    0.31    0.11 
   2  -8 -11    0.07    0.08 
  -2   8  11    0.14    0.08 
   1  -8 -11    0.12    0.07 
  -1   8  11    0.13    0.07 
   0   8  11    0.06    0.05 
   0   8  11    0.06    0.04 
   1   8  11    3.21    0.21 
   1   8  11    3.04    0.20 
   2   8  11   -0.06    0.04 
   3   8  11    6.83    0.37 
   4   8  11    0.04    0.05 
   2  -9 -11    0.90    0.15 
   1  -9 -11    0.48    0.10 
  -1   9  11    0.37    0.10 
   0   9  11    0.07    0.06 
   1   9  11    3.30    0.21 
   2   9  11    0.91    0.14 
   3   9  11    2.97    0.22 
   4   9  11    0.06    0.03 
   2 -10 -11    4.13    0.27 
   1 -10 -11    0.67    0.12 
   1  10  11    0.04    0.04 
   2  10  11    0.36    0.08 
   3  10  11    0.51    0.08 
   1  11  11    0.40    0.08 
   2  11  11    0.96    0.12 
  -2  -7  12    0.18    0.09 
  -1  -7  12   -0.08    0.09 
   0  -7  12    0.01    0.08 
  -3  -6  12    0.11    0.11 
  -2  -6  12    0.75    0.15 
  -1  -6  12    3.07    0.25 
   0  -6  12    0.58    0.13 
   1  -6  12    0.05    0.05 
   2  -6  12    0.29    0.07 
  -4  -5  12    0.05    0.11 
  -3  -5  12    0.06    0.10 
  -2  -5  12    0.06    0.09 
  -1  -5  12    1.50    0.18 
   0  -5  12    0.15    0.06 
   0  -5  12    0.06    0.07 
   1  -5  12    0.65    0.10 
   2  -5  12    0.90    0.13 
   3  -5  12    2.67    0.20 
  -4  -4  12    0.43    0.15 
  -3  -4  12    0.14    0.10 
  -2  -4  12    3.30    0.25 
  -1  -4  12    0.64    0.12 
  -1  -4  12    0.68    0.09 
   0  -4  12    1.23    0.15 
   0  -4  12    1.37    0.13 
   1  -4  12   -0.01    0.04 
   2  -4  12    0.12    0.06 
   3  -4  12    0.74    0.12 
   4  -4  12    0.05    0.04 
  -4  -3  12    0.04    0.11 
  -3  -3  12    0.35    0.12 
  -2  -3  12    8.17    0.35 
  -2  -3  12    8.42    0.43 
  -1  -3  12    0.26    0.06 
  -1  -3  12    0.33    0.09 
   0  -3  12    4.12    0.22 
   0  -3  12    4.45    0.25 
   1  -3  12    0.28    0.07 
   2  -3  12    0.03    0.05 
   3  -3  12    0.08    0.05 
   4  -3  12    0.36    0.07 
  -3  -2  12    0.06    0.07 
  -3  -2  12    0.12    0.05 
  -2  -2  12    7.60    0.40 
  -2  -2  12    7.68    0.34 
  -1  -2  12    0.47    0.08 
  -1  -2  12    0.47    0.10 
   0  -2  12    6.04    0.28 
   0  -2  12    5.84    0.30 
   1  -2  12   10.67    0.44 
   2  -2  12    0.10    0.05 
   3  -2  12    0.04    0.05 
   4  -2  12    0.23    0.09 
  -5  -1  12    0.22    0.12 
  -4  -1  12    0.02    0.09 
  -3  -1  12    1.83    0.16 
  -3  -1  12    1.58    0.20 
  -2  -1  12    0.14    0.07 
  -2  -1  12    0.09    0.05 
  -1  -1  12    0.01    0.03 
  -1  -1  12    0.11    0.06 
   0  -1  12    3.63    0.20 
   0  -1  12    3.43    0.20 
   1  -1  12    0.54    0.09 
   2  -1  12    0.39    0.09 
   3  -1  12    0.61    0.11 
   4  -1  12    1.51    0.18 
   5  -1  12    3.45    0.26 
  -5   0  12    0.20    0.14 
  -4   0  12    0.30    0.12 
  -4   0  12    0.25    0.08 
  -3   0  12    0.35    0.08 
  -3   0  12    0.35    0.10 
  -2   0  12    3.83    0.24 
  -2   0  12    3.63    0.22 
  -1   0  12    0.06    0.06 
  -1   0  12    0.05    0.04 
   0   0  12    4.07    0.21 
   0   0  12    3.80    0.21 
   1   0  12    3.54    0.20 
   2   0  12    1.88    0.14 
   3   0  12    0.02    0.04 
   4   0  12    0.64    0.12 
   5   0  12    1.29    0.17 
  -5   1  12    0.08    0.12 
  -4   1  12    0.22    0.08 
  -4   1  12    0.33    0.13 
  -3   1  12    4.77    0.30 
  -3   1  12    4.68    0.27 
  -2   1  12    2.32    0.18 
  -2   1  12    1.75    0.18 
  -1   1  12    0.63    0.10 
  -1   1  12    0.40    0.08 
   0   1  12   34.10    1.13 
   1   1  12    0.79    0.10 
   2   1  12   14.27    0.55 
   3   1  12    0.08    0.05 
   4   1  12    0.06    0.05 
   5   1  12    0.09    0.07 
   5  -2 -12    0.05    0.13 
  -4   2  12    0.18    0.07 
  -4   2  12    0.09    0.09 
  -3   2  12    0.14    0.09 
  -3   2  12    0.19    0.07 
  -2   2  12   16.74    0.70 
  -2   2  12   17.65    0.66 
  -1   2  12    0.13    0.06 
  -1   2  12    0.26    0.08 
   0   2  12   36.13    1.19 
   1   2  12    0.18    0.05 
   2   2  12    2.03    0.15 
   3   2  12    4.12    0.23 
   4   2  12    0.27    0.07 
   5   2  12    0.05    0.07 
   4  -3 -12    0.58    0.15 
  -4   3  12    0.65    0.13 
   3  -3 -12    0.09    0.09 
  -3   3  12    0.06    0.06 
   2  -3 -12    2.08    0.19 
  -2   3  12    2.22    0.19 
   1  -3 -12    3.93    0.22 
  -1   3  12    3.75    0.22 
   0   3  12    1.29    0.10 
   0   3  12    1.31    0.13 
   1   3  12    0.35    0.08 
   2   3  12    7.24    0.33 
   3   3  12    1.40    0.14 
   4   3  12    0.21    0.06 
   5   3  12    0.00    0.06 
   4  -4 -12    1.37    0.19 
  -4   4  12    1.37    0.18 
   3  -4 -12    0.36    0.12 
  -3   4  12    0.40    0.10 
   2  -4 -12   -0.04    0.06 
  -2   4  12    0.08    0.05 
   1  -4 -12    0.35    0.08 
  -1   4  12    0.13    0.06 
   0   4  12   10.21    0.39 
   0   4  12    9.81    0.41 
   1   4  12    0.08    0.05 
   1   4  12    0.04    0.04 
   2   4  12    0.04    0.05 
   2   4  12    0.04    0.04 
   3   4  12    2.59    0.17 
   3   4  12    2.84    0.22 
   4   4  12    0.28    0.07 
   4   4  12    0.21    0.08 
   5   4  12    0.08    0.04 
   4  -5 -12    0.60    0.14 
   3  -5 -12    0.11    0.09 
  -3   5  12    0.27    0.08 
   2  -5 -12    0.37    0.10 
  -2   5  12    0.50    0.11 
   1  -5 -12    7.55    0.35 
  -1   5  12    7.53    0.37 
   0   5  12    4.02    0.23 
   1   5  12    0.07    0.05 
   1   5  12    0.09    0.05 
   2   5  12   18.36    0.72 
   2   5  12   18.76    0.68 
   3   5  12    0.39    0.10 
   3   5  12    0.47    0.08 
   4   5  12    3.75    0.22 
   4   5  12    4.04    0.27 
   5   5  12    0.06    0.04 
   4  -6 -12    0.54    0.14 
   3  -6 -12   -0.05    0.08 
  -3   6  12    0.14    0.09 
   2  -6 -12    0.01    0.07 
  -2   6  12    0.01    0.05 
   1  -6 -12    0.02    0.06 
  -1   6  12   -0.02    0.04 
   0   6  12    4.43    0.26 
   1   6  12    0.03    0.05 
   1   6  12    0.10    0.05 
   2   6  12   13.59    0.55 
   2   6  12   12.28    0.50 
   3   6  12    0.06    0.05 
   3   6  12   -0.06    0.05 
   4   6  12    0.01    0.05 
   5   6  12    0.44    0.08 
   3  -7 -12    0.71    0.14 
  -3   7  12    0.40    0.13 
   2  -7 -12    1.08    0.15 
  -2   7  12    1.01    0.16 
   1  -7 -12    0.03    0.06 
  -1   7  12    0.14    0.07 
   0   7  12    7.45    0.37 
   1   7  12    1.46    0.16 
   1   7  12    1.81    0.16 
   2   7  12    5.36    0.27 
   2   7  12    5.84    0.31 
   3   7  12    0.07    0.05 
   4   7  12    0.88    0.14 
   3  -8 -12    6.05    0.37 
   2  -8 -12    1.78    0.19 
  -2   8  12    1.51    0.22 
   1  -8 -12    1.05    0.14 
  -1   8  12    0.79    0.15 
   0   8  12    0.10    0.06 
   1   8  12    0.64    0.11 
   1   8  12    0.50    0.09 
   2   8  12    1.87    0.18 
   3   8  12    0.23    0.08 
   4   8  12    0.11    0.05 
   2  -9 -12    0.17    0.09 
  -2   9  12    0.18    0.10 
   1  -9 -12   -0.01    0.07 
  -1   9  12    0.04    0.08 
   0   9  12    0.07    0.07 
   1   9  12    3.02    0.20 
   2   9  12    0.84    0.13 
   3   9  12   -0.06    0.04 
  -1  10  12    0.63    0.15 
   1  10  12    0.08    0.05 
   2  10  12    0.04    0.04 
   3  10  12    0.07    0.04 
  -1  -7  13    0.04    0.10 
  -2  -6  13    0.70    0.15 
  -1  -6  13    0.53    0.13 
   1  -6  13    0.13    0.05 
   2  -6  13    0.52    0.09 
  -2  -5  13    0.15    0.10 
  -1  -5  13    1.72    0.20 
   0  -5  13    0.09    0.05 
   1  -5  13    0.02    0.04 
   2  -5  13    0.11    0.05 
   3  -5  13    0.54    0.09 
  -3  -4  13    2.95    0.30 
  -2  -4  13    0.22    0.10 
  -1  -4  13    2.01    0.15 
  -1  -4  13    2.27    0.21 
   0  -4  13    3.78    0.22 
   1  -4  13    0.11    0.06 
   2  -4  13    0.13    0.06 
   3  -4  13    0.42    0.08 
  -4  -3  13    0.28    0.14 
  -3  -3  13    0.14    0.09 
  -2  -3  13    0.20    0.06 
  -2  -3  13    0.21    0.09 
  -1  -3  13    1.64    0.18 
  -1  -3  13    1.62    0.14 
   0  -3  13    0.10    0.05 
   1  -3  13    0.26    0.07 
   2  -3  13    0.16    0.06 
   3  -3  13    1.00    0.14 
   4  -3  13    2.62    0.20 
  -4  -2  13    0.08    0.11 
  -3  -2  13    2.00    0.24 
  -2  -2  13    0.04    0.04 
  -2  -2  13    0.10    0.08 
  -1  -2  13    2.42    0.16 
  -1  -2  13    2.67    0.20 
   0  -2  13    2.45    0.16 
   1  -2  13    1.07    0.13 
   2  -2  13    0.19    0.06 
   3  -2  13    0.42    0.09 
   4  -2  13    1.47    0.20 
  -4  -1  13    2.01    0.25 
  -3  -1  13    0.39    0.12 
  -3  -1  13    0.37    0.09 
  -2  -1  13    0.38    0.10 
  -2  -1  13    0.42    0.08 
  -1  -1  13   16.96    0.62 
  -1  -1  13   16.37    0.67 
   0  -1  13    0.70    0.10 
   1  -1  13    7.14    0.33 
   2  -1  13    0.12    0.06 
   3  -1  13    0.08    0.06 
   4  -1  13    0.05    0.07 
  -4   0  13    0.08    0.11 
  -4   0  13    0.13    0.06 
  -3   0  13    5.07    0.32 
  -3   0  13    4.83    0.28 
  -2   0  13    0.28    0.08 
  -2   0  13    0.12    0.07 
  -1   0  13   14.25    0.56 
  -1   0  13   15.31    0.60 
   0   0  13    0.20    0.06 
   1   0  13    1.27    0.13 
   2   0  13    2.34    0.17 
   3   0  13    0.09    0.06 
   4   0  13    0.20    0.08 
  -4   1  13    0.06    0.11 
  -4   1  13    0.10    0.06 
  -3   1  13    1.41    0.18 
  -3   1  13    1.17    0.15 
  -2   1  13    1.42    0.16 
  -2   1  13    1.63    0.16 
  -1   1  13    1.44    0.15 
  -1   1  13    1.61    0.14 
   0   1  13   -0.01    0.04 
   1   1  13    4.65    0.25 
   2   1  13    1.10    0.13 
   3   1  13    0.15    0.06 
   4   1  13    0.15    0.07 
   5   1  13    0.03    0.06 
  -4   2  13   -0.04    0.08 
  -4   2  13    0.03    0.05 
  -3   2  13    0.04    0.05 
  -3   2  13    0.01    0.06 
  -2   2  13    0.04    0.05 
  -2   2  13    0.05    0.05 
  -1   2  13    6.55    0.33 
  -1   2  13    7.02    0.33 
   0   2  13    0.17    0.06 
   1   2  13    0.11    0.05 
   2   2  13    1.63    0.15 
   3   2  13    0.28    0.07 
   4   2  13    0.42    0.09 
   5   2  13    0.15    0.08 
   4  -3 -13    0.08    0.11 
  -4   3  13   -0.01    0.05 
   3  -3 -13    0.04    0.09 
  -3   3  13   -0.03    0.05 
   2  -3 -13    3.98    0.26 
  -2   3  13    4.02    0.25 
   1  -3 -13    1.10    0.12 
  -1   3  13    1.15    0.14 
   0   3  13    0.11    0.06 
   1   3  13   20.79    0.75 
   2   3  13    0.94    0.12 
   3   3  13    3.04    0.19 
   4   3  13    0.15    0.06 
   5   3  13    0.05    0.07 
   4  -4 -13    0.41    0.12 
  -4   4  13    0.22    0.07 
   3  -4 -13    0.07    0.09 
  -3   4  13   -0.03    0.04 
   2  -4 -13    0.02    0.07 
  -2   4  13    0.10    0.06 
   1  -4 -13    2.55    0.19 
  -1   4  13    2.54    0.19 
   0   4  13    0.10    0.05 
   1   4  13   10.06    0.42 
   1   4  13   10.03    0.42 
   2   4  13    0.22    0.06 
   2   4  13    0.26    0.08 
   3   4  13    0.04    0.06 
   3   4  13    0.10    0.05 
   4   4  13    0.71    0.13 
   4   4  13    0.78    0.11 
   5   4  13    0.00    0.05 
   4  -5 -13    0.61    0.15 
  -4   5  13    0.49    0.08 
   3  -5 -13    0.07    0.09 
  -3   5  13    0.18    0.08 
   2  -5 -13    0.03    0.07 
  -2   5  13   -0.03    0.04 
   1  -5 -13    3.64    0.22 
  -1   5  13    3.57    0.24 
   0   5  13    0.44    0.09 
   1   5  13    5.88    0.30 
   1   5  13    6.61    0.31 
   2   5  13    0.13    0.05 
   2   5  13    0.13    0.06 
   3   5  13    0.60    0.09 
   3   5  13    0.63    0.12 
   4   5  13    0.78    0.13 
   4   5  13    0.59    0.10 
   3  -6 -13    0.64    0.14 
  -3   6  13    0.88    0.17 
   2  -6 -13    0.16    0.09 
  -2   6  13    0.01    0.07 
   1  -6 -13   -0.07    0.06 
  -1   6  13   -0.02    0.05 
   0   6  13    0.27    0.08 
   1   6  13    1.76    0.17 
   1   6  13    2.04    0.15 
   2   6  13    0.81    0.14 
   2   6  13    0.55    0.10 
   3   6  13    0.24    0.07 
   3   6  13    0.10    0.05 
   4   6  13    0.03    0.05 
   3  -7 -13    0.78    0.15 
  -3   7  13    0.79    0.17 
   2  -7 -13    0.36    0.11 
  -2   7  13    0.21    0.10 
  -1   7  13    0.06    0.06 
   0   7  13    2.41    0.21 
   1   7  13    0.77    0.11 
   1   7  13    0.61    0.11 
   2   7  13    0.04    0.04 
   2   7  13    0.05    0.05 
   3   7  13    3.19    0.23 
   4   7  13    0.39    0.09 
   2  -8 -13    1.03    0.16 
  -2   8  13    0.84    0.17 
  -1   8  13    0.65    0.14 
   0   8  13    0.08    0.06 
   1   8  13    0.36    0.08 
   1   8  13    0.31    0.08 
   2   8  13    0.05    0.05 
   3   8  13    1.43    0.17 
   4   8  13    0.23    0.05 
   2  -9 -13    0.06    0.08 
  -2   9  13    0.18    0.12 
  -1   9  13    0.18    0.09 
   0   9  13    0.05    0.07 
   1   9  13    0.15    0.05 
   2   9  13    0.22    0.07 
   3   9  13    1.19    0.15 
  -1  10  13    0.22    0.11 
   2  10  13    0.18    0.06 
  -1  -6  14    0.69    0.15 
   1  -6  14    0.00    0.04 
  -2  -5  14    0.45    0.14 
  -1  -5  14    0.16    0.09 
   0  -5  14    0.23    0.06 
   1  -5  14    0.07    0.04 
   2  -5  14    0.12    0.05 
  -3  -4  14    0.23    0.12 
  -2  -4  14    1.20    0.19 
  -1  -4  14    0.31    0.07 
  -1  -4  14    0.76    0.13 
   0  -4  14    0.27    0.07 
   1  -4  14   -0.01    0.04 
   2  -4  14    0.10    0.05 
   3  -4  14    1.02    0.13 
  -3  -3  14    0.08    0.10 
  -2  -3  14    4.05    0.29 
  -1  -3  14    0.28    0.09 
  -1  -3  14    0.17    0.06 
   0  -3  14    1.02    0.13 
   1  -3  14    0.05    0.05 
   2  -3  14    0.23    0.07 
   3  -3  14    0.08    0.05 
  -4  -2  14    0.21    0.13 
  -3  -2  14   -0.04    0.09 
  -2  -2  14    2.90    0.19 
  -2  -2  14    2.78    0.22 
  -1  -2  14    0.08    0.05 
  -1  -2  14    0.09    0.07 
   0  -2  14    0.23    0.06 
   1  -2  14    0.51    0.10 
   2  -2  14    0.23    0.07 
   3  -2  14    0.33    0.08 
  -4  -1  14    0.35    0.13 
  -3  -1  14    0.09    0.08 
  -3  -1  14    0.21    0.07 
  -2  -1  14    1.24    0.17 
  -2  -1  14    1.42    0.15 
  -1  -1  14    0.60    0.11 
  -1  -1  14    0.67    0.11 
   0  -1  14    0.70    0.11 
   1  -1  14    0.59    0.10 
   2  -1  14    0.14    0.06 
   3  -1  14    0.52    0.10 
   4  -1  14    0.21    0.09 
  -4   0  14    0.04    0.04 
  -4   0  14   -0.06    0.11 
  -3   0  14    0.17    0.06 
  -3   0  14    0.19    0.10 
  -2   0  14    1.05    0.15 
  -2   0  14    1.26    0.15 
  -1   0  14    0.24    0.07 
  -1   0  14    0.35    0.08 
   0   0  14    0.27    0.07 
   1   0  14    0.20    0.07 
   2   0  14    0.04    0.04 
   3   0  14    0.07    0.06 
   4   0  14    0.35    0.10 
  -4   1  14    0.09    0.05 
  -4   1  14    0.13    0.11 
  -3   1  14    0.74    0.13 
  -3   1  14    0.84    0.15 
  -2   1  14    0.08    0.06 
  -2   1  14    0.08    0.06 
  -1   1  14    0.05    0.04 
   0   1  14    7.04    0.33 
   1   1  14    0.50    0.09 
   2   1  14    0.08    0.05 
   3   1  14    0.12    0.06 
   4   1  14    0.11    0.07 
  -4   2  14    0.29    0.13 
  -4   2  14    0.23    0.07 
  -3   2  14    0.08    0.05 
  -3   2  14    0.08    0.08 
  -2   2  14    0.24    0.08 
  -2   2  14    0.10    0.06 
  -1   2  14    0.00    0.05 
   0   2  14    1.68    0.16 
   1   2  14    0.33    0.08 
   2   2  14    0.00    0.04 
   3   2  14    0.37    0.08 
   4   2  14    0.53    0.11 
   4  -3 -14    0.45    0.14 
  -4   3  14    0.35    0.08 
   3  -3 -14   -0.01    0.09 
  -3   3  14    0.08    0.05 
   2  -3 -14    0.14    0.10 
  -2   3  14    0.11    0.06 
  -1   3  14    0.08    0.06 
   0   3  14    3.84    0.23 
   1   3  14    0.70    0.11 
   1   3  14    0.59    0.10 
   2   3  14    0.02    0.04 
   3   3  14    0.13    0.07 
   4   3  14    0.13    0.06 
   4  -4 -14    0.04    0.10 
  -4   4  14    0.15    0.04 
   3  -4 -14    0.10    0.09 
  -3   4  14    0.10    0.05 
   2  -4 -14    0.26    0.10 
  -2   4  14    0.14    0.06 
  -1   4  14    0.33    0.09 
   0   4  14    0.08    0.05 
   1   4  14    0.41    0.09 
   1   4  14    0.60    0.10 
   2   4  14    0.09    0.06 
   2   4  14    0.16    0.06 
   3   4  14    0.27    0.08 
   3   4  14    0.26    0.08 
   4   4  14    0.04    0.05 
   4   4  14    0.09    0.06 
   3  -5 -14    0.22    0.12 
  -3   5  14    0.42    0.10 
   2  -5 -14    0.11    0.09 
  -2   5  14    0.13    0.08 
  -1   5  14    0.45    0.10 
   0   5  14    0.04    0.05 
   1   5  14    0.09    0.05 
   1   5  14    0.29    0.07 
   2   5  14    1.97    0.19 
   2   5  14    2.18    0.19 
   3   5  14    0.34    0.08 
   3   5  14    0.28    0.07 
   4   5  14    0.22    0.07 
   4   5  14    0.20    0.08 
   3  -6 -14    1.10    0.18 
  -3   6  14    1.02    0.19 
   2  -6 -14    1.74    0.19 
  -2   6  14    1.89    0.23 
  -1   6  14   -0.03    0.04 
   0   6  14    0.07    0.05 
   1   6  14    0.08    0.05 
   1   6  14    0.02    0.05 
   2   6  14    0.24    0.07 
   2   6  14    0.16    0.07 
   3   6  14    0.24    0.08 
   3   6  14    0.24    0.07 
   4   6  14    0.19    0.06 
   3  -7 -14    0.34    0.12 
  -3   7  14    0.23    0.12 
   2  -7 -14    1.27    0.18 
  -2   7  14    1.02    0.18 
  -1   7  14   -0.05    0.06 
   0   7  14    1.08    0.15 
   1   7  14    0.08    0.05 
   2   7  14    0.55    0.10 
   2   7  14    0.52    0.10 
   3   7  14    0.01    0.04 
   4   7  14    0.13    0.04 
  -2   8  14    0.34    0.14 
  -1   8  14    0.16    0.11 
   0   8  14    0.58    0.12 
   1   8  14    0.75    0.13 
   2   8  14    0.28    0.07 
   3   8  14    0.06    0.05 
  -1   9  14    0.48    0.14 
   0   9  14    0.06    0.08 
   2   9  14    0.00    0.05 
   1  -5  15   -0.05    0.04 
  -2  -4  15    0.01    0.09 
   0  -4  15    0.02    0.05 
   1  -4  15    0.39    0.08 
   2  -4  15    0.21    0.06 
  -3  -3  15    0.56    0.16 
  -2  -3  15    0.56    0.13 
  -1  -3  15    0.08    0.05 
   0  -3  15    0.14    0.06 
   1  -3  15    0.13    0.05 
   2  -3  15    0.93    0.13 
   3  -3  15    0.50    0.08 
  -3  -2  15    0.00    0.11 
  -2  -2  15    0.03    0.07 
  -2  -2  15    0.02    0.05 
  -1  -2  15    0.35    0.08 
   0  -2  15    0.32    0.08 
   1  -2  15    0.07    0.05 
   2  -2  15    0.02    0.04 
   3  -2  15    1.31    0.15 
  -3  -1  15   -0.04    0.09 
  -3  -1  15   -0.01    0.04 
  -2  -1  15    0.04    0.07 
  -2  -1  15    0.09    0.06 
  -1  -1  15    0.86    0.12 
   0  -1  15    0.08    0.05 
   1  -1  15    1.12    0.14 
   2  -1  15    0.13    0.05 
   3  -1  15    0.33    0.07 
  -3   0  15    0.16    0.06 
  -3   0  15    0.19    0.10 
  -2   0  15    0.09    0.06 
  -2   0  15   -0.04    0.04 
  -1   0  15    0.11    0.05 
   0   0  15    0.15    0.06 
   1   0  15   -0.01    0.04 
   2   0  15    0.02    0.04 
   3   0  15    1.07    0.16 
   4   0  15    0.23    0.09 
  -3   1  15    0.19    0.06 
  -3   1  15    0.24    0.10 
  -2   1  15    0.02    0.05 
  -2   1  15    0.07    0.06 
  -1   1  15    1.60    0.16 
   0   1  15    1.00    0.14 
   1   1  15    0.44    0.09 
   2   1  15    0.09    0.06 
   3   1  15    0.21    0.08 
   4   1  15    0.58    0.12 
  -3   2  15    0.28    0.11 
  -3   2  15    0.24    0.07 
  -2   2  15    0.93    0.14 
  -2   2  15    0.86    0.14 
  -1   2  15    0.23    0.08 
   0   2  15    0.05    0.05 
   1   2  15    0.69    0.11 
   2   2  15    1.59    0.16 
   3   2  15    0.05    0.06 
   4   2  15    0.32    0.11 
   3  -3 -15    0.15    0.11 
  -3   3  15    0.23    0.08 
   2  -3 -15    0.06    0.10 
  -2   3  15    0.17    0.07 
  -1   3  15    0.30    0.09 
   0   3  15    0.32    0.08 
   1   3  15    0.49    0.10 
   2   3  15    0.07    0.05 
   3   3  15    1.34    0.16 
   4   3  15    0.03    0.06 
   3  -4 -15    0.73    0.15 
  -3   4  15    0.67    0.13 
  -2   4  15    0.03    0.04 
  -1   4  15    0.17    0.08 
   0   4  15    0.28    0.08 
   1   4  15    0.72    0.12 
   2   4  15    0.22    0.07 
   2   4  15    0.28    0.08 
   3   4  15    0.32    0.08 
   3   4  15    0.37    0.09 
   4   4  15    0.02    0.05 
   4   4  15    0.23    0.09 
   3  -5 -15    2.46    0.24 
  -3   5  15    2.13    0.24 
  -2   5  15    0.00    0.06 
  -1   5  15    2.28    0.22 
   0   5  15    0.03    0.05 
   1   5  15    0.06    0.05 
   2   5  15    0.01    0.05 
   2   5  15    0.08    0.06 
   3   5  15    0.12    0.07 
   3   5  15    0.14    0.06 
   4   5  15    0.25    0.06 
   4   5  15    0.13    0.07 
   3  -6 -15    1.65    0.21 
  -3   6  15    1.63    0.19 
  -2   6  15    0.26    0.11 
  -1   6  15    0.32    0.10 
   0   6  15    2.16    0.22 
   1   6  15    0.57    0.10 
   2   6  15    0.08    0.06 
   2   6  15    0.22    0.08 
   3   6  15    0.04    0.06 
   3   6  15    0.16    0.06 
  -2   7  15    0.61    0.16 
  -1   7  15    0.20    0.10 
   0   7  15    0.07    0.08 
   1   7  15    0.20    0.07 
   2   7  15    0.48    0.10 
   2   7  15    0.45    0.09 
   3   7  15    0.10    0.05 
  -1   8  15    0.56    0.14 
   0   8  15    0.01    0.07 
   1   8  15    0.12    0.08 
   2   8  15    0.55    0.10 
   3   8  15    0.16    0.05 
   0   9  15    0.01    0.09 
   0  -4  16    0.03    0.04 
   1  -4  16    0.15    0.05 
  -1  -3  16    0.05    0.05 
   0  -3  16    1.16    0.14 
   1  -3  16    0.14    0.05 
   2  -3  16    1.03    0.12 
  -2  -2  16    0.35    0.08 
  -1  -2  16    0.30    0.08 
   0  -2  16    0.00    0.04 
   1  -2  16    0.05    0.04 
   2  -2  16    0.48    0.09 
  -3  -1  16    0.09    0.10 
  -3  -1  16    0.05    0.05 
  -2  -1  16    0.47    0.09 
  -1  -1  16    0.30    0.07 
   0  -1  16    0.30    0.08 
   1  -1  16    0.03    0.04 
   2  -1  16    0.06    0.04 
  -3   0  16    0.57    0.10 
  -3   0  16    0.47    0.14 
  -2   0  16    0.19    0.06 
  -1   0  16    0.07    0.04 
   0   0  16    0.17    0.07 
   1   0  16    1.57    0.16 
   2   0  16    0.10    0.06 
   3   0  16    0.42    0.11 
  -3   1  16    0.21    0.12 
  -3   1  16    0.19    0.05 
  -2   1  16    0.04    0.06 
  -1   1  16    0.06    0.05 
   0   1  16   -0.04    0.04 
   1   1  16    0.19    0.06 
   2   1  16    1.37    0.16 
   3   1  16    0.04    0.06 
  -3   2  16    0.03    0.04 
  -3   2  16    0.05    0.10 
  -2   2  16    0.60    0.11 
  -1   2  16    0.50    0.11 
   0   2  16    1.13    0.15 
   1   2  16    0.25    0.08 
   2   2  16    1.02    0.14 
   3   2  16    0.09    0.07 
   3  -3 -16    0.06    0.11 
  -3   3  16    0.12    0.05 
  -2   3  16    1.34    0.17 
  -1   3  16    0.09    0.06 
   0   3  16    0.03    0.06 
   1   3  16    0.09    0.07 
   2   3  16    0.18    0.08 
   3   3  16    0.27    0.09 
   3  -4 -16    0.50    0.15 
  -3   4  16    0.37    0.09 
  -2   4  16    0.56    0.11 
  -1   4  16    1.94    0.21 
   0   4  16    0.18    0.07 
   1   4  16    0.11    0.07 
   2   4  16    0.05    0.06 
   2   4  16    0.02    0.05 
   3   4  16    0.60    0.11 
   3   4  16    0.64    0.12 
  -2   5  16    0.06    0.04 
  -1   5  16    0.13    0.09 
   0   5  16    0.01    0.06 
   1   5  16    0.17    0.07 
   2   5  16    0.01    0.06 
   2   5  16    0.08    0.05 
   3   5  16    0.62    0.12 
   3   5  16    0.60    0.12 
  -2   6  16    0.08    0.10 
  -1   6  16   -0.03    0.08 
   0   6  16    0.44    0.10 
   1   6  16    0.38    0.11 
   2   6  16    0.36    0.10 
   2   6  16    0.30    0.09 
   3   6  16    0.13    0.06 
   3   6  16    0.20    0.09 
  -1   7  16    0.18    0.10 
   0   7  16    1.03    0.17 
   1   7  16    0.24    0.09 
   2   7  16    0.07    0.07 
   3   7  16    0.03    0.04 
  -1   8  16   -0.01    0.08 
   0   8  16    0.39    0.12 
   1   8  16    1.13    0.17 
  -1  -3  17    0.09    0.04 
   0  -3  17    0.07    0.04 
   1  -3  17    0.07    0.04 
  -1  -2  17   -0.01    0.04 
   0  -2  17    0.78    0.12 
   1  -2  17    0.67    0.11 
   2  -2  17    0.37    0.07 
  -2  -1  17    0.10    0.04 
  -1  -1  17    0.02    0.03 
   0  -1  17    0.19    0.05 
   1  -1  17    0.31    0.06 
   2  -1  17    0.01    0.04 
  -2   0  17    0.49    0.10 
  -1   0  17    0.15    0.05 
   0   0  17    0.31    0.07 
   1   0  17    0.87    0.13 
   2   0  17    0.15    0.05 
  -2   1  17    0.26    0.07 
  -1   1  17    0.16    0.06 
   0   1  17    0.06    0.05 
   1   1  17    0.14    0.05 
   2   1  17    0.22    0.09 
   3   1  17    0.57    0.13 
  -2   2  17    0.62    0.11 
  -1   2  17    0.12    0.05 
   0   2  17    0.06    0.05 
   1   2  17    0.47    0.11 
   2   2  17    0.93    0.15 
   3   2  17    0.47    0.11 
  -2   3  17    0.27    0.08 
  -1   3  17    0.30    0.07 
   0   3  17    0.10    0.05 
   1   3  17    0.05    0.07 
   2   3  17    0.64    0.13 
   3   3  17    0.37    0.11 
  -2   4  17    0.08    0.04 
  -1   4  17    0.50    0.10 
   0   4  17    0.36    0.11 
   1   4  17   -0.03    0.07 
   2   4  17    0.39    0.11 
   3   4  17    0.55    0.13 
   3   4  17    0.72    0.13 
  -2   5  17    0.40    0.08 
  -1   5  17    0.22    0.11 
   0   5  17    0.84    0.15 
   1   5  17    0.02    0.06 
   2   5  17    0.07    0.08 
   3   5  17    0.34    0.11 
   3   5  17    0.34    0.07 
  -1   6  17    1.09    0.18 
   0   6  17    0.71    0.15 
   1   6  17    0.42    0.11 
   2   6  17    0.05    0.08 
  -1   7  17    0.06    0.08 
   0   7  17    0.12    0.10 
   1   7  17    0.59    0.14 
   2   7  17    0.22    0.09 
  -1  -1  18    0.20    0.06 
   0  -1  18    0.44    0.08 
   1  -1  18    0.11    0.04 
  -1   0  18    0.05    0.04 
   0   0  18    0.54    0.09 
   1   0  18    0.49    0.08 
   2   0  18    0.44    0.08 
  -2   1  18    0.48    0.09 
  -1   1  18    0.30    0.08 
   0   1  18    0.09    0.05 
   1   1  18    0.60    0.10 
   2   1  18    0.83    0.15 
  -2   2  18    0.42    0.08 
  -1   2  18    0.17    0.06 
   0   2  18    0.32    0.08 
   1   2  18    0.30    0.08 
   2   2  18    0.33    0.10 
  -2   3  18    0.34    0.06 
  -1   3  18    1.15    0.14 
   0   3  18    0.16    0.05 
   1   3  18    0.03    0.07 
   2   3  18    0.63    0.13 
  -1   4  18    0.60    0.10 
   0   4  18    0.95    0.17 
   1   4  18    0.27    0.11 
   2   4  18    1.15    0.18 
  -1   5  18   -0.03    0.08 
   0   5  18    0.85    0.16 
   1   5  18    0.54    0.13 
   2   5  18    0.48    0.12 
   0   6  18    0.36    0.12 
   1   6  18    0.12    0.09 
   0   1  19    0.15    0.05 
   0   2  19    0.51    0.07 
   1   2  19    0.36    0.07 
   0   3  19    0.60    0.10 
   1   3  19    0.40    0.12 
   0   4  19    0.04    0.08 
   0   0   0    0.00    0.00 
;
_shelx_hkl_checksum              40259
loop_
_space_group_symop_operation_xyz
'x, y, z'
'-x, -y, -z'
loop_
_atom_site_label
_atom_site_type_symbol
_atom_site_fract_x
_atom_site_fract_y
_atom_site_fract_z
_atom_site_U_iso_or_equiv
_atom_site_adp_type
_atom_site_occupancy
_atom_site_site_symmetry_order
_atom_site_calc_flag
_atom_site_refinement_flags_posn
_atom_site_refinement_flags_adp
O1 O 0.3463(3) 0.20769(17) 0.38803(10) 0.0454(4) Uani 1 1 d . .
O2 O 0.3343(3) 0.17501(19) 0.06470(11) 0.0514(5) Uani 1 1 d . .
O3 O 1.1006(3) -0.16492(15) 0.26867(10) 0.0395(4) Uani 1 1 d . .
O4 O 0.2663(4) 0.4342(3) 0.4979(2) 0.0806(7) Uani 1 1 d D .
C1 C 0.2915(4) 0.2237(2) 0.30370(14) 0.0337(5) Uani 1 1 d . .
C2 C 0.4227(4) 0.1482(2) 0.23228(14) 0.0331(5) Uani 1 1 d . .
C3 C 0.2845(4) 0.2058(2) 0.14266(15) 0.0356(5) Uani 1 1 d . .
C4 C 0.0614(4) 0.3168(2) 0.16223(14) 0.0347(5) Uani 1 1 d . .
C5 C 0.0667(4) 0.3290(2) 0.25622(15) 0.0360(5) Uani 1 1 d . .
C6 C -0.1197(5) 0.4250(3) 0.29259(17) 0.0461(6) Uani 1 1 d . .
H6 H -0.1180 0.4323 0.3560 0.055 Uiso 1 1 calc R U
C7 C -0.3089(5) 0.5102(3) 0.23166(18) 0.0508(6) Uani 1 1 d . .
H7 H -0.4347 0.5768 0.2542 0.061 Uiso 1 1 calc R U
C8 C -0.3140(5) 0.4978(3) 0.13814(18) 0.0497(6) Uani 1 1 d . .
H8 H -0.4434 0.5562 0.0987 0.060 Uiso 1 1 calc R U
C9 C -0.1294(4) 0.3999(2) 0.10177(16) 0.0425(5) Uani 1 1 d . .
H9 H -0.1343 0.3907 0.0388 0.051 Uiso 1 1 calc R U
C10 C 0.6468(4) 0.0430(2) 0.24519(14) 0.0328(5) Uani 1 1 d . .
C11 C 0.7797(4) -0.0056(2) 0.33347(14) 0.0355(5) Uani 1 1 d . .
H11 H 0.7140 0.0329 0.3857 0.043 Uiso 1 1 calc R U
C12 C 0.9978(4) -0.1056(2) 0.34312(14) 0.0356(5) Uani 1 1 d . .
C13 C 0.9827(4) -0.1213(2) 0.18280(15) 0.0386(5) Uani 1 1 d . .
C14 C 0.7654(4) -0.0224(2) 0.16988(15) 0.0373(5) Uani 1 1 d . .
H14 H 0.6896 0.0045 0.1102 0.045 Uiso 1 1 calc R U
C15 C 1.1565(5) -0.1621(3) 0.42995(16) 0.0490(6) Uani 1 1 d . .
H15A H 1.3143 -0.1121 0.4262 0.074 Uiso 1 1 calc R U
H15B H 1.2072 -0.2661 0.4357 0.074 Uiso 1 1 calc R U
H15C H 1.0507 -0.1445 0.4842 0.074 Uiso 1 1 calc R U
C16 C 1.1258(5) -0.1946(3) 0.11023(17) 0.0525(6) Uani 1 1 d . .
H16A H 1.0301 -0.1667 0.0519 0.079 Uiso 1 1 calc R U
H16B H 1.1371 -0.2997 0.1312 0.079 Uiso 1 1 calc R U
H16C H 1.3029 -0.1649 0.1006 0.079 Uiso 1 1 calc R U
H4A H 0.285(7) 0.369(3) 0.466(2) 0.101(12) Uiso 1 1 d D .
H4B H 0.374(13) 0.474(10) 0.462(4) 0.29(5) Uiso 1 1 d D .
loop_
_atom_site_aniso_label
_atom_site_aniso_U_11
_atom_site_aniso_U_22
_atom_site_aniso_U_33
_atom_site_aniso_U_23
_atom_site_aniso_U_13
_atom_site_aniso_U_12
O1 0.0466(10) 0.0514(10) 0.0382(9) -0.0174(7) -0.0034(7) 0.0102(7)
O2 0.0481(10) 0.0672(11) 0.0379(9) -0.0194(8) -0.0053(7) 0.0153(8)
O3 0.0334(8) 0.0380(8) 0.0466(9) -0.0129(7) -0.0047(7) 0.0070(6)
O4 0.0560(13) 0.0795(15) 0.1239(19) -0.0673(15) -0.0052(13) 0.0020(11)
C1 0.0306(11) 0.0353(11) 0.0361(11) -0.0101(9) 0.0007(9) -0.0022(8)
C2 0.0273(11) 0.0351(11) 0.0369(11) -0.0093(8) -0.0008(8) 0.0004(8)
C3 0.0310(11) 0.0386(11) 0.0383(12) -0.0121(9) 0.0003(9) -0.0002(9)
C4 0.0295(11) 0.0330(11) 0.0409(12) -0.0074(9) 0.0009(9) -0.0001(8)
C5 0.0325(11) 0.0341(11) 0.0408(12) -0.0099(9) 0.0013(9) 0.0019(9)
C6 0.0418(13) 0.0495(14) 0.0473(13) -0.0177(11) 0.0014(10) 0.0069(10)
C7 0.0416(14) 0.0469(14) 0.0622(16) -0.0181(11) 0.0009(11) 0.0145(11)
C8 0.0390(14) 0.0467(14) 0.0580(15) -0.0061(11) -0.0081(11) 0.0131(10)
C9 0.0374(13) 0.0439(13) 0.0446(13) -0.0091(10) -0.0047(10) 0.0036(10)
C10 0.0273(11) 0.0328(11) 0.0390(11) -0.0098(9) 0.0011(8) -0.0023(8)
C11 0.0317(11) 0.0391(11) 0.0362(11) -0.0111(9) -0.0002(9) 0.0004(9)
C12 0.0339(12) 0.0333(11) 0.0392(11) -0.0064(9) -0.0013(9) -0.0034(9)
C13 0.0337(12) 0.0388(12) 0.0450(13) -0.0149(10) -0.0026(9) 0.0014(9)
C14 0.0329(12) 0.0424(12) 0.0375(12) -0.0132(9) -0.0045(9) 0.0021(9)
C15 0.0439(14) 0.0529(14) 0.0458(13) -0.0037(11) -0.0081(11) 0.0058(11)
C16 0.0437(14) 0.0603(16) 0.0557(15) -0.0279(12) -0.0027(11) 0.0144(12)
loop_
_atom_type_symbol
_atom_type_description
_atom_type_scat_dispersion_real
_atom_type_scat_dispersion_imag
_atom_type_scat_source
C C 0.0033 0.0016 'International Tables Vol C Tables 4.2.6.8 and 6.1.1.4'
H H 0.0000 0.0000 'International Tables Vol C Tables 4.2.6.8 and 6.1.1.4'
O O 0.0106 0.0060 'International Tables Vol C Tables 4.2.6.8 and 6.1.1.4'
loop_
_geom_angle_atom_site_label_1
_geom_angle_atom_site_label_2
_geom_angle_atom_site_label_3
_geom_angle
C13 O3 C12 119.46(16)
H4A O4 H4B 86(6)
O1 C1 C2 128.59(19)
O1 C1 C5 124.31(18)
C2 C1 C5 107.11(17)
C10 C2 C1 126.49(18)
C10 C2 C3 125.47(18)
C1 C2 C3 108.00(18)
O2 C3 C2 129.2(2)
O2 C3 C4 124.10(19)
C2 C3 C4 106.65(17)
C9 C4 C5 121.2(2)
C9 C4 C3 129.3(2)
C5 C4 C3 109.44(18)
C6 C5 C4 121.0(2)
C6 C5 C1 130.2(2)
C4 C5 C1 108.79(18)
C5 C6 C7 117.9(2)
C5 C6 H6 121.1
C7 C6 H6 121.1
C8 C7 C6 121.1(2)
C8 C7 H7 119.5
C6 C7 H7 119.5
C7 C8 C9 121.2(2)
C7 C8 H8 119.4
C9 C8 H8 119.4
C4 C9 C8 117.6(2)
C4 C9 H9 121.2
C8 C9 H9 121.2
C2 C10 C11 123.19(18)
C2 C10 C14 122.36(19)
C11 C10 C14 114.44(18)
C12 C11 C10 121.65(19)
C12 C11 H11 119.2
C10 C11 H11 119.2
C11 C12 O3 121.17(18)
C11 C12 C15 126.8(2)
O3 C12 C15 112.05(18)
C14 C13 O3 121.47(19)
C14 C13 C16 126.7(2)
O3 C13 C16 111.78(18)
C13 C14 C10 121.8(2)
C13 C14 H14 119.1
C10 C14 H14 119.1
C12 C15 H15A 109.5
C12 C15 H15B 109.5
H15A C15 H15B 109.5
C12 C15 H15C 109.5
H15A C15 H15C 109.5
H15B C15 H15C 109.5
C13 C16 H16A 109.5
C13 C16 H16B 109.5
H16A C16 H16B 109.5
C13 C16 H16C 109.5
H16A C16 H16C 109.5
H16B C16 H16C 109.5
loop_
_geom_bond_atom_site_label_1
_geom_bond_atom_site_label_2
_geom_bond_distance
O1 C1 1.233(2)
O2 C3 1.224(2)
O3 C13 1.359(2)
O3 C12 1.361(3)
O4 H4A 0.825(19)
O4 H4B 0.81(2)
C1 C2 1.456(3)
C1 C5 1.497(3)
C2 C10 1.397(3)
C2 C3 1.464(3)
C3 C4 1.493(3)
C4 C9 1.379(3)
C4 C5 1.384(3)
C5 C6 1.381(3)
C6 C7 1.384(3)
C6 H6 0.9300
C7 C8 1.377(3)
C7 H7 0.9300
C8 C9 1.387(3)
C8 H8 0.9300
C9 H9 0.9300
C10 C11 1.426(3)
C10 C14 1.427(3)
C11 C12 1.346(3)
C11 H11 0.9300
C12 C15 1.482(3)
C13 C14 1.338(3)
C13 C16 1.481(3)
C14 H14 0.9300
C15 H15A 0.9600
C15 H15B 0.9600
C15 H15C 0.9600
C16 H16A 0.9600
C16 H16B 0.9600
C16 H16C 0.9600
loop_
_geom_hbond_atom_site_label_D
_geom_hbond_atom_site_label_H
_geom_hbond_atom_site_label_A
_geom_hbond_distance_DH
_geom_hbond_distance_HA
_geom_hbond_distance_DA
_geom_hbond_angle_DHA
_geom_hbond_site_symmetry_A
O4 H4A O1 0.825(19) 2.039(19) 2.864(3) 178(4) .
C16 H16A O2 0.96 2.55 3.450(3) 156.2 2_655
C14 H14 O2 0.93 2.27 2.930(3) 127.4 .
C11 H11 O1 0.93 2.32 2.967(3) 126.2 .
loop_
_geom_torsion_atom_site_label_1
_geom_torsion_atom_site_label_2
_geom_torsion_atom_site_label_3
_geom_torsion_atom_site_label_4
_geom_torsion
O1 C1 C2 C10 -2.0(4)
C5 C1 C2 C10 178.34(19)
O1 C1 C2 C3 -179.9(2)
C5 C1 C2 C3 0.4(2)
C10 C2 C3 O2 0.1(4)
C1 C2 C3 O2 178.0(2)
C10 C2 C3 C4 -179.01(19)
C1 C2 C3 C4 -1.1(2)
O2 C3 C4 C9 2.1(4)
C2 C3 C4 C9 -178.7(2)
O2 C3 C4 C5 -177.8(2)
C2 C3 C4 C5 1.4(2)
C9 C4 C5 C6 0.0(3)
C3 C4 C5 C6 179.9(2)
C9 C4 C5 C1 178.97(19)
C3 C4 C5 C1 -1.1(2)
O1 C1 C5 C6 -0.5(4)
C2 C1 C5 C6 179.2(2)
O1 C1 C5 C4 -179.26(19)
C2 C1 C5 C4 0.4(2)
C4 C5 C6 C7 -1.0(3)
C1 C5 C6 C7 -179.7(2)
C5 C6 C7 C8 1.0(4)
C6 C7 C8 C9 -0.1(4)
C5 C4 C9 C8 0.9(3)
C3 C4 C9 C8 -179.0(2)
C7 C8 C9 C4 -0.8(4)
C1 C2 C10 C11 0.2(3)
C3 C2 C10 C11 177.70(18)
C1 C2 C10 C14 -178.38(19)
C3 C2 C10 C14 -0.8(3)
C2 C10 C11 C12 -179.01(19)
C14 C10 C11 C12 -0.4(3)
C10 C11 C12 O3 -0.1(3)
C10 C11 C12 C15 178.5(2)
C13 O3 C12 C11 0.7(3)
C13 O3 C12 C15 -178.09(18)
C12 O3 C13 C14 -0.8(3)
C12 O3 C13 C16 178.57(18)
O3 C13 C14 C10 0.3(3)
C16 C13 C14 C10 -178.9(2)
C2 C10 C14 C13 178.9(2)
C11 C10 C14 C13 0.2(3)
