#------------------------------------------------------------------------------
#$Date: 2019-11-24 03:25:34 +0200 (Sun, 24 Nov 2019) $
#$Revision: 236479 $
#$URL: file:///home/coder/svn-repositories/cod/cif/7/23/67/7236750.cif $
#------------------------------------------------------------------------------
#
# This file is available in the Crystallography Open Database (COD),
# http://www.crystallography.net/
#
# All data on this site have been placed in the public domain by the
# contributors.
#
data_7236750
loop_
_publ_author_name
'Yamada, Shigeyuki'
'Yamaguchi, Shun'
'Tsutsumi, Osamu'
_publ_section_title
;
 Electron-density distribution tuning for enhanced thermal stability of
 luminescent gold complexes
;
_journal_issue                   31
_journal_name_full               'Journal of Materials Chemistry C'
_journal_page_first              7977
_journal_paper_doi               10.1039/C7TC00728K
_journal_volume                  5
_journal_year                    2017
_chemical_formula_sum            'C15 H15 Au F3 N'
_chemical_formula_weight         463.25
_space_group_crystal_system      triclinic
_space_group_IT_number           2
_space_group_name_Hall           '-P 1'
_space_group_name_H-M_alt        'P -1'
_atom_sites_solution_hydrogens   geom
_audit_update_record
;
2016-01-15 deposited with the CCDC.
2017-07-20 downloaded from the CCDC.
;
_cell_angle_alpha                98.152(4)
_cell_angle_beta                 104.868(4)
_cell_angle_gamma                92.540(4)
_cell_formula_units_Z            2
_cell_length_a                   7.7708(15)
_cell_length_b                   8.3156(17)
_cell_length_c                   12.492(3)
_cell_measurement_reflns_used    121
_cell_measurement_temperature    296
_cell_measurement_theta_max      27.3171
_cell_measurement_theta_min      5.1327
_cell_volume                     769.6(3)
_computing_structure_refinement  'SHELXL-2014/6 (Sheldrick, 2014)'
_diffrn_ambient_temperature      296
_diffrn_measured_fraction_theta_full 0.995
_diffrn_measured_fraction_theta_max 0.995
_diffrn_measurement_device_type  'Bruker D8 goniometer'
_diffrn_measurement_method       'omega scans'
_diffrn_radiation_wavelength     0.71073
_diffrn_reflns_av_R_equivalents  0.0299
_diffrn_reflns_av_unetI/netI     0.0342
_diffrn_reflns_limit_h_max       9
_diffrn_reflns_limit_h_min       -9
_diffrn_reflns_limit_k_max       9
_diffrn_reflns_limit_k_min       -9
_diffrn_reflns_limit_l_max       14
_diffrn_reflns_limit_l_min       -14
_diffrn_reflns_number            7556
_diffrn_reflns_theta_full        25.02
_diffrn_reflns_theta_max         25.02
_diffrn_reflns_theta_min         2.48
_exptl_absorpt_coefficient_mu    9.579
_exptl_absorpt_correction_T_max  0.40
_exptl_absorpt_correction_T_min  0.40
_exptl_absorpt_correction_type   multi-scan
_exptl_absorpt_process_details   'SADABS V2014/4 (Bruker AXS Inc.)'
_exptl_crystal_colour            colorless
_exptl_crystal_density_diffrn    1.999
_exptl_crystal_density_method    'not measured'
_exptl_crystal_description       plate
_exptl_crystal_F_000             436
_exptl_crystal_preparation       Luminescent
_exptl_crystal_recrystallization_method
'Re-crystallisation from solvent: hexane/dichloromethane'
_exptl_crystal_size_max          0.10
_exptl_crystal_size_mid          0.05
_exptl_crystal_size_min          0.05
_refine_diff_density_max         2.755
_refine_diff_density_min         -2.658
_refine_ls_extinction_method     none
_refine_ls_goodness_of_fit_ref   2.369
_refine_ls_hydrogen_treatment    constr
_refine_ls_matrix_type           full
_refine_ls_number_parameters     182
_refine_ls_number_reflns         2502
_refine_ls_number_restraints     96
_refine_ls_restrained_S_all      2.356
_refine_ls_R_factor_all          0.0882
_refine_ls_R_factor_gt           0.0831
_refine_ls_shift/su_max          0.000
_refine_ls_shift/su_mean         0.000
_refine_ls_structure_factor_coef Fsqd
_refine_ls_weighting_details
'w=1/[\s^2^(Fo^2^)+(0.1000P)^2^+0.6788P] where P=(Fo^2^+2Fc^2^)/3'
_refine_ls_weighting_scheme      calc
_refine_ls_wR_factor_gt          0.2699
_refine_ls_wR_factor_ref         0.2798
_reflns_number_gt                2312
_reflns_number_total             2502
_reflns_threshold_expression     'I > 2\s(I)'
_cod_data_source_file            c7tc00728k2.cif
_cod_data_source_block           I
_cod_database_code               7236750
_shelx_res_file
;
TITL mo_sy127Au_0m-20150109_a_a.res in P-1
CELL  0.71073   7.7708   8.3156  12.4918   98.152  104.868   92.540
ZERR    2.000   0.0015   0.0017   0.0025    0.004    0.004    0.004
LATT 1
SFAC C  H  N  F  Au
UNIT 30  30  2  6  2
L.S. 10
ACTA
BOND $H
FMAP 2
PLAN 20
sadi 0.01 C15 C14 C14 C13 C13 C12 C12 C11
DFIX 1.55 0.01 C15 C14 C14 C13 C13 C12 C12 C11
DFIX 1.21 0.01 C8 C9
DFIX 1.16 0.01 C10 N1
DFIX 1.35 0.01 C1 F2 C1 F1 C1 F3
FLAT C2 C3 C4 C5 C6 C7
SIMU 0.01 C15 C14 C13 C12
SIMU 0.01 C9 AU 01 C10
ISOR 0.1 C15 C14 C13
ISOR 0.01 F1 F2 F3
ISOR 0.01 C8 N1
ISOR 0.01 C9 C10
TEMP -273.150
WGHT    0.100000    0.678770
FVAR       0.46415
AU01  5    0.678804    0.580912    0.459720    11.00000    0.05884    0.06118 =
         0.04689    0.00873    0.01033    0.00882
C1    1    0.240241    1.333285    0.057620    11.00000    0.08310    0.10333 =
         0.08749    0.05481    0.03595    0.02858
C2    1    0.301378    1.206366    0.125969    11.00000    0.07894    0.06403 =
         0.05864    0.00765    0.00526    0.02754
C3    1    0.310620    1.055332    0.073602    11.00000    0.10287    0.06524 =
         0.04002   -0.01014   -0.00466    0.01031
AFIX  43
H3    2    0.273016    1.032159   -0.005985    11.00000   -1.20000
AFIX   0
C4    1    0.355337    1.240566    0.241953    11.00000    0.08050    0.07042 =
         0.05607   -0.01004   -0.00031    0.01973
AFIX  43
H4    2    0.348398    1.346591    0.279763    11.00000   -1.20000
AFIX   0
C5    1    0.374431    0.932687    0.134323    11.00000    0.09860    0.05606 =
         0.04970    0.00445    0.00145    0.02012
AFIX  43
H5    2    0.383240    0.827676    0.095728    11.00000   -1.20000
AFIX   0
C6    1    0.419057    1.119240    0.301706    11.00000    0.05476    0.08696 =
         0.04277    0.00871    0.02049    0.01881
AFIX  43
H6    2    0.460169    1.145819    0.381054    11.00000   -1.20000
AFIX   0
C7    1    0.426625    0.962732    0.253516    11.00000    0.03816    0.05889 =
         0.06938    0.01832    0.01803   -0.00546
C8    1    0.502014    0.842838    0.313074    11.00000    0.04468    0.06394 =
         0.04424    0.01171    0.00694    0.00662
C9    1    0.556674    0.735639    0.366730    11.00000    0.04466    0.08054 =
         0.05686    0.00192    0.03628   -0.01251
C10   1    0.805579    0.438027    0.555540    11.00000    0.04262    0.05720 =
         0.04762    0.01229    0.02107   -0.00225
C11   1    0.961027    0.269065    0.709961    11.00000    0.19023    0.05665 =
         0.05603    0.01843   -0.02762   -0.04100
AFIX  23
H11A  2    0.880640    0.260878    0.759284    11.00000   -1.20000
H11B  2    1.078013    0.323259    0.755704    11.00000   -1.20000
AFIX   0
C12   1    0.983302    0.098612    0.649834    11.00000    0.06081    0.05079 =
         0.05023    0.00120    0.00363   -0.00335
AFIX  23
H12A  2    1.058727    0.108994    0.597816    11.00000   -1.20000
H12B  2    0.865177    0.044788    0.605805    11.00000   -1.20000
AFIX   0
C13   1    1.072285   -0.004122    0.739676    11.00000    0.06596    0.04090 =
         0.05404    0.00904    0.00883    0.00119
AFIX  23
H13A  2    1.189882    0.051496    0.783081    11.00000   -1.20000
H13B  2    0.997158   -0.010476    0.792314    11.00000   -1.20000
AFIX   0
C14   1    1.099038   -0.178708    0.688964    11.00000    0.07395    0.03752 =
         0.06711    0.00486    0.00595    0.00333
AFIX  23
H14A  2    1.180556   -0.172807    0.640117    11.00000   -1.20000
H14B  2    0.982671   -0.232317    0.641775    11.00000   -1.20000
AFIX   0
C15   1    1.177358   -0.282978    0.780191    11.00000    0.09229    0.06581 =
         0.08322    0.00522    0.01362    0.02188
AFIX 137
H15A  2    1.305964   -0.253013    0.810136    11.00000   -1.50000
H15B  2    1.157134   -0.398668    0.747298    11.00000   -1.50000
H15C  2    1.118604   -0.263323    0.840945    11.00000   -1.50000
AFIX   0
F1    4    0.332262    1.356577   -0.017237    11.00000    0.19412    0.17090 =
         0.18237    0.07305    0.06199    0.05400
F2    4    0.075132    1.292710   -0.012036    11.00000    0.15561    0.13194 =
         0.13896    0.04358   -0.02496    0.03658
F3    4    0.214433    1.471610    0.119131    11.00000    0.16426    0.08688 =
         0.11096    0.02069    0.01529    0.04868
N1    3    0.882531    0.359486    0.618489    11.00000    0.06218    0.06515 =
         0.05775    0.01516    0.02975   -0.00495
HKLF 4

REM  mo_sy127Au_0m-20150109_a_a.res in P-1
REM R1 =  0.0831 for    2312 Fo > 4sig(Fo)  and  0.0882 for all    2502 data
REM    182 parameters refined using     96 restraints

END

WGHT      0.1339     22.5622

REM Highest difference peak  2.755,  deepest hole -2.658,  1-sigma level  0.328
Q1    1   0.6822  0.5670  0.3810  11.00000  0.05    2.76
Q2    1   0.5364  0.4975  0.4605  11.00000  0.05    2.22
Q3    1   0.8114  0.6680  0.4394  11.00000  0.05    2.08
Q4    1   0.6674  0.5941  0.5405  11.00000  0.05    2.01
Q5    1   0.7414  0.6553  0.3824  11.00000  0.05    1.98
Q6    1   0.7126  0.6865  0.3680  11.00000  0.05    1.94
Q7    1   0.3705  1.4758  0.0987  11.00000  0.05    1.80
Q8    1   0.6414  0.7536  0.3458  11.00000  0.05    1.59
Q9    1   0.6561  0.4505  0.5606  11.00000  0.05    1.57
Q10   1   0.9440  0.2277  0.6941  11.00000  0.05    1.46
Q11   1   0.5565  0.4612  0.4053  11.00000  0.05    1.35
Q12   1   0.8335 -0.3005  0.5400  11.00000  0.05    1.32
Q13   1   0.7213  0.5238  0.4856  11.00000  0.05    1.17
Q14   1   0.5579  0.6805  0.4812  11.00000  0.05    1.03
Q15   1   0.5406  0.6653  0.4542  11.00000  0.05    1.02
Q16   1   1.1292  0.3083  0.6375  11.00000  0.05    1.02
Q17   1   1.2747  0.2770  0.7235  11.00000  0.05    1.00
Q18   1   0.2332  1.3105 -0.0335  11.00000  0.05    0.98
Q19   1   0.4761  1.4151  0.4338  11.00000  0.05    0.97
Q20   1   0.7826  0.4708  0.4201  11.00000  0.05    0.94
;
_shelx_res_checksum              39504
_shelx_hkl_file
;
  -1   0   0  645.14   30.30
  -1   0   0  645.14   30.30
   1   0   0  675.33   30.30
   1   0   0  675.33   30.30
  -2   0   0 1440.26   57.69
  -2   0   0 1440.26   57.69
  -2   0   0 1101.09   57.69
  -2   0   0 1100.99   57.69
   2   0   0 1239.68   57.69
   2   0   0 1239.58   57.69
  -3   0   0 2250.37  114.49
  -3   0   0 2754.62  114.39
  -3   0   0 2754.62  114.39
  -3   0   0 2252.27  114.49
  -4   0   0  137.09    6.60
  -4   0   0  137.09    6.60
  -5   0   0  700.83   32.60
  -5   0   0  700.83   32.60
  -6   0   0  458.75   21.60
  -6   0   0  458.75   21.60
  -7   1   0   97.39    5.90
  -7   1   0   97.39    5.90
  -6   1   0  724.63   33.50
  -6   1   0  723.83   33.50
  -5   1   0  233.28   10.70
  -5   1   0  191.08   10.30
  -5   1   0  191.08   10.30
  -5   1   0  233.28   10.70
  -4   1   0  808.62   40.60
  -4   1   0  949.51   40.50
  -4   1   0  808.52   40.60
  -4   1   0  949.51   40.50
  -3   1   0 1923.81   87.49
  -3   1   0 1894.51   87.29
  -3   1   0 1894.51   87.29
  -3   1   0 1923.81   87.49
   2  -1   0   62.09    3.10
   2  -1   0   62.09    3.10
  -2   1   0   57.99    4.00
  -2   1   0   57.89    4.00
   1  -1   0 2898.51  145.29
   1  -1   0 2898.21  145.29
  -1   1   0 2905.81  145.39
  -1   1   0 3740.83  145.49
  -1   1   0 3740.83  145.49
  -1   1   0 2905.81  145.39
   0  -1   0 2698.63  119.49
   0  -1   0 2591.34  120.19
   0  -1   0 2698.63  119.49
   0  -1   0 2591.34  120.19
   0   1   0 2558.34  119.49
   0   1   0 2609.34  119.99
   0   1   0 2558.34  119.49
   0   1   0 2609.34  119.99
  -1  -1   0  519.85   24.80
  -1  -1   0  519.85   24.80
   1   1   0  553.84   24.60
   1   1   0  520.25   24.80
   1   1   0  520.25   24.80
   1   1   0  553.84   24.60
  -2  -1   0 8433.46  385.36
  -2  -1   0 8433.46  385.36
  -3  -1   0  795.72   36.50
  -3  -1   0  795.72   36.50
  -4  -1   0  176.38    9.40
  -4  -1   0  221.58   10.40
  -4  -1   0  176.38    9.40
  -4  -1   0  221.58   10.40
  -5  -1   0  781.22   36.10
  -5  -1   0  781.22   36.10
  -8   2   0    1.10    3.90
  -8   2   0    1.10    3.90
  -7   2   0  194.88   10.60
  -7   2   0  220.68   10.50
  -7   2   0  194.88   10.60
  -7   2   0  220.68   10.50
  -6   2   0  319.87   16.60
  -6   2   0  319.87   16.60
  -6   2   0  380.56   16.80
  -6   2   0  380.46   16.80
  -5   2   0   23.10    3.80
  -5   2   0   23.10    3.80
  -4   2   0 1585.14   74.99
  -4   2   0 1690.83   75.19
  -4   2   0 1690.93   75.19
  -4   2   0 1585.14   74.99
  -3   2   0 1041.90   48.60
  -3   2   0 1077.19   48.70
  -3   2   0 1077.09   48.70
  -3   2   0 1041.90   48.60
  -2   2   0  262.67   12.90
  -2   2   0  262.67   12.90
  -2   2   0  287.97   12.80
  -2   2   0  287.97   12.80
  -1   2   0 4652.73  230.98
  -1   2   0 4652.53  230.98
  -1   2   0 5449.15  230.88
  -1   2   0 5449.15  230.88
   0  -2   0  611.84   28.00
   0  -2   0  591.74   27.60
   0  -2   0  591.74   27.60
   0  -2   0  611.84   28.00
   0   2   0  620.04   28.00
   0   2   0  592.44   27.60
   0   2   0  620.04   28.00
   0   2   0  592.44   27.60
  -1  -2   0 1017.70   48.20
  -1  -2   0 1017.70   48.20
   1   2   0 1077.29   48.50
   1   2   0 1077.29   48.50
  -2  -2   0 3760.72  172.58
  -2  -2   0 3760.72  172.58
  -3  -2   0  311.47   15.10
  -3  -2   0  311.47   15.10
  -8   3   0   54.19    6.20
  -8   3   0   54.19    6.20
  -7   3   0  243.18   12.20
  -7   3   0  243.18   12.20
  -6   3   0  168.98    7.70
  -6   3   0  128.19    7.90
  -6   3   0  168.98    7.70
  -6   3   0  128.19    7.90
  -5   3   0  255.67   12.50
  -5   3   0  255.97   12.50
  -5   3   0  257.27   12.60
  -5   3   0  257.27   12.60
  -4   3   0 1081.79   50.49
  -4   3   0 1119.79   50.69
  -4   3   0 1081.79   50.49
  -4   3   0 1119.59   50.69
  -3   3   0  213.68    9.80
  -3   3   0  202.58   10.00
  -3   3   0  202.68   10.00
  -3   3   0  213.68    9.80
  -2   3   0 1195.28   51.99
  -2   3   0 1074.79   52.09
  -2   3   0 1074.79   52.09
  -2   3   0 1195.28   51.99
   1  -3   0 2871.21  131.09
   1  -3   0 2871.21  131.09
   0  -3   0   28.50    2.40
   0  -3   0   28.50    2.40
   0  -3   0   28.30    1.50
   0  -3   0   28.30    1.50
  -1  -3   0 1118.09   52.49
  -1  -3   0 1155.88   51.99
  -1  -3   0 1118.09   52.49
  -1  -3   0 1155.88   51.99
  -2  -3   0 1112.49   51.39
  -2  -3   0 1112.49   51.39
  -3  -3   0  196.58   10.00
  -3  -3   0  196.58   10.00
  -5  -3   0  365.46   18.20
  -5  -3   0  365.46   18.20
  -8   4   0   50.99    5.40
  -8   4   0   50.99    5.40
  -7   4   0  182.18    9.40
  -7   4   0  137.49    8.60
  -7   4   0  137.49    8.60
  -7   4   0  182.18    9.40
  -6   4   0   -8.60    3.50
  -6   4   0   -8.60    3.50
  -6   4   0    2.40    0.90
  -6   4   0    2.40    0.90
  -5   4   0  607.14   27.90
  -5   4   0  580.74   27.60
  -5   4   0  580.74   27.60
  -5   4   0  607.04   27.90
  -4   4   0  488.15   22.80
  -4   4   0  495.05   23.00
  -4   4   0  488.15   22.80
  -4   4   0  495.05   23.00
  -3   4   0   73.29    3.60
  -3   4   0   73.29    3.60
  -3   4   0   68.99    4.20
  -3   4   0   68.99    4.20
   2  -4   0 1858.51   83.99
   2  -4   0 1858.51   83.99
  -2   4   0 1764.22   84.19
  -2   4   0 1888.01   83.99
  -2   4   0 1764.12   84.19
  -2   4   0 1888.01   83.99
   1  -4   0  551.14   25.30
   1  -4   0  551.14   25.30
   0  -4   0  173.98    8.70
   0  -4   0  160.28    7.80
   0  -4   0  173.98    8.70
   0  -4   0  160.28    7.80
  -1  -4   0 1632.74   75.59
  -1  -4   0 1674.83   76.29
  -1  -4   0 1632.74   75.59
  -1  -4   0 1674.83   76.29
  -2  -4   0  398.76   19.10
  -2  -4   0  398.76   19.10
  -3  -4   0  271.57   13.60
  -3  -4   0  271.57   13.60
  -4  -4   0  735.23   34.70
  -4  -4   0  735.23   34.70
  -5  -4   0   26.50    5.10
  -5  -4   0   26.50    5.10
  -6  -4   0  232.18   13.10
  -6  -4   0  232.18   13.10
  -8   5   0   50.69    5.70
  -8   5   0   50.69    5.80
  -7   5   0   30.60    5.60
  -7   5   0   30.80    5.60
  -6   5   0   54.69    5.50
  -6   5   0   35.90    3.30
  -6   5   0   35.90    3.30
  -6   5   0   54.69    5.50
  -5   5   0  613.84   29.60
  -5   5   0  665.03   30.00
  -5   5   0  613.84   29.60
  -5   5   0  665.03   30.00
   4  -5   0   83.29    4.70
   4  -5   0   83.29    4.70
  -4   5   0   86.29    5.50
  -4   5   0   86.29    5.50
  -4   5   0   90.99    4.50
  -4   5   0   90.99    4.50
   3  -5   0  413.76   19.40
   3  -5   0  413.76   19.40
  -3   5   0  420.16   19.30
  -3   5   0  420.16   19.30
   2  -5   0  956.20   43.30
   2  -5   0  956.20   43.30
  -2   5   0  930.21   43.60
  -2   5   0  930.01   43.60
   1  -5   0   23.60    1.70
   1  -5   0   23.60    1.70
  -1   5   0   25.60    2.70
  -1   5   0   25.60    2.70
   0  -5   0  617.04   29.40
   0  -5   0  617.04   29.40
   0  -5   0  664.43   30.40
   0  -5   0  664.43   30.40
  -1  -5   0  823.42   38.70
  -1  -5   0  823.42   38.70
  -1  -5   0  865.11   39.60
  -1  -5   0  865.11   39.60
  -2  -5   0   16.50    1.60
  -2  -5   0   16.50    1.60
  -3  -5   0  531.95   25.50
  -3  -5   0  531.95   25.50
  -4  -5   0  380.36   19.60
  -4  -5   0  380.36   19.60
  -5  -5   0   32.30    5.40
  -5  -5   0   32.30    5.40
  -6  -5   0  228.78   13.20
  -6  -5   0  228.78   13.20
   7  -6   0   -8.80    2.80
   7  -6   0   -8.80    2.80
  -7   6   0   -1.50    2.60
  -7   6   0   -1.50    2.60
   6  -6   0  129.79    7.60
   6  -6   0  129.79    7.60
  -6   6   0  165.28    8.60
  -6   6   0  139.79    7.50
  -6   6   0  139.79    7.50
  -6   6   0  164.98    8.60
  -5   6   0   79.79    5.90
  -5   6   0   87.79    4.80
  -5   6   0   87.79    4.80
  -5   6   0   79.79    5.90
   4  -6   0   32.90    3.00
   4  -6   0   32.90    3.00
  -4   6   0   47.70    4.60
  -4   6   0   47.60    2.80
  -4   6   0   47.60    2.80
  -4   6   0   47.80    4.60
   3  -6   0  807.42   38.30
   3  -6   0  807.42   38.30
  -3   6   0  842.62   38.70
  -3   6   0  847.12   38.20
  -3   6   0  847.12   38.20
  -3   6   0  842.52   38.70
   2  -6   0  232.18   10.90
   2  -6   0  232.18   10.90
  -2   6   0  227.58   11.40
  -2   6   0  227.58   11.40
   1  -6   0   87.59    4.50
   1  -6   0   87.59    4.50
  -1   6   0   91.59    5.40
  -1   6   0   91.59    5.40
   0  -6   0  575.44   28.10
   0  -6   0  640.64   29.30
   0  -6   0  575.44   28.10
   0  -6   0  640.64   29.30
  -1  -6   0  190.78   10.10
  -1  -6   0  172.78    8.50
  -1  -6   0  172.78    8.50
  -1  -6   0  190.78   10.10
  -2  -6   0  152.58    8.80
  -2  -6   0  145.29    7.10
  -2  -6   0  145.29    7.10
  -2  -6   0  152.58    8.80
  -3  -6   0  349.57   17.70
  -3  -6   0  349.57   17.70
  -4  -6   0    4.10    0.80
  -4  -6   0    4.10    0.80
  -5  -6   0   70.29    7.40
  -5  -6   0   70.29    7.40
  -6  -6   0  169.78   11.60
  -6  -6   0  169.78   11.60
   6  -7   0   91.89    6.00
   6  -7   0   91.89    6.00
  -6   7   0  124.89    6.40
  -6   7   0   98.69    8.00
  -6   7   0  124.89    6.40
  -6   7   0   99.19    8.00
   5  -7   0   22.60    3.10
   5  -7   0   22.60    3.10
  -5   7   0   24.50    6.80
  -5   7   0   33.00    3.20
  -5   7   0   24.50    6.80
  -5   7   0   33.00    3.20
   4  -7   0   49.10    4.50
   4  -7   0   49.10    4.50
  -4   7   0   70.09    3.90
  -4   7   0   70.99    6.00
  -4   7   0   70.09    3.90
  -4   7   0   70.99    6.00
   3  -7   0  112.69    6.00
   3  -7   0  112.69    6.00
  -3   7   0  122.59    7.10
  -3   7   0  122.59    7.10
   2  -7   0    9.50    1.80
   2  -7   0    9.50    1.80
  -2   7   0    8.20    3.50
  -2   7   0    8.20    3.50
   1  -7   0  154.78    7.70
   1  -7   0  154.78    7.70
  -1   7   0  162.68    8.60
  -1   7   0  162.68    8.60
   0  -7   0  281.97   13.20
   0  -7   0  281.97   13.20
  -1  -7   0    0.80    0.60
  -1  -7   0    0.20    1.50
  -1  -7   0    0.20    1.50
  -1  -7   0    0.80    0.60
  -2  -7   0  211.88   11.70
  -2  -7   0  200.08    9.80
  -2  -7   0  200.08    9.80
  -2  -7   0  211.88   11.70
  -3  -7   0  155.78    9.90
  -3  -7   0  155.78    9.90
  -4  -7   0    1.30    0.90
  -4  -7   0    1.30    0.90
  -5  -7   0   91.09   10.90
  -5  -7   0   91.09   10.90
   5  -8   0    2.60    2.80
   5  -8   0    2.60    2.80
  -5   8   0   -4.30    6.10
  -5   8   0   -4.30    6.10
   4  -8   0  103.69    6.20
   4  -8   0  103.69    6.20
  -4   8   0  129.79    8.10
  -4   8   0  129.69    8.10
   3  -8   0   64.19    4.20
   3  -8   0   64.19    4.20
  -3   8   0   74.99    6.10
  -3   8   0   74.99    6.10
  -2   8   0    6.00    4.70
  -2   8   0    6.00    4.70
   1  -8   0  130.09    6.60
   1  -8   0  130.09    6.60
  -1   8   0  137.39    8.00
  -1   8   0  137.39    8.00
   0  -8   0   68.09    3.80
   0  -8   0   68.09    3.80
   0   8   0   57.59    5.70
   0   8   0   57.59    5.70
  -1  -8   0   22.90    2.40
  -1  -8   0   22.90    2.40
  -2  -8   0  191.18    9.10
  -2  -8   0  184.98   12.10
  -2  -8   0  184.98   12.10
  -2  -8   0  191.18    9.10
  -3  -8   0    3.40    1.20
  -3  -8   0    3.40    1.20
  -4  -8   0    7.20    1.40
  -4  -8   0    7.20    1.40
   4  -9   0   54.89    4.20
   4  -9   0   54.89    4.20
  -4   9   0   72.29    7.00
  -4   9   0   72.19    7.00
   3  -9   0    7.70    2.70
   3  -9   0    7.70    2.70
  -3   9   0   11.30    5.10
  -3   9   0   11.30    5.10
   2  -9   0   34.60    3.40
   2  -9   0   34.60    3.40
  -2   9   0   36.40    5.50
  -2   9   0   36.40    5.50
   1  -9   0   62.19    4.00
   1  -9   0   62.19    4.00
  -1   9   0   55.79    5.30
  -1   9   0   55.79    5.30
   0  -9   0    0.60    2.60
   0  -9   0    0.60    2.60
   0   9   0   -0.40    4.70
   0   9   0   -0.40    4.70
  -1  -9   0   57.79    4.30
  -1  -9   0   57.79    4.30
   1   9   0   48.90    5.40
   1   9   0   48.90    5.40
  -3  -9   1    2.10    1.20
  -3  -9   1    2.10    1.20
  -2  -9   1   31.70    3.20
  -2  -9   1   31.70    3.20
  -1  -9   1   69.39    4.40
  -1  -9   1   69.39    4.40
   0   9  -1   -2.50    4.50
   0   9  -1   -2.50    4.50
   0  -9   1   10.50    5.00
   0  -9   1   10.50    5.00
  -1   9  -1   60.09    5.70
  -1   9  -1   60.09    5.70
   1  -9   1   57.69    3.90
   1  -9   1   57.69    3.90
  -2   9  -1   86.79    6.10
  -2   9  -1   86.79    6.10
   2  -9   1   70.49    4.50
   2  -9   1   70.49    4.50
  -3   9  -1   -0.40    5.10
  -3   9  -1   -0.40    5.10
   3  -9   1   -0.30    2.40
   3  -9   1   -0.30    2.40
  -4   9  -1   80.69    7.00
  -4   9  -1   80.59    7.00
   4  -9   1   62.29    4.40
   4  -9   1   62.29    4.40
  -4  -8   1   72.69    9.60
  -4  -8   1   72.69    9.60
  -3  -8   1    1.60    1.00
  -3  -8   1    1.60    1.00
  -2  -8   1  150.28    7.50
  -2  -8   1  157.98   10.90
  -2  -8   1  150.28    7.50
  -2  -8   1  157.98   10.90
  -1  -8   1  143.09   11.20
  -1  -8   1  148.19    7.20
  -1  -8   1  148.19    7.20
  -1  -8   1  143.09   11.20
   0  -8   1   13.90    2.10
   0  -8   1   13.90    2.10
  -1   8  -1  157.88    9.40
  -1   8  -1  157.88    9.40
   1  -8   1  163.58    7.90
   1  -8   1  163.58    7.90
  -2   8  -1   53.59    6.10
  -2   8  -1   53.59    6.10
  -3   8  -1   50.09    5.30
  -3   8  -1   50.09    5.30
   3  -8   1   40.00    3.40
   3  -8   1   40.00    3.40
  -4   8  -1  142.59    8.50
  -4   8  -1  142.59    8.50
   4  -8   1  109.09    6.50
   4  -8   1  109.09    6.50
  -5   8  -1   11.40    1.60
  -5   8  -1   11.40    1.60
  -5   8  -1   28.60    6.60
  -5   8  -1   28.60    6.60
   5  -8   1   17.80    3.30
   5  -8   1   17.80    3.30
  -4  -7   1   47.50    7.20
  -4  -7   1   47.50    7.20
  -3  -7   1  101.29    7.90
  -3  -7   1  101.29    7.90
  -2  -7   1  320.27   15.10
  -2  -7   1  325.37   16.90
  -2  -7   1  320.27   15.10
  -2  -7   1  325.37   16.90
   0  -7   1  249.78   11.80
   0  -7   1  252.17   13.60
   0  -7   1  252.17   13.60
   0  -7   1  249.78   11.80
   1  -7   1  752.52   34.60
   1  -7   1  752.52   34.60
  -2   7  -1    6.80    3.70
  -2   7  -1    6.80    3.70
   2  -7   1    5.10    1.80
   2  -7   1    5.10    1.80
  -3   7  -1  267.27   12.10
  -3   7  -1  264.67   12.90
  -3   7  -1  267.27   12.10
  -3   7  -1  264.57   12.90
   3  -7   1  235.28   12.20
   3  -7   1  235.28   12.20
  -4   7  -1  170.38    9.20
  -4   7  -1  166.88    7.90
  -4   7  -1  170.38    9.20
  -4   7  -1  166.88    7.90
   4  -7   1  135.49    8.10
   4  -7   1  135.49    8.10
  -5   7  -1    4.30    1.10
  -5   7  -1    4.30    1.10
   5  -7   1    4.40    2.60
   5  -7   1    4.40    2.60
  -6   7  -1  126.89    7.20
  -6   7  -1  114.99    8.30
  -6   7  -1  126.89    7.20
  -6   7  -1  114.99    8.40
  -6  -6   1  117.39   10.00
  -6  -6   1  117.39   10.00
  -5  -6   1  161.98   10.70
  -5  -6   1  161.98   10.70
  -4  -6   1    1.00    0.70
  -4  -6   1    1.00    0.70
  -3  -6   1  371.86   18.80
  -3  -6   1  371.86   18.80
  -2  -6   1  294.67   15.20
  -2  -6   1  294.57   13.70
  -2  -6   1  294.57   13.70
  -2  -6   1  294.67   15.20
  -1  -6   1   46.20    4.50
  -1  -6   1   42.50    2.50
  -1  -6   1   42.50    2.50
  -1  -6   1   46.20    4.50
   0  -6   1  703.93   31.80
   0  -6   1  679.93   33.00
   0  -6   1  679.93   33.00
   0  -6   1  703.93   31.80
   1  -6   1  150.98    7.40
   1  -6   1  150.98    7.40
  -2   6  -1  219.98   10.70
  -2   6  -1  220.18   10.70
   2  -6   1  202.98   10.00
   2  -6   1  202.98   10.00
  -3   6  -1  830.62   37.30
  -3   6  -1  800.32   36.90
  -3   6  -1  830.62   37.30
  -3   6  -1  800.32   36.90
   3  -6   1  775.32   36.90
   3  -6   1  775.32   36.90
  -4   6  -1   -0.40    3.60
  -4   6  -1   -0.40    3.60
   4  -6   1   -5.40    2.20
   4  -6   1   -5.40    2.20
  -5   6  -1  135.59    7.60
  -5   6  -1  128.89    6.90
  -5   6  -1  128.89    6.90
  -5   6  -1  135.59    7.60
  -6   6  -1  148.19    8.60
  -6   6  -1  148.29    8.60
  -6   6  -1  153.58    8.10
  -6   6  -1  153.58    8.10
  -7   6  -1    0.00    5.60
  -7   6  -1    1.30    1.80
  -7   6  -1    0.00    5.60
  -7   6  -1    1.30    1.80
  -7  -5   1    2.70    1.20
  -7  -5   1    2.70    1.20
  -6  -5   1  240.18   14.30
  -6  -5   1  240.18   14.30
  -5  -5   1   41.60    6.30
  -5  -5   1   41.60    6.30
  -4  -5   1  143.59    8.90
  -4  -5   1  143.59    8.90
  -3  -5   1  732.23   36.20
  -3  -5   1  732.23   36.20
  -2  -5   1   46.90    4.10
  -2  -5   1   46.10    2.50
  -2  -5   1   46.90    4.10
  -2  -5   1   46.10    2.50
  -1  -5   1  427.06   21.00
  -1  -5   1  444.56   20.10
  -1  -5   1  427.06   21.00
  -1  -5   1  444.56   20.10
   0  -5   1 1168.78   53.79
   0  -5   1 1168.78   53.79
   0  -5   1 1184.18   54.79
   0  -5   1 1184.18   54.79
   1  -5   1   10.30    1.30
   1  -5   1   10.30    1.30
  -2   5  -1  834.02   38.70
  -2   5  -1  833.52   38.70
  -2   5  -1  856.61   38.40
  -2   5  -1  856.61   38.40
   2  -5   1  816.32   38.40
   2  -5   1  816.32   38.40
  -3   5  -1  542.65   25.10
  -3   5  -1  542.75   25.10
  -3   5  -1  527.55   24.80
  -3   5  -1  527.55   24.80
  -4   5  -1    3.30    0.80
  -4   5  -1    3.30    0.80
  -4   5  -1    5.60    3.20
  -4   5  -1    5.60    3.20
  -5   5  -1  352.26   16.90
  -5   5  -1  363.16   17.20
  -5   5  -1  362.86   17.20
  -5   5  -1  352.26   16.90
  -6   5  -1   34.80    4.20
  -6   5  -1   48.20    3.70
  -6   5  -1   34.80    4.20
  -6   5  -1   48.20    3.70
  -7   5  -1   -6.40    4.50
  -7   5  -1    5.40    1.70
  -7   5  -1    5.40    1.70
  -7   5  -1   -6.40    4.50
  -7  -4   1  126.29   10.50
  -7  -4   1  126.29   10.50
  -6  -4   1  435.86   22.30
  -6  -4   1  435.86   22.30
  -5  -4   1    3.70    0.90
  -5  -4   1    3.70    0.90
  -4  -4   1  676.03   32.40
  -4  -4   1  676.03   32.40
  -3  -4   1  485.05   23.40
  -3  -4   1  485.05   23.40
  -2  -4   1    5.30    0.90
  -2  -4   1    5.30    0.90
  -1  -4   1 1377.96   62.69
  -1  -4   1 1366.66   63.39
  -1  -4   1 1377.96   62.69
  -1  -4   1 1366.66   63.39
   0  -4   1  608.44   28.40
   0  -4   1  608.44   28.40
   0  -4   1  598.84   27.70
   0  -4   1  598.84   27.70
   1  -4   1  340.87   17.30
   1  -4   1  340.87   17.30
   1  -4   1  376.26   16.60
   1  -4   1  376.26   16.60
  -2   4  -1 1591.94   71.49
  -2   4  -1 1530.35   71.59
  -2   4  -1 1591.94   71.49
  -2   4  -1 1530.45   71.59
  -3   4  -1  253.27   11.80
  -3   4  -1  246.58   11.90
  -3   4  -1  253.27   11.80
  -3   4  -1  246.58   11.90
  -4   4  -1  490.45   22.70
  -4   4  -1  482.35   22.60
  -4   4  -1  490.55   22.70
  -4   4  -1  482.35   22.60
  -5   4  -1  517.95   23.80
  -5   4  -1  497.45   23.70
  -5   4  -1  517.95   23.80
  -5   4  -1  497.45   23.70
  -6   4  -1   35.60    3.20
  -6   4  -1   35.60    3.20
  -7   4  -1   54.69    4.80
  -7   4  -1   75.49    5.70
  -7   4  -1   75.49    5.70
  -7   4  -1   54.69    4.80
  -8   4  -1   63.09    5.60
  -8   4  -1   63.09    5.60
  -6  -3   1  334.47   17.80
  -6  -3   1  334.47   17.80
  -5  -3   1  221.68   12.50
  -5  -3   1  221.68   12.50
  -4  -3   1 2018.90   93.39
  -4  -3   1 2018.90   93.39
  -3  -3   1  209.18   11.00
  -3  -3   1  209.18   11.00
  -2  -3   1  775.72   36.20
  -2  -3   1  775.72   36.20
  -1  -3   1 1484.65   68.49
  -1  -3   1 1484.65   68.49
  -1  -3   1 1486.45   67.89
  -1  -3   1 1486.45   67.89
   0  -3   1   66.59    4.10
   0  -3   1   66.59    4.10
   0  -3   1   76.59    3.40
   0  -3   1   76.59    3.40
   1  -3   1 1079.69   49.90
   1  -3   1 1079.69   49.90
  -2   3  -1 2345.97  102.89
  -2   3  -1 2345.97  102.89
  -2   3  -1 2150.88  102.79
  -2   3  -1 2150.88  102.89
  -3   3  -1   18.10    2.20
  -3   3  -1   29.20    1.90
  -3   3  -1   29.20    1.90
  -3   3  -1   18.10    2.20
  -4   3  -1  986.00   45.60
  -4   3  -1  992.70   45.60
  -4   3  -1  986.00   45.60
  -4   3  -1  992.70   45.60
  -5   3  -1  399.36   18.70
  -5   3  -1  399.36   18.70
  -5   3  -1  392.46   18.70
  -5   3  -1  392.46   18.70
  -6   3  -1   11.60    1.30
  -6   3  -1   11.60    1.30
  -6   3  -1    6.90    3.40
  -6   3  -1    6.90    3.40
  -7   3  -1  290.67   14.20
  -7   3  -1  290.27   14.20
  -8   3  -1   69.69    8.50
  -8   3  -1   69.79    8.50
  -6  -2   1    1.00    0.70
  -6  -2   1    1.00    0.70
  -5  -2   1  654.03   31.50
  -5  -2   1  654.03   31.50
  -4  -2   1 2954.10  136.09
  -4  -2   1 2954.10  136.09
  -3  -2   1    0.80    0.50
  -3  -2   1    0.80    0.50
   2   2  -1 1044.10   47.70
   2   2  -1 1044.10   47.70
   1   2  -1  832.02   37.80
   1   2  -1  832.02   37.80
  -1  -2   1  809.32   37.80
  -1  -2   1  809.32   37.80
  -1  -2   1  842.42   38.30
  -1  -2   1  842.42   38.30
   0   2  -1  332.97   15.70
   0   2  -1  332.97   15.70
   0  -2   1  307.17   15.40
   0  -2   1  338.97   15.10
   0  -2   1  307.17   15.40
   0  -2   1  338.97   15.10
  -1   2  -1 1299.17   59.19
  -1   2  -1 1299.17   59.19
   1  -2   1 1262.27   58.99
   1  -2   1 1262.27   58.99
  -2   2  -1 1043.10   51.09
  -2   2  -1 1188.28   51.19
  -2   2  -1 1188.28   51.19
  -2   2  -1 1043.10   51.09
  -3   2  -1  776.02   35.10
  -3   2  -1  747.73   35.00
  -3   2  -1  776.02   35.10
  -3   2  -1  747.73   35.00
  -4   2  -1 1871.61   86.09
  -4   2  -1 1886.61   86.19
  -4   2  -1 1871.61   86.09
  -4   2  -1 1886.61   86.19
  -5   2  -1  151.78    7.10
  -5   2  -1  125.49    7.00
  -5   2  -1  151.78    7.10
  -5   2  -1  125.49    7.00
  -6   2  -1  372.36   15.90
  -6   2  -1  372.36   15.90
  -6   2  -1  293.47   15.90
  -6   2  -1  293.47   15.90
  -7   2  -1  370.06   17.50
  -7   2  -1  370.06   17.50
  -8   2  -1    3.20    1.70
  -8   2  -1    3.20    1.70
  -5  -1   1 1012.70   47.60
  -5  -1   1 1012.70   47.60
  -4  -1   1   54.19    4.90
  -4  -1   1   54.19    4.90
  -3  -1   1 1007.70   47.10
  -3  -1   1 1007.70   47.10
  -2  -1   1 9523.25  437.16
  -2  -1   1 9523.25  437.16
   1   1  -1   32.00    2.40
   1   1  -1   32.00    2.40
  -1  -1   1   32.10    2.40
  -1  -1   1   32.10    2.40
   0   1  -1 2397.56  105.69
   0   1  -1 2315.37  105.29
   0   1  -1 2397.56  105.69
   0   1  -1 2315.37  105.29
   0  -1   1 2293.97  105.29
   0  -1   1 2293.97  105.29
   0  -1   1 2210.88  105.89
   0  -1   1 2210.88  105.89
  -1   1  -1 2440.46  110.79
  -1   1  -1 2534.25  110.29
  -1   1  -1 2440.46  110.79
  -1   1  -1 2534.25  110.29
   1  -1   1 2262.87  110.69
   1  -1   1 2262.87  110.69
  -2   1  -1  146.89    6.70
  -2   1  -1  150.78    6.80
  -2   1  -1  150.78    6.80
  -2   1  -1  146.89    6.70
   2  -1   1  129.19    6.60
   2  -1   1  129.19    6.60
  -3   1  -1 1362.06   64.69
  -3   1  -1 1362.06   64.69
   3  -1   1 1443.86   64.09
   3  -1   1 1443.66   64.09
  -5   1  -1   20.40    2.40
  -5   1  -1   20.40    2.40
  -6   1  -1  559.94   26.30
  -6   1  -1  559.94   26.30
  -8   1  -1   20.00    2.20
  -8   1  -1   20.00    2.20
  -6   0   1  323.77   16.40
  -6   0   1  323.77   16.40
  -4   0   1    2.40    2.60
  -4   0   1    2.40    2.60
  -3   0   1  762.02   35.30
  -3   0   1  762.02   35.30
   1   0  -1  607.24   27.80
   1   0  -1  607.24   27.80
  -1   0  -1  683.53   34.20
  -1   0  -1  683.53   34.20
   1   0   1  811.02   34.30
   1   0   1  811.02   34.30
  -2   0  -1  653.43   30.10
  -2   0  -1  653.43   30.10
  -3   0  -1 1922.81   87.99
  -3   0  -1 1922.81   87.99
  -4   0  -1  370.26   17.30
  -4   0  -1  370.26   17.30
  -5   0  -1  316.67   15.10
  -5   0  -1  316.67   15.10
  -6   0  -1  571.14   26.90
  -6   0  -1  571.14   26.90
  -7   1   1   12.70    3.40
  -7   1   1   12.70    3.40
  -6   1   1  629.14   29.40
  -6   1   1  629.24   29.40
  -5   1   1  408.36   17.30
  -5   1   1  408.36   17.30
  -5   1   1  328.57   17.60
  -5   1   1  328.57   17.60
  -4   1   1  192.98    9.10
  -4   1   1  192.98    9.10
  -3   1   1 2630.24  124.39
  -3   1   1 2814.52  124.69
  -3   1   1 2630.24  124.39
  -3   1   1 2814.62  124.69
   2  -1  -1  642.24   27.90
   2  -1  -1  642.24   27.90
  -2   1   1  620.34   28.20
  -2   1   1  558.94   27.90
  -2   1   1  558.94   27.90
  -2   1   1  620.34   28.20
   1  -1  -1  804.02   37.40
   1  -1  -1  775.92   37.30
   1  -1  -1  804.02   37.40
   1  -1  -1  775.92   37.30
  -1   1   1  863.81   37.40
  -1   1   1  817.62   37.30
  -1   1   1  863.81   37.40
  -1   1   1  817.62   37.30
   0  -1  -1 3035.50  137.09
   0  -1  -1 3127.49  137.19
   0  -1  -1 3127.49  137.19
   0  -1  -1 3035.50  137.09
   0   1   1 2687.53  136.99
   0   1   1 3127.59  137.19
   0   1   1 3127.69  137.19
   0   1   1 2687.53  136.99
  -1  -1  -1  845.22   40.90
  -1  -1  -1  845.22   40.90
   1   1   1  933.21   40.90
   1   1   1  933.21   40.90
  -2  -1  -1 1077.39   49.30
  -2  -1  -1 1077.39   49.30
  -3  -1  -1 1641.54   75.19
  -3  -1  -1 1641.54   75.19
  -4  -1  -1    0.90    0.50
  -4  -1  -1    0.90    0.50
   4   1   1   -3.00    1.50
   4   1   1   -3.00    1.50
  -5  -1  -1  853.91   39.50
  -5  -1  -1  853.91   39.50
  -6  -1  -1  340.67   16.40
  -6  -1  -1  340.67   16.40
  -8   2   1   57.69    4.80
  -8   2   1   57.69    4.80
  -7   2   1  151.28    8.80
  -7   2   1  151.28    8.80
  -6   2   1  477.75   22.70
  -6   2   1  477.75   22.70
  -5   2   1   74.69    4.00
  -5   2   1   74.69    4.00
  -4   2   1  876.11   41.70
  -4   2   1  943.51   42.10
  -4   2   1  943.51   42.10
  -4   2   1  876.11   41.70
  -3   2   1 2030.60   96.59
  -3   2   1 2197.98   96.89
  -3   2   1 2197.98   96.89
  -3   2   1 2030.60   96.59
  -2   2   1   14.40    0.90
  -2   2   1   14.40    0.90
  -2   2   1   11.90    1.60
  -2   2   1   11.90    1.60
   1  -2  -1 1406.06   64.89
   1  -2  -1 1406.06   64.89
  -1   2   1 1433.46   64.99
  -1   2   1 1433.46   64.99
   0  -2  -1 1841.02   84.09
   0  -2  -1 1841.02   84.09
  -1  -2  -1  559.04   26.50
  -1  -2  -1  532.15   26.20
  -1  -2  -1  559.04   26.50
  -1  -2  -1  532.15   26.20
   1   2   1  648.44   26.20
   1   2   1  548.75   26.60
   1   2   1  548.75   26.60
   1   2   1  648.44   26.20
  -2  -2  -1 3127.19  140.99
  -2  -2  -1 3038.60  141.39
  -2  -2  -1 3038.60  141.39
  -2  -2  -1 3127.19  140.99
  -3  -2  -1  483.35   22.30
  -3  -2  -1  483.35   22.30
  -4  -2  -1  124.19    6.10
  -4  -2  -1  124.19    6.10
  -5  -2  -1  808.82   37.40
  -5  -2  -1  808.82   37.40
  -8   3   1   12.20    4.70
  -8   3   1   12.20    4.70
  -7   3   1  277.27   13.90
  -7   3   1  277.27   13.90
  -6   3   1  221.68   10.40
  -6   3   1  202.48   11.40
  -6   3   1  202.48   11.40
  -6   3   1  221.68   10.40
  -5   3   1   72.49    5.10
  -5   3   1   72.49    5.10
  -5   3   1   80.99    4.20
  -5   3   1   80.99    4.20
  -4   3   1 1585.74   71.89
  -4   3   1 1585.54   71.89
  -4   3   1 1543.15   71.59
  -4   3   1 1543.15   71.59
   3  -3  -1  690.93   29.30
   3  -3  -1  690.93   29.30
  -3   3   1  612.04   29.20
  -3   3   1  608.44   29.50
  -3   3   1  612.04   29.20
  -3   3   1  608.44   29.50
   2  -3  -1  708.13   32.10
   2  -3  -1  708.13   32.10
  -2   3   1  664.03   32.30
  -2   3   1  664.03   32.30
  -2   3   1  725.03   32.00
  -2   3   1  725.03   32.00
   1  -3  -1 2122.29   97.69
   1  -3  -1 2122.29   97.69
  -1   3   1 2153.78   97.79
  -1   3   1 2153.68   97.79
   0  -3  -1  849.72   38.90
   0  -3  -1  849.72   38.90
  -1  -3  -1 1069.29   49.80
  -1  -3  -1 1069.29   49.80
  -1  -3  -1 1106.99   50.29
  -1  -3  -1 1106.99   50.29
  -2  -3  -1 1852.71   85.09
  -2  -3  -1 1852.71   85.09
  -3  -3  -1   16.60    2.40
  -3  -3  -1   16.60    2.40
  -8   4   1   50.59    6.70
  -8   4   1   50.59    6.70
  -7   4   1  200.48   10.70
  -7   4   1  200.38   10.70
  -6   4   1   33.80    5.20
  -6   4   1   32.30    2.70
  -6   4   1   33.80    5.20
  -6   4   1   32.30    2.70
  -5   4   1  354.46   16.80
  -5   4   1  339.57   16.20
  -5   4   1  354.46   16.80
  -5   4   1  339.57   16.20
   4  -4  -1 1033.80   44.70
   4  -4  -1 1033.80   44.70
  -4   4   1  932.71   44.60
  -4   4   1  952.10   45.00
  -4   4   1  932.71   44.60
  -4   4   1  952.10   45.00
   3  -4  -1    8.30    1.40
   3  -4  -1    8.30    1.40
  -3   4   1   11.10    1.10
  -3   4   1   11.00    2.80
  -3   4   1   11.10    1.10
  -3   4   1   11.00    2.80
   2  -4  -1 1271.67   57.89
   2  -4  -1 1271.67   57.89
  -2   4   1 1257.27   58.09
  -2   4   1 1257.37   58.09
   1  -4  -1 1383.36   64.99
   1  -4  -1 1383.36   64.99
  -1   4   1 1461.35   65.29
  -1   4   1 1461.45   65.29
   0  -4  -1  419.36   19.30
   0  -4  -1  419.36   19.30
  -1  -4  -1 1155.08   52.39
  -1  -4  -1 1106.99   51.79
  -1  -4  -1 1106.99   51.79
  -1  -4  -1 1155.08   52.39
  -2  -4  -1  696.03   32.60
  -2  -4  -1  696.03   32.60
  -3  -4  -1  278.87   13.70
  -3  -4  -1  278.87   13.70
  -4  -4  -1  974.50   45.40
  -4  -4  -1  974.50   45.40
  -5  -4  -1   77.49    5.70
  -5  -4  -1   77.49    5.70
   8  -5  -1   59.89    4.80
   8  -5  -1   59.89    4.80
   7  -5  -1   33.40    3.60
   7  -5  -1   33.40    3.60
  -7   5   1   27.90    6.10
  -7   5   1   27.90    6.10
   6  -5  -1   35.10    3.40
   6  -5  -1   35.10    3.40
   5  -5  -1  435.26   20.20
   5  -5  -1  435.26   20.20
  -5   5   1  444.16   20.70
  -5   5   1  444.16   20.70
  -5   5   1  418.46   20.20
  -5   5   1  418.46   20.20
   4  -5  -1  248.88   11.60
   4  -5  -1  248.88   11.60
  -4   5   1  233.08   12.20
  -4   5   1  252.57   11.50
  -4   5   1  252.57   11.50
  -4   5   1  233.08   12.20
   3  -5  -1  191.08    9.10
   3  -5  -1  191.08    9.10
  -3   5   1  189.98    9.70
  -3   5   1  189.98    9.70
   2  -5  -1 1128.89   55.59
   2  -5  -1 1128.89   55.59
  -2   5   1 1298.57   56.59
  -2   5   1 1298.37   56.59
   1  -5  -1  232.58   11.00
   1  -5  -1  232.58   11.00
  -1   5   1  237.68   11.40
  -1   5   1  237.68   11.40
   0  -5  -1  531.85   24.50
   0  -5  -1  531.85   24.50
  -1  -5  -1  737.93   35.10
  -1  -5  -1  792.92   36.10
  -1  -5  -1  792.92   36.10
  -1  -5  -1  737.93   35.10
  -2  -5  -1    0.20    0.40
  -2  -5  -1    0.20    0.40
  -3  -5  -1  217.08   11.40
  -3  -5  -1  217.08   11.40
  -4  -5  -1  416.66   20.60
  -4  -5  -1  416.66   20.60
  -5  -5  -1    2.60    0.80
  -5  -5  -1    2.60    0.80
   7  -6  -1   15.90    3.10
   7  -6  -1   15.90    3.10
  -7   6   1   12.70    6.30
  -7   6   1   12.70    6.30
   6  -6  -1   34.90    3.70
   6  -6  -1   34.90    3.70
  -6   6   1   41.10    6.70
  -6   6   1   41.10    6.80
  -5   6   1  159.08    9.10
  -5   6   1  159.08    9.10
   4  -6  -1    5.30    2.10
   4  -6  -1    5.30    2.10
  -4   6   1    6.50    4.10
  -4   6   1    6.50    4.10
   3  -6  -1  174.88    8.60
   3  -6  -1  174.88    8.60
  -3   6   1  181.08    9.40
  -3   6   1  181.08    9.40
   2  -6  -1  601.14   27.30
   2  -6  -1  601.14   27.30
  -2   6   1  582.24   27.70
  -2   6   1  582.24   27.70
   1  -6  -1   19.70    1.80
   1  -6  -1   19.70    1.80
  -1   6   1   19.70    3.20
  -1   6   1   19.70    3.20
   0  -6  -1  662.03   30.40
   0  -6  -1  662.03   30.40
   0   6   1  658.73   30.70
   0   6   1  658.73   30.70
  -1  -6  -1  305.77   14.30
  -1  -6  -1  305.77   14.30
  -2  -6  -1   38.80    4.60
  -2  -6  -1   38.80    4.60
  -3  -6  -1  357.46   18.00
  -3  -6  -1  357.46   18.00
  -4  -6  -1   49.20    5.60
  -4  -6  -1   49.20    5.60
  -5  -6  -1    4.60    1.00
  -5  -6  -1    4.60    1.00
  -6  -6  -1  138.19   10.30
  -6  -6  -1  138.19   10.30
   6  -7  -1   81.59    5.20
   6  -7  -1   81.59    5.20
  -6   7   1   93.49    7.30
  -6   7   1   93.49    7.30
   5  -7  -1   79.29    5.00
   5  -7  -1   79.29    5.00
  -5   7   1   91.49    7.20
  -5   7   1   91.49    7.20
   4  -7  -1   12.00    2.70
   4  -7  -1   12.00    2.70
   3  -7  -1  350.96   16.90
   3  -7  -1  350.96   16.90
  -3   7   1  372.26   17.70
  -3   7   1  372.26   17.70
   2  -7  -1  105.59    5.30
   2  -7  -1  105.59    5.30
  -2   7   1  100.49    6.30
  -2   7   1  100.49    6.30
   1  -7  -1   86.69    4.50
   1  -7  -1   86.69    4.50
  -1   7   1   88.09    5.50
  -1   7   1   88.09    5.50
   0  -7  -1  407.16   19.30
   0  -7  -1  407.16   19.30
   0   7   1  426.86   19.80
   0   7   1  426.86   19.80
  -1  -7  -1   20.00    2.20
  -1  -7  -1   20.00    2.20
  -3  -7  -1  187.58   11.20
  -3  -7  -1  187.58   11.20
  -4  -7  -1    0.50    0.90
  -4  -7  -1    0.50    0.90
  -5  -7  -1   82.99    9.20
  -5  -7  -1   82.99    9.20
   5  -8  -1    7.50    2.90
   5  -8  -1    7.50    2.90
  -5   8   1   -4.20    5.60
  -5   8   1   -4.30    5.60
   4  -8  -1   45.80    3.60
   4  -8  -1   45.80    3.60
  -4   8   1   54.59    6.30
  -4   8   1   54.49    6.30
   3  -8  -1  128.49    6.70
   3  -8  -1  128.49    6.70
  -3   8   1  126.49    8.10
  -3   8   1  126.49    8.10
   2  -8  -1    3.90    2.30
   2  -8  -1    3.90    2.30
  -2   8   1    1.20    4.20
  -2   8   1    1.20    4.20
   1  -8  -1  180.28    9.10
   1  -8  -1  180.28    9.10
  -1   8   1  186.98    9.80
  -1   8   1  187.08    9.80
   0  -8  -1   96.89    5.10
   0  -8  -1   96.89    5.10
   0   8   1   94.19    6.40
   0   8   1   94.19    6.40
  -1  -8  -1    5.40    2.20
  -1  -8  -1    5.40    2.20
   1   8   1    6.40    4.50
   1   8   1    6.40    4.50
   4  -9  -1   54.59    4.10
   4  -9  -1   54.59    4.10
  -4   9   1   57.99    7.60
  -4   9   1   57.99    7.60
   3  -9  -1   34.90    3.30
   3  -9  -1   34.90    3.30
  -3   9   1   42.60    6.10
  -3   9   1   42.60    6.10
   2  -9  -1   16.30    2.80
   2  -9  -1   16.30    2.80
  -2   9   1   10.90    4.90
  -2   9   1   10.90    4.90
   1  -9  -1  101.99    5.40
   1  -9  -1  101.99    5.40
  -1   9   1   86.49    6.40
  -1   9   1   86.49    6.40
   0  -9  -1   10.30    2.60
   0  -9  -1   10.30    2.60
   0   9   1   12.60    4.30
   0   9   1   12.60    4.30
  -1  -9  -1   45.60    3.80
  -1  -9  -1   45.60    3.80
   1   9   1   54.69    6.10
   1   9   1   54.69    6.10
   2   9   1   62.19    5.70
   2   9   1   62.19    5.70
  -3  -9   2   48.80    8.80
  -3  -9   2   48.80    8.80
  -2  -9   2   31.70    3.10
  -2  -9   2   31.70    3.10
  -1  -9   2   92.59    5.00
  -1  -9   2   84.29    8.90
  -1  -9   2   84.29    8.90
  -1  -9   2   92.59    5.00
  -1   9  -2   45.10    6.00
  -1   9  -2   45.10    6.00
   1  -9   2   34.20    3.20
   1  -9   2   34.20    3.20
  -2   9  -2   68.99    6.00
  -2   9  -2   68.99    6.00
   2  -9   2   56.59    3.90
   2  -9   2   56.59    3.90
  -3   9  -2   17.90    5.30
  -3   9  -2   17.90    5.30
   3  -9   2   16.90    2.90
   3  -9   2   16.90    2.90
  -4   9  -2   53.99    6.10
  -4   9  -2   53.99    6.10
   4  -9   2   32.60    3.50
   4  -9   2   32.60    3.50
  -4  -8   2  114.29   10.80
  -4  -8   2  114.29   10.80
  -3  -8   2    1.90    1.10
  -3  -8   2    1.90    1.10
  -2  -8   2  129.29    6.50
  -2  -8   2  133.79   10.30
  -2  -8   2  129.29    6.50
  -2  -8   2  133.79   10.30
  -1  -8   2  203.88   13.00
  -1  -8   2  210.08    9.90
  -1  -8   2  210.08    9.90
  -1  -8   2  203.88   13.00
   0  -8   2   23.20    2.20
   0  -8   2   23.20    2.20
   1  -8   2  173.68    8.40
   1  -8   2  173.68    8.40
  -2   8  -2   74.59    6.00
  -2   8  -2   74.79    6.00
   2  -8   2   59.59    4.20
   2  -8   2   59.59    4.20
  -3   8  -2    8.00    5.00
  -3   8  -2    8.00    5.00
   3  -8   2    9.70    2.50
   3  -8   2    9.70    2.50
  -4   8  -2  143.79    8.40
  -4   8  -2  142.69    7.10
  -4   8  -2  142.69    7.10
  -4   8  -2  143.69    8.40
   4  -8   2  109.99    6.80
   4  -8   2  109.99    6.80
  -5   8  -2   48.50    4.40
  -5   8  -2   57.49    7.20
  -5   8  -2   57.49    7.20
  -5   8  -2   48.50    4.40
   5  -8   2   39.60    4.10
   5  -8   2   39.60    4.10
  -6  -7   2    1.10    1.40
  -6  -7   2    1.10    1.40
  -5  -7   2  135.39   12.80
  -5  -7   2  135.39   12.80
  -4  -7   2   90.79    8.70
  -4  -7   2   90.79    8.70
  -3  -7   2   43.70    6.00
  -3  -7   2   43.70    6.00
  -2  -7   2  296.97   13.70
  -2  -7   2  296.97   13.70
  -2  -7   2  290.67   15.70
  -2  -7   2  290.67   15.70
  -1  -7   2    4.50    0.80
  -1  -7   2    4.50    0.80
   0  -7   2   88.79    6.90
   0  -7   2   98.09    4.80
   0  -7   2   98.09    4.80
   0  -7   2   88.79    6.90
   1  -7   2  256.97   13.80
   1  -7   2  254.77   12.00
   1  -7   2  254.77   12.00
   1  -7   2  256.97   13.80
  -2   7  -2   -3.60    4.20
  -2   7  -2   -3.60    4.20
   2  -7   2    0.70    1.60
   2  -7   2    0.70    1.60
  -3   7  -2  135.69    6.60
  -3   7  -2  135.69    6.60
  -3   7  -2  139.59    7.40
  -3   7  -2  139.49    7.40
   3  -7   2  108.89    6.40
   3  -7   2  108.89    6.40
  -4   7  -2  179.18    9.10
  -4   7  -2  179.18    9.10
  -4   7  -2  200.18    9.80
  -4   7  -2  200.08    9.80
   4  -7   2  164.08    9.00
   4  -7   2  164.08    9.00
  -5   7  -2   10.80    5.90
  -5   7  -2    4.60    1.30
  -5   7  -2   10.80    5.90
  -5   7  -2    4.60    1.30
   5  -7   2   -3.60    3.10
   5  -7   2   -3.60    3.10
  -6   7  -2   84.09    5.90
  -6   7  -2   68.49    7.10
  -6   7  -2   68.49    7.10
  -6   7  -2   84.09    5.90
  -6  -6   2   49.80    8.90
  -6  -6   2   49.80    8.90
  -5  -6   2  216.78   13.30
  -5  -6   2  216.78   13.30
  -4  -6   2    1.80    0.80
  -4  -6   2    1.80    0.80
  -3  -6   2  279.67   14.90
  -3  -6   2  279.67   14.90
  -2  -6   2  518.25   23.50
  -2  -6   2  503.05   25.00
  -2  -6   2  518.25   23.50
  -2  -6   2  503.05   25.00
  -1  -6   2    1.00    1.00
  -1  -6   2    1.00    0.50
  -1  -6   2    1.00    0.50
  -1  -6   2    1.00    1.00
   0  -6   2  526.45   26.50
   0  -6   2  526.45   26.50
   0  -6   2  569.34   25.20
   0  -6   2  569.34   25.20
   1  -6   2  342.07   17.30
   1  -6   2  342.07   17.30
  -2   6  -2    2.40    1.00
  -2   6  -2    2.40    1.00
   2  -6   2    4.80    1.60
   2  -6   2    4.80    1.60
  -3   6  -2  319.17   14.80
  -3   6  -2  336.37   15.20
  -3   6  -2  336.37   15.20
  -3   6  -2  319.17   14.80
   3  -6   2  282.17   14.70
   3  -6   2  282.17   14.70
  -4   6  -2  111.89    6.40
  -4   6  -2  111.89    6.40
  -5   6  -2   53.79    5.30
  -5   6  -2   38.10    3.70
  -5   6  -2   38.10    3.70
  -5   6  -2   53.79    5.30
  -6   6  -2  194.08   10.40
  -6   6  -2  205.48   10.60
  -6   6  -2  205.48   10.60
  -6   6  -2  194.08   10.40
  -7   6  -2   28.10    5.70
  -7   6  -2   28.10    5.70
  -7  -5   2    0.50    1.20
  -7  -5   2    0.50    1.20
  -6  -5   2  273.97   16.10
  -6  -5   2  273.97   16.10
  -5  -5   2  158.78   10.80
  -5  -5   2  158.78   10.80
  -4  -5   2    4.40    0.90
  -4  -5   2    4.40    0.90
  -3  -5   2  732.73   35.20
  -3  -5   2  732.73   35.20
  -2  -5   2  353.26   17.00
  -2  -5   2  321.67   15.50
  -2  -5   2  353.26   17.00
  -2  -5   2  321.67   15.50
  -1  -5   2  306.07   15.40
  -1  -5   2  312.77   14.30
  -1  -5   2  306.07   15.40
  -1  -5   2  312.77   14.30
   0  -5   2 1168.38   56.79
   0  -5   2 1168.38   56.79
   0  -5   2 1275.87   55.89
   0  -5   2 1275.87   55.89
   1  -5   2  210.78    9.40
   1  -5   2  189.68   10.50
   1  -5   2  210.78    9.40
   1  -5   2  189.68   10.50
  -2   5  -2  732.23   33.90
  -2   5  -2  732.23   33.90
  -3   5  -2  850.11   39.80
  -3   5  -2  872.21   39.80
  -3   5  -2  850.11   39.80
  -3   5  -2  872.21   39.80
  -4   5  -2   29.80    3.10
  -4   5  -2   29.80    3.10
  -5   5  -2  152.88    8.00
  -5   5  -2  152.88    8.00
  -5   5  -2  150.48    7.90
  -5   5  -2  150.48    7.90
  -6   5  -2  189.98   10.00
  -6   5  -2  189.98   10.00
  -6   5  -2  195.58    9.90
  -6   5  -2  195.48    9.90
  -7   5  -2  -10.60    4.40
  -7   5  -2    2.50    1.80
  -7   5  -2    2.50    1.80
  -7   5  -2  -10.60    4.40
  -8  -4   2    7.70    1.50
  -8  -4   2    7.70    1.50
  -7  -4   2   74.09    9.40
  -7  -4   2   74.09    9.40
  -6  -4   2  507.25   25.90
  -6  -4   2  507.25   25.90
  -5  -4   2    7.20    1.30
  -5  -4   2    7.20    1.30
  -4  -4   2  597.34   29.30
  -4  -4   2  597.34   29.30
  -3  -4   2 1094.59   51.39
  -3  -4   2 1094.59   51.39
  -2  -4   2   24.40    1.50
  -2  -4   2   32.80    3.50
  -2  -4   2   24.40    1.50
  -2  -4   2   32.80    3.50
  -1  -4   2 1340.57   62.19
  -1  -4   2 1340.57   62.19
  -1  -4   2 1345.47   61.39
  -1  -4   2 1345.47   61.39
   0   4  -2 1738.43   79.89
   0   4  -2 1738.43   79.89
   0  -4   2 1865.81   79.89
   0  -4   2 1642.14   80.59
   0  -4   2 1865.81   79.89
   0  -4   2 1642.14   80.59
   1  -4   2    0.40    0.30
   1  -4   2    0.40    0.30
  -2   4  -2 2261.27  103.59
  -2   4  -2 2261.27  103.59
  -3   4  -2  736.23   33.70
  -3   4  -2  736.23   33.70
  -3   4  -2  722.13   33.80
  -3   4  -2  722.13   33.80
  -4   4  -2   72.89    4.30
  -4   4  -2   74.29    4.30
  -4   4  -2   74.29    4.30
  -4   4  -2   72.89    4.30
  -5   4  -2  530.95   24.30
  -5   4  -2  531.05   24.30
  -5   4  -2  510.25   24.50
  -5   4  -2  510.25   24.50
  -6   4  -2   48.10    4.00
  -6   4  -2   48.10    4.00
  -6   4  -2   58.69    4.20
  -6   4  -2   58.69    4.20
  -7   4  -2   12.80    1.90
  -7   4  -2   12.80    1.90
  -8   4  -2  138.09    8.20
  -8   4  -2  138.09    8.20
  -8  -3   2    1.80    1.20
  -8  -3   2    1.80    1.20
  -7  -3   2  233.18   14.10
  -7  -3   2  233.18   14.10
  -6  -3   2  548.55   28.40
  -6  -3   2  548.55   28.40
  -5  -3   2   53.49    6.60
  -5  -3   2   53.49    6.60
   3   3  -2  335.37   15.40
   3   3  -2  335.37   15.40
   2   3  -2  432.86   19.30
   2   3  -2  432.86   19.30
  -2  -3   2  467.15   20.60
  -2  -3   2  467.15   20.60
  -2  -3   2  369.76   19.30
  -2  -3   2  369.76   19.30
  -1  -3   2 2252.97  104.79
  -1  -3   2 2306.67  104.19
  -1  -3   2 2306.67  104.19
  -1  -3   2 2252.97  104.79
   0   3  -2  846.92   37.60
   0   3  -2  846.92   37.60
   0  -3   2  795.02   38.10
   0  -3   2  795.02   38.10
  -1   3  -2 1831.62   85.49
  -1   3  -2 1831.62   85.49
   1  -3   2 1910.21   85.99
   1  -3   2 1910.21   85.99
  -2   3  -2 3156.88  144.39
  -2   3  -2 3156.88  144.39
  -3   3  -2   63.49    3.70
  -3   3  -2   65.39    3.50
  -3   3  -2   63.49    3.70
  -3   3  -2   65.39    3.50
  -4   3  -2  972.30   43.80
  -4   3  -2  930.91   43.90
  -4   3  -2  930.91   43.90
  -4   3  -2  972.30   43.80
  -5   3  -2  851.81   39.00
  -5   3  -2  829.22   38.80
  -5   3  -2  851.81   39.00
  -5   3  -2  829.12   38.80
  -6   3  -2   -0.20    2.80
  -6   3  -2   -0.20    2.80
  -6   3  -2    0.50    1.00
  -6   3  -2    0.50    1.00
  -7   3  -2  188.98    9.60
  -7   3  -2  188.98    9.60
  -8   3  -2   28.20    2.90
  -8   3  -2   44.70    4.30
  -8   3  -2   44.50    4.30
  -8   3  -2   28.20    2.90
  -8  -2   2    5.30    1.10
  -8  -2   2    5.30    1.10
  -7  -2   2  315.57   18.30
  -7  -2   2  315.57   18.30
  -6  -2   2    2.30    0.80
  -6  -2   2    2.30    0.80
  -5  -2   2  483.45   24.00
  -5  -2   2  483.45   24.00
  -4  -2   2 2044.60   94.89
  -4  -2   2 2044.60   94.89
  -3  -2   2   22.10    3.80
  -3  -2   2   22.10    3.80
  -2  -2   2 2429.76  111.99
  -2  -2   2 2429.76  111.99
  -1  -2   2 3177.58  145.29
  -1  -2   2 3185.88  145.89
  -1  -2   2 3185.88  145.89
  -1  -2   2 3177.58  145.29
   0  -2   2    8.60    0.70
   0  -2   2    9.30    1.50
   0  -2   2    8.60    0.70
   0  -2   2    9.30    1.50
  -1   2  -2 4302.57  191.38
  -1   2  -2 3918.11  190.68
  -1   2  -2 4302.57  191.38
  -1   2  -2 3918.11  190.68
   1  -2   2 4301.17  191.88
   1  -2   2 4301.17  191.88
  -2   2  -2 1558.04   70.09
  -2   2  -2 1498.85   69.89
  -2   2  -2 1498.95   69.89
  -2   2  -2 1558.04   70.09
  -3   2  -2  395.36   18.10
  -3   2  -2  395.46   18.10
  -3   2  -2  388.26   18.40
  -3   2  -2  388.26   18.40
  -4   2  -2 1027.40   48.20
  -4   2  -2 1063.79   48.00
  -4   2  -2 1063.79   48.00
  -4   2  -2 1027.40   48.20
  -6   2  -2  187.18   10.70
  -6   2  -2  236.78   10.40
  -6   2  -2  236.78   10.40
  -6   2  -2  187.18   10.70
  -7   2  -2  228.78   11.90
  -7   2  -2  228.78   11.90
  -8   2  -2    9.50    1.90
  -8   2  -2    9.50    1.90
  -8  -1   2  136.29    9.80
  -8  -1   2  136.29    9.80
  -7  -1   2  262.67   14.40
  -7  -1   2  262.67   14.40
  -6  -1   2    0.30    0.60
  -6  -1   2    0.30    0.60
  -5  -1   2  473.05   23.30
  -5  -1   2  473.05   23.30
  -4  -1   2  472.55   23.20
  -4  -1   2  472.55   23.20
  -3  -1   2  110.59    7.20
  -3  -1   2  110.59    7.20
  -2  -1   2  936.81   44.00
  -2  -1   2  936.81   44.00
   1   1  -2 1493.15   67.79
   1   1  -2 1493.15   67.79
  -1  -1   2 1448.46   67.99
  -1  -1   2 1448.46   67.99
   0   1  -2 1597.14   71.49
   0   1  -2 1597.14   71.49
   0  -1   2 1588.64   71.49
   0  -1   2 1505.05   71.79
   0  -1   2 1588.64   71.49
   0  -1   2 1505.05   71.79
  -2   1  -2  184.28    8.90
  -2   1  -2  184.28    8.90
  -3   1  -2 1183.28   54.39
  -3   1  -2 1183.28   54.39
  -4   1  -2 1537.15   70.59
  -4   1  -2 1537.15   70.59
  -5   1  -2    4.30    0.90
  -5   1  -2    4.30    0.90
  -6   1  -2  225.68   11.30
  -6   1  -2  225.68   11.30
  -7   1  -2  218.48   11.60
  -7   1  -2  218.48   11.60
  -8   1  -2    5.90    1.70
  -8   1  -2    5.90    1.70
  -8   0   2  210.78   12.30
  -8   0   2  210.78   12.30
  -7   0   2   75.49    6.90
  -7   0   2   75.49    6.90
  -5   0   2 1058.39   48.90
  -5   0   2 1058.39   48.90
  -4   0   2  200.88   10.10
  -4   0   2  200.88   10.10
  -3   0   2  742.63   34.60
  -3   0   2  742.63   34.60
   1   0  -2  332.47   17.10
   1   0  -2  399.66   17.50
   1   0  -2  332.47   17.10
   1   0  -2  399.76   17.50
  -1   0   2  380.06   17.10
  -1   0   2  380.06   17.10
   0   0  -2 2337.87  105.69
   0   0  -2 2337.87  105.69
   0   0   2 2279.97  105.69
   0   0   2 2279.97  105.69
  -1   0  -2 4242.78  195.48
  -1   0  -2 4242.78  195.48
   1   0   2 4294.17  194.88
   1   0   2 4294.17  194.88
  -2   0  -2  205.08    9.80
  -2   0  -2  205.08    9.80
  -3   0  -2 2454.55  112.39
  -3   0  -2 2454.55  112.39
  -4   0  -2  630.14   29.30
  -4   0  -2  630.14   29.30
  -5   0  -2  181.18    9.10
  -5   0  -2  181.18    9.10
  -6   0  -2  527.95   25.00
  -6   0  -2  527.95   25.00
  -7   0  -2   48.90    5.00
  -7   0  -2   48.90    5.00
  -8   0  -2   15.20    2.10
  -8   0  -2   15.20    2.10
  -9   1   2   70.89    8.40
  -9   1   2   70.89    8.40
  -6   1   2  504.15   23.90
  -6   1   2  504.15   23.90
  -5   1   2  397.36   19.20
  -5   1   2  397.36   19.20
  -4   1   2  135.79    7.70
  -4   1   2  135.79    7.70
  -3   1   2 1859.71   85.49
  -3   1   2 1859.71   85.49
   2  -1  -2 1974.30   90.69
   2  -1  -2 1974.30   90.69
  -2   1   2 1991.10   90.89
  -2   1   2 1991.00   90.89
   1  -1  -2 1886.61   84.59
   1  -1  -2 1886.61   84.59
   1  -1  -2 1887.21   84.69
   1  -1  -2 1887.21   84.69
  -1   1   2 1778.92   84.39
  -1   1   2 1836.02   84.59
  -1   1   2 1836.12   84.59
  -1   1   2 1778.92   84.39
   0  -1  -2 9998.90  451.35
   0  -1  -2 9999.00  451.35
   0   1   2 9750.12  451.25
   0   1   2 9750.22  451.25
  -1  -1  -2  163.48    7.20
  -1  -1  -2  163.48    7.20
   1   1   2  140.69    7.00
   1   1   2  140.69    7.00
  -2  -1  -2  404.66   18.80
  -2  -1  -2  404.66   18.80
  -3  -1  -2 2071.19   94.89
  -3  -1  -2 2071.19   94.89
  -4  -1  -2    7.80    1.00
  -4  -1  -2    7.80    1.00
  -5  -1  -2  472.85   22.30
  -5  -1  -2  472.85   22.30
  -6  -1  -2  304.97   15.00
  -6  -1  -2  304.97   15.00
  -7  -1  -2   -1.30    1.50
  -7  -1  -2   -1.30    1.50
  -8   2   2   66.49    5.40
  -8   2   2   66.49    5.40
  -7   2   2   82.59    5.80
  -7   2   2   82.59    5.80
  -6   2   2  523.55   25.00
  -6   2   2  523.65   25.00
  -5   2   2  104.69    6.50
  -5   2   2  104.69    6.50
  -4   2   2 1147.69   53.09
  -4   2   2 1147.69   53.09
   3  -2  -2 1496.85   69.49
   3  -2  -2 1496.85   69.49
  -3   2   2 1544.85   69.99
  -3   2   2 1544.85   69.99
   2  -2  -2  211.78    9.80
   2  -2  -2  211.88    9.80
   2  -2  -2  211.78    9.80
   2  -2  -2  211.88    9.80
  -2   2   2  212.08   10.20
  -2   2   2  212.08   10.20
   1  -2  -2 2379.36  107.19
   1  -2  -2 2379.36  107.19
  -1   2   2 2309.17  107.19
  -1   2   2 2309.27  107.19
   0  -2  -2 4164.28  183.88
   0  -2  -2 4164.28  183.88
   0   2   2 3883.31  183.88
   0   2   2 3883.41  183.88
  -1  -2  -2   20.10    1.30
  -1  -2  -2   20.10    1.30
   1   2   2   14.20    1.30
   1   2   2   15.90    1.20
   1   2   2   15.90    1.20
   1   2   2   14.20    1.30
  -2  -2  -2 3534.35  161.78
  -2  -2  -2 3534.35  161.78
  -3  -2  -2  699.33   32.20
  -3  -2  -2  699.33   32.20
  -4  -2  -2    6.40    0.90
  -4  -2  -2    6.40    0.90
  -5  -2  -2  498.05   23.40
  -5  -2  -2  498.05   23.40
  -6  -2  -2   97.49    5.90
  -6  -2  -2   97.49    5.90
  -8   3   2    2.00    5.10
  -8   3   2    2.00    5.10
  -7   3   2  128.19    8.00
  -7   3   2  128.19    8.00
  -6   3   2  332.97   16.40
  -6   3   2  333.07   16.40
   5  -3  -2   39.00    4.00
   5  -3  -2   39.00    4.00
  -5   3   2   32.90    5.10
  -5   3   2   32.90    5.10
   4  -3  -2 1112.89   51.39
   4  -3  -2 1112.89   51.39
  -4   3   2 1132.29   51.89
  -4   3   2 1132.29   51.89
   3  -3  -2  765.72   35.20
   3  -3  -2  765.72   35.20
  -3   3   2  770.02   35.60
  -3   3   2  770.02   35.60
   2  -3  -2 1109.49   47.40
   2  -3  -2  990.10   47.50
   2  -3  -2 1109.49   47.40
   2  -3  -2  990.10   47.50
  -2   3   2 1011.70   47.80
  -2   3   2 1011.70   47.80
   1  -3  -2  866.91   39.90
   1  -3  -2  866.91   39.90
  -1   3   2  876.41   40.10
  -1   3   2  876.41   40.10
   0  -3  -2  540.35   24.40
   0  -3  -2  540.35   24.40
   0   3   2  520.95   24.50
   0   3   2  520.95   24.50
  -2  -3  -2 2753.42  125.69
  -2  -3  -2 2733.13  125.49
  -2  -3  -2 2733.13  125.49
  -2  -3  -2 2753.42  125.69
  -3  -3  -2   79.69    4.00
  -3  -3  -2   79.69    4.00
  -4  -3  -2  445.56   20.80
  -4  -3  -2  445.56   20.80
  -8   4   2    5.30    6.30
  -8   4   2    5.50    6.30
   7  -4  -2  148.49    7.60
   7  -4  -2  148.49    7.60
  -7   4   2  153.08    8.80
  -7   4   2  152.98    8.80
   6  -4  -2   80.59    4.40
   6  -4  -2   80.59    4.40
  -6   4   2   78.09    6.10
  -6   4   2   78.09    6.10
   5  -4  -2  245.88   11.40
   5  -4  -2  245.88   11.40
  -5   4   2  233.68   12.10
  -5   4   2  233.58   12.10
   4  -4  -2  936.51   43.00
   4  -4  -2  936.51   43.00
   3  -4  -2   65.19    3.30
   3  -4  -2   65.19    3.30
  -3   4   2   59.49    4.20
  -3   4   2   59.49    4.20
   2  -4  -2  579.64   27.00
   2  -4  -2  579.64   27.00
  -2   4   2  592.94   27.30
  -2   4   2  593.04   27.30
   1  -4  -2 1008.20   47.10
   1  -4  -2 1008.20   47.10
  -1   4   2 1051.39   47.40
  -1   4   2 1051.49   47.40
   0  -4  -2    7.20    1.10
   0  -4  -2    7.20    1.10
   0   4   2   12.40    1.90
   0   4   2   12.40    1.90
  -1  -4  -2  313.97   14.60
  -1  -4  -2  313.97   14.60
  -2  -4  -2  795.72   37.10
  -2  -4  -2  795.72   37.10
  -3  -4  -2   80.79    5.10
  -3  -4  -2   80.79    5.10
   8  -5  -2   15.00    2.90
   8  -5  -2   15.00    2.90
  -8   5   2    9.60    6.90
  -8   5   2    9.60    7.00
   7  -5  -2  128.49    6.70
   7  -5  -2  128.49    6.70
  -7   5   2  124.69    8.60
  -7   5   2  124.69    8.60
   6  -5  -2    1.60    2.30
   6  -5  -2    1.60    2.30
  -6   5   2    8.30    4.80
  -6   5   2    8.30    4.80
   5  -5  -2  218.68   10.70
   5  -5  -2  218.68   10.70
  -5   5   2  227.28   11.60
  -5   5   2  227.28   11.60
   4  -5  -2  390.56   18.10
   4  -5  -2  390.56   18.10
  -4   5   2  385.16   18.70
  -4   5   2  385.16   18.70
   3  -5  -2   79.29    4.10
   3  -5  -2   79.29    4.10
  -3   5   2   79.39    5.10
  -3   5   2   79.39    5.10
   2  -5  -2  891.51   39.90
   2  -5  -2  891.51   39.90
  -2   5   2  844.52   40.20
  -2   5   2  844.52   40.20
   1  -5  -2  278.57   12.90
   1  -5  -2  278.57   12.90
  -1   5   2  277.07   13.40
  -1   5   2  277.07   13.40
   0  -5  -2   55.99    3.10
   0  -5  -2   55.99    3.10
   0   5   2   62.89    3.60
   0   5   2   62.89    3.60
  -1  -5  -2  920.91   41.30
  -1  -5  -2  920.91   41.30
   1   5   2  877.11   41.40
   1   5   2  877.01   41.40
  -3  -5  -2  135.09    7.90
  -3  -5  -2  135.09    7.90
  -4  -5  -2  414.56   20.30
  -4  -5  -2  414.56   20.30
  -5  -5  -2    1.30    0.70
  -5  -5  -2    1.30    0.70
   7  -6  -2   30.90    3.20
   7  -6  -2   30.90    3.20
  -7   6   2   40.90    7.30
  -7   6   2   41.10    7.30
   6  -6  -2   32.90    3.40
   6  -6  -2   32.90    3.40
  -6   6   2   13.80   10.40
  -6   6   2   13.80   10.40
  -5   6   2  470.15   22.80
  -5   6   2  470.45   22.80
   4  -6  -2   44.90    3.00
   4  -6  -2   44.90    3.00
  -4   6   2   38.40    4.80
  -4   6   2   38.40    4.80
   3  -6  -2  234.68   11.00
   3  -6  -2  234.68   11.00
  -3   6   2  226.38   11.70
  -3   6   2  226.28   11.70
   2  -6  -2  436.46   20.30
   2  -6  -2  436.46   20.30
  -2   6   2  438.26   20.70
  -2   6   2  438.26   20.70
   1  -6  -2    9.80    1.70
   1  -6  -2    9.80    1.70
  -1   6   2    5.30    2.90
  -1   6   2    5.30    2.90
   0  -6  -2  312.57   14.60
   0  -6  -2  312.57   14.60
   0   6   2  313.37   14.90
   0   6   2  313.37   14.90
  -1  -6  -2  320.07   14.90
  -1  -6  -2  320.07   14.90
   1   6   2  320.77   15.20
   1   6   2  320.77   15.20
   6  -7  -2   47.10    4.00
   6  -7  -2   47.10    4.00
  -6   7   2   79.99    8.20
  -6   7   2   79.99    8.20
   5  -7  -2   82.99    4.90
   5  -7  -2   82.99    4.90
  -5   7   2   76.49    7.00
  -5   7   2   76.49    7.00
   4  -7  -2   17.60    2.70
   4  -7  -2   17.60    2.70
  -4   7   2   13.50    6.10
  -4   7   2   13.50    6.10
   3  -7  -2  320.97   15.70
   3  -7  -2  320.97   15.70
  -3   7   2  345.77   16.70
  -3   7   2  345.67   16.70
   2  -7  -2   90.09    4.80
   2  -7  -2   90.09    4.80
  -2   7   2   92.39    6.00
  -2   7   2   92.39    6.00
   1  -7  -2   28.00    2.40
   1  -7  -2   28.00    2.40
  -1   7   2   31.90    3.60
  -1   7   2   31.90    3.60
   0  -7  -2  231.58   11.00
   0  -7  -2  231.58   11.00
   0   7   2  230.88   11.40
   0   7   2  230.88   11.40
  -1  -7  -2   48.40    3.10
  -1  -7  -2   48.40    3.10
   1   7   2   48.40    3.90
   1   7   2   48.40    3.90
   2   7   2   53.89    4.20
   2   7   2   53.89    4.20
   5  -8  -2   23.90    3.30
   5  -8  -2   23.90    3.30
  -5   8   2   14.60    7.00
  -5   8   2   14.80    7.00
   4  -8  -2   33.40    3.30
   4  -8  -2   33.40    3.30
  -4   8   2   38.30    6.40
  -4   8   2   38.30    6.50
   3  -8  -2  114.59    6.30
   3  -8  -2  114.59    6.30
  -3   8   2  126.29    7.90
  -3   8   2  126.29    7.90
   2  -8  -2   10.30    2.40
   2  -8  -2   10.30    2.40
  -2   8   2    4.40    4.10
  -2   8   2    4.40    4.10
   1  -8  -2   97.79    5.70
   1  -8  -2   97.79    5.70
  -1   8   2  102.69    6.50
  -1   8   2  102.69    6.40
   0   8   2  135.89    7.70
   0   8   2  135.89    7.70
  -1  -8  -2    1.80    3.40
  -1  -8  -2    1.80    3.40
   1   8   2    7.50    4.10
   1   8   2    7.50    4.10
   2   8   2   82.19    5.90
   2   8   2   82.09    5.90
   3   8   2   63.19    5.50
   3   8   2   63.29    5.50
   3  -9  -2   22.70    3.00
   3  -9  -2   22.70    3.00
  -3   9   2   27.00    5.80
  -3   9   2   27.00    5.80
   2  -9  -2   12.00    2.60
   2  -9  -2   12.00    2.60
  -2   9   2    7.50    4.50
  -2   9   2    7.50    4.50
   1  -9  -2   75.49    4.50
   1  -9  -2   75.49    4.50
  -1   9   2   71.79    5.80
  -1   9   2   71.69    5.80
   0  -9  -2   25.00    3.00
   0  -9  -2   25.00    3.00
   0   9   2   23.30    5.00
   0   9   2   23.30    5.00
  -1  -9  -2   27.40    3.40
  -1  -9  -2   27.40    3.40
   1   9   2   21.90    4.80
   1   9   2   21.90    4.90
  -3  -9   3   62.29    9.50
  -3  -9   3   62.29    9.50
  -2  -9   3   12.80    2.50
  -2  -9   3   12.80    2.50
  -1  -9   3   81.49    8.80
  -1  -9   3   92.39    4.90
  -1  -9   3   92.39    4.90
  -1  -9   3   81.49    8.80
   0  -9   3   33.70    3.00
   0  -9   3   41.20    7.30
   0  -9   3   41.20    7.30
   0  -9   3   33.70    3.00
   1  -9   3   19.60    2.70
   1  -9   3   19.60    2.70
  -2   9  -3  139.99    8.20
  -2   9  -3  140.09    8.20
   2  -9   3  107.79    6.30
   2  -9   3  107.79    6.30
  -3   9  -3   19.60    5.90
  -3   9  -3   19.60    5.90
   3  -9   3   16.60    2.80
   3  -9   3   16.60    2.80
  -5  -8   3    4.70    1.40
  -5  -8   3    4.70    1.40
  -4  -8   3  122.99   10.90
  -4  -8   3  122.99   10.90
  -3  -8   3    3.10    1.20
  -3  -8   3    3.10    1.20
  -2  -8   3   40.10    2.70
  -2  -8   3   41.80    7.70
  -2  -8   3   41.80    7.70
  -2  -8   3   40.10    2.70
  -1  -8   3  112.19    5.70
  -1  -8   3  112.19    5.70
   0  -8   3    3.60    1.80
   0  -8   3    3.60    1.80
   1  -8   3  105.09    5.60
   1  -8   3  116.19   10.50
   1  -8   3  116.19   10.50
   1  -8   3  105.09    5.60
  -2   8  -3  168.48    9.80
  -2   8  -3  169.68    8.80
  -2   8  -3  169.68    8.80
  -2   8  -3  168.48    9.80
  -3   8  -3    1.00    4.90
  -3   8  -3    1.00    4.90
   3  -8   3    4.40    2.40
   3  -8   3    4.40    2.40
  -4   8  -3  126.09    7.90
  -4   8  -3  134.39    6.80
  -4   8  -3  126.19    7.90
  -4   8  -3  134.39    6.80
   4  -8   3   99.29    6.40
   4  -8   3   99.29    6.40
  -5   8  -3   57.49    4.80
  -5   8  -3   57.99    6.60
  -5   8  -3   57.49    4.80
  -5   8  -3   58.09    6.60
   5  -8   3   40.20    4.40
   5  -8   3   40.20    4.40
  -6  -7   3    0.70    1.40
  -6  -7   3    0.70    1.40
  -5  -7   3  125.99   11.90
  -5  -7   3  125.99   11.90
  -3  -7   3    1.00    0.80
  -3  -7   3    1.00    0.80
  -2  -7   3  332.27   15.30
  -2  -7   3  328.07   17.40
  -2  -7   3  328.07   17.40
  -2  -7   3  332.27   15.30
  -1  -7   3  237.08   11.50
  -1  -7   3  237.08   11.50
  -1  -7   3  247.78   13.40
  -1  -7   3  247.78   13.40
   0  -7   3   19.50    2.00
   0  -7   3   19.50    2.00
   1  -7   3  236.18   11.10
   1  -7   3  234.68   12.90
   1  -7   3  236.18   11.10
   1  -7   3  234.68   12.90
  -2   7  -3   99.39    5.30
  -2   7  -3   99.39    5.30
   2  -7   3   77.99    4.60
   2  -7   3   77.99    4.60
  -3   7  -3   92.99    6.30
  -3   7  -3   96.79    5.60
  -3   7  -3   96.79    5.60
  -3   7  -3   93.09    6.30
  -4   7  -3  256.87   13.50
  -4   7  -3  298.77   13.90
  -4   7  -3  256.87   13.50
  -4   7  -3  298.77   13.90
  -5   7  -3   28.50    5.80
  -5   7  -3   28.40    5.80
  -6   7  -3   53.49    6.10
  -6   7  -3   53.49    6.10
  -7  -6   3    3.10    1.60
  -7  -6   3    3.10    1.60
  -5  -6   3  241.48   15.00
  -5  -6   3  241.48   15.00
  -4  -6   3   68.09    7.70
  -4  -6   3   68.09    7.70
  -3  -6   3  202.28   11.90
  -3  -6   3  202.28   11.90
  -2  -6   3  530.25   24.00
  -2  -6   3  512.95   25.70
  -2  -6   3  512.95   25.70
  -2  -6   3  530.25   24.00
  -1  -6   3   25.30    1.80
  -1  -6   3   29.60    4.10
  -1  -6   3   29.60    4.10
  -1  -6   3   25.30    1.80
   0  -6   3  476.25   24.00
   0  -6   3  476.25   24.00
   0  -6   3  512.55   22.80
   0  -6   3  512.55   22.80
   1  -6   3  736.73   33.90
   1  -6   3  733.53   35.00
   1  -6   3  736.73   33.90
   1  -6   3  733.53   35.00
  -2   6  -3   14.80    1.50
  -2   6  -3   14.80    1.50
  -3   6  -3  234.88   11.80
  -3   6  -3  234.88   11.80
  -3   6  -3  248.78   12.10
  -3   6  -3  248.78   12.10
  -4   6  -3  253.67   13.30
  -4   6  -3  291.67   13.40
  -4   6  -3  291.77   13.40
  -4   6  -3  253.67   13.30
  -5   6  -3   36.00    4.40
  -5   6  -3   36.00    4.40
  -5   6  -3   35.90    3.90
  -5   6  -3   35.90    3.90
  -6   6  -3  149.09    8.00
  -6   6  -3  149.09    8.00
  -6   6  -3  111.39    9.80
  -6   6  -3  111.39    9.80
  -7  -5   3    0.20    1.30
  -7  -5   3    0.20    1.30
  -6  -5   3  204.38   13.80
  -6  -5   3  204.38   13.80
  -5  -5   3  300.97   17.20
  -5  -5   3  300.97   17.20
  -4  -5   3    0.80    0.80
  -4  -5   3    0.80    0.80
  -3  -5   3  699.23   33.90
  -3  -5   3  699.23   33.90
  -2  -5   3  437.36   20.10
  -2  -5   3  437.36   20.10
   1   5  -3   82.49    4.20
   1   5  -3   82.49    4.20
  -1  -5   3   82.79    5.70
  -1  -5   3   91.29    4.10
  -1  -5   3   82.79    5.70
  -1  -5   3   91.29    4.10
   0  -5   3  933.61   46.60
   0  -5   3  933.61   46.60
   0  -5   3 1064.49   45.80
   0  -5   3 1064.49   45.80
   1  -5   3  300.47   15.00
   1  -5   3  300.47   15.00
  -2   5  -3  190.08    9.00
  -2   5  -3  190.08    9.00
   2  -5   3  170.08    9.70
   2  -5   3  170.08    9.70
  -3   5  -3  953.70   42.20
  -3   5  -3  868.91   42.20
  -3   5  -3  868.91   42.20
  -3   5  -3  953.60   42.20
  -4   5  -3   10.20    1.30
  -4   5  -3   10.20    1.30
  -5   5  -3   70.29    5.40
  -5   5  -3   68.59    4.70
  -5   5  -3   68.59    4.70
  -5   5  -3   70.29    5.40
  -6   5  -3  203.98   10.40
  -6   5  -3  203.88   10.40
  -7   5  -3    5.00    1.90
  -7   5  -3    5.00    1.90
  -7   5  -3    8.50    4.50
  -7   5  -3    8.70    4.50
  -8  -4   3   81.59   11.10
  -8  -4   3   81.59   11.10
  -7  -4   3    3.60    1.20
  -7  -4   3    3.60    1.20
  -6  -4   3  333.67   18.80
  -6  -4   3  333.67   18.80
  -5  -4   3  126.29   10.00
  -5  -4   3  126.29   10.00
  -4  -4   3  263.77   16.40
  -4  -4   3  263.77   16.40
  -3  -4   3 1035.40   49.20
  -3  -4   3 1035.40   49.20
  -2  -4   3   72.79    3.50
  -2  -4   3   72.79    3.50
   1   4  -3 1078.79   48.70
   1   4  -3 1078.79   48.70
  -1  -4   3 1023.80   49.70
  -1  -4   3 1091.89   48.70
  -1  -4   3 1023.80   49.70
  -1  -4   3 1091.89   48.70
   0   4  -3  847.82   37.50
   0   4  -3  847.82   37.50
   0  -4   3  787.72   38.20
   0  -4   3  787.72   38.20
  -1   4  -3   23.40    2.10
  -1   4  -3   23.40    2.10
   1  -4   3   20.90    2.60
   1  -4   3   20.90    2.60
  -2   4  -3 1091.49   47.60
  -2   4  -3 1091.49   47.60
   2  -4   3  974.80   48.00
   2  -4   3  974.80   48.00
  -3   4  -3 1219.28   54.69
  -3   4  -3 1161.58   54.89
  -3   4  -3 1161.58   54.89
  -3   4  -3 1219.38   54.69
  -4   4  -3   30.00    2.70
  -4   4  -3   30.00    2.70
  -4   4  -3   31.90    3.00
  -4   4  -3   31.90    3.00
  -5   4  -3  359.96   17.80
  -5   4  -3  359.96   17.80
  -5   4  -3  380.96   17.50
  -5   4  -3  380.96   17.50
  -6   4  -3   66.59    4.70
  -6   4  -3   66.59    4.70
  -6   4  -3   86.09    5.40
  -6   4  -3   86.09    5.40
  -7   4  -3   20.10    4.60
  -7   4  -3   20.20    4.60
  -8  -3   3    1.80    1.10
  -8  -3   3    1.80    1.10
  -7  -3   3  163.98   11.70
  -7  -3   3  163.98   11.70
  -6  -3   3  448.56   23.30
  -6  -3   3  448.56   23.30
  -5  -3   3    1.80    0.90
  -5  -3   3    1.80    0.90
  -4  -3   3  868.01   41.90
  -4  -3   3  868.01   41.90
  -3  -3   3  909.11   43.40
  -3  -3   3  909.11   43.40
  -2  -3   3   53.09    4.70
  -2  -3   3   53.09    4.70
   1   3  -3 1714.13   78.79
   1   3  -3 1714.13   78.79
  -1  -3   3 1734.83   79.69
  -1  -3   3 1734.83   79.69
   0   3  -3  569.74   24.90
   0   3  -3  569.74   24.90
   0  -3   3  513.35   25.40
   0  -3   3  513.35   25.40
  -1   3  -3  381.86   17.80
  -1   3  -3  381.86   17.80
   1  -3   3  385.36   18.20
   1  -3   3  385.36   18.20
  -2   3  -3  665.53   29.10
  -2   3  -3  665.53   29.10
   2  -3   3  591.54   29.30
   2  -3   3  591.54   29.30
  -3   3  -3  333.77   15.90
  -3   3  -3  334.17   15.60
  -3   3  -3  333.77   15.90
  -3   3  -3  334.17   15.60
  -4   3  -3  441.46   20.10
  -4   3  -3  441.46   20.10
  -4   3  -3  423.26   20.60
  -4   3  -3  423.26   20.60
  -5   3  -3  478.35   22.50
  -5   3  -3  478.35   22.50
  -5   3  -3  473.85   22.10
  -5   3  -3  473.85   22.10
  -7   3  -3   80.49    6.00
  -7   3  -3   80.49    6.00
  -8   3  -3   56.29    5.70
  -8   3  -3   56.29    5.70
  -8  -2   3    0.70    0.90
  -8  -2   3    0.70    0.90
  -7  -2   3  228.68   13.40
  -7  -2   3  228.68   13.40
  -6  -2   3  415.66   22.30
  -6  -2   3  415.66   22.30
  -5  -2   3  108.29    8.40
  -5  -2   3  108.29    8.40
  -4  -2   3  808.52   39.10
  -4  -2   3  808.52   39.10
  -3  -2   3  296.17   15.70
  -3  -2   3  296.17   15.70
  -2  -2   3  695.83   33.30
  -2  -2   3  695.83   33.30
  -1  -2   3 1983.40   91.49
  -1  -2   3 1983.40   91.49
   0   2  -3    5.40    0.80
   0   2  -3    5.40    0.80
  -1   2  -3  641.44   29.80
  -1   2  -3  641.44   29.80
   1  -2   3  657.63   30.10
   1  -2   3  657.63   30.10
  -2   2  -3 3035.20  138.89
  -2   2  -3 3035.20  138.89
  -3   2  -3    8.80    1.10
  -3   2  -3    5.00    1.00
  -3   2  -3    5.00    1.00
  -3   2  -3    8.80    1.10
  -5   2  -3  469.55   22.20
  -5   2  -3  469.55   22.20
  -6   2  -3   15.10    1.70
  -6   2  -3   15.10    1.70
  -7   2  -3  166.48    9.30
  -7   2  -3  166.48    9.30
  -8   2  -3   15.70    2.30
  -8   2  -3   15.70    2.30
  -9  -1   3    2.40    1.00
  -9  -1   3    2.40    1.00
  -8  -1   3   87.79    8.40
  -8  -1   3   87.79    8.40
  -7  -1   3  336.47   17.90
  -7  -1   3  336.47   17.90
  -6  -1   3    3.80    0.80
  -6  -1   3    3.80    0.80
  -5  -1   3  689.43   33.50
  -5  -1   3  689.43   33.50
  -4  -1   3 2270.17  105.39
  -4  -1   3 2270.17  105.39
  -2  -1   3  979.30   46.30
  -2  -1   3  979.30   46.30
  -1  -1   3  979.60   45.80
  -1  -1   3  979.60   45.80
   0   1  -3  273.77   12.70
   0   1  -3  273.77   12.70
  -1   1  -3 1685.93   77.09
  -1   1  -3 1685.93   77.09
  -2   1  -3  868.71   40.10
  -2   1  -3  868.71   40.10
  -3   1  -3  490.35   22.90
  -3   1  -3  490.35   22.90
  -4   1  -3 1230.68   56.79
  -4   1  -3 1230.68   56.79
  -5   1  -3  103.69    5.90
  -5   1  -3  103.69    5.90
  -6   1  -3  197.68   10.30
  -6   1  -3  197.68   10.30
  -7   1  -3  170.08    9.50
  -7   1  -3  170.08    9.50
  -8   1  -3   -0.10    1.70
  -8   1  -3   -0.10    1.70
  -9   0   3    0.30    0.90
  -9   0   3    0.30    0.90
  -8   0   3  187.28   11.80
  -8   0   3  187.28   11.80
  -7   0   3  166.28   11.00
  -7   0   3  166.28   11.00
  -5   0   3  724.63   34.00
  -5   0   3  724.53   34.00
  -4   0   3  197.78   10.30
  -4   0   3  197.78   10.30
   3   0  -3 1173.78   53.59
   3   0  -3 1173.78   53.59
   2   0  -3 7970.80  354.26
   2   0  -3 7970.80  354.26
  -2   0   3 7547.14  354.26
  -2   0   3 7547.14  354.26
  -1   0   3   57.09    2.40
  -1   0   3   57.09    2.40
  -1   0   3   41.90    3.00
  -1   0   3   41.90    3.00
   0   0  -3  476.65   21.80
   0   0  -3  476.65   21.80
   0   0   3  473.55   21.80
   0   0   3  473.55   21.80
  -2   0  -3   -0.60    0.50
  -2   0  -3   -0.60    0.50
  -3   0  -3  929.71   42.90
  -3   0  -3  929.71   42.90
  -4   0  -3  688.53   32.10
  -4   0  -3  688.53   32.10
  -5   0  -3   10.00    1.40
  -5   0  -3   10.00    1.40
  -6   0  -3  394.66   19.10
  -6   0  -3  394.66   19.10
  -7   0  -3   93.39    6.50
  -7   0  -3   93.39    6.50
  -8   0  -3   11.00    2.00
  -8   0  -3   11.00    2.00
  -9   1   3   46.50    8.70
  -9   1   3   46.50    8.70
  -7   1   3   43.90    4.60
  -7   1   3   43.90    4.60
  -6   1   3  360.86   17.80
  -6   1   3  360.86   17.80
  -5   1   3  422.96   20.60
  -5   1   3  422.86   20.60
   4  -1  -3   24.60    1.40
   4  -1  -3   24.60    1.40
  -4   1   3   10.00    4.90
  -4   1   3   10.00    4.90
   3  -1  -3 1560.24   69.19
   3  -1  -3 1560.24   69.19
  -3   1   3 1466.25   69.89
  -3   1   3 1466.25   69.89
   2  -1  -3 2680.33  118.19
   2  -1  -3 2680.33  118.19
  -2   1   3 2489.85  118.49
  -2   1   3 2489.75  118.49
   1  -1  -3   82.09    3.90
   1  -1  -3   82.09    3.90
  -1   1   3   81.19    4.30
  -1   1   3   81.29    4.30
   0  -1  -3 5374.76  230.28
   0  -1  -3 5374.96  230.28
   0   1   3 4960.80  230.18
   0   1   3 4789.42  230.48
   0   1   3 4789.22  230.48
   0   1   3 4960.80  230.18
  -1  -1  -3 1260.97   54.69
  -1  -1  -3 1260.97   54.69
   1   1   3 1124.49   54.49
   1   1   3 1124.49   54.49
  -2  -1  -3  124.89    6.20
  -2  -1  -3  124.89    6.20
  -3  -1  -3 1171.08   53.89
  -3  -1  -3 1171.08   53.89
  -4  -1  -3  387.96   18.40
  -4  -1  -3  387.96   18.40
  -5  -1  -3  176.68    9.10
  -5  -1  -3  176.68    9.10
  -6  -1  -3  291.97   14.50
  -6  -1  -3  291.97   14.50
  -7  -1  -3    4.00    1.80
  -7  -1  -3    4.00    1.80
  -8  -1  -3   20.40    2.50
  -8  -1  -3   20.40    2.50
  -9   2   3  114.29    8.10
  -9   2   3  114.39    8.10
   8  -2  -3   84.79    4.60
   8  -2  -3   84.79    4.60
   7  -2  -3   16.40    2.10
   7  -2  -3   16.40    2.10
  -7   2   3   21.20    5.80
  -7   2   3   21.20    5.80
   6  -2  -3  469.75   20.10
   6  -2  -3  469.75   20.10
  -6   2   3  387.76   21.10
  -6   2   3  387.86   21.10
   5  -2  -3  370.66   16.70
   5  -2  -3  370.66   16.70
  -5   2   3  349.37   17.90
  -5   2   3  349.37   17.90
   4  -2  -3  285.67   13.50
   4  -2  -3  285.67   13.50
  -4   2   3  298.47   14.60
  -4   2   3  298.47   14.60
   3  -2  -3 1246.48   59.29
   3  -2  -3 1246.48   59.29
  -3   2   3 1349.36   59.89
  -3   2   3 1349.27   59.89
   2  -2  -3  232.48   10.90
   2  -2  -3  232.48   10.90
  -2   2   3  239.48   11.40
  -2   2   3  239.48   11.40
   1  -2  -3 1439.16   65.89
   1  -2  -3 1439.16   65.89
  -1   2   3 1446.06   66.09
  -1   2   3 1446.06   66.09
   0   2   3 4174.08  190.78
   0   2   3 4174.28  190.78
  -1  -2  -3   24.90    1.70
  -1  -2  -3   24.90    1.70
   1   2   3   21.90    1.40
   1   2   3   21.90    1.40
  -2  -2  -3 1395.36   62.19
  -2  -2  -3 1395.36   62.19
   2   2   3 1318.17   61.99
   2   2   3 1318.17   61.99
  -3  -2  -3 1039.30   47.90
  -3  -2  -3 1039.30   47.90
  -4  -2  -3    2.30    0.80
  -4  -2  -3    2.30    0.80
  -5  -2  -3  481.25   22.80
  -5  -2  -3  481.25   22.80
  -6  -2  -3  182.48   10.00
  -6  -2  -3  182.48   10.00
  -7  -2  -3    1.70    1.90
  -7  -2  -3    1.70    1.90
   8  -3  -3   31.60    3.00
   8  -3  -3   31.60    3.00
  -8   3   3   40.70    7.00
  -8   3   3   40.70    7.00
   7  -3  -3  110.19    5.50
   7  -3  -3  110.19    5.50
  -7   3   3   98.49    7.50
  -7   3   3   98.49    7.50
   6  -3  -3  428.06   20.10
   6  -3  -3  428.06   20.10
  -6   3   3  440.56   21.20
  -6   3   3  440.56   21.20
  -5   3   3   64.09    6.90
  -5   3   3   64.09    6.90
   4  -3  -3  558.04   26.30
   4  -3  -3  558.04   26.30
  -4   3   3  586.94   27.00
  -4   3   3  586.74   27.00
   3  -3  -3 1521.55   69.99
   3  -3  -3 1521.55   69.99
  -3   3   3 1539.75   70.49
  -3   3   3 1539.85   70.49
   2  -3  -3   12.10    1.10
   2  -3  -3   12.10    1.10
  -2   3   3   22.00    2.80
  -2   3   3   22.00    2.80
   1  -3  -3 1036.40   47.30
   1  -3  -3 1036.40   47.30
  -1   3   3 1028.30   47.50
  -1   3   3 1028.30   47.50
   0   3   3 1180.28   54.09
   0   3   3 1180.28   54.09
  -1  -3  -3  461.15   19.50
  -1  -3  -3  461.15   19.50
   1   3   3  383.16   19.50
   1   3   3  383.16   19.50
  -2  -3  -3 1568.04   69.39
  -2  -3  -3 1568.04   69.39
   2   3   3 1462.25   69.29
   2   3   3 1462.15   69.29
  -3  -3  -3  369.46   17.30
  -3  -3  -3  369.46   17.30
  -4  -3  -3  138.39    7.10
  -4  -3  -3  138.39    7.10
  -5  -3  -3  330.37   16.00
  -5  -3  -3  330.37   16.00
  -6  -3  -3    6.70    1.70
  -6  -3  -3    6.70    1.70
   8  -4  -3    3.10    2.40
   8  -4  -3    3.10    2.40
   7  -4  -3  156.08    7.80
   7  -4  -3  156.08    7.80
  -7   4   3  160.48    9.50
  -7   4   3  160.48    9.50
   6  -4  -3  161.68    8.00
   6  -4  -3  161.68    8.00
  -6   4   3  169.48    9.50
  -6   4   3  169.48    9.50
   5  -4  -3   73.59    3.80
   5  -4  -3   73.59    3.80
  -5   4   3   60.79    5.50
  -5   4   3   60.79    5.50
   4  -4  -3  889.91   41.10
   4  -4  -3  889.91   41.10
  -4   4   3  898.61   41.70
  -4   4   3  898.51   41.70
   3  -4  -3  335.07   15.00
   3  -4  -3  335.07   15.00
  -3   4   3  307.67   15.60
  -3   4   3  307.67   15.60
   2  -4  -3  259.17   12.20
   2  -4  -3  259.17   12.20
  -2   4   3  267.37   12.70
  -2   4   3  267.47   12.70
   1  -4  -3 1981.40   90.69
   1  -4  -3 1981.40   90.69
  -1   4   3 1985.30   90.89
  -1   4   3 1985.20   90.89
   0  -4  -3  258.97   11.60
   0  -4  -3  258.97   11.60
   0   4   3  239.28   11.80
   0   4   3  239.28   11.80
   1   4   3  767.22   35.30
   1   4   3  767.22   35.30
  -2  -4  -3  828.02   38.80
  -2  -4  -3  828.02   38.80
   2   4   3  866.61   38.90
   2   4   3  866.51   38.90
  -3  -4  -3    3.10    0.60
  -3  -4  -3    3.10    0.60
   8  -5  -3   39.90    3.60
   8  -5  -3   39.90    3.60
  -8   5   3   30.20    7.30
  -8   5   3   30.20    7.30
   7  -5  -3  197.18    9.70
   7  -5  -3  197.18    9.70
  -7   5   3  198.28   12.30
  -7   5   3  198.28   12.30
   6  -5  -3   11.80    2.30
   6  -5  -3   11.80    2.30
  -6   5   3   10.40    5.50
  -6   5   3   10.40    5.50
   5  -5  -3  238.38   11.50
   5  -5  -3  238.38   11.50
  -5   5   3  242.68   12.50
  -5   5   3  242.58   12.50
   4  -5  -3  448.56   20.40
   4  -5  -3  448.56   20.40
  -4   5   3  428.06   21.10
  -4   5   3  427.96   21.10
   3  -5  -3    6.50    1.50
   3  -5  -3    6.50    1.50
  -3   5   3    3.60    3.60
  -3   5   3    3.60    3.60
   2  -5  -3  642.04   30.30
   2  -5  -3  642.04   30.30
  -2   5   3  674.43   30.70
  -2   5   3  674.53   30.70
   1  -5  -3  573.94   26.90
   1  -5  -3  573.94   26.90
  -1   5   3  592.44   27.30
  -1   5   3  592.54   27.30
   0  -5  -3   71.69    3.70
   0  -5  -3   71.69    3.70
   0   5   3   57.09    3.90
   0   5   3   57.09    3.90
   1   5   3  532.95   24.70
   1   5   3  533.05   24.70
   2   5   3  353.46   16.50
   2   5   3  353.46   16.50
   3   5   3  159.48    7.80
   3   5   3  159.48    7.80
   6   5   3   40.80    3.40
   6   5   3   40.80    3.40
   7  -6  -3   27.10    3.10
   7  -6  -3   27.10    3.10
  -7   6   3   14.10    7.20
  -7   6   3   14.20    7.20
   6  -6  -3   26.90    3.00
   6  -6  -3   26.90    3.00
  -6   6   3   23.10    6.40
  -6   6   3   23.10    6.40
  -5   6   3  265.57   15.50
  -5   6   3  265.57   15.50
   4  -6  -3  102.49    5.40
   4  -6  -3  102.49    5.40
  -4   6   3  101.09    6.90
  -4   6   3  101.09    6.90
   3  -6  -3   63.69    3.70
   3  -6  -3   63.69    3.70
  -3   6   3   63.39    5.10
  -3   6   3   63.39    5.10
   2  -6  -3  502.55   23.20
   2  -6  -3  502.55   23.20
  -2   6   3  497.75   23.70
  -2   6   3  499.05   23.70
   1  -6  -3   89.49    4.50
   1  -6  -3   89.49    4.50
  -1   6   3   87.89    5.20
  -1   6   3   88.09    5.20
   0  -6  -3  205.58    9.40
   0  -6  -3  205.58    9.40
   0   6   3  190.18    9.80
   0   6   3  190.18    9.80
   1   6   3  324.87   15.40
   1   6   3  324.87   15.40
   2   6   3    9.00    2.80
   2   6   3    9.00    2.80
   3   6   3  129.19    6.70
   3   6   3  129.29    6.70
   4   6   3  234.08   11.40
   4   6   3  234.08   11.40
   5   6   3    5.60    3.30
   5   6   3    5.60    3.30
   6  -7  -3   41.60    4.00
   6  -7  -3   41.60    4.00
  -6   7   3   38.70    7.70
  -6   7   3   38.70    7.60
   5  -7  -3   91.59    5.20
   5  -7  -3   91.59    5.20
  -5   7   3   81.59    7.40
  -5   7   3   81.59    7.40
   4  -7  -3    6.20    2.50
   4  -7  -3    6.20    2.50
  -4   7   3    1.40    5.40
  -4   7   3    1.40    5.40
   2  -7  -3  256.87   12.20
   2  -7  -3  256.87   12.20
  -2   7   3  258.77   13.00
  -2   7   3  258.77   13.00
   1  -7  -3   -1.30    1.70
   1  -7  -3   -1.30    1.70
  -1   7   3    5.50    3.40
  -1   7   3    5.50    3.40
   0  -7  -3  252.77   11.60
   0  -7  -3  252.77   11.60
   0   7   3  235.18   12.00
   0   7   3  235.18   12.00
   1   7   3  132.99    7.10
   1   7   3  132.99    7.10
   2   7   3   26.60    3.60
   2   7   3   26.60    3.60
   3   7   3  128.79    7.00
   3   7   3  128.79    7.00
   4   7   3   44.40    4.70
   4   7   3   44.40    4.70
   5  -8  -3   25.20    3.40
   5  -8  -3   25.20    3.40
  -5   8   3   19.50    6.60
  -5   8   3   19.50    6.60
   4  -8  -3   19.90    3.00
   4  -8  -3   19.90    3.00
  -4   8   3   20.60    5.90
  -4   8   3   20.60    5.90
   3  -8  -3  104.09    5.70
   3  -8  -3  104.09    5.70
  -3   8   3   99.19    7.10
  -3   8   3   99.19    7.10
   2  -8  -3   28.90    2.90
   2  -8  -3   28.90    2.90
  -2   8   3   32.70    5.00
  -2   8   3   32.70    5.00
   1  -8  -3   51.39    3.40
   1  -8  -3   51.39    3.40
  -1   8   3   44.50    4.70
  -1   8   3   44.50    4.70
   0  -8  -3  144.49    7.10
   0  -8  -3  144.49    7.10
   0   8   3  132.89    7.90
   0   8   3  132.89    7.90
   1   8   3    4.60    4.10
   1   8   3    4.60    4.10
   2   8   3   72.69    5.50
   2   8   3   72.69    5.50
   3   8   3   64.49    5.40
   3   8   3   64.49    5.40
   3  -9  -3   39.00    3.60
   3  -9  -3   39.00    3.60
  -3   9   3   40.10    6.10
  -3   9   3   40.10    6.10
   2  -9  -3   -1.40    2.30
   2  -9  -3   -1.40    2.30
  -2   9   3    2.10    5.20
  -2   9   3    2.10    5.20
   1  -9  -3   46.40    3.60
   1  -9  -3   46.40    3.60
  -1   9   3   44.70    5.00
  -1   9   3   44.60    5.00
   0  -9  -3   48.00    3.60
   0  -9  -3   48.00    3.60
   0   9   3   42.00    4.90
   0   9   3   42.00    4.90
   1   9   3    0.70    4.40
   1   9   3    0.70    4.40
  -3  -9   4   54.59    9.50
  -3  -9   4   54.59    9.50
  -2  -9   4   -2.80    2.10
  -2  -9   4   -2.80    2.10
  -2  -9   4    1.30    1.10
  -2  -9   4    1.30    1.10
  -1  -9   4   63.69    3.90
  -1  -9   4   61.19    8.30
  -1  -9   4   63.69    3.90
  -1  -9   4   61.19    8.30
   0  -9   4   58.79    7.80
   0  -9   4   58.79    7.80
   0  -9   4   54.39    3.60
   0  -9   4   54.39    3.60
   1  -9   4    7.70    2.50
   1  -9   4    7.70    2.50
  -2   9  -4   95.09    6.20
  -2   9  -4   90.19    6.90
  -2   9  -4   95.09    6.20
  -2   9  -4   90.19    6.90
   2  -9   4   69.79    4.70
   2  -9   4   69.79    4.70
  -3   9  -4   44.40    4.80
  -3   9  -4   49.70    5.70
  -3   9  -4   49.70    5.70
  -3   9  -4   44.40    4.80
   3  -9   4   33.10    3.30
   3  -9   4   33.10    3.30
  -5  -8   4    3.10    1.40
  -5  -8   4    3.10    1.40
   4   8  -4   77.29    4.40
   4   8  -4   77.29    4.40
  -3  -8   4  108.99    5.50
  -3  -8   4  107.39   10.30
  -3  -8   4  108.99    5.50
  -3  -8   4  107.39   10.30
  -2  -8   4   42.10    2.90
  -2  -8   4   46.20    7.60
  -2  -8   4   46.20    7.60
  -2  -8   4   42.10    2.90
  -1  -8   4  146.89   10.60
  -1  -8   4  149.99    7.20
  -1  -8   4  146.89   10.60
  -1  -8   4  149.99    7.20
   0  -8   4   25.00    2.30
   0  -8   4   25.00    2.30
   1  -8   4   63.89    7.40
   1  -8   4   63.89    7.40
   1  -8   4   53.19    3.40
   1  -8   4   53.19    3.40
  -3   8  -4   18.50    6.20
  -3   8  -4   18.50    6.20
  -3   8  -4    6.30    1.60
  -3   8  -4    6.30    1.60
   3  -8   4    7.60    2.70
   3  -8   4    7.60    2.70
  -4   8  -4   74.99    6.00
  -4   8  -4   66.79    5.30
  -4   8  -4   66.79    5.30
  -4   8  -4   74.99    6.00
   4  -8   4   60.09    5.20
   4  -8   4   60.09    5.20
  -5   8  -4   87.79    6.90
  -5   8  -4   87.69    6.90
   5  -8   4   62.69    5.90
   5  -8   4   62.69    5.90
  -6  -7   4    1.80    1.40
  -6  -7   4    1.80    1.40
  -5  -7   4   91.19   11.10
  -5  -7   4   91.19   11.10
  -4  -7   4  155.58   14.60
  -4  -7   4  155.58   14.60
  -3  -7   4    1.10    0.90
  -3  -7   4   -0.70    1.50
  -3  -7   4   -0.70    1.50
  -3  -7   4    1.10    0.90
   2   7  -4  226.78   11.60
   2   7  -4  226.78   11.60
  -2  -7   4  242.18   14.00
  -2  -7   4  268.07   11.50
  -2  -7   4  268.07   11.50
  -2  -7   4  242.18   14.00
  -1  -7   4  366.66   16.10
  -1  -7   4  326.37   17.90
  -1  -7   4  326.37   17.90
  -1  -7   4  366.66   16.10
   0  -7   4   60.59    3.40
   0  -7   4   60.59    3.40
   0  -7   4   64.39    5.80
   0  -7   4   64.39    5.80
   1  -7   4  179.68    8.80
   1  -7   4  191.58   10.80
   1  -7   4  179.68    8.80
   1  -7   4  191.58   10.80
  -2   7  -4  187.78    8.90
  -2   7  -4  187.78    8.90
   2  -7   4  146.29    8.10
   2  -7   4  146.29    8.10
   2  -7   4  172.28   10.20
   2  -7   4  172.28   10.20
  -3   7  -4   21.20    2.00
  -3   7  -4   21.20    2.00
  -4   7  -4  212.98   10.40
  -4   7  -4  179.08   10.20
  -4   7  -4  212.88   10.40
  -4   7  -4  179.08   10.20
  -5   7  -4   23.00    2.40
  -5   7  -4   23.00    2.40
  -7  -6   4    7.80    1.80
  -7  -6   4    7.80    1.80
  -6  -6   4    1.60    1.50
  -6  -6   4    1.60    1.50
  -5  -6   4  252.27   16.30
  -5  -6   4  252.27   16.30
  -4  -6   4  130.19   10.30
  -4  -6   4  130.19   10.30
  -3  -6   4   65.59    3.50
  -3  -6   4   82.39    7.40
  -3  -6   4   82.39    7.40
  -3  -6   4   65.59    3.50
   2   6  -4  494.35   23.30
   2   6  -4  494.35   23.30
  -2  -6   4  520.85   23.20
  -2  -6   4  500.15   25.20
  -2  -6   4  500.15   25.20
  -2  -6   4  520.85   23.20
   1   6  -4  114.89    6.00
   1   6  -4  114.89    6.00
  -1  -6   4  127.29    8.00
  -1  -6   4  127.29    8.00
  -1  -6   4  129.39    5.90
  -1  -6   4  129.39    5.90
   0   6  -4  117.19    6.30
   0   6  -4  117.19    6.30
   0  -6   4  137.29    6.20
   0  -6   4  127.99    7.80
   0  -6   4  127.99    7.80
   0  -6   4  137.29    6.20
   1  -6   4  660.03   31.60
   1  -6   4  660.03   31.60
  -2   6  -4   -0.70    1.10
  -2   6  -4   -0.70    1.10
  -3   6  -4  192.88    9.60
  -3   6  -4  176.48    9.60
  -3   6  -4  192.88    9.60
  -3   6  -4  176.48    9.60
  -4   6  -4  319.97   14.60
  -4   6  -4  277.07   14.70
  -4   6  -4  319.97   14.60
  -4   6  -4  277.07   14.70
  -5   6  -4   19.30    4.30
  -5   6  -4   19.30    4.30
  -6   6  -4   91.69    7.30
  -6   6  -4   91.69    7.30
  -6   6  -4  101.69    6.40
  -6   6  -4  101.69    6.40
  -6  -5   4   81.99   10.30
  -6  -5   4   81.99   10.30
  -5  -5   4  358.56   20.30
  -5  -5   4  358.56   20.30
  -4  -5   4    5.00    1.10
  -4  -5   4    5.00    1.10
  -3  -5   4  425.66   21.00
  -3  -5   4  425.66   21.00
  -3  -5   4  494.15   23.60
  -3  -5   4  494.15   23.60
   2   5  -4  688.43   30.20
   2   5  -4  688.43   30.20
  -2  -5   4  645.44   31.80
  -2  -5   4  636.64   30.10
  -2  -5   4  645.44   31.80
  -2  -5   4  636.64   30.10
   1   5  -4   17.40    1.70
   1   5  -4   17.40    1.70
  -1  -5   4   17.40    1.40
  -1  -5   4   17.40    1.40
   0   5  -4  861.71   38.40
   0   5  -4  861.71   38.40
   0  -5   4  810.52   39.30
   0  -5   4  810.52   39.30
  -1   5  -4  730.83   35.20
  -1   5  -4  730.83   35.20
   1  -5   4  797.02   36.00
   1  -5   4  797.02   36.00
  -2   5  -4   64.49    4.30
  -2   5  -4   64.49    4.30
   2  -5   4   63.69    4.90
   2  -5   4   63.69    4.90
  -3   5  -4  772.42   34.90
  -3   5  -4  731.03   35.60
  -3   5  -4  772.42   34.90
  -3   5  -4  731.03   35.60
  -4   5  -4  130.89    6.70
  -4   5  -4  130.89    6.70
  -4   5  -4  125.79    7.20
  -4   5  -4  125.79    7.20
  -5   5  -4   46.10    4.50
  -5   5  -4   50.09    4.30
  -5   5  -4   50.09    4.30
  -5   5  -4   46.10    4.50
  -6   5  -4  246.88   13.90
  -6   5  -4  290.97   14.30
  -6   5  -4  246.88   13.90
  -6   5  -4  290.97   14.30
  -7   5  -4   74.69    7.90
  -7   5  -4   74.69    7.90
  -7  -4   4    0.80    1.20
  -7  -4   4    0.80    1.20
  -6  -4   4  278.47   16.80
  -6  -4   4  278.47   16.80
  -5  -4   4  235.98   14.90
  -5  -4   4  235.98   14.90
  -4  -4   4   58.39    7.50
  -4  -4   4   58.39    7.50
  -3  -4   4 1173.48   55.89
  -3  -4   4 1173.48   55.89
  -2  -4   4  609.54   29.30
  -2  -4   4  589.94   27.40
  -2  -4   4  609.54   29.30
  -2  -4   4  589.94   27.40
   1   4  -4  279.57   12.60
   1   4  -4  279.57   12.60
  -1  -4   4  263.77   13.80
  -1  -4   4  263.77   13.80
   0   4  -4 1347.47   59.99
   0   4  -4 1347.47   59.99
   0  -4   4 1276.17   60.79
   0  -4   4 1276.17   60.79
  -1   4  -4  291.57   14.20
  -1   4  -4  291.57   14.20
   1  -4   4  316.67   14.90
   1  -4   4  316.67   14.90
  -2   4  -4  912.41   40.50
  -2   4  -4  912.41   40.50
   2  -4   4  838.42   40.80
   2  -4   4  838.42   40.80
  -3   4  -4  788.62   38.50
  -3   4  -4  866.71   38.20
  -3   4  -4  788.62   38.50
  -3   4  -4  866.71   38.20
  -4   4  -4   31.90    3.00
  -4   4  -4   32.00    3.00
  -5   4  -4  246.28   11.60
  -5   4  -4  237.08   12.20
  -5   4  -4  246.18   11.60
  -5   4  -4  237.08   12.20
  -6   4  -4  202.48   10.10
  -6   4  -4  202.48   10.10
  -7   4  -4    2.00    1.70
  -7   4  -4    2.00    1.70
  -8  -3   4  106.99   10.50
  -8  -3   4  106.99   10.50
  -7  -3   4   87.59    9.10
  -7  -3   4   87.59    9.10
  -6  -3   4  411.26   22.00
  -6  -3   4  411.26   22.00
  -5  -3   4   37.60    6.90
  -5  -3   4   37.60    6.90
  -4  -3   4  464.25   24.10
  -4  -3   4  464.25   24.10
  -3  -3   4 1141.59   54.49
  -3  -3   4 1141.59   54.49
  -2  -3   4    1.40    0.60
  -2  -3   4    1.40    0.60
   1   3  -4 1564.24   71.39
   1   3  -4 1564.24   71.39
  -1  -3   4 1557.44   72.39
  -1  -3   4 1557.44   72.39
   0   3  -4 3898.61  165.88
   0   3  -4 3898.61  165.88
   0  -3   4 3361.76  166.28
   0  -3   4 3361.76  166.28
  -1   3  -4   60.49    3.40
  -1   3  -4   60.49    3.40
   1  -3   4   65.39    3.90
   1  -3   4   65.39    3.90
  -2   3  -4 2369.16  104.69
  -2   3  -4 2369.16  104.69
   2  -3   4 2198.18  104.79
   2  -3   4 2198.18  104.79
  -3   3  -4  828.02   39.40
  -3   3  -4  828.02   39.40
  -3   3  -4  867.41   39.00
  -3   3  -4  867.31   39.00
  -4   3  -4  129.39    6.20
  -4   3  -4  129.39    6.20
  -4   3  -4  124.09    6.90
  -4   3  -4  124.09    6.90
  -5   3  -4  424.66   20.30
  -5   3  -4  424.66   20.30
  -7   3  -4   22.00    2.30
  -7   3  -4   22.00    2.30
  -8  -2   4    0.60    1.00
  -8  -2   4    0.60    1.00
  -7  -2   4  274.27   15.80
  -7  -2   4  274.27   15.80
  -6  -2   4  704.53   34.80
  -6  -2   4  704.53   34.80
  -5  -2   4   71.89    7.80
  -5  -2   4   71.89    7.80
  -4  -2   4  906.51   44.00
  -4  -2   4  906.51   44.00
  -3  -2   4  364.26   19.30
  -3  -2   4  364.26   19.30
  -2  -2   4  310.67   16.40
  -2  -2   4  310.67   16.40
   1   2  -4 2458.15  110.79
   1   2  -4 2458.15  110.79
  -1  -2   4 2390.96  111.89
  -1  -2   4 2390.96  111.89
   0   2  -4  838.42   37.20
   0   2  -4  838.42   37.20
   0  -2   4  782.82   37.70
   0  -2   4  782.82   37.70
  -1   2  -4 1564.04   70.99
  -1   2  -4 1564.04   70.99
   1  -2   4 1540.25   71.29
   1  -2   4 1540.25   71.29
  -2   2  -4 2490.45  114.09
  -2   2  -4 2490.45  114.09
  -3   2  -4  112.29    6.10
  -3   2  -4  113.39    5.40
  -3   2  -4  112.29    6.10
  -3   2  -4  113.39    5.40
  -4   2  -4  914.71   42.50
  -4   2  -4  914.71   42.50
  -5   2  -4  357.76   17.30
  -5   2  -4  357.76   17.30
  -7   2  -4   60.19    5.30
  -7   2  -4   60.19    5.30
   9   1  -4   24.90    2.40
   9   1  -4   24.90    2.40
   8   1  -4   22.50    2.00
   8   1  -4   22.50    2.00
  -7  -1   4  241.18   14.20
  -7  -1   4  241.18   14.20
   6   1  -4   11.40    1.10
   6   1  -4   11.40    1.10
   5   1  -4  525.05   23.20
   5   1  -4  525.05   23.20
  -5  -1   4  484.55   25.80
  -5  -1   4  484.55   25.80
  -4  -1   4 1529.85   72.29
  -4  -1   4 1529.85   72.29
  -3  -1   4    1.80    0.90
  -3  -1   4    1.80    0.90
  -2  -1   4 1181.08   53.89
  -2  -1   4 1181.08   53.89
   1   1  -4 2297.47   91.69
   1   1  -4 2297.47   91.69
  -1  -1   4 1715.13   92.69
  -1  -1   4 1715.13   92.69
   0   1  -4   10.60    1.00
   0   1  -4   10.60    1.00
  -1   1  -4 2177.48   99.59
  -1   1  -4 2177.48   99.59
  -2   1  -4 1297.47   59.59
  -2   1  -4 1297.47   59.59
  -3   1  -4  164.28    8.30
  -3   1  -4  164.28    8.30
  -4   1  -4  985.10   45.60
  -4   1  -4  985.10   45.60
  -5   1  -4  222.88   11.20
  -5   1  -4  222.88   11.20
  -6   1  -4   92.19    7.50
  -6   1  -4   92.19    7.50
  -7   1  -4  130.79    8.00
  -7   1  -4  130.79    8.00
   9   0  -4    3.50    1.90
   9   0  -4    3.50    1.90
   8   0  -4   99.99    5.00
   8   0  -4   99.99    5.00
   7   0  -4  185.78    8.70
   7   0  -4  185.78    8.70
   6   0  -4    2.60    1.00
   6   0  -4    2.60    1.00
  -6   0   4    7.30    5.00
  -6   0   4    7.40    5.00
   5   0  -4  720.43   31.80
   5   0  -4  720.43   31.80
  -5   0   4  666.53   32.90
  -5   0   4  666.63   32.90
   4   0  -4  733.73   33.60
   4   0  -4  733.73   33.60
   3   0  -4  248.58   11.40
   3   0  -4  248.58   11.40
   2   0  -4 2327.57  116.89
   2   0  -4 2327.57  116.89
  -2   0   4 2791.22  116.89
  -2   0   4 2791.22  116.89
   1   0  -4 1416.96   55.99
   1   0  -4 1416.96   55.99
  -1   0   4 1023.00   56.09
  -1   0   4 1023.00   56.09
   0   0  -4 1055.59   44.70
   0   0  -4 1055.59   44.70
   0   0   4  897.41   44.80
   0   0   4  897.41   44.80
  -1   0  -4 2011.40   91.99
  -1   0  -4 2011.40   91.99
  -2   0  -4  599.74   27.80
  -2   0  -4  599.74   27.80
  -3   0  -4  851.61   39.40
  -3   0  -4  851.61   39.40
  -4   0  -4  816.52   37.90
  -4   0  -4  816.52   37.90
  -5   0  -4    0.30    1.00
  -5   0  -4    0.30    1.00
  -6   0  -4  129.79    8.20
  -6   0  -4  129.79    8.20
  -7   0  -4  128.99    7.90
  -7   0  -4  128.99    7.90
   9  -1  -4   13.00    2.10
   9  -1  -4   13.00    2.10
   8  -1  -4  123.49    6.10
   8  -1  -4  123.49    6.10
   7  -1  -4   76.69    3.90
   7  -1  -4   76.69    3.90
   6  -1  -4  134.09    6.10
   6  -1  -4  134.09    6.10
  -6   1   4  114.59    8.40
  -6   1   4  114.59    8.40
   5  -1  -4  722.53   29.30
   5  -1  -4  722.53   29.30
  -5   1   4  541.95   30.50
  -5   1   4  541.95   30.50
   4  -1  -4   44.10    2.20
   4  -1  -4   44.10    2.20
  -4   1   4   32.70    5.90
  -4   1   4   32.70    5.90
   3  -1  -4 1332.77   57.69
   3  -1  -4 1332.77   57.69
  -3   1   4 1190.98   58.49
  -3   1   4 1191.08   58.49
   2  -1  -4 2844.42  123.49
   2  -1  -4 2844.42  123.49
  -2   1   4 2556.64  123.79
  -2   1   4 2556.44  123.79
   1  -1  -4   25.40    1.40
   1  -1  -4   25.40    1.40
  -1   1   4   22.00    2.10
  -1   1   4   22.00    2.10
   0  -1  -4 1825.02   81.19
   0  -1  -4 1825.02   81.19
   0   1   4 1729.63   81.29
   0   1   4 1729.63   81.29
  -1  -1  -4 1391.36   64.49
  -1  -1  -4 1421.96   64.29
  -1  -1  -4 1422.06   64.29
  -1  -1  -4 1391.36   64.49
  -2  -1  -4  160.28    7.90
  -2  -1  -4  160.28    7.90
  -3  -1  -4 1543.85   70.99
  -3  -1  -4 1543.85   70.99
  -4  -1  -4  316.07   15.20
  -4  -1  -4  316.07   15.20
  -5  -1  -4   80.39    5.20
  -5  -1  -4   80.39    5.20
  -6  -1  -4  212.98   12.60
  -6  -1  -4  212.98   12.60
  -7  -1  -4   13.70    2.10
  -7  -1  -4   13.70    2.10
   9  -2  -4   41.10    3.10
   9  -2  -4   41.10    3.10
   8  -2  -4  118.99    6.00
   8  -2  -4  118.99    6.00
   7  -2  -4    0.20    1.50
   7  -2  -4    0.20    1.50
  -7   2   4  -18.70    5.70
  -7   2   4  -18.70    5.70
   6  -2  -4  377.56   17.10
   6  -2  -4  377.56   17.10
  -6   2   4  358.26   18.80
  -6   2   4  358.26   18.80
   5  -2  -4  604.04   27.80
   5  -2  -4  604.04   27.80
   4  -2  -4   10.30    1.10
   4  -2  -4   10.30    1.10
  -4   2   4   18.30    5.30
  -4   2   4   18.30    5.30
   3  -2  -4 1274.27   60.59
   3  -2  -4 1274.27   60.59
  -3   2   4 1377.66   61.29
  -3   2   4 1377.66   61.29
   2  -2  -4  974.30   44.20
   2  -2  -4  974.30   44.20
  -2   2   4  957.10   44.60
  -2   2   4  957.00   44.60
   1  -2  -4  818.02   36.70
   1  -2  -4  818.02   36.70
  -1   2   4  783.62   36.90
  -1   2   4  783.62   36.90
   0   2   4 1799.92   82.39
   0   2   4 1800.02   82.39
  -1  -2  -4  514.15   23.00
  -1  -2  -4  514.15   23.00
   1   2   4  479.45   22.80
   1   2   4  479.45   22.80
  -2  -2  -4  305.67   15.00
  -2  -2  -4  305.67   15.00
   2   2   4  325.77   14.60
   2   2   4  325.77   14.60
  -3  -2  -4  779.22   36.10
  -3  -2  -4  779.22   36.10
  -4  -2  -4    0.70    1.00
  -4  -2  -4    0.70    1.00
  -5  -2  -4  233.58   11.80
  -5  -2  -4  233.58   11.80
  -7  -2  -4   -2.40    1.70
  -7  -2  -4   -2.40    1.70
   8  -3  -4   31.30    2.60
   8  -3  -4   31.30    2.60
   7  -3  -4   45.80    3.00
   7  -3  -4   45.80    3.00
  -7   3   4   59.79    8.10
  -7   3   4   59.89    8.20
   6  -3  -4  422.36   19.90
   6  -3  -4  422.36   19.90
  -6   3   4  438.16   21.30
  -6   3   4  438.16   21.30
   5  -3  -4   72.99    4.20
   5  -3  -4   72.99    4.20
  -5   3   4   67.09    6.20
  -5   3   4   67.09    6.20
   4  -3  -4  645.24   31.20
   4  -3  -4  645.24   31.20
  -4   3   4  722.23   33.70
  -4   3   4  722.23   33.70
   3  -3  -4 1121.19   52.99
   3  -3  -4 1121.19   52.99
  -3   3   4 1196.78   53.69
  -3   3   4 1196.78   53.69
   2  -3  -4  108.59    5.10
   2  -3  -4  108.59    5.10
  -2   3   4   99.19    5.70
  -2   3   4   99.19    5.70
   1  -3  -4 1699.33   75.99
   1  -3  -4 1699.33   75.99
  -1   3   4 1621.84   76.19
  -1   3   4 1621.84   76.19
   0   3   4 1278.97   58.59
   0   3   4 1278.87   58.59
  -1  -3  -4    8.70    0.90
  -1  -3  -4    8.70    0.90
  -2  -3  -4  902.61   41.40
  -2  -3  -4  902.61   41.40
   2   3   4  891.21   41.10
   2   3   4  891.21   41.10
  -3  -3  -4  353.56   16.80
  -3  -3  -4  353.56   16.80
   3   3   4  353.56   16.30
   3   3   4  353.56   16.30
  -4  -3  -4   18.20    1.70
  -4  -3  -4   18.20    1.70
  -5  -3  -4  253.17   12.80
  -5  -3  -4  253.17   12.80
  -7  -3  -4   12.20    2.60
  -7  -3  -4   12.20    2.60
   8  -4  -4    3.40    2.20
   8  -4  -4    3.40    2.20
  -8   4   4  -17.10    7.90
  -8   4   4  -17.10    7.90
   7  -4  -4  114.39    5.90
   7  -4  -4  114.39    5.90
  -7   4   4  110.79    8.70
  -7   4   4  110.79    8.70
   6  -4  -4  213.88   10.40
   6  -4  -4  213.88   10.40
  -6   4   4  224.88   12.10
  -6   4   4  224.88   12.10
   5  -4  -4    5.60    1.50
   5  -4  -4    5.60    1.50
  -5   4   4    4.60    5.20
  -5   4   4    4.60    5.20
   4  -4  -4  640.74   29.40
   4  -4  -4  640.74   29.40
  -4   4   4  637.14   30.20
  -4   4   4  637.04   30.20
  -3   4   4  357.16   17.30
  -3   4   4  357.16   17.30
   2  -4  -4  351.56   16.40
   2  -4  -4  351.56   16.40
  -2   4   4  356.26   16.90
  -2   4   4  356.26   16.90
   1  -4  -4  430.36   19.20
   1  -4  -4  430.36   19.20
  -1   4   4  398.16   19.40
  -1   4   4  398.16   19.40
   0  -4  -4  559.84   25.10
   0  -4  -4  559.84   25.10
   0   4   4  529.65   25.20
   0   4   4  529.55   25.20
   1   4   4  431.86   20.00
   1   4   4  431.86   20.00
  -2  -4  -4  658.13   30.70
  -2  -4  -4  658.13   30.70
   2   4   4  676.13   30.70
   2   4   4  676.23   30.70
  -3  -4  -4   70.29    4.00
  -3  -4  -4   70.29    4.00
   3   4   4   68.09    3.60
   3   4   4   67.99    3.60
  -4  -4  -4   81.59    5.30
  -4  -4  -4   81.59    5.30
   4   4   4   93.89    4.50
   4   4   4   93.89    4.50
  -5  -4  -4  121.99    7.30
  -5  -4  -4  121.99    7.30
   8  -5  -4   16.30    2.70
   8  -5  -4   16.30    2.70
  -8   5   4   13.90    7.80
  -8   5   4   14.00    7.80
   7  -5  -4   92.39    5.20
   7  -5  -4   92.39    5.20
  -7   5   4   95.39    8.00
  -7   5   4   95.39    8.00
   6  -5  -4   58.39    4.10
   6  -5  -4   58.39    4.10
  -6   5   4   87.69   11.80
  -6   5   4   87.69   11.80
   5  -5  -4  106.29    5.40
   5  -5  -4  106.29    5.40
  -5   5   4   99.39    7.10
  -5   5   4   99.39    7.10
   4  -5  -4  545.45   24.70
   4  -5  -4  545.45   24.70
  -4   5   4  521.65   25.50
  -4   5   4  521.65   25.50
   3  -5  -4   44.50    2.60
   3  -5  -4   44.50    2.60
  -3   5   4   38.80    4.40
  -3   5   4   38.80    4.40
   2  -5  -4  394.26   18.20
   2  -5  -4  394.26   18.20
  -2   5   4  388.56   18.70
  -2   5   4  388.56   18.70
   1  -5  -4  469.85   21.60
   1  -5  -4  469.85   21.60
  -1   5   4  463.25   21.90
  -1   5   4  463.45   21.90
   0  -5  -4    0.30    1.60
   0  -5  -4    0.30    1.60
   0   5   4   -2.30    2.70
   0   5   4   -2.30    2.70
   1   5   4  228.88   11.10
   1   5   4  228.88   11.10
   2   5   4  496.45   23.00
   2   5   4  496.35   23.00
   3   5   4   34.70    2.60
   3   5   4   34.80    2.60
   4   5   4  279.57   13.20
   4   5   4  279.57   13.20
   5   5   4  111.79    5.70
   5   5   4  111.69    5.70
   7  -6  -4   59.19    4.20
   7  -6  -4   59.19    4.20
  -7   6   4   82.39    9.20
  -7   6   4   82.39    9.20
   6  -6  -4    2.70    2.50
   6  -6  -4    2.70    2.50
  -6   6   4   -3.20    6.50
  -6   6   4   -3.20    6.50
   5  -6  -4  130.89    7.10
   5  -6  -4  130.89    7.10
  -5   6   4  135.29    9.00
  -5   6   4  135.29    9.00
   4  -6  -4  242.38   11.30
   4  -6  -4  242.38   11.30
  -4   6   4  227.28   12.50
  -4   6   4  227.28   12.50
   3  -6  -4   35.30    2.80
   3  -6  -4   35.30    2.80
  -3   6   4   53.59    5.40
  -3   6   4   53.59    5.40
   2  -6  -4  443.06   20.20
   2  -6  -4  443.06   20.20
  -2   6   4  426.06   20.70
  -2   6   4  426.06   20.70
   1  -6  -4  148.89    7.30
   1  -6  -4  148.89    7.30
  -1   6   4  151.28    7.90
  -1   6   4  151.28    7.90
   0  -6  -4   78.09    4.20
   0  -6  -4   78.09    4.20
   0   6   4   73.09    4.60
   0   6   4   73.09    4.60
   1   6   4  271.57   13.00
   1   6   4  271.57   13.00
   2   6   4   31.30    2.90
   2   6   4   31.30    2.90
   3   6   4   52.29    3.70
   3   6   4   52.29    3.70
   4   6   4  185.78    9.20
   4   6   4  185.78    9.20
   5   6   4   -7.50    2.70
   5   6   4   -7.50    2.70
   6  -7  -4   29.80    3.40
   6  -7  -4   29.80    3.40
  -6   7   4   13.70    6.90
  -6   7   4   13.70    6.90
   5  -7  -4  129.19    6.70
   5  -7  -4  129.19    6.70
  -5   7   4  118.39    8.90
  -5   7   4  118.39    8.90
   4  -7  -4   18.60    2.50
   4  -7  -4   18.60    2.50
  -4   7   4    3.20    5.00
  -4   7   4    3.20    5.00
   3  -7  -4  102.29    5.40
   3  -7  -4  102.29    5.40
  -3   7   4   94.29    7.00
  -3   7   4   94.29    7.00
   1  -7  -4    2.70    2.30
   1  -7  -4    2.70    2.30
  -1   7   4   -2.70    3.50
  -1   7   4   -2.70    3.50
   0  -7  -4  171.98    8.20
   0  -7  -4  171.98    8.20
   0   7   4  161.58    8.60
   0   7   4  161.68    8.60
   1   7   4  108.19    6.10
   1   7   4  108.19    6.10
   2   7   4   -3.70    3.00
   2   7   4   -3.70    3.00
   3   7   4   98.19    5.70
   3   7   4   97.99    5.70
   4   7   4   42.50    4.00
   4   7   4   42.50    3.90
   5  -8  -4   55.49    4.10
   5  -8  -4   55.49    4.10
  -5   8   4   35.30    7.50
  -5   8   4   35.20    7.50
   4  -8  -4    4.00    2.60
   4  -8  -4    4.00    2.60
  -4   8   4   -0.60    6.10
  -4   8   4   -0.60    6.10
   3  -8  -4   93.29    5.20
   3  -8  -4   93.29    5.20
  -3   8   4   86.59    7.00
  -3   8   4   86.59    7.00
   2  -8  -4   55.69    3.80
   2  -8  -4   55.69    3.80
  -2   8   4   59.29    5.40
  -2   8   4   59.39    5.40
   1  -8  -4   12.50    2.40
   1  -8  -4   12.50    2.40
  -1   8   4   16.10    4.30
  -1   8   4   16.10    4.30
   0  -8  -4   77.09    4.60
   0  -8  -4   77.09    4.60
   0   8   4   74.69    5.60
   0   8   4   74.69    5.60
   1   8   4   25.70    4.60
   1   8   4   25.70    4.60
   2   8   4   29.80    4.90
   2   8   4   29.80    4.90
   2  -9  -4    0.60    2.40
   2  -9  -4    0.60    2.40
  -2   9   4    4.90    5.00
  -2   9   4    4.90    5.00
   1  -9  -4   42.10    3.50
   1  -9  -4   42.10    3.50
  -1   9   4   45.10    5.80
  -1   9   4   45.10    5.80
  -3  -9   5   66.59    9.80
  -3  -9   5   47.90    3.70
  -3  -9   5   47.90    3.70
  -3  -9   5   66.59    9.80
  -2  -9   5    3.00    2.40
  -2  -9   5    1.80    1.20
  -2  -9   5    1.80    1.20
  -2  -9   5    3.00    2.40
  -1  -9   5   35.20    2.90
  -1  -9   5   40.80    7.70
  -1  -9   5   35.20    2.90
  -1  -9   5   40.80    7.70
   0  -9   5   91.79    8.90
   0  -9   5   84.49    4.80
   0  -9   5   91.79    8.90
   0  -9   5   84.49    4.80
  -1   9  -5   -2.80    1.60
  -1   9  -5   -2.80    1.60
   1  -9   5    2.60    2.40
   1  -9   5    2.60    2.40
   1  -9   5    0.10    0.90
   1  -9   5    0.10    0.90
  -2   9  -5   70.29    5.70
  -2   9  -5   70.29    5.70
   2  -9   5   54.69    3.90
   2  -9   5   54.69    3.90
  -3   9  -5   52.99    5.10
  -3   9  -5   52.99    5.10
   3  -9   5   33.90    3.40
   3  -9   5   33.90    3.40
  -5  -8   5    1.60    1.40
  -5  -8   5    1.60    1.40
   4   8  -5   37.90    3.10
   4   8  -5   37.90    3.10
   3   8  -5   60.59    4.40
   3   8  -5   60.59    4.40
  -3  -8   5   92.29    9.60
  -3  -8   5   80.09    4.10
  -3  -8   5   92.29    9.60
  -3  -8   5   80.09    4.10
   2   8  -5   30.10    3.10
   2   8  -5   30.10    3.10
  -2  -8   5   44.10    7.60
  -2  -8   5   44.30    3.70
  -2  -8   5   44.30    3.70
  -2  -8   5   44.10    7.60
  -1  -8   5  100.79    9.00
  -1  -8   5  113.49    5.50
  -1  -8   5  100.79    9.00
  -1  -8   5  113.49    5.50
   0  -8   5   62.39    7.30
   0  -8   5   59.59    3.50
   0  -8   5   62.39    7.30
   0  -8   5   59.59    3.50
   1  -8   5   27.20    2.40
   1  -8   5   27.20    2.40
   2  -8   5  105.49    6.60
   2  -8   5  105.49    6.60
  -3   8  -5   14.70    2.10
  -3   8  -5   14.70    2.10
   3  -8   5   10.30    3.10
   3  -8   5   10.30    3.10
  -4   8  -5   20.10    2.40
  -4   8  -5   20.10    2.40
  -6  -7   5    5.70    1.70
  -6  -7   5    5.70    1.70
  -5  -7   5    5.70    1.50
  -5  -7   5    5.70    1.50
  -4  -7   5  181.38   14.30
  -4  -7   5  181.38   14.30
   3   7  -5   32.00    2.70
   3   7  -5   32.00    2.70
  -3  -7   5   24.30    2.00
  -3  -7   5   24.30    2.00
   2   7  -5   74.99    5.20
   2   7  -5   74.99    5.20
  -2  -7   5   63.19    3.50
  -2  -7   5   64.89    7.20
  -2  -7   5   64.89    7.20
  -2  -7   5   63.19    3.50
   1   7  -5  198.08   10.00
   1   7  -5  198.08   10.00
  -1  -7   5  220.38    9.80
  -1  -7   5  220.38    9.80
  -1  -7   5  206.08   12.10
  -1  -7   5  206.08   12.10
   0  -7   5    2.50    1.50
   0  -7   5    2.50    1.50
   1  -7   5  169.78    9.60
   1  -7   5  142.29    7.50
   1  -7   5  142.29    7.50
   1  -7   5  169.78    9.60
  -2   7  -5  237.88   11.80
  -2   7  -5  237.88   11.80
   2  -7   5  230.08   13.10
   2  -7   5  230.08   13.10
  -3   7  -5  -10.50    4.30
  -3   7  -5  -10.50    4.20
  -3   7  -5   -2.00    1.60
  -3   7  -5   -2.00    1.60
  -4   7  -5  192.18    9.50
  -4   7  -5  158.68    9.70
  -4   7  -5  192.18    9.50
  -4   7  -5  158.68    9.70
  -5   7  -5   59.69    7.00
  -5   7  -5   83.59    6.00
  -5   7  -5   59.69    7.00
  -5   7  -5   83.59    6.00
  -7  -6   5   64.39   11.90
  -7  -6   5   64.39   11.90
  -6  -6   5    1.50    1.50
  -6  -6   5    1.50    1.50
  -4  -6   5  210.08   14.30
  -4  -6   5  210.08   14.30
   3   6  -5   13.50    2.30
   3   6  -5   13.50    2.30
  -3  -6   5   18.70    1.50
  -3  -6   5   18.70    1.50
   2   6  -5  450.75   20.30
   2   6  -5  450.75   20.30
  -2  -6   5  416.66   22.40
  -2  -6   5  447.16   20.20
  -2  -6   5  447.16   20.20
  -2  -6   5  416.66   22.40
   1   6  -5  240.78   11.20
   1   6  -5  240.78   11.20
  -1  -6   5  248.58   11.10
  -1  -6   5  222.18   12.90
  -1  -6   5  248.58   11.10
  -1  -6   5  222.18   12.90
   0   6  -5   48.50    3.40
   0   6  -5   48.50    3.40
   0  -6   5   64.09    5.10
   0  -6   5   64.09    5.10
  -1   6  -5  263.37   13.60
  -1   6  -5  263.37   13.60
   1  -6   5  308.17   14.80
   1  -6   5  308.17   14.80
  -2   6  -5   90.39    5.10
  -2   6  -5   90.39    5.10
   2  -6   5   68.89    6.00
   2  -6   5   68.89    6.00
  -3   6  -5  157.98    8.70
  -3   6  -5  157.98    8.70
  -4   6  -5  356.16   18.60
  -4   6  -5  356.16   18.60
  -4   6  -5  409.76   18.30
  -4   6  -5  409.76   18.30
  -5   6  -5    5.30    4.10
  -5   6  -5   18.20    4.40
  -5   6  -5   18.10    4.40
  -5   6  -5    5.30    4.10
  -6   6  -5   52.89    6.20
  -6   6  -5   60.29    5.20
  -6   6  -5   60.39    5.20
  -6   6  -5   52.89    6.20
  -7  -5   5    7.20    1.80
  -7  -5   5    7.20    1.80
  -6  -5   5    4.80    1.50
  -6  -5   5    4.80    1.50
  -5  -5   5  343.97   20.40
  -5  -5   5  343.97   20.40
  -4  -5   5  155.48   12.10
  -4  -5   5  155.48   12.10
  -3  -5   5  198.98   12.90
  -3  -5   5  198.98   12.90
   2   5  -5  725.83   32.00
   2   5  -5  725.83   32.00
  -2  -5   5  667.13   33.90
  -2  -5   5  695.53   31.90
  -2  -5   5  667.13   33.90
  -2  -5   5  695.53   31.90
   1   5  -5   60.69    3.30
   1   5  -5   60.69    3.30
  -1  -5   5   57.59    5.30
  -1  -5   5   57.59    5.30
  -1   5  -5  303.87   15.10
  -1   5  -5  303.87   15.10
   1  -5   5  339.97   16.00
   1  -5   5  339.97   16.00
   2  -5   5   -0.20    0.50
   2  -5   5   -0.20    0.50
  -3   5  -5  274.87   13.60
  -3   5  -5  274.87   13.60
  -4   5  -5  247.68   12.90
  -4   5  -5  247.68   12.90
  -4   5  -5  263.27   12.30
  -4   5  -5  262.97   12.30
  -5   5  -5   16.90    2.30
  -5   5  -5   16.90    2.30
  -6   5  -5  143.49    7.50
  -6   5  -5  143.39    7.50
  -6   5  -5  120.59    8.40
  -6   5  -5  120.59    8.40
  -8  -4   5  102.99   12.30
  -8  -4   5  102.99   12.30
  -7  -4   5   -0.20    1.30
  -7  -4   5   -0.20    1.30
  -6  -4   5  166.98   13.00
  -6  -4   5  166.98   13.00
  -5  -4   5  299.97   18.30
  -5  -4   5  299.97   18.30
  -4  -4   5    1.70    1.10
  -4  -4   5    1.70    1.10
  -3  -4   5  886.81   44.10
  -3  -4   5  886.81   44.10
   2   4  -5  910.91   39.50
   2   4  -5  910.91   39.50
  -2  -4   5  836.32   39.30
  -2  -4   5  836.32   39.30
  -2  -4   5  832.02   41.40
  -2  -4   5  832.02   41.40
   1   4  -5  159.08    7.50
   1   4  -5  159.08    7.50
  -1  -4   5  158.08    9.20
  -1  -4   5  158.08    9.20
   0   4  -5 1609.54   70.59
   0   4  -5 1609.54   70.59
   0  -4   5 1476.75   71.39
   0  -4   5 1476.75   71.39
  -1   4  -5  324.07   16.10
  -1   4  -5  324.07   16.10
   1  -4   5  365.26   16.80
   1  -4   5  365.26   16.80
   2  -4   5  194.08   10.00
   2  -4   5  194.08   10.00
  -3   4  -5  659.33   30.90
  -3   4  -5  659.33   30.90
  -4   4  -5   50.49    3.30
  -4   4  -5   50.49    3.30
  -4   4  -5   58.69    4.30
  -4   4  -5   58.69    4.30
  -5   4  -5   93.99    5.20
  -5   4  -5   97.49    6.30
  -5   4  -5   93.99    5.20
  -5   4  -5   97.49    6.30
  -6   4  -5  210.68   11.40
  -6   4  -5  210.68   11.40
  -7   4  -5    0.00    1.80
  -7   4  -5    0.00    1.80
  -7  -3   5    5.80    1.20
  -7  -3   5    5.80    1.20
  -6  -3   5  328.97   19.00
  -6  -3   5  328.97   19.00
  -5  -3   5  114.59   10.30
  -5  -3   5  114.59   10.30
  -3  -3   5  791.22   39.00
  -3  -3   5  791.22   39.00
  -2  -3   5  128.79    8.80
  -2  -3   5  128.79    8.80
   1   3  -5 1388.96   63.19
   1   3  -5 1388.96   63.19
  -1  -3   5 1372.76   64.39
  -1  -3   5 1372.76   64.39
   0   3  -5  706.73   30.90
   0   3  -5  706.73   30.90
   0  -3   5  635.04   31.50
   0  -3   5  635.04   31.50
  -1   3  -5   24.20    2.20
  -1   3  -5   24.20    2.20
   1  -3   5   34.50    2.80
   1  -3   5   34.50    2.80
   2  -3   5 1261.27   58.19
   2  -3   5 1261.27   58.19
  -3   3  -5  728.23   34.00
  -3   3  -5  728.23   34.00
  -4   3  -5    3.30    1.20
  -4   3  -5    3.30    1.20
  -5   3  -5  164.68    8.90
  -5   3  -5  164.68    8.90
  -6   3  -5   93.99    6.60
  -6   3  -5   93.99    6.60
  -7   3  -5    8.00    2.00
  -7   3  -5    8.00    2.00
  -8  -2   5    0.70    1.10
  -8  -2   5    0.70    1.10
  -7  -2   5  123.49   10.70
  -7  -2   5  123.49   10.70
  -6  -2   5  408.46   22.40
  -6  -2   5  408.46   22.40
  -5  -2   5   -0.50    1.00
  -5  -2   5   -0.50    1.00
  -4  -2   5  374.76   20.80
  -4  -2   5  374.76   20.80
  -3  -2   5  596.14   30.30
  -3  -2   5  596.14   30.30
  -2  -2   5   31.70    5.30
  -2  -2   5   31.70    5.30
   1   2  -5 1966.30   90.09
   1   2  -5 1966.30   90.09
  -1  -2   5 1976.00   91.39
  -1  -2   5 1976.00   91.39
   0   2  -5  817.12   37.00
   0   2  -5  817.12   37.00
   0  -2   5  796.92   37.70
   0  -2   5  796.92   37.70
  -1   2  -5  389.56   18.50
  -1   2  -5  389.56   18.50
   1  -2   5  407.26   18.80
   1  -2   5  407.26   18.80
  -4   2  -5  369.46   17.70
  -4   2  -5  369.46   17.70
  -5   2  -5  421.56   20.30
  -5   2  -5  421.56   20.30
  -6   2  -5   45.80    4.60
  -6   2  -5   45.80    4.60
  -7   2  -5   45.70    5.10
  -7   2  -5   45.70    5.10
   9   1  -5   38.50    2.60
   9   1  -5   38.50    2.60
   8   1  -5    3.40    1.20
   8   1  -5    3.40    1.20
   7   1  -5  207.18    9.60
   7   1  -5  207.18    9.60
   6   1  -5  286.87   13.20
   6   1  -5  286.87   13.20
  -5  -1   5   99.09   15.00
  -5  -1   5   99.09   15.00
  -4  -1   5  781.82   39.00
  -4  -1   5  781.82   39.00
  -3  -1   5  640.04   29.30
  -3  -1   5  640.04   29.30
  -2  -1   5  653.63   35.90
  -2  -1   5  653.63   35.90
  -2  -1   5  825.12   33.90
  -2  -1   5  825.12   33.90
   1   1  -5 2568.04  104.69
   1   1  -5 2568.04  104.69
  -1  -1   5 2008.00  105.59
  -1  -1   5 2008.00  105.59
   0   1  -5  178.08    8.40
   0   1  -5  178.08    8.40
   0  -1   5  176.28    9.20
   0  -1   5  176.28    9.20
  -1   1  -5 1395.16   63.89
  -1   1  -5 1395.16   63.89
  -2   1  -5 1576.54   72.39
  -2   1  -5 1576.54   72.39
  -3   1  -5   24.30    2.80
  -3   1  -5   24.30    2.80
  -4   1  -5  440.66   20.90
  -4   1  -5  440.66   20.90
  -5   1  -5  372.56   18.00
  -5   1  -5  372.56   18.00
  -6   1  -5   55.79    5.10
  -6   1  -5   55.79    5.10
  -7   1  -5  107.09    7.00
  -7   1  -5  107.09    7.00
   9   0  -5   17.10    2.10
   9   0  -5   17.10    2.10
   8   0  -5   45.50    2.70
   8   0  -5   45.50    2.70
   7   0  -5  243.18   11.30
   7   0  -5  243.18   11.30
   6   0  -5   18.00    1.30
   6   0  -5   18.00    1.30
  -6   0   5   43.00    6.70
  -6   0   5   43.00    6.70
   5   0  -5  676.83   28.30
   5   0  -5  676.83   28.30
  -5   0   5  538.35   31.00
  -5   0   5  537.95   31.00
   4   0  -5 1515.15   61.99
   4   0  -5 1515.15   61.99
  -4   0   5 1189.98   63.09
  -4   0   5 1189.98   63.09
   3   0  -5   28.00    1.40
   3   0  -5   28.00    1.40
  -3   0   5   21.00    4.80
  -3   0   5   21.00    4.80
  -2   0   5  879.21   40.90
  -2   0   5  879.21   40.90
   1   0  -5 1020.70   43.70
   1   0  -5 1020.70   43.70
  -1   0   5  887.41   44.00
  -1   0   5  887.31   44.00
   0   0  -5  546.35   23.00
   0   0  -5  546.35   23.00
   0   0   5  450.55   23.10
   0   0   5  450.55   23.10
  -1   0  -5 1993.90   91.19
  -1   0  -5 1993.90   91.19
  -2   0  -5  320.87   15.20
  -2   0  -5  320.87   15.20
  -3   0  -5  390.76   18.50
  -3   0  -5  390.76   18.50
  -4   0  -5  785.32   36.60
  -4   0  -5  785.32   36.60
  -5   0  -5   44.80    3.90
  -5   0  -5   44.80    3.90
  -6   0  -5  101.89    6.70
  -6   0  -5  101.89    6.70
  -7   0  -5  103.09    6.90
  -7   0  -5  103.09    6.90
   9  -1  -5   -0.10    1.70
   9  -1  -5   -0.10    1.70
   8  -1  -5  131.59    6.40
   8  -1  -5  131.59    6.40
   7  -1  -5  141.99    6.80
   7  -1  -5  141.99    6.80
   6  -1  -5   31.30    1.90
   6  -1  -5   31.30    1.90
  -6   1   5   70.19    9.10
  -6   1   5   70.09    9.10
   5  -1  -5  780.02   35.70
   5  -1  -5  780.02   35.70
  -5   1   5  777.52   38.10
  -5   1   5  777.52   38.10
   4  -1  -5  609.74   27.90
   4  -1  -5  609.74   27.90
   3  -1  -5  661.13   27.60
   3  -1  -5  661.13   27.60
  -3   1   5  535.45   28.50
  -3   1   5  535.45   28.50
   2  -1  -5 2362.66  110.59
   2  -1  -5 2362.66  110.59
  -2   1   5 2483.35  111.19
  -2   1   5 2483.25  111.19
   1  -1  -5  427.86   18.00
   1  -1  -5  427.86   18.00
  -1   1   5  350.56   18.20
  -1   1   5  350.46   18.20
   0  -1  -5  566.34   25.40
   0  -1  -5  566.34   25.40
   0   1   5  540.05   25.50
   0   1   5  540.05   25.50
  -1  -1  -5 1529.35   62.19
  -1  -1  -5 1529.35   62.19
   1   1   5 1181.18   61.89
   1   1   5 1181.18   61.89
  -2  -1  -5    1.20    0.80
  -2  -1  -5    1.20    0.80
  -3  -1  -5  569.64   26.60
  -3  -1  -5  569.64   26.60
  -4  -1  -5  365.36   17.50
  -4  -1  -5  365.36   17.50
  -5  -1  -5    4.10    1.40
  -5  -1  -5    4.10    1.40
  -6  -1  -5  183.18   10.10
  -6  -1  -5  183.18   10.10
  -7  -1  -5   19.50    2.30
  -7  -1  -5   19.50    2.30
  -9   2   5  100.09   10.90
  -9   2   5  100.09   10.90
   8  -2  -5  116.49    5.80
   8  -2  -5  116.49    5.80
   7  -2  -5   18.60    1.90
   7  -2  -5   18.60    1.90
  -7   2   5   12.40    7.80
  -7   2   5   12.50    7.80
   6  -2  -5  353.56   16.30
   6  -2  -5  353.56   16.30
  -6   2   5  350.96   18.60
  -6   2   5  351.46   18.60
   5  -2  -5  449.56   20.60
   5  -2  -5  449.56   20.60
  -5   2   5  441.56   22.40
  -5   2   5  441.16   22.40
  -4   2   5    6.20    5.30
  -4   2   5    6.20    5.30
   3  -2  -5 1541.05   71.39
   3  -2  -5 1541.05   71.39
  -3   2   5 1580.54   72.09
  -3   2   5 1580.54   72.09
   2  -2  -5 1804.62   81.59
   2  -2  -5 1804.62   81.59
  -2   2   5 1765.12   81.99
  -2   2   5 1765.92   81.99
  -1   2   5   86.59    4.60
  -1   2   5   86.59    4.60
   0  -2  -5 1695.63   85.29
   0  -2  -5 1695.63   85.29
   0   2   5 2037.00   85.39
   0   2   5 2037.00   85.39
  -1  -2  -5  604.64   27.40
  -1  -2  -5  604.64   27.40
   1   2   5  578.94   27.20
   1   2   5  578.84   27.20
  -2  -2  -5  112.49    6.10
  -2  -2  -5  112.49    6.10
   2   2   5  121.09    5.50
   2   2   5  121.09    5.50
  -3  -2  -5  716.63   33.40
  -3  -2  -5  716.63   33.40
  -4  -2  -5  103.99    6.00
  -4  -2  -5  103.99    6.00
  -5  -2  -5   91.89    5.90
  -5  -2  -5   91.89    5.90
  -6  -2  -5  146.09    8.90
  -6  -2  -5  146.09    8.90
  -7  -2  -5    2.40    2.00
  -7  -2  -5    2.40    2.00
   8  -3  -5   72.59    4.10
   8  -3  -5   72.59    4.10
  -8   3   5   78.79    9.50
  -8   3   5   78.89    9.50
  -7   3   5    0.70    8.30
  -7   3   5    0.60    8.30
   6  -3  -5  300.37   14.40
   6  -3  -5  300.37   14.40
  -6   3   5  319.37   16.40
  -6   3   5  319.37   16.40
   5  -3  -5  203.38    9.60
   5  -3  -5  203.38    9.60
  -5   3   5  205.18   11.70
  -5   3   5  205.18   11.60
   4  -3  -5  270.77   12.70
   4  -3  -5  270.77   12.70
  -4   3   5  277.57   14.20
  -4   3   5  277.57   14.20
   3  -3  -5  401.86   18.20
   3  -3  -5  401.86   18.20
  -3   3   5  386.96   19.10
  -3   3   5  387.06   19.00
   2  -3  -5  499.15   22.00
   2  -3  -5  499.15   22.00
  -2   3   5  455.25   22.50
  -2   3   5  455.35   22.50
   1  -3  -5  971.70   42.10
   1  -3  -5  971.70   42.10
  -1   3   5  864.71   42.30
  -1   3   5  864.81   42.30
   0   3   5 1788.32   81.89
   0   3   5 1788.42   81.89
  -1  -3  -5   51.09    3.20
  -1  -3  -5   51.09    3.20
   1   3   5   44.50    2.70
   1   3   5   44.50    2.70
  -2  -3  -5  360.66   18.30
  -2  -3  -5  360.66   18.30
   2   3   5  413.66   17.90
   2   3   5  413.66   17.90
  -3  -3  -5  396.96   20.00
  -3  -3  -5  396.96   20.00
   3   3   5  443.86   19.40
   3   3   5  443.86   19.40
  -4  -3  -5    0.20    1.10
  -4  -3  -5    0.20    1.10
  -5  -3  -5  159.58    8.90
  -5  -3  -5  159.58    8.90
  -6  -3  -5   62.49    6.80
  -6  -3  -5   62.49    6.80
   8  -4  -5   21.00    2.60
   8  -4  -5   21.00    2.60
  -8   4   5    8.30    8.20
  -8   4   5    8.20    8.20
   7  -4  -5   81.69    4.70
   7  -4  -5   81.69    4.70
  -7   4   5  108.99   10.50
  -7   4   5  108.99   10.50
   6  -4  -5  280.37   13.40
   6  -4  -5  280.37   13.40
  -6   4   5  287.97   15.20
  -6   4   5  287.97   15.20
   5  -4  -5   15.90    1.90
   5  -4  -5   15.90    1.90
  -5   4   5   10.00    6.00
  -5   4   5   10.00    6.00
   4  -4  -5  347.07   16.20
   4  -4  -5  347.07   16.20
  -4   4   5  351.16   17.40
  -4   4   5  351.16   17.40
   3  -4  -5  631.04   28.20
   3  -4  -5  631.04   28.20
  -3   4   5  590.24   28.80
  -3   4   5  590.24   28.80
   2  -4  -5    2.10    1.30
   2  -4  -5    2.10    1.30
  -2   4   5    6.80    3.30
  -2   4   5    6.80    3.30
   1  -4  -5  641.04   28.40
   1  -4  -5  641.04   28.40
  -1   4   5  590.54   28.60
  -1   4   5  590.54   28.60
   0   4   5  712.93   32.90
   0   4   5  712.93   32.90
   1   4   5  198.28    9.50
   1   4   5  198.28    9.50
  -2  -4  -5  895.51   42.60
  -2  -4  -5  895.51   42.60
   2   4   5  949.31   42.40
   2   4   5  949.31   42.40
  -3  -4  -5  180.98    9.80
  -3  -4  -5  180.98    9.80
   3   4   5  207.38    9.20
   3   4   5  207.38    9.20
  -4  -4  -5   48.90    4.70
  -4  -4  -5   48.90    4.70
   4   4   5   69.59    3.40
   4   4   5   69.49    3.40
  -5  -4  -5  136.09    8.30
  -5  -4  -5  136.09    8.30
  -6  -4  -5    6.20    2.70
  -6  -4  -5    6.20    2.70
   7  -5  -5   81.79    4.70
   7  -5  -5   81.79    4.70
  -7   5   5   71.09    8.00
  -7   5   5   71.09    8.00
  -6   5   5   83.99    8.20
  -6   5   5   83.89    8.20
   5  -5  -5   60.39    3.60
   5  -5  -5   60.39    3.60
  -5   5   5   53.29    6.30
  -5   5   5   53.29    6.30
   4  -5  -5  369.26   17.30
   4  -5  -5  369.26   17.30
  -4   5   5  371.86   18.40
  -4   5   5  371.86   18.40
   3  -5  -5  120.89    5.90
   3  -5  -5  120.89    5.90
  -3   5   5  110.29    7.10
  -3   5   5  110.19    7.10
   2  -5  -5  118.69    5.90
   2  -5  -5  118.69    5.90
  -2   5   5  117.39    6.70
  -2   5   5  117.49    6.70
   1  -5  -5  568.74   25.80
   1  -5  -5  568.74   25.80
  -1   5   5  549.25   26.10
  -1   5   5  549.25   26.10
   0   5   5   41.90    3.20
   0   5   5   41.90    3.20
   1   5   5  259.77   12.70
   1   5   5  259.77   12.70
   2   5   5  320.97   15.20
   2   5   5  320.77   15.20
  -3  -5  -5    5.50    1.00
  -3  -5  -5    5.50    1.00
   3   5   5   10.20    2.20
   3   5   5   10.20    2.20
   4   5   5  205.08    9.80
   4   5   5  204.98    9.80
   7  -6  -5   81.19    5.00
   7  -6  -5   81.19    5.00
  -7   6   5   87.79    8.40
  -7   6   5   87.79    8.40
   6  -6  -5    5.60    2.60
   6  -6  -5    5.60    2.60
  -6   6   5    0.60    6.50
  -6   6   5    0.60    6.50
   5  -6  -5   86.49    4.90
   5  -6  -5   86.49    4.90
  -5   6   5   78.89    7.20
  -5   6   5   78.89    7.20
   3  -6  -5   -3.00    1.80
   3  -6  -5   -3.00    1.80
  -3   6   5    0.20    4.50
  -3   6   5    0.20    4.50
   2  -6  -5  217.78   10.40
   2  -6  -5  217.78   10.40
  -2   6   5  219.28   11.20
  -2   6   5  219.28   11.20
   1  -6  -5  176.88    8.60
   1  -6  -5  176.88    8.60
  -1   6   5  179.98    9.20
  -1   6   5  179.98    9.20
   0   6   5    6.60    3.00
   0   6   5    6.60    3.00
   1   6   5  260.07   12.50
   1   6   5  260.07   12.50
   2   6   5  112.19    6.00
   2   6   5  112.19    6.00
   3   6   5   38.20    3.30
   3   6   5   38.20    3.30
   4   6   5   93.09    5.30
   4   6   5   93.19    5.30
   6  -7  -5   10.10    2.80
   6  -7  -5   10.10    2.80
  -6   7   5   -2.90    6.90
  -6   7   5   -2.90    6.90
   5  -7  -5  104.79    5.70
   5  -7  -5  104.79    5.70
  -5   7   5   97.89    8.10
  -5   7   5   97.89    8.10
   4  -7  -5   55.69    3.80
   4  -7  -5   55.69    3.80
  -4   7   5   52.79    6.30
  -4   7   5   52.79    6.30
   3  -7  -5   22.90    2.80
   3  -7  -5   22.90    2.80
  -3   7   5   25.00    5.90
  -3   7   5   25.00    5.90
   2  -7  -5  141.29    7.10
   2  -7  -5  141.29    7.10
  -2   7   5  138.29    8.30
  -2   7   5  138.29    8.30
   1  -7  -5   29.80    2.80
   1  -7  -5   29.80    2.80
   0   7   5   48.00    4.40
   0   7   5   48.00    4.40
   1   7   5  131.49    7.20
   1   7   5  131.49    7.20
   2   7   5    8.60    3.50
   2   7   5    8.60    3.50
   3   7   5   59.19    4.50
   3   7   5   59.19    4.40
   4  -8  -5    4.70    2.60
   4  -8  -5    4.70    2.60
  -4   8   5   -1.10    6.00
  -4   8   5   -1.20    6.00
   3  -8  -5   72.99    4.30
   3  -8  -5   72.99    4.30
  -3   8   5   60.99    6.30
  -3   8   5   60.99    6.30
   2  -8  -5   76.59    4.50
   2  -8  -5   76.59    4.50
  -2   8   5   68.59    6.00
  -2   8   5   68.29    6.00
   1  -8  -5    0.30    2.50
   1  -8  -5    0.30    2.50
  -1   8   5   -2.30    4.30
  -1   8   5   -2.30    4.30
   0   8   5   82.29    5.90
   0   8   5   82.29    5.90
   1   8   5   39.50    4.60
   1   8   5   39.60    4.60
   3   9  -6   40.60    4.10
   3   9  -6   40.60    4.10
  -3  -9   6   68.09    4.50
  -3  -9   6   59.39   10.00
  -3  -9   6   59.39   10.00
  -3  -9   6   68.09    4.50
  -2  -9   6   31.10    3.10
  -2  -9   6   31.10    3.10
  -1  -9   6   25.20    2.60
  -1  -9   6   25.20    2.60
   0  -9   6   99.39    9.40
   0  -9   6   86.89    5.00
   0  -9   6   99.39    9.40
   0  -9   6   86.89    5.00
   1  -9   6    9.10    2.50
   1  -9   6    9.10    2.50
  -2   9  -6   16.90    2.50
  -2   9  -6   16.90    2.50
   2  -9   6   24.70    2.90
   2  -9   6   24.70    2.90
   4   8  -6   30.80    3.30
   4   8  -6   30.80    3.30
   3   8  -6   62.99    4.30
   3   8  -6   62.99    4.30
  -3  -8   6   77.39    9.80
  -3  -8   6   73.19    3.90
  -3  -8   6   73.19    3.90
  -3  -8   6   77.39    9.80
   2   8  -6    0.00    2.50
   2   8  -6    0.00    2.50
  -2  -8   6    0.30    2.10
  -2  -8   6    1.50    1.00
  -2  -8   6    1.50    1.00
  -2  -8   6    0.30    2.10
   1   8  -6  100.49    6.20
   1   8  -6  100.49    6.20
  -1  -8   6  116.59    9.50
  -1  -8   6  119.09    5.70
  -1  -8   6  116.59    9.50
  -1  -8   6  119.09    5.70
   0   8  -6   79.59    5.90
   0   8  -6   79.59    5.90
   0  -8   6  117.79    8.90
   0  -8   6  117.79    8.90
   0  -8   6  106.39    5.20
   0  -8   6  106.39    5.20
   1  -8   6    1.50    0.90
   1  -8   6    3.00    2.10
   1  -8   6    3.00    2.10
   1  -8   6    1.50    0.90
  -2   8  -6  142.59    8.60
  -2   8  -6  142.59    8.60
   2  -8   6  162.48   10.90
   2  -8   6  162.48   10.90
  -3   8  -6   61.09    6.60
  -3   8  -6   55.69    5.90
  -3   8  -6   55.69    5.90
  -3   8  -6   60.99    6.60
  -4   8  -6   24.00    5.30
  -4   8  -6    4.70    2.50
  -4   8  -6    4.70    2.50
  -4   8  -6   24.00    5.30
  -6  -7   6    7.70    1.80
  -6  -7   6    7.70    1.80
  -5  -7   6    3.20    1.60
  -5  -7   6    3.20    1.60
   4   7  -6  163.68    8.80
   4   7  -6  163.68    8.80
  -4  -7   6  208.58   15.00
  -4  -7   6  208.58   15.00
   3   7  -6   94.39    5.40
   3   7  -6   94.39    5.40
  -3  -7   6  101.49    4.90
  -3  -7   6  101.49    4.90
  -3  -7   6  108.39   11.00
  -3  -7   6  108.39   11.00
   2   7  -6   64.89    4.00
   2   7  -6   64.89    4.00
  -2  -7   6   66.89   10.00
  -2  -7   6   66.99    3.50
  -2  -7   6   66.89   10.00
  -2  -7   6   66.99    3.50
   1   7  -6  175.08    8.70
   1   7  -6  175.08    8.70
  -1  -7   6  179.28    8.40
  -1  -7   6  179.38   11.10
  -1  -7   6  179.38   11.10
  -1  -7   6  179.28    8.40
   0   7  -6   38.70    3.60
   0   7  -6   38.70    3.60
   0  -7   6   43.70    5.30
   0  -7   6   43.70    5.30
   0  -7   6   33.10    2.50
   0  -7   6   33.10    2.50
  -1   7  -6  104.59    7.00
  -1   7  -6  104.59    7.00
   1  -7   6  155.38    8.90
   1  -7   6  155.38    8.90
  -2   7  -6  296.67   15.20
  -2   7  -6  296.67   15.20
   2  -7   6  322.27   16.50
   2  -7   6  322.27   16.50
  -3   7  -6    2.20    1.70
  -3   7  -6    2.20    1.70
  -4   7  -6  109.79    6.70
  -4   7  -6  109.89    6.70
  -5   7  -6   81.09    7.20
  -5   7  -6   88.39    6.20
  -5   7  -6   88.29    6.20
  -5   7  -6   81.09    7.20
  -7  -6   6   80.79   13.10
  -7  -6   6   80.79   13.10
  -6  -6   6    3.00    1.70
  -6  -6   6    3.00    1.70
  -5  -6   6  123.29   14.20
  -5  -6   6  123.29   14.20
  -4  -6   6  266.57   17.90
  -4  -6   6  266.57   17.90
   3   6  -6   10.20    2.20
   3   6  -6   10.20    2.20
  -3  -6   6    7.90    1.30
  -3  -6   6    7.90    1.30
   2   6  -6  381.96   17.10
   2   6  -6  381.96   17.10
  -2  -6   6  339.57   19.50
  -2  -6   6  339.57   19.50
  -2  -6   6  375.56   16.90
  -2  -6   6  375.56   16.90
   1   6  -6  342.17   15.70
   1   6  -6  342.17   15.70
  -1  -6   6  325.57   15.20
  -1  -6   6  318.97   17.20
  -1  -6   6  325.57   15.20
  -1  -6   6  318.97   17.20
   0   6  -6    5.90    2.90
   0   6  -6    5.90    2.90
  -1   6  -6  182.88   10.20
  -1   6  -6  182.88   10.20
   1  -6   6  234.88   11.40
   1  -6   6  234.88   11.40
   2  -6   6  279.87   14.60
   2  -6   6  279.87   14.60
  -3   6  -6   62.89    5.30
  -3   6  -6   62.89    5.30
  -4   6  -6  224.98   12.10
  -4   6  -6  224.98   12.10
  -4   6  -6  232.28   11.40
  -4   6  -6  232.28   11.40
  -5   6  -6   54.99    6.10
  -5   6  -6   52.19    4.70
  -5   6  -6   52.29    4.70
  -5   6  -6   54.99    6.10
  -7  -5   6   10.60    1.90
  -7  -5   6   10.60    1.90
  -5  -5   6  304.27   19.60
  -5  -5   6  304.27   19.60
  -4  -5   6  143.99   12.60
  -4  -5   6  143.99   12.60
   3   5  -6  152.18    7.30
   3   5  -6  152.18    7.30
  -3  -5   6  139.79   11.50
  -3  -5   6  139.79   11.50
   2   5  -6  899.41   41.10
   2   5  -6  899.41   41.10
  -2  -5   6  906.71   40.70
  -2  -5   6  863.81   43.10
  -2  -5   6  863.81   43.10
  -2  -5   6  906.71   40.70
   1   5  -6  238.18   11.10
   1   5  -6  238.18   11.10
  -1  -5   6  229.58   12.80
  -1  -5   6  229.58   12.80
   0   5  -6  252.97   12.30
   0   5  -6  252.97   12.30
   0  -5   6  269.07   13.50
   0  -5   6  269.07   13.50
  -1   5  -6  623.74   27.60
  -1   5  -6  623.74   27.60
   1  -5   6  548.95   29.20
   1  -5   6  548.95   29.20
   2  -5   6   20.30    3.60
   2  -5   6   20.30    3.60
  -3   5  -6  249.18   12.50
  -3   5  -6  249.18   12.50
  -4   5  -6  407.76   18.80
  -4   5  -6  407.66   18.80
  -4   5  -6  388.66   19.50
  -4   5  -6  388.66   19.50
  -5   5  -6    1.40    2.10
  -5   5  -6    1.40    2.10
  -5   5  -6    1.90    3.40
  -5   5  -6    1.90    3.40
  -6   5  -6   94.79    7.20
  -6   5  -6   94.79    7.20
  -8  -4   6   84.69   12.10
  -8  -4   6   84.69   12.10
  -7  -4   6    3.80    1.80
  -7  -4   6    3.80    1.80
  -6  -4   6   65.19   10.80
  -6  -4   6   65.19   10.80
  -5  -4   6  272.47   17.90
  -5  -4   6  272.47   17.90
  -4  -4   6    1.50    1.10
  -4  -4   6    1.50    1.10
  -3  -4   6  580.84   30.20
  -3  -4   6  580.84   30.20
   2   4  -6  442.86   20.50
   2   4  -6  442.86   20.50
   1   4  -6    1.20    1.40
   1   4  -6    1.20    1.40
  -1  -4   6    0.80    0.50
  -1  -4   6    0.80    0.50
   0   4  -6 1244.18   54.69
   0   4  -6 1244.18   54.69
   0  -4   6 1140.59   55.49
   0  -4   6 1140.59   55.49
  -1   4  -6  735.23   35.80
  -1   4  -6  735.23   35.80
   1  -4   6  816.72   36.40
   1  -4   6  816.72   36.40
   2  -4   6   70.69    4.70
   2  -4   6   70.69    4.70
  -3   4  -6  488.95   23.90
  -3   4  -6  488.95   23.90
   3  -4   6  516.95   24.00
   3  -4   6  516.95   24.00
  -4   4  -6  160.78    7.90
  -4   4  -6  160.78    7.90
  -4   4  -6  162.08    8.90
  -4   4  -6  162.08    8.90
  -5   4  -6   71.89    6.20
  -5   4  -6   71.89    6.20
  -6   4  -6  177.48   10.10
  -6   4  -6  177.48   10.10
  -8  -3   6   78.49   11.20
  -8  -3   6   78.49   11.20
  -7  -3   6   -0.50    1.30
  -7  -3   6   -0.50    1.30
  -6  -3   6  243.48   16.40
  -6  -3   6  243.48   16.40
  -5  -3   6  165.08   13.30
  -5  -3   6  165.08   13.30
  -4  -3   6   54.99    9.10
  -4  -3   6   54.99    9.10
  -3  -3   6  857.21   42.50
  -3  -3   6  857.21   42.50
   2   3  -6  499.25   21.30
   2   3  -6  499.25   21.30
  -2  -3   6  418.06   23.40
  -2  -3   6  418.06   23.40
   1   3  -6  523.75   23.80
   1   3  -6  523.75   23.80
  -1  -3   6  509.75   25.30
  -1  -3   6  509.75   25.30
   0   3  -6 1238.68   55.19
   0   3  -6 1238.68   55.19
   0  -3   6 1167.28   55.89
   0  -3   6 1167.28   55.89
  -1   3  -6  335.47   16.90
  -1   3  -6  335.47   16.90
   1  -3   6  385.56   17.30
   1  -3   6  385.56   17.30
  -3   3  -6  945.51   43.90
  -3   3  -6  945.51   43.90
  -4   3  -6   15.10    1.70
  -4   3  -6   15.10    1.70
  -6   3  -6  141.39    8.40
  -6   3  -6  141.39    8.40
  -7   3  -6    1.10    1.80
  -7   3  -6    1.10    1.80
  -8  -2   6   15.70    2.40
  -8  -2   6   15.70    2.40
  -7  -2   6   84.79   10.80
  -7  -2   6   84.79   10.80
  -6  -2   6  309.37   19.20
  -6  -2   6  309.37   19.20
  -5  -2   6    6.70    1.40
  -5  -2   6    6.70    1.40
  -3  -2   6  631.54   32.20
  -3  -2   6  631.54   32.20
   2   2  -6   -1.80    1.10
   2   2  -6   -1.80    1.10
  -2  -2   6    1.90    0.80
  -2  -2   6    1.90    0.80
   1   2  -6 1518.15   68.89
   1   2  -6 1518.15   68.89
  -1  -2   6 1495.15   70.39
  -1  -2   6 1495.15   70.39
   0   2  -6 1947.11   87.09
   0   2  -6 1947.11   87.09
   0  -2   6 1859.91   87.79
   0  -2   6 1859.91   87.79
  -1   2  -6  147.09    8.00
  -1   2  -6  147.09    8.00
   1  -2   6  178.98    8.30
   1  -2   6  178.98    8.30
  -3   2  -6  555.24   26.10
  -3   2  -6  555.24   26.10
  -4   2  -6  228.48   11.60
  -4   2  -6  228.48   11.60
  -5   2  -6  299.17   15.10
  -5   2  -6  299.17   15.10
  -6   2  -6    9.30    1.90
  -6   2  -6    9.30    1.90
  -7   2  -6   51.29    5.10
  -7   2  -6   51.29    5.10
   9   1  -6   28.60    2.30
   9   1  -6   28.60    2.30
   8   1  -6   -0.70    1.20
   8   1  -6   -0.70    1.20
  -7  -1   6  375.56   21.60
  -7  -1   6  375.56   21.60
  -6  -1   6  681.63   35.20
  -6  -1   6  681.63   35.20
  -5  -1   6  132.19   12.40
  -5  -1   6  132.19   12.40
  -4  -1   6  497.55   26.90
  -4  -1   6  497.55   26.90
  -3  -1   6  304.17   14.00
  -3  -1   6  304.17   14.00
   2   1  -6  442.86   20.40
   2   1  -6  442.86   20.40
   1   1  -6 1828.82   78.29
   1   1  -6 1828.82   78.29
  -1  -1   6 1591.84   79.39
  -1  -1   6 1591.84   79.39
   0   1  -6  283.17   13.10
   0   1  -6  283.17   13.10
   0  -1   6  280.17   14.00
   0  -1   6  280.17   14.00
  -1   1  -6  584.74   27.00
  -1   1  -6  584.74   27.00
  -2   1  -6 1502.05   69.09
  -2   1  -6 1502.05   69.09
  -3   1  -6   68.99    4.50
  -3   1  -6   68.99    4.50
  -4   1  -6  431.76   20.60
  -4   1  -6  431.76   20.60
  -5   1  -6  185.98    9.80
  -5   1  -6  185.98    9.80
  -6   1  -6    2.50    1.40
  -6   1  -6    2.50    1.40
  -7   1  -6   21.50    2.40
  -7   1  -6   21.50    2.40
   9   0  -6   16.40    2.40
   9   0  -6   16.40    2.40
  -9   0   6    6.80    1.60
  -9   0   6    6.80    1.60
   8   0  -6   20.40    1.80
   8   0  -6   20.40    1.80
   7   0  -6  180.98    8.50
   7   0  -6  180.98    8.50
   6   0  -6   67.79    3.30
   6   0  -6   67.79    3.30
   5   0  -6  348.57   18.00
   5   0  -6  348.57   18.00
  -5   0   6  454.95   20.50
  -5   0   6  454.85   20.50
   4   0  -6 1152.18   56.39
   4   0  -6 1152.18   56.39
  -4   0   6 1325.17   57.99
  -4   0   6 1325.07   57.99
  -3   0   6   11.10    4.80
  -3   0   6   11.10    4.80
   2   0  -6  505.65   22.80
   2   0  -6  505.65   22.80
  -2   0   6  486.85   23.50
  -2   0   6  486.85   23.50
   1   0  -6 1288.47   56.39
   1   0  -6 1288.47   56.39
  -1   0   6 1177.08   56.69
  -1   0   6 1177.08   56.69
   0   0  -6   -0.30    1.30
   0   0  -6   -0.30    1.30
  -1   0  -6  652.63   30.10
  -1   0  -6  652.63   30.10
  -2   0  -6  778.12   36.00
  -2   0  -6  778.12   36.00
  -3   0  -6   80.89    4.90
  -3   0  -6   80.89    4.90
  -4   0  -6  583.44   27.40
  -4   0  -6  583.44   27.40
  -5   0  -6   95.09    6.00
  -5   0  -6   95.09    6.00
  -6   0  -6   57.89    5.10
  -6   0  -6   57.89    5.10
  -7   0  -6   57.39    5.30
  -7   0  -6   57.39    5.30
   9  -1  -6    1.70    1.80
   9  -1  -6    1.70    1.80
   8  -1  -6   89.69    4.60
   8  -1  -6   89.69    4.60
   7  -1  -6   84.09    4.20
   7  -1  -6   84.09    4.20
   6  -1  -6   11.40    1.30
   6  -1  -6   11.40    1.30
  -6   1   6   16.00    8.30
  -6   1   6   16.00    8.30
   5  -1  -6  654.93   31.00
   5  -1  -6  654.93   31.00
  -5   1   6  701.83   33.20
  -5   1   6  701.73   33.20
   4  -1  -6  620.74   28.50
   4  -1  -6  620.74   28.50
   3  -1  -6  219.68    9.30
   3  -1  -6  219.68    9.30
  -3   1   6  172.48   10.70
  -3   1   6  172.48   10.70
   2  -1  -6 1935.41   87.59
   2  -1  -6 1935.41   87.59
  -2   1   6 1896.31   88.09
  -2   1   6 1896.41   88.09
   1  -1  -6  486.95   20.00
   1  -1  -6  486.95   20.00
  -1   1   6  377.66   20.20
  -1   1   6  377.66   20.20
   0  -1  -6  380.96   16.60
   0  -1  -6  380.96   16.60
   0   1   6  332.77   16.60
   0   1   6  332.77   16.60
   1   1   6 1342.07   61.39
   1   1   6 1341.97   61.39
  -2  -1  -6  249.78   12.00
  -2  -1  -6  249.78   12.00
  -3  -1  -6  391.56   18.60
  -3  -1  -6  391.56   18.60
  -4  -1  -6  392.16   18.80
  -4  -1  -6  392.16   18.80
  -5  -1  -6    3.50    1.40
  -5  -1  -6    3.50    1.40
  -6  -1  -6  108.19    7.00
  -6  -1  -6  108.19    7.00
   8  -2  -6   81.89    4.40
   8  -2  -6   81.89    4.40
   7  -2  -6   70.69    3.90
   7  -2  -6   70.69    3.90
  -7   2   6   93.49   10.20
  -7   2   6   93.59   10.20
   6  -2  -6  106.79    5.70
   6  -2  -6  106.79    5.70
  -6   2   6   80.49    9.60
  -6   2   6   80.49    9.60
   5  -2  -6  298.27   14.00
   5  -2  -6  298.27   14.00
  -5   2   6  306.37   16.60
  -5   2   6  306.27   16.60
   4  -2  -6   94.09    4.40
   4  -2  -6   94.09    4.40
  -4   2   6   74.59    7.10
  -4   2   6   74.49    7.10
   3  -2  -6  840.02   38.30
   3  -2  -6  840.02   38.30
  -3   2   6  831.42   39.10
  -3   2   6  831.42   39.10
   2  -2  -6 1481.35   68.09
   2  -2  -6 1474.85   68.19
   2  -2  -6 1474.85   68.19
   2  -2  -6 1481.35   68.09
  -2   2   6 1514.55   68.59
  -2   2   6 1514.45   68.59
   1  -2  -6   -4.40    1.20
   1  -2  -6   -4.40    1.20
  -1   2   6   -3.90    2.00
  -1   2   6   -3.90    2.00
   0  -2  -6  556.54   28.40
   0  -2  -6  556.54   28.40
   0   2   6  679.13   28.50
   0   2   6  679.13   28.50
  -1  -2  -6  619.34   28.60
  -1  -2  -6  619.34   28.60
   1   2   6  617.44   28.40
   1   2   6  617.44   28.40
  -2  -2  -6   32.00    2.90
  -2  -2  -6   32.00    2.90
  -3  -2  -6  561.24   26.40
  -3  -2  -6  561.24   26.40
  -4  -2  -6  126.29    7.10
  -4  -2  -6  126.29    7.10
  -5  -2  -6   18.20    2.10
  -5  -2  -6   18.20    2.10
  -6  -2  -6  144.39    8.70
  -6  -2  -6  144.39    8.70
   8  -3  -6   87.39    4.80
   8  -3  -6   87.39    4.80
  -8   3   6  103.69   10.30
  -8   3   6  103.69   10.30
   7  -3  -6    0.60    1.60
   7  -3  -6    0.60    1.60
   6  -3  -6  203.18    9.90
   6  -3  -6  203.18    9.90
  -6   3   6  220.28   13.30
  -6   3   6  220.28   13.30
   5  -3  -6  377.66   18.50
   5  -3  -6  377.66   18.50
  -5   3   6  426.56   20.30
  -5   3   6  426.56   20.30
   4  -3  -6   22.30    2.10
   4  -3  -6   22.30    2.10
  -4   3   6    3.00    6.00
  -4   3   6    3.00    6.00
   3  -3  -6  877.41   39.70
   3  -3  -6  877.41   39.70
  -3   3   6  849.22   40.40
  -3   3   6  849.22   40.40
   2  -3  -6  413.06   18.20
   2  -3  -6  413.06   18.20
  -2   3   6  371.96   18.70
  -2   3   6  371.96   18.70
  -1   3   6  441.46   20.70
  -1   3   6  441.56   20.70
   0   3   6 1152.78   52.89
   0   3   6 1152.88   52.89
  -1  -3  -6  181.98    8.70
  -1  -3  -6  181.98    8.70
   1   3   6  171.58    8.40
   1   3   6  171.58    8.40
  -2  -3  -6  276.47   13.70
  -2  -3  -6  276.47   13.70
   2   3   6  288.27   13.10
   2   3   6  288.27   13.10
  -4  -3  -6   16.90    2.00
  -4  -3  -6   16.90    2.00
  -5  -3  -6  120.89    7.90
  -5  -3  -6  120.89    7.90
  -6  -3  -6   59.19    6.20
  -6  -3  -6   59.19    6.20
   8  -4  -6   28.20    2.90
   8  -4  -6   28.20    2.90
  -8   4   6   31.60    9.60
  -8   4   6   31.60    9.60
   7  -4  -6   30.90    3.10
   7  -4  -6   30.90    3.10
  -7   4   6   37.60    8.90
  -7   4   6   37.50    8.90
   6  -4  -6  210.98   10.10
   6  -4  -6  210.98   10.10
   5  -4  -6   48.00    3.00
   5  -4  -6   48.00    3.00
  -5   4   6   68.59    8.00
  -5   4   6   68.59    8.00
   4  -4  -6  179.48    8.40
   4  -4  -6  179.48    8.40
  -4   4   6  164.78   10.10
  -4   4   6  164.78   10.10
   3  -4  -6  578.44   26.30
   3  -4  -6  578.44   26.30
  -3   4   6  562.74   27.10
  -3   4   6  562.74   27.10
   2  -4  -6   27.90    2.20
   2  -4  -6   27.90    2.20
  -2   4   6   32.90    4.00
  -2   4   6   32.90    4.00
   0   4   6  324.27   15.30
   0   4   6  324.27   15.30
  -1  -4  -6   15.40    1.50
  -1  -4  -6   15.40    1.50
   1   4   6   17.40    2.00
   1   4   6   17.40    2.00
  -2  -4  -6  281.07   14.90
  -2  -4  -6  281.07   14.90
   2   4   6  334.17   14.40
   2   4   6  334.17   14.40
  -3  -4  -6   79.79    6.60
  -3  -4  -6   79.79    6.60
   3   4   6  100.09    4.70
   3   4   6  100.09    4.70
  -4  -4  -6   16.00    2.10
  -4  -4  -6   16.00    2.10
  -5  -4  -6   96.69    7.70
  -5  -4  -6   96.69    7.70
   7  -5  -6   53.19    3.80
   7  -5  -6   53.19    3.80
  -7   5   6   72.59    9.30
  -7   5   6   72.59    9.30
   6  -5  -6   91.19    5.40
   6  -5  -6   91.19    5.40
  -6   5   6   95.19    8.70
  -6   5   6   95.19    8.70
   5  -5  -6    2.10    1.90
   5  -5  -6    2.10    1.90
   4  -5  -6  278.77   13.00
   4  -5  -6  278.77   13.00
  -4   5   6  271.97   14.40
  -4   5   6  271.87   14.40
   3  -5  -6  186.08    8.70
   3  -5  -6  186.08    8.70
  -3   5   6  174.28    9.80
  -3   5   6  174.28    9.80
   2  -5  -6   29.50    2.40
   2  -5  -6   29.50    2.40
  -2   5   6   32.70    3.80
  -2   5   6   32.70    3.80
   1  -5  -6  415.46   18.90
   1  -5  -6  415.46   18.90
  -1   5   6  395.96   19.20
  -1   5   6  395.86   19.20
   0   5   6  218.18   10.70
   0   5   6  218.18   10.60
   1   5   6  160.88    8.00
   1   5   6  160.78    8.00
  -3  -5  -6   51.79    4.50
  -3  -5  -6   51.79    4.50
   3   5   6   58.89    3.50
   3   5   6   58.89    3.50
   4   5   6   39.90    2.80
   4   5   6   39.90    2.80
   7  -6  -6   71.79    4.50
   7  -6  -6   71.79    4.50
  -7   6   6   71.09    8.10
  -7   6   6   71.09    8.10
   6  -6  -6   40.40    3.20
   6  -6  -6   40.40    3.20
  -6   6   6   26.50    8.50
  -6   6   6   26.50    8.50
   5  -6  -6   41.30    3.40
   5  -6  -6   41.30    3.40
  -5   6   6   43.50    7.90
  -5   6   6   43.50    7.90
   4  -6  -6  228.28   10.80
   4  -6  -6  228.28   10.80
  -4   6   6  217.58   12.60
  -4   6   6  217.68   12.50
   2  -6  -6  127.69    6.80
   2  -6  -6  127.69    6.80
  -2   6   6  129.19    7.40
  -2   6   6  129.19    7.40
   1  -6  -6  195.68    9.30
   1  -6  -6  195.68    9.30
  -1   6   6  186.28    9.80
  -1   6   6  186.28    9.80
   0   6   6    3.80    3.10
   0   6   6    3.80    3.10
   1   6   6  165.78    8.40
   1   6   6  165.78    8.40
   2   6   6  155.48    7.80
   2   6   6  155.38    7.80
   3   6   6   30.40    3.30
   3   6   6   30.40    3.30
   4   6   6   80.99    4.70
   4   6   6   80.89    4.70
   5  -7  -6   88.69    5.20
   5  -7  -6   88.69    5.20
  -5   7   6   83.79    7.80
  -5   7   6   83.79    7.80
   4  -7  -6   72.99    4.40
   4  -7  -6   72.99    4.40
  -4   7   6   65.59    6.70
  -4   7   6   65.59    6.70
   3  -7  -6    7.80    2.50
   3  -7  -6    7.80    2.50
  -3   7   6    3.60    5.20
  -3   7   6    3.60    5.20
   2  -7  -6  188.28    9.10
   2  -7  -6  188.28    9.10
  -2   7   6  177.78   10.00
  -2   7   6  177.88   10.00
   1  -7  -6   42.40    3.30
   1  -7  -6   42.40    3.30
  -1   7   6   42.30    4.80
  -1   7   6   42.30    4.80
   1   7   6  103.39    7.50
   1   7   6  103.49    7.50
   2   7   6   30.40    4.10
   2   7   6   30.30    4.10
   4  -8  -6   10.60    2.90
   4  -8  -6   10.60    2.90
  -4   8   6   13.80    6.60
  -4   8   6   13.80    6.60
   3  -8  -6   34.50    3.30
   3  -8  -6   34.50    3.30
  -3   8   6   27.50    5.70
  -3   8   6   27.50    5.70
   2  -8  -6   61.39    4.10
   2  -8  -6   61.39    4.10
  -2   8   6   60.19    5.80
  -2   8   6   60.19    5.80
   1  -8  -6    2.20    2.60
   1  -8  -6    2.20    2.60
  -1   8   6   -8.00    4.60
  -1   8   6   -8.00    4.60
   0   8   6   60.39    5.30
   0   8   6   60.69    5.30
   2   9  -7   46.50    4.40
   2   9  -7   46.50    4.40
  -2  -9   7   40.20    3.40
  -2  -9   7   54.29    9.20
  -2  -9   7   40.20    3.40
  -2  -9   7   54.29    9.20
   1   9  -7    4.00    3.70
   1   9  -7    4.00    3.70
  -1  -9   7    2.40    1.20
  -1  -9   7   12.40    2.30
  -1  -9   7   12.40    2.30
  -1  -9   7    2.40    1.20
   0   9  -7   48.10    4.90
   0   9  -7   48.10    4.90
   0  -9   7   51.19    4.50
   0  -9   7   51.19    4.50
   1  -9   7   26.20    3.00
   1  -9   7   26.20    3.00
  -4  -8   7    9.60    1.80
  -4  -8   7    9.60    1.80
   3   8  -7   51.29    4.10
   3   8  -7   51.29    4.10
  -3  -8   7   66.59   10.10
  -3  -8   7   66.59   10.10
  -3  -8   7   52.49    3.30
  -3  -8   7   52.49    3.30
   2   8  -7    7.60    3.00
   2   8  -7    7.60    3.00
  -2  -8   7   14.50    2.40
  -2  -8   7   14.50    2.40
   1   8  -7   62.59    4.50
   1   8  -7   62.59    4.50
  -1  -8   7   62.99    3.60
  -1  -8   7   62.99    3.60
  -1  -8   7   67.59    7.90
  -1  -8   7   67.59    7.90
   0   8  -7   69.89    5.60
   0   8  -7   69.89    5.60
   0  -8   7  111.89    8.70
   0  -8   7   93.09    4.80
   0  -8   7  111.89    8.70
   0  -8   7   93.09    4.80
   1  -8   7   -0.10    0.90
   1  -8   7   -0.10    0.90
  -2   8  -7   74.39    6.10
  -2   8  -7   74.39    6.10
   2  -8   7   83.29    8.80
   2  -8   7   83.29    8.80
  -3   8  -7   70.89    7.40
  -3   8  -7   70.89    7.40
  -5  -7   7    1.60    1.60
  -5  -7   7    1.60    1.60
   4   7  -7   81.19    5.00
   4   7  -7   81.19    5.00
  -4  -7   7  108.69   12.50
  -4  -7   7  108.69   12.50
   3   7  -7  116.69    6.30
   3   7  -7  116.69    6.30
  -3  -7   7  129.29   12.10
  -3  -7   7  116.19    5.80
  -3  -7   7  116.19    5.80
  -3  -7   7  129.29   12.10
   2   7  -7   35.00    3.20
   2   7  -7   35.00    3.20
  -2  -7   7   25.80    2.10
  -2  -7   7   25.80    2.10
   1   7  -7  103.29    5.60
   1   7  -7  103.29    5.60
  -1  -7   7   83.59    9.10
  -1  -7   7  114.49    5.60
  -1  -7   7   83.59    9.10
  -1  -7   7  114.49    5.60
   0   7  -7   87.79    5.60
   0   7  -7   87.79    5.60
   0  -7   7  104.89    7.70
   0  -7   7  104.89    7.70
   1  -7   7   40.50    5.80
   1  -7   7   40.50    5.80
   2  -7   7  183.68   11.10
   2  -7   7  183.68   11.10
  -4   7  -7   27.10    3.10
  -4   7  -7   46.40    4.60
  -4   7  -7   46.40    4.60
  -4   7  -7   27.10    3.10
  -6  -6   7    4.20    1.80
  -6  -6   7    4.20    1.80
  -5  -6   7    9.80    2.00
  -5  -6   7    9.80    2.00
   4   6  -7  232.28   11.20
   4   6  -7  232.28   11.20
   2   6  -7  157.48    7.30
   2   6  -7  157.48    7.30
  -2  -6   7  139.29   10.40
  -2  -6   7  140.49    6.90
  -2  -6   7  140.49    6.90
  -2  -6   7  139.29   10.40
   1   6  -7  349.67   16.00
   1   6  -7  349.67   16.00
  -1  -6   7  327.87   17.80
  -1  -6   7  327.87   17.80
   0  -6   7    0.50    0.60
   0  -6   7    0.50    0.60
  -1   6  -7  168.28    9.80
  -1   6  -7  168.28    9.80
   1  -6   7  226.48   11.10
   1  -6   7  226.48   11.10
   2  -6   7  312.77   16.10
   2  -6   7  312.77   16.10
  -3   6  -7   -0.50    1.60
  -3   6  -7   -0.50    1.60
   3  -6   7   -0.70    0.70
   3  -6   7   -0.70    0.70
  -4   6  -7  181.98   11.40
  -4   6  -7  212.58   10.30
  -4   6  -7  212.78   10.30
  -4   6  -7  181.98   11.40
  -5   6  -7   69.39    5.20
  -5   6  -7   64.19    6.40
  -5   6  -7   64.19    6.40
  -5   6  -7   69.39    5.20
  -7  -5   7   69.89   12.80
  -7  -5   7   69.89   12.80
  -6  -5   7    0.60    1.70
  -6  -5   7    0.60    1.70
  -5  -5   7  123.99   15.80
  -5  -5   7  123.99   15.80
  -4  -5   7  126.09   13.00
  -4  -5   7  126.09   13.00
   3   5  -7    5.90    2.10
   3   5  -7    5.90    2.10
   2   5  -7  539.95   23.40
   2   5  -7  539.95   23.40
  -2  -5   7  464.75   25.90
  -2  -5   7  464.75   25.90
   1   5  -7  307.07   14.30
   1   5  -7  307.07   14.30
  -1  -5   7  299.07   16.20
  -1  -5   7  299.07   16.20
   0   5  -7   90.39    5.20
   0   5  -7   90.39    5.20
   0  -5   7  103.49    6.70
   0  -5   7  103.49    6.70
  -1   5  -7  285.17   15.00
  -1   5  -7  285.17   15.00
   1  -5   7  344.67   15.80
   1  -5   7  344.67   15.80
  -3   5  -7  150.98    8.90
  -3   5  -7  150.98    8.90
   3  -5   7  170.58    9.40
   3  -5   7  170.58    9.40
  -4   5  -7  329.77   15.70
  -4   5  -7  329.77   15.70
  -5   5  -7   27.70    4.10
  -5   5  -7   27.80    4.10
  -6   5  -7   52.99    5.90
  -6   5  -7   52.99    5.90
  -8  -4   7   68.09   12.30
  -8  -4   7   68.09   12.30
  -7  -4   7    5.90    1.80
  -7  -4   7    5.90    1.80
  -6  -4   7    0.60    2.20
  -6  -4   7    0.60    2.20
  -5  -4   7  245.18   17.50
  -5  -4   7  245.18   17.50
  -4  -4   7  136.19   13.10
  -4  -4   7  136.19   13.10
   3   4  -7  235.28   10.20
   3   4  -7  235.28   10.20
  -3  -4   7  181.88   14.30
  -3  -4   7  181.88   14.30
   2   4  -7  863.31   37.10
   2   4  -7  863.31   37.10
  -2  -4   7  744.53   39.40
  -2  -4   7  744.53   39.40
  -1  -4   7   89.99    8.20
  -1  -4   7   89.99    8.20
   0   4  -7  777.72   34.00
   0   4  -7  777.72   34.00
   0  -4   7  689.03   34.70
   0  -4   7  689.03   34.70
  -1   4  -7  451.05   22.10
  -1   4  -7  451.05   22.10
   1  -4   7  496.85   22.70
   1  -4   7  496.85   22.70
   2  -4   7    0.00    0.40
   2  -4   7    0.00    0.40
  -3   4  -7  441.86   21.20
  -3   4  -7  441.86   21.20
  -4   4  -7  227.68   10.90
  -4   4  -7  230.38   12.30
  -4   4  -7  227.68   10.90
  -4   4  -7  230.38   12.30
  -5   4  -7    8.00    1.90
  -5   4  -7    8.00    1.90
  -6   4  -7  139.39    8.70
  -6   4  -7  139.39    8.70
  -8  -3   7   75.89   11.90
  -8  -3   7   75.89   11.90
  -7  -3   7    1.40    1.90
  -7  -3   7    1.40    1.90
  -6  -3   7  147.99   14.20
  -6  -3   7  147.99   14.20
  -5  -3   7  201.68   15.90
  -5  -3   7  201.68   15.90
  -4  -3   7   -0.10    1.30
  -4  -3   7   -0.10    1.30
  -3  -3   7  589.74   30.90
  -3  -3   7  589.74   30.90
   2   3  -7  964.00   43.10
   2   3  -7  964.00   43.10
  -2  -3   7  913.81   45.50
  -2  -3   7  913.81   45.50
   1   3  -7  163.78    8.10
   1   3  -7  163.78    8.10
  -1  -3   7  173.88   10.10
  -1  -3   7  173.88   10.10
   0   3  -7 1272.97   57.19
   0   3  -7 1272.97   57.19
   0  -3   7 1220.78   57.99
   0  -3   7 1220.78   57.99
  -1   3  -7  224.58   11.40
  -1   3  -7  224.58   11.40
   1  -3   7  249.88   11.90
   1  -3   7  249.88   11.90
  -3   3  -7  356.76   17.30
  -3   3  -7  356.76   17.30
  -4   3  -7    7.30    1.70
  -4   3  -7    7.30    1.70
  -5   3  -7  152.38    8.80
  -5   3  -7  152.38    8.80
  -6   3  -7  152.78    9.00
  -6   3  -7  152.78    9.00
  -8  -2   7  137.49   13.90
  -8  -2   7  137.49   13.90
  -7  -2   7    7.80    1.90
  -7  -2   7    7.80    1.90
  -6  -2   7  291.27   19.70
  -6  -2   7  291.27   19.70
  -5  -2   7  125.39   12.90
  -5  -2   7  125.39   12.90
  -4  -2   7   77.49   10.30
  -4  -2   7   77.49   10.30
  -3  -2   7  683.03   38.30
  -3  -2   7  683.03   38.30
  -3  -2   7  846.72   35.10
  -3  -2   7  846.72   35.10
   2   2  -7  200.88    9.10
   2   2  -7  200.88    9.10
  -2  -2   7  181.58   12.10
  -2  -2   7  181.58   12.10
   1   2  -7  890.41   41.70
   1   2  -7  890.41   41.70
  -1  -2   7  926.61   43.20
  -1  -2   7  926.61   43.20
   0   2  -7 1527.85   69.49
   0   2  -7 1527.85   69.49
   0  -2   7 1505.05   70.29
   0  -2   7 1505.05   70.29
  -1   2  -7   56.69    4.10
  -1   2  -7   56.69    4.10
   1  -2   7   76.09    4.30
   1  -2   7   76.09    4.30
  -3   2  -7  334.37   16.20
  -3   2  -7  334.37   16.20
  -4   2  -7   10.80    1.80
  -4   2  -7   10.80    1.80
  -5   2  -7  111.79    7.10
  -5   2  -7  111.79    7.10
  -6   2  -7   52.89    5.10
  -6   2  -7   52.89    5.10
  -8  -1   7    2.80    1.50
  -8  -1   7    2.80    1.50
  -7  -1   7  207.48   16.80
  -7  -1   7  207.48   16.80
  -6  -1   7  761.82   39.90
  -6  -1   7  761.82   39.90
  -5  -1   7    3.00    1.50
  -5  -1   7    3.00    1.50
  -4  -1   7  445.46   25.00
  -4  -1   7  445.46   25.00
  -3  -1   7  748.73   37.30
  -3  -1   7  748.73   37.30
   1   1  -7 1531.55   66.79
   1   1  -7 1531.55   66.79
  -1  -1   7 1386.66   67.99
  -1  -1   7 1386.66   67.99
   0   1  -7  934.71   42.30
   0   1  -7  934.71   42.30
   0  -1   7  907.21   43.10
   0  -1   7  907.21   43.10
  -1   1  -7  244.48   11.70
  -1   1  -7  244.48   11.70
  -3   1  -7  209.78   10.60
  -3   1  -7  209.78   10.60
  -4   1  -7  270.07   13.40
  -4   1  -7  270.07   13.40
  -5   1  -7  228.08   11.80
  -5   1  -7  228.08   11.80
  -6   1  -7   21.50    2.20
  -6   1  -7   21.50    2.20
   9   0  -7   34.30    2.70
   9   0  -7   34.30    2.70
   8   0  -7    2.60    1.40
   8   0  -7    2.60    1.40
  -8   0   7    4.70    2.00
  -8   0   7    4.70    2.00
   7   0  -7  191.08    8.90
   7   0  -7  191.08    8.90
   6   0  -7  156.58    7.30
   6   0  -7  156.58    7.30
   5   0  -7  121.09    5.70
   5   0  -7  121.09    5.70
  -4   0   7 1302.37   60.99
  -4   0   7 1302.57   60.99
  -3   0   7  248.78   13.00
  -3   0   7  248.78   13.00
   2   0  -7  787.52   38.90
   2   0  -7  787.52   38.90
  -2   0   7  912.51   39.50
  -2   0   7  912.61   39.50
   1   0  -7 2163.88   98.29
   1   0  -7 2163.88   98.29
  -1   0   7 2136.09   98.59
  -1   0   7 2135.89   98.59
   0   0  -7  103.79    5.20
   0   0  -7  103.79    5.20
   0   0   7   99.89    5.30
   0   0   7   99.89    5.30
  -1   0  -7  909.81   41.90
  -1   0  -7  909.81   41.90
  -2   0  -7  761.22   35.60
  -2   0  -7  761.22   35.60
  -3   0  -7    1.20    1.10
  -3   0  -7    1.20    1.10
  -4   0  -7  370.96   17.90
  -4   0  -7  370.96   17.90
  -5   0  -7  175.98    9.50
  -5   0  -7  175.98    9.50
  -6   0  -7   10.30    1.80
  -6   0  -7   10.30    1.80
  -8   1   7  135.19   13.50
  -8   1   7  135.09   13.60
   7  -1  -7  155.68    7.40
   7  -1  -7  155.68    7.40
   6  -1  -7   12.90    1.40
   6  -1  -7   12.90    1.40
  -6   1   7   26.80   11.00
  -6   1   7   26.90   11.00
   5  -1  -7  432.56   19.90
   5  -1  -7  432.56   19.90
   4  -1  -7  678.63   33.80
   4  -1  -7  678.63   33.80
  -4   1   7  805.32   35.60
  -4   1   7  805.32   35.60
  -3   1   7   14.90    4.70
  -3   1   7   14.90    4.70
   2  -1  -7  800.92   35.30
   2  -1  -7  800.92   35.30
  -2   1   7  736.83   35.80
  -2   1   7  736.83   35.80
   1  -1  -7  722.93   29.60
   1  -1  -7  722.93   29.60
  -1   1   7  562.94   29.80
  -1   1   7  562.94   29.80
   0  -1  -7  165.88    7.60
   0  -1  -7  165.88    7.60
   0   1   7  146.89    7.50
   0   1   7  146.89    7.50
   1   1   7 1364.36   62.49
   1   1   7 1364.36   62.49
  -2  -1  -7  162.98    8.60
  -2  -1  -7  162.98    8.60
  -3  -1  -7  159.48    8.30
  -3  -1  -7  159.48    8.30
  -4  -1  -7  388.06   18.60
  -4  -1  -7  388.06   18.60
  -5  -1  -7   10.40    1.90
  -5  -1  -7   10.40    1.90
  -6  -1  -7   60.99    5.30
  -6  -1  -7   60.99    5.30
   8  -2  -7   94.49    4.90
   8  -2  -7   94.49    4.90
   7  -2  -7  103.89    5.40
   7  -2  -7  103.89    5.40
  -7   2   7  152.38   15.60
  -7   2   7  152.38   15.60
  -6   2   7    4.00   10.20
  -6   2   7    4.00   10.20
   5  -2  -7  560.44   27.10
   5  -2  -7  560.44   27.10
  -5   2   7  626.44   29.50
  -5   2   7  626.34   29.50
   4  -2  -7  153.38    7.30
   4  -2  -7  153.38    7.30
  -4   2   7  157.68    9.90
  -4   2   7  157.68    9.90
   3  -2  -7  454.15   21.40
   3  -2  -7  454.15   21.40
  -3   2   7  474.15   22.50
  -3   2   7  474.35   22.50
   2  -2  -7 1092.89   48.40
   2  -2  -7 1092.89   48.40
  -2   2   7 1019.20   48.90
  -2   2   7 1019.20   48.90
   1  -2  -7  146.09    6.50
   1  -2  -7  146.09    6.50
  -1   2   7  120.89    6.80
  -1   2   7  120.89    6.80
   0  -2  -7  448.76   22.20
   0  -2  -7  448.76   22.20
   0   2   7  509.75   22.20
   0   2   7  509.75   22.20
  -1  -2  -7  588.54   27.30
  -1  -2  -7  588.54   27.30
   1   2   7  586.14   27.00
   1   2   7  586.24   27.00
  -2  -2  -7    6.90    1.20
  -2  -2  -7    6.90    1.20
  -3  -2  -7  396.16   18.90
  -3  -2  -7  396.16   18.90
  -4  -2  -7  143.59    7.90
  -4  -2  -7  143.59    7.90
  -5  -2  -7   -0.10    1.90
  -5  -2  -7   -0.10    1.90
  -6  -2  -7   78.79    6.20
  -6  -2  -7   78.79    6.20
   8  -3  -7   73.89    4.20
   8  -3  -7   73.89    4.20
   7  -3  -7    5.40    1.70
   7  -3  -7    5.40    1.70
  -7   3   7  -10.40   10.20
  -7   3   7  -10.40   10.20
   6  -3  -7  162.38    7.90
   6  -3  -7  162.38    7.90
  -6   3   7  167.98   13.00
  -6   3   7  168.08   13.00
   5  -3  -7  239.18   11.90
   5  -3  -7  239.18   11.90
  -5   3   7  279.17   14.60
  -5   3   7  279.07   14.60
  -4   3   7    7.30    6.20
  -4   3   7    7.30    6.20
   3  -3  -7  654.63   29.20
   3  -3  -7  654.63   29.20
   3  -3  -7  587.34   29.10
   3  -3  -7  587.34   29.10
  -3   3   7  662.53   30.10
  -3   3   7  662.53   30.00
  -2   3   7  383.96   18.40
  -2   3   7  383.96   18.40
  -1   3   7   24.10    3.00
  -1   3   7   24.10    3.00
   0   3   7  424.96   19.80
   0   3   7  424.96   19.80
  -1  -3  -7  156.38    8.00
  -1  -3  -7  156.38    8.00
   1   3   7  159.08    7.60
   1   3   7  159.18    7.60
  -2  -3  -7   79.49    5.00
  -2  -3  -7   79.49    5.00
   2   3   7   83.39    4.10
   2   3   7   83.29    4.10
  -3  -3  -7  247.68   12.40
  -3  -3  -7  247.68   12.40
  -4  -3  -7   21.60    2.30
  -4  -3  -7   21.60    2.30
  -5  -3  -7   55.09    5.90
  -5  -3  -7   55.09    5.90
   8  -4  -7   41.40    3.30
   8  -4  -7   41.40    3.30
  -8   4   7   52.39   11.20
  -8   4   7   52.39   11.20
  -7   4   7  -10.00    8.90
  -7   4   7  -10.00    8.90
   6  -4  -7  173.48    8.40
   6  -4  -7  173.48    8.40
  -6   4   7  169.08   12.00
  -6   4   7  169.18   12.00
   5  -4  -7   86.59    4.70
   5  -4  -7   86.59    4.70
  -5   4   7   89.09    8.30
  -5   4   7   89.09    8.30
   4  -4  -7   87.29    4.60
   4  -4  -7   87.29    4.60
  -4   4   7   90.09    7.10
  -4   4   7   90.09    7.10
   3  -4  -7  336.77   15.50
   3  -4  -7  336.77   15.50
  -3   4   7  325.67   16.40
  -3   4   7  325.57   16.40
   2  -4  -7  296.87   13.20
   2  -4  -7  296.87   13.20
  -2   4   7  260.47   13.70
  -2   4   7  260.47   13.70
  -1   4   7  338.57   16.10
  -1   4   7  338.47   16.10
  -1  -4  -7  105.39    6.30
  -1  -4  -7  105.39    6.30
   1   4   7  116.79    5.70
   1   4   7  116.69    5.70
  -2  -4  -7  116.29    7.00
  -2  -4  -7  116.29    7.00
   2   4   7  127.59    6.10
   2   4   7  127.49    6.10
  -3  -4  -7  155.88    9.40
  -3  -4  -7  155.88    9.40
   3   4   7  181.68    8.20
   3   4   7  181.88    8.20
  -4  -4  -7   -4.00    1.70
  -4  -4  -7   -4.00    1.70
  -5  -4  -7   29.40    3.40
  -5  -4  -7   29.40    3.40
   7  -5  -7   40.70    3.30
   7  -5  -7   40.70    3.30
  -7   5   7   36.60    8.30
  -7   5   7   36.70    8.30
   6  -5  -7  134.59    6.90
   6  -5  -7  134.59    6.90
  -6   5   7  127.39   10.00
  -6   5   7  127.39   10.00
  -5   5   7  -11.30    7.30
  -5   5   7  -11.30    7.30
   4  -5  -7  157.88    7.80
   4  -5  -7  157.88    7.80
   3  -5  -7  179.28    8.60
   3  -5  -7  179.28    8.60
  -3   5   7  170.48    9.70
  -3   5   7  170.38    9.70
   2  -5  -7    9.50    2.30
   2  -5  -7    9.50    2.30
  -2   5   7   11.40    4.00
  -2   5   7   11.40    4.00
  -1   5   7  248.58   12.20
  -1   5   7  248.58   12.20
   0   5   7  249.08   12.00
   0   5   7  249.08   12.00
   1   5   7   91.99    5.00
   1   5   7   91.99    5.00
   2   5   7  303.67   14.30
   2   5   7  303.77   14.30
  -3  -5  -7   62.39    5.80
  -3  -5  -7   62.39    5.80
   3   5   7   73.09    4.00
   3   5   7   72.99    4.00
  -4  -5  -7    7.80    2.60
  -4  -5  -7    7.80    2.60
   6  -6  -7   30.50    3.20
   6  -6  -7   30.50    3.20
  -6   6   7   24.20    8.30
  -6   6   7   24.20    8.30
  -5   6   7    6.60    7.20
  -5   6   7    6.60    7.20
   4  -6  -7  161.08    8.00
   4  -6  -7  161.08    8.00
  -4   6   7  155.58    9.80
  -4   6   7  155.58    9.80
   3  -6  -7   30.90    2.90
   3  -6  -7   30.90    2.90
  -3   6   7   33.60    6.50
  -3   6   7   33.60    6.50
   2  -6  -7   50.69    3.60
   2  -6  -7   50.69    3.60
  -1   6   7  154.18    8.30
  -1   6   7  154.18    8.30
   0   6   7   36.00    4.20
   0   6   7   36.00    4.20
   1   6   7   83.29    5.00
   1   6   7   83.29    5.00
   2   6   7  141.29    7.30
   2   6   7  141.29    7.30
   3   6   7   -1.20    2.60
   3   6   7   -1.20    2.60
   5  -7  -7   34.90    3.30
   5  -7  -7   34.90    3.30
  -5   7   7   38.60    7.50
  -5   7   7   38.60    7.50
   4  -7  -7   46.30    3.70
   4  -7  -7   46.30    3.70
  -4   7   7   44.10    6.70
  -4   7   7   44.10    6.70
   3  -7  -7    1.40    2.50
   3  -7  -7    1.40    2.50
  -3   7   7  -10.60    5.30
  -3   7   7  -10.60    5.30
   2  -7  -7   81.09    4.70
   2  -7  -7   81.09    4.70
  -2   7   7   71.59    6.10
  -2   7   7   71.39    6.10
  -1   7   7   54.29    5.70
  -1   7   7   54.29    5.70
   0   7   7    1.70    4.10
   0   7   7    1.70    4.10
   1   7   7   71.59    6.20
   1   7   7   71.59    6.20
  -1  -9   8    0.10    2.20
  -1  -9   8    0.60    1.10
  -1  -9   8    0.60    1.10
  -1  -9   8    0.10    2.20
   4   8  -8   17.10    3.60
   4   8  -8   17.10    3.60
  -3  -8   8   81.49   11.30
  -3  -8   8   81.49   11.30
  -3  -8   8   68.79    4.10
  -3  -8   8   68.79    4.10
   2   8  -8   49.30    4.30
   2   8  -8   49.30    4.30
  -2  -8   8   50.09    9.10
  -2  -8   8   50.09    9.10
  -2  -8   8   49.30    3.60
  -2  -8   8   49.30    3.60
   1   8  -8   48.80    4.50
   1   8  -8   48.80    4.50
  -1  -8   8   33.00    2.70
  -1  -8   8   33.00    2.70
  -1  -8   8   42.00    7.60
  -1  -8   8   42.00    7.60
   0   8  -8   78.79    5.90
   0   8  -8   78.79    5.90
   0  -8   8   91.19    4.70
   0  -8   8   91.19    4.70
   1  -8   8    3.80    1.00
   1  -8   8    3.80    1.00
  -2   8  -8   25.80    3.00
  -2   8  -8   25.80    3.00
   5   7  -8   -1.20    3.00
   5   7  -8   -1.20    3.00
  -5  -7   8    1.60    1.70
  -5  -7   8    1.60    1.70
  -4  -7   8   70.19   12.20
  -4  -7   8   70.19   12.20
   3   7  -8  114.79    6.30
   3   7  -8  114.79    6.30
  -3  -7   8  111.09   12.20
  -3  -7   8  111.09   12.20
   2   7  -8    4.00    2.70
   2   7  -8    4.00    2.70
  -2  -7   8    2.60    1.50
  -2  -7   8    1.10    1.20
  -2  -7   8    1.10    1.20
  -2  -7   8    2.60    1.50
   1   7  -8  202.18   10.50
   1   7  -8  202.18   10.50
  -1  -7   8  227.28   14.60
  -1  -7   8  227.28   14.60
   0   7  -8  153.08    8.10
   0   7  -8  153.08    8.10
   1  -7   8    0.80    0.80
   1  -7   8    0.80    0.80
   2  -7   8  243.78   13.80
   2  -7   8  243.78   13.80
  -3   7  -8   30.70    3.10
  -3   7  -8   30.70    3.10
  -4   7  -8   18.50    5.00
  -4   7  -8   11.60    2.60
  -4   7  -8   11.60    2.60
  -4   7  -8   18.50    5.00
  -6  -6   8    6.60    2.10
  -6  -6   8    6.60    2.10
  -5  -6   8    4.30    1.90
  -5  -6   8    4.30    1.90
   4   6  -8  218.28   10.40
   4   6  -8  218.28   10.40
  -4  -6   8  198.68   18.20
  -4  -6   8  198.68   18.20
   3   6  -8   81.29    4.80
   3   6  -8   81.29    4.80
   2   6  -8   88.79    5.10
   2   6  -8   88.79    5.10
  -2  -6   8   87.29    9.10
  -2  -6   8   87.29    9.10
   1   6  -8  224.48   10.80
   1   6  -8  224.48   10.80
  -1  -6   8  220.98   13.10
  -1  -6   8  220.98   13.10
   0   6  -8   32.30    3.60
   0   6  -8   32.30    3.60
   0  -6   8   52.69    5.60
   0  -6   8   52.69    5.60
  -1   6  -8  143.69    8.60
  -1   6  -8  143.69    8.60
   1  -6   8  187.88    9.90
   1  -6   8  187.88    9.90
   2  -6   8  344.17   17.50
   2  -6   8  344.17   17.50
  -3   6  -8   -1.20    2.00
  -3   6  -8   -1.20    2.00
   3  -6   8    0.20    0.70
   3  -6   8    0.20    0.70
  -4   6  -8  115.19    6.90
  -4   6  -8  110.49    7.90
  -4   6  -8  115.19    6.90
  -4   6  -8  110.49    7.90
  -7  -5   8   87.19   14.20
  -7  -5   8   87.19   14.20
  -6  -5   8    3.60    1.90
  -6  -5   8    3.60    1.90
  -5  -5   8  112.09   15.40
  -5  -5   8  112.09   15.40
   4   5  -8  330.87   15.60
   4   5  -8  330.87   15.60
   3   5  -8    5.10    2.30
   3   5  -8    5.10    2.30
   2   5  -8  498.15   22.00
   2   5  -8  498.15   22.00
  -2  -5   8  445.36   24.80
  -2  -5   8  445.36   24.80
   1   5  -8  256.87   12.10
   1   5  -8  256.87   12.10
  -1  -5   8  252.77   14.30
  -1  -5   8  252.77   14.30
   0   5  -8    1.70    2.40
   0   5  -8    1.70    2.40
   0  -5   8    1.60    0.60
   0  -5   8    1.60    0.60
  -1   5  -8  346.87   17.60
  -1   5  -8  346.87   17.60
   1  -5   8  396.66   18.40
   1  -5   8  396.66   18.40
   2  -5   8  213.28   11.20
   2  -5   8  213.28   11.20
   3  -5   8    7.10    1.10
   3  -5   8    7.10    1.10
  -4   5  -8  275.77   13.20
  -4   5  -8  265.87   14.20
  -4   5  -8  276.07   13.20
  -4   5  -8  265.87   14.20
  -5   5  -8   25.50    2.80
  -5   5  -8   25.50    2.80
  -7  -4   8   10.00    2.00
  -7  -4   8   10.00    2.00
  -6  -4   8    0.80    1.80
  -6  -4   8    0.80    1.80
  -5  -4   8  165.88   16.20
  -5  -4   8  165.88   16.20
  -4  -4   8   97.09   11.90
  -4  -4   8   97.09   11.90
   3   4  -8  147.59    7.10
   3   4  -8  147.59    7.10
  -3  -4   8  134.79   12.40
  -3  -4   8  134.79   12.40
   2   4  -8  895.11   39.70
   2   4  -8  895.11   39.70
  -2  -4   8  826.72   42.30
  -2  -4   8  826.72   42.30
   1   4  -8  110.59    5.80
   1   4  -8  110.59    5.80
  -1  -4   8  115.29    8.10
  -1  -4   8  115.29    8.10
   0   4  -8  205.28    8.90
   0   4  -8  205.28    8.90
   0  -4   8  155.98   10.30
   0  -4   8  155.98   10.30
  -1   4  -8  298.07   15.20
  -1   4  -8  298.07   15.20
   1  -4   8  337.37   15.80
   1  -4   8  337.37   15.80
   2  -4   8   18.60    3.10
   2  -4   8   18.60    3.10
  -3   4  -8  212.58   11.20
  -3   4  -8  212.58   11.20
  -4   4  -8  271.27   14.10
  -4   4  -8  271.27   14.10
  -5   4  -8    3.30    1.80
  -5   4  -8    3.30    1.80
  -8  -3   8   76.19   13.40
  -8  -3   8   76.19   13.40
  -7  -3   8    5.90    1.90
  -7  -3   8    5.90    1.90
  -6  -3   8   11.80    2.70
  -6  -3   8   11.80    2.70
  -5  -3   8  188.08   16.80
  -5  -3   8  188.08   16.80
  -4  -3   8   -0.10    1.20
  -4  -3   8   -0.10    1.20
   3   3  -8  629.34   26.50
   3   3  -8  629.34   26.50
  -3  -3   8  510.15   30.10
  -3  -3   8  510.15   30.10
   2   3  -8  530.85   24.30
   2   3  -8  530.85   24.30
  -2  -3   8  517.75   26.90
  -2  -3   8  517.75   26.90
   1   3  -8   24.30    2.30
   1   3  -8   24.30    2.30
   0   3  -8 1330.27   59.69
   0   3  -8 1330.27   59.69
   0  -3   8 1268.07   60.49
   0  -3   8 1268.07   60.49
  -1   3  -8  430.66   21.00
  -1   3  -8  430.66   21.00
   1  -3   8  463.85   21.40
   1  -3   8  463.85   21.40
  -3   3  -8  301.17   14.90
  -3   3  -8  301.17   14.90
  -4   3  -8  154.18    9.00
  -4   3  -8  154.18    9.00
  -5   3  -8   42.70    4.80
  -5   3  -8   42.70    4.80
  -6   3  -8  105.29    7.20
  -6   3  -8  105.29    7.20
  -8  -2   8  112.19   14.40
  -8  -2   8  112.19   14.40
  -7  -2   8    1.50    1.90
  -7  -2   8    1.50    1.90
  -6  -2   8  292.67   21.30
  -6  -2   8  292.67   21.30
  -5  -2   8  189.08   16.10
  -5  -2   8  189.08   16.10
  -4  -2   8    6.20    1.50
  -4  -2   8    6.20    1.50
   3   2  -8  895.81   41.20
   3   2  -8  895.81   41.20
   2   2  -8  283.37   13.30
   2   2  -8  283.37   13.30
  -2  -2   8  279.07   15.90
  -2  -2   8  279.07   15.90
  -1  -2   8  501.85   24.90
  -1  -2   8  501.85   24.90
   0   2  -8 1025.70   47.50
   0   2  -8 1025.70   47.50
   0  -2   8 1039.80   48.30
   0  -2   8 1039.80   48.30
  -1   2  -8  146.99    8.30
  -1   2  -8  146.99    8.30
   1  -2   8  182.38    8.70
   1  -2   8  182.38    8.70
  -3   2  -8  564.34   26.80
  -3   2  -8  564.34   26.80
  -5   2  -8  173.18    9.60
  -5   2  -8  173.18    9.60
  -6   2  -8  104.59    6.90
  -6   2  -8  104.59    6.90
  -8  -1   8   76.19   13.00
  -8  -1   8   76.19   13.00
  -7  -1   8  127.59   17.40
  -7  -1   8  127.59   17.40
  -6  -1   8  437.46   27.40
  -6  -1   8  437.46   27.40
  -5  -1   8   65.29   12.80
  -5  -1   8   65.29   12.80
  -4  -1   8  556.34   30.00
  -4  -1   8  556.34   30.00
   3   1  -8  767.12   32.40
   3   1  -8  767.12   32.40
  -3  -1   8  630.64   35.10
  -3  -1   8  630.64   35.10
   2   1  -8    1.00    1.30
   2   1  -8    1.00    1.30
   1   1  -8 1215.78   53.09
   1   1  -8 1215.78   53.09
  -1  -1   8 1096.99   54.09
  -1  -1   8 1096.99   54.09
   0   1  -8  678.73   32.40
   0   1  -8  678.73   32.40
   0  -1   8  719.43   33.10
   0  -1   8  719.43   33.10
  -1   1  -8   20.10    3.00
  -1   1  -8   20.10    3.00
  -3   1  -8  306.37   15.10
  -3   1  -8  306.37   15.10
  -4   1  -8  101.29    7.70
  -4   1  -8  101.29    7.70
  -5   1  -8  136.69    7.90
  -5   1  -8  136.69    7.90
  -6   1  -8   14.10    2.00
  -6   1  -8   14.10    2.00
   8   0  -8   -0.70    1.40
   8   0  -8   -0.70    1.40
  -8   0   8    4.20    2.10
  -8   0   8    4.20    2.10
   7   0  -8  119.29    5.70
   7   0  -8  119.29    5.70
  -5   0   8   81.39   11.40
  -5   0   8   81.49   11.40
  -4   0   8  474.85   23.80
  -4   0   8  474.85   23.80
   3   0  -8  241.88   11.30
   3   0  -8  241.88   11.30
   2   0  -8  212.78   11.20
   2   0  -8  212.78   11.20
  -2   0   8  270.47   12.00
  -2   0   8  270.47   12.00
   1   0  -8 1195.98   56.49
   1   0  -8 1195.98   56.49
  -1   0   8 1268.27   56.69
  -1   0   8 1268.47   56.69
   0   0  -8   85.09    4.60
   0   0  -8   85.09    4.60
  -1   0  -8  292.07   14.00
  -1   0  -8  292.07   14.00
  -2   0  -8  720.13   33.60
  -2   0  -8  720.13   33.60
  -3   0  -8   10.20    1.60
  -3   0  -8   10.20    1.60
  -4   0  -8  217.38   11.30
  -4   0  -8  217.38   11.30
  -5   0  -8  136.69    7.80
  -5   0  -8  136.69    7.80
  -6   0  -8   -3.20    1.50
  -6   0  -8   -3.20    1.50
  -8   1   8   53.49   11.70
  -8   1   8   53.49   11.60
   7  -1  -8  166.68    7.90
   7  -1  -8  166.68    7.90
  -6   1   8  155.78   16.10
  -6   1   8  155.78   16.10
   5  -1  -8  187.58    8.80
   5  -1  -8  187.58    8.80
  -4   1   8  806.22   38.50
  -4   1   8  806.22   38.50
   3  -1  -8   45.20    2.60
   3  -1  -8   45.20    2.60
  -3   1   8   46.30    5.20
  -3   1   8   46.30    5.20
   2  -1  -8  539.15   25.00
   2  -1  -8  539.15   25.00
  -2   1   8  546.35   25.50
  -2   1   8  546.35   25.50
   1  -1  -8  727.83   31.00
   1  -1  -8  727.83   31.00
  -1   1   8  618.74   31.20
  -1   1   8  618.74   31.20
   0   1   8    3.50    2.00
   0   1   8    3.50    2.00
   1   1   8  797.72   36.70
   1   1   8  797.62   36.70
  -2  -1  -8  307.77   14.90
  -2  -1  -8  307.77   14.90
  -3  -1  -8   36.30    3.70
  -3  -1  -8   36.30    3.70
  -4  -1  -8  224.28   11.60
  -4  -1  -8  224.28   11.60
  -5  -1  -8   17.00    2.00
  -5  -1  -8   17.00    2.00
   8  -2  -8   61.69    3.60
   8  -2  -8   61.69    3.60
  -7   2   8  171.48   17.20
  -7   2   8  171.58   17.10
   6  -2  -8    3.00    1.40
   6  -2  -8    3.00    1.40
  -6   2   8   -1.10   15.00
  -6   2   8   -1.10   15.00
   5  -2  -8  374.36   17.40
   5  -2  -8  374.36   17.40
  -4   2   8  404.66   20.50
  -4   2   8  404.66   20.50
   3  -2  -8   28.50    2.00
   3  -2  -8   28.50    2.00
  -3   2   8   51.19    5.70
  -3   2   8   51.19    5.70
   2  -2  -8  697.33   32.10
   2  -2  -8  697.33   32.10
   1  -2  -8  214.88    9.50
   1  -2  -8  214.88    9.50
  -1   2   8  182.18    9.70
  -1   2   8  182.08    9.70
   0  -2  -8  136.19    7.10
   0  -2  -8  136.19    7.10
   0   2   8  149.79    7.10
   0   2   8  149.79    7.10
  -1  -2  -8  491.15   23.40
  -1  -2  -8  491.15   23.40
   1   2   8  508.45   23.10
   1   2   8  508.45   23.10
  -2  -2  -8   32.90    3.40
  -2  -2  -8   32.90    3.40
  -3  -2  -8  149.09    8.00
  -3  -2  -8  149.09    8.00
  -4  -2  -8  175.38    9.50
  -4  -2  -8  175.38    9.50
  -5  -2  -8    0.70    1.60
  -5  -2  -8    0.70    1.60
   8  -3  -8   56.89    4.20
   8  -3  -8   56.89    4.20
   7  -3  -8   33.10    2.70
   7  -3  -8   33.10    2.70
  -7   3   8   46.50   11.60
  -7   3   8   46.50   11.60
   6  -3  -8   72.59    4.10
   6  -3  -8   72.59    4.10
  -6   3   8  105.79   12.20
  -6   3   8  105.79   12.20
   5  -3  -8  190.08    9.70
   5  -3  -8  190.08    9.70
  -5   3   8  233.08   13.30
  -5   3   8  233.08   13.30
   4  -3  -8  121.99    6.30
   4  -3  -8  121.99    6.30
  -4   3   8  144.19    9.00
  -4   3   8  144.29    9.00
   3  -3  -8  531.85   26.10
   3  -3  -8  531.85   26.10
   3  -3  -8  565.74   26.20
   3  -3  -8  565.74   26.20
  -3   3   8  610.64   27.10
  -3   3   8  610.64   27.10
  -2   3   8  831.32   38.70
  -2   3   8  831.32   38.70
  -1   3   8   33.00    3.80
  -1   3   8   33.00    3.80
   0   3   8  344.47   16.20
   0   3   8  344.47   16.20
  -1  -3  -8  304.07   14.80
  -1  -3  -8  304.07   14.80
   1   3   8  312.37   14.40
   1   3   8  312.37   14.40
  -2  -3  -8    4.90    1.30
  -2  -3  -8    4.90    1.30
  -3  -3  -8  163.48    8.80
  -3  -3  -8  163.48    8.80
  -4  -3  -8   30.70    2.70
  -4  -3  -8   30.70    2.70
  -5  -3  -8    7.50    2.00
  -5  -3  -8    7.50    2.00
   7  -4  -8    3.60    2.30
   7  -4  -8    3.60    2.30
  -7   4   8  -14.30    9.00
  -7   4   8  -14.30    9.00
   6  -4  -8   98.89    5.30
   6  -4  -8   98.89    5.30
  -6   4   8  102.99    9.80
  -6   4   8  102.99    9.80
   5  -4  -8  125.89    6.30
   5  -4  -8  125.89    6.30
  -5   4   8  125.89    9.70
  -5   4   8  125.89    9.70
   4  -4  -8   21.70    2.20
   4  -4  -8   21.70    2.20
  -4   4   8   17.80    6.50
  -4   4   8   17.80    6.50
   3  -4  -8  331.07   15.50
   3  -4  -8  331.07   15.50
  -3   4   8  329.97   16.50
  -3   4   8  329.97   16.50
  -2   4   8  151.18    8.20
  -2   4   8  151.18    8.30
  -1   4   8  233.28   11.40
  -1   4   8  233.28   11.40
   0  -4  -8  460.75   22.90
   0  -4  -8  460.75   22.90
   0   4   8  516.35   22.80
   0   4   8  516.35   22.80
  -1  -4  -8   40.60    3.70
  -1  -4  -8   40.60    3.70
   1   4   8   32.70    2.90
   1   4   8   32.70    2.90
   2   4   8  110.79    5.60
   2   4   8  110.89    5.60
  -3  -4  -8  130.39    7.90
  -3  -4  -8  130.39    7.90
  -4  -4  -8    2.50    2.10
  -4  -4  -8    2.50    2.10
   7  -5  -8   26.20    3.00
   7  -5  -8   26.20    3.00
  -7   5   8   19.20    9.50
  -7   5   8   19.20    9.50
   6  -5  -8   87.79    5.00
   6  -5  -8   87.79    5.00
  -6   5   8   92.79    8.80
  -6   5   8   92.79    8.80
   5  -5  -8   30.60    3.20
   5  -5  -8   30.60    3.20
  -5   5   8   19.50    7.70
  -5   5   8   19.50    7.70
  -4   5   8   82.99    9.10
  -4   5   8   82.99    9.10
  -3   5   8  177.88   11.10
  -3   5   8  177.88   11.10
  -2   5   8   12.00    4.20
  -2   5   8   12.00    4.20
  -1   5   8  167.88    8.80
  -1   5   8  167.88    8.70
   0   5   8  138.89    7.30
   0   5   8  138.89    7.30
   1   5   8    6.70    2.70
   1   5   8    6.70    2.70
  -2  -5  -8   95.99    7.50
  -2  -5  -8   95.99    7.50
   2   5   8  122.39    5.90
   2   5   8  122.49    5.90
   6  -6  -8   32.80    3.20
   6  -6  -8   32.80    3.20
  -6   6   8   35.80    7.90
  -6   6   8   35.80    7.90
   5  -6  -8    0.90    2.50
   5  -6  -8    0.90    2.50
  -5   6   8   -7.30    6.90
  -5   6   8   -7.30    6.90
   4  -6  -8   90.29    5.00
   4  -6  -8   90.29    5.00
  -4   6   8   78.89    7.80
  -4   6   8   78.99    7.80
   3  -6  -8   57.39    4.00
   3  -6  -8   57.39    4.00
  -3   6   8   54.09    6.80
  -3   6   8   54.09    6.80
  -2   6   8    3.10    5.20
  -2   6   8    3.10    5.20
   0   6   8   32.00    3.80
   0   6   8   32.00    3.80
   1   6   8   48.10    3.90
   1   6   8   48.10    3.90
   2   6   8   86.79    5.20
   2   6   8   86.79    5.20
   4  -7  -8   64.09    4.30
   4  -7  -8   64.09    4.30
  -4   7   8   64.89    7.00
  -4   7   8   64.89    7.00
   3  -7  -8   11.00    2.90
   3  -7  -8   11.00    2.90
  -3   7   8    0.20    5.60
  -3   7   8    0.20    5.60
  -2   7   8   36.10    6.10
  -2   7   8   36.10    6.10
  -1   7   8   62.89    5.50
  -1   7   8   62.79    5.50
   0   7   8    2.10    4.20
   0   7   8    2.10    4.20
   3   8  -9   74.99    5.60
   3   8  -9   74.99    5.60
  -3  -8   9   77.49   12.10
  -3  -8   9   77.49   12.10
   2   8  -9   52.99    5.10
   2   8  -9   52.99    5.10
  -2  -8   9   52.09    4.70
  -2  -8   9   58.09    9.90
  -2  -8   9   52.09    4.70
  -2  -8   9   58.09    9.90
   1   8  -9   12.00    4.60
   1   8  -9   12.00    4.60
  -1  -8   9   11.00    2.20
  -1  -8   9   11.00    2.20
   0   8  -9   74.79    6.80
   0   8  -9   74.79    6.80
   0  -8   9  112.99    9.40
   0  -8   9  112.99    9.40
  -1   8  -9   -3.80    5.20
  -1   8  -9   -3.80    5.20
   5   7  -9   15.00    3.10
   5   7  -9   15.00    3.10
   4   7  -9   34.80    4.00
   4   7  -9   34.80    4.00
   3   7  -9   59.69    6.30
   3   7  -9   59.69    6.30
  -2  -7   9   24.60    2.30
  -2  -7   9   24.60    2.30
   1   7  -9   83.09    5.80
   1   7  -9   83.09    5.80
  -1  -7   9  101.69    9.60
  -1  -7   9  101.69    9.60
   0  -7   9  158.68   10.90
   0  -7   9  158.68   10.90
   2  -7   9  104.49   10.90
   2  -7   9  104.49   10.90
  -3   7  -9   57.49    6.40
  -3   7  -9   57.49    6.40
   3  -7   9   75.39    8.20
   3  -7   9   75.39    8.20
  -6  -6   9    9.00    2.30
  -6  -6   9    9.00    2.30
   5   6  -9   -1.70    2.70
   5   6  -9   -1.70    2.70
  -5  -6   9    1.10    1.90
  -5  -6   9    1.10    1.90
   4   6  -9  117.59    7.60
   4   6  -9  117.59    7.60
  -4  -6   9  131.09   15.70
  -4  -6   9  131.09   15.70
   3   6  -9  104.39    6.10
   3   6  -9  104.39    6.10
  -3  -6   9  118.99   13.60
  -3  -6   9  118.99   13.60
   2   6  -9    6.70    2.70
   2   6  -9    6.70    2.70
   1   6  -9  194.18   10.00
   1   6  -9  194.18   10.00
  -1  -6   9  210.48   12.60
  -1  -6   9  210.48   12.60
   0   6  -9  136.29    7.40
   0   6  -9  136.29    7.40
   0  -6   9  139.09    9.20
   0  -6   9  139.09    9.20
  -1   6  -9   49.10    5.20
  -1   6  -9   49.10    5.20
   1  -6   9   48.90    5.50
   1  -6   9   48.90    5.50
   2  -6   9  245.48   13.30
   2  -6   9  245.48   13.30
  -3   6  -9   10.80    2.30
  -3   6  -9   10.80    2.30
   3  -6   9    6.90    1.00
   3  -6   9    6.90    1.00
  -4   6  -9   22.90    2.90
  -4   6  -9   22.90    2.90
  -7  -5   9   11.00    2.40
  -7  -5   9   11.00    2.40
  -6  -5   9    2.40    2.00
  -6  -5   9    2.40    2.00
  -5  -5   9    4.90    2.10
  -5  -5   9    4.90    2.10
   4   5  -9  312.37   14.90
   4   5  -9  312.37   14.90
   2   5  -9  128.59    6.60
   2   5  -9  128.59    6.60
  -2  -5   9  118.59   10.60
  -2  -5   9  118.59   10.60
   1   5  -9  279.67   13.40
   1   5  -9  279.67   13.40
  -1  -5   9  279.67   15.60
  -1  -5   9  279.67   15.60
   0   5  -9    5.80    2.80
   0   5  -9    5.80    2.80
   0  -5   9    2.80    0.70
   0  -5   9    2.80    0.70
  -1   5  -9  212.78   11.40
  -1   5  -9  212.78   11.40
   1  -5   9  242.68   12.10
   1  -5   9  242.68   12.10
   2  -5   9  256.67   13.20
   2  -5   9  256.67   13.20
  -3   5  -9   -0.20    1.80
  -3   5  -9   -0.20    1.80
  -4   5  -9  161.28    8.70
  -4   5  -9  147.69    9.40
  -4   5  -9  161.28    8.70
  -4   5  -9  147.69    9.40
  -7  -4   9    9.70    2.10
  -7  -4   9    9.70    2.10
  -6  -4   9    1.40    1.70
  -6  -4   9    1.40    1.70
  -5  -4   9  117.79   19.90
  -5  -4   9  117.79   19.90
   4   4  -9  191.38    8.50
   4   4  -9  191.38    8.50
  -4  -4   9  136.79   15.10
  -4  -4   9  136.79   15.10
   3   4  -9    2.70    2.20
   3   4  -9    2.70    2.20
  -3  -4   9    0.30    1.00
  -3  -4   9    0.30    1.00
   2   4  -9  870.11   40.00
   2   4  -9  870.11   40.00
  -2  -4   9  866.31   42.70
  -2  -4   9  866.31   42.70
   1   4  -9  410.76   19.70
   1   4  -9  410.76   19.70
  -1  -4   9  431.96   21.60
  -1  -4   9  431.96   21.60
   0   4  -9   37.00    3.40
   0   4  -9   37.00    3.40
   0  -4   9   30.20    4.60
   0  -4   9   30.20    4.60
  -1   4  -9  441.46   20.80
  -1   4  -9  441.46   20.80
   1  -4   9  440.96   21.40
   1  -4   9  440.96   21.40
   2  -4   9  145.89    8.00
   2  -4   9  145.89    8.00
  -3   4  -9   97.09    6.80
  -3   4  -9   97.09    6.80
  -4   4  -9  179.48   10.40
  -4   4  -9  179.48   10.40
  -5   4  -9   11.50    2.20
  -5   4  -9   11.50    2.20
  -8  -3   9   13.80    2.40
  -8  -3   9   13.80    2.40
  -7  -3   9   10.60    2.30
  -7  -3   9   10.60    2.30
  -6  -3   9    3.00    2.10
  -6  -3   9    3.00    2.10
  -5  -3   9  210.68   19.10
  -5  -3   9  210.68   19.10
   4   3  -9  120.39    5.70
   4   3  -9  120.39    5.70
  -4  -3   9   79.09   12.60
  -4  -3   9   79.09   12.60
   3   3  -9  285.17   13.10
   3   3  -9  285.17   13.10
  -3  -3   9  264.57   17.60
  -3  -3   9  264.57   17.60
   2   3  -9  620.54   29.30
   2   3  -9  620.54   29.30
  -2  -3   9  648.24   31.80
  -2  -3   9  648.24   31.80
   1   3  -9   48.00    3.40
   1   3  -9   48.00    3.40
  -1  -3   9   63.59    6.00
  -1  -3   9   63.59    6.00
   0   3  -9  923.11   42.70
   0   3  -9  923.11   42.70
   0  -3   9  926.31   43.60
   0  -3   9  926.31   43.60
  -1   3  -9  485.85   23.60
  -1   3  -9  485.85   23.60
   1  -3   9  518.95   24.00
   1  -3   9  518.95   24.00
  -4   3  -9  157.48    9.20
  -4   3  -9  157.48    9.20
  -5   3  -9    6.80    2.00
  -5   3  -9    6.80    2.00
  -8  -2   9   13.90    2.50
  -8  -2   9   13.90    2.50
  -7  -2   9   -0.50    1.90
  -7  -2   9   -0.50    1.90
  -5  -2   9  215.28   18.00
  -5  -2   9  215.28   18.00
  -4  -2   9   -0.80    1.20
  -4  -2   9   -0.80    1.20
   3   2  -9  664.83   29.50
   3   2  -9  664.83   29.50
  -3  -2   9  610.54   32.70
  -3  -2   9  610.54   32.70
   2   2  -9  551.54   26.30
   2   2  -9  551.54   26.30
  -2  -2   9  585.24   28.70
  -2  -2   9  585.24   28.70
   1   2  -9   76.59    4.30
   1   2  -9   76.59    4.30
  -1  -2   9   83.39    7.00
  -1  -2   9   83.39    7.00
   0   2  -9  857.41   40.00
   0   2  -9  857.41   40.00
   0  -2   9  876.31   40.80
   0  -2   9  876.31   40.80
  -1   2  -9  167.98    9.80
  -1   2  -9  167.98    9.80
   1  -2   9  215.58   10.10
   1  -2   9  215.58   10.10
  -3   2  -9  193.48   10.70
  -3   2  -9  193.48   10.70
  -4   2  -9    7.90    1.90
  -4   2  -9    7.90    1.90
  -5   2  -9   93.69    6.60
  -5   2  -9   93.69    6.60
  -8  -1   9  129.09   16.40
  -8  -1   9  129.09   16.40
  -7  -1   9    7.20    2.20
  -7  -1   9    7.20    2.20
  -5  -1   9  234.48   18.90
  -5  -1   9  234.48   18.90
  -4  -1   9  187.58   14.60
  -4  -1   9  187.58   14.60
   3   1  -9  687.33   33.20
   3   1  -9  687.33   33.20
  -3  -1   9  759.72   36.10
  -3  -1   9  759.72   36.10
   2   1  -9   73.59    4.10
   2   1  -9   73.59    4.10
  -2  -1   9   87.59   10.80
  -2  -1   9   87.59   10.80
   1   1  -9  534.65   23.70
   1   1  -9  534.65   23.70
  -1  -1   9  486.75   24.80
  -1  -1   9  486.75   24.80
   0   1  -9 1067.69   48.10
   0   1  -9 1067.69   48.10
   0  -1   9 1019.60   48.80
   0  -1   9 1019.60   48.80
  -3   1  -9  216.88   11.40
  -3   1  -9  216.88   11.40
  -4   1  -9    0.40    1.70
  -4   1  -9    0.40    1.70
  -5   1  -9  106.09    6.90
  -5   1  -9  106.09    6.90
  -8   0   9   10.90    2.70
  -8   0   9   10.90    2.70
  -5   0   9   18.80    8.50
  -5   0   9   18.90    8.50
  -4   0   9  757.62   36.40
  -4   0   9  757.32   36.40
   3   0  -9  486.15   22.50
   3   0  -9  486.15   22.50
   2   0  -9   26.80    2.40
   2   0  -9   26.80    2.40
   1   0  -9  964.20   46.20
   1   0  -9  964.20   46.20
  -1   0   9 1038.60   46.20
  -1   0   9 1038.50   46.20
   0   0  -9  438.86   20.50
   0   0  -9  438.86   20.50
  -1   0  -9   86.49    5.00
  -1   0  -9   86.49    5.00
  -2   0  -9  481.85   22.90
  -2   0  -9  481.85   22.90
  -3   0  -9   55.99    5.00
  -3   0  -9   55.99    5.00
  -4   0  -9   82.49    5.90
  -4   0  -9   82.49    5.90
  -5   0  -9   88.89    6.20
  -5   0  -9   88.89    6.20
  -8   1   9   23.30   12.10
  -8   1   9   23.30   12.10
  -7   1   9  554.24   30.40
  -7   1   9  554.24   30.30
   6  -1  -9  104.69    5.10
   6  -1  -9  104.69    5.10
  -5   1   9  154.88   12.90
  -5   1   9  154.88   13.00
  -4   1   9  864.51   41.20
  -4   1   9  864.31   41.20
   3  -1  -9   74.69    4.00
   3  -1  -9   74.69    4.00
   2  -1  -9  297.17   15.20
   2  -1  -9  297.17   15.20
  -2   1   9  354.96   15.80
  -2   1   9  354.96   15.80
   1  -1  -9  817.42   37.70
   1  -1  -9  817.42   37.70
  -1   1   9  816.52   37.80
  -1   1   9  816.82   37.80
   0  -1  -9   23.20    3.60
   0  -1  -9   23.20    3.60
   0   1   9   41.00    3.30
   0   1   9   41.00    3.30
   1   1   9  457.55   21.20
   1   1   9  457.55   21.20
  -2  -1  -9  391.76   18.80
  -2  -1  -9  391.76   18.80
  -3  -1  -9   -0.20    1.50
  -3  -1  -9   -0.20    1.50
  -4  -1  -9  182.28    9.90
  -4  -1  -9  182.28    9.90
  -5  -1  -9   55.59    4.90
  -5  -1  -9   55.59    4.90
  -8   2   9  140.89   15.70
  -8   2   9  140.89   15.70
   7  -2  -9   73.99    4.10
   7  -2  -9   73.99    4.10
   6  -2  -9    7.40    1.70
   6  -2  -9    7.40    1.70
  -6   2   9   17.70   12.30
  -6   2   9   17.60   12.30
   5  -2  -9  343.07   15.90
   5  -2  -9  343.07   15.90
   4  -2  -9  433.16   20.00
   4  -2  -9  433.16   20.00
   3  -2  -9    4.90    1.70
   3  -2  -9    4.90    1.70
  -3   2   9    3.30    4.80
  -3   2   9    3.30    4.80
   2  -2  -9  552.64   24.50
   2  -2  -9  552.64   24.50
  -2   2   9  506.05   24.90
  -2   2   9  506.05   24.90
   1  -2  -9  367.26   17.20
   1  -2  -9  367.26   17.20
   0  -2  -9   38.60    3.20
   0  -2  -9   38.60    3.20
   0   2   9   22.80    2.50
   0   2   9   22.80    2.50
  -1  -2  -9  414.56   21.30
  -1  -2  -9  414.56   21.30
   1   2   9  485.05   20.90
   1   2   9  485.05   20.90
  -2  -2  -9   66.09    4.70
  -2  -2  -9   66.09    4.70
  -3  -2  -9   40.60    4.10
  -3  -2  -9   40.60    4.10
  -4  -2  -9  162.68    9.10
  -4  -2  -9  162.68    9.10
   7  -3  -9   44.80    3.20
   7  -3  -9   44.80    3.20
  -7   3   9  103.79   14.80
  -7   3   9  103.79   14.70
   6  -3  -9   28.80    2.60
   6  -3  -9   28.80    2.60
  -6   3   9   16.80   10.70
  -6   3   9   16.80   10.70
   5  -3  -9  186.68    9.00
   5  -3  -9  186.68    9.00
   4  -3  -9   30.60    2.60
   4  -3  -9   30.60    2.60
  -4   3   9   40.70    7.00
  -4   3   9   40.80    7.00
   3  -3  -9  216.98   10.90
   3  -3  -9  216.98   10.90
  -3   3   9  250.67   12.20
  -3   3   9  250.67   12.20
   2  -3  -9  407.86   18.50
   2  -3  -9  407.86   18.50
  -2   3   9  384.26   19.00
  -2   3   9  384.26   19.00
   1  -3  -9   -3.40    2.20
   1  -3  -9   -3.40    2.20
  -1   3   9    7.80    3.20
  -1   3   9    7.80    3.20
  -1  -3  -9  225.68   11.90
  -1  -3  -9  225.68   11.90
   1   3   9  250.17   11.40
   1   3   9  249.97   11.40
  -2  -3  -9    3.50    1.40
  -2  -3  -9    3.50    1.40
   2   3   9    3.50    2.20
   2   3   9    3.30    2.20
  -3  -3  -9  139.39    7.90
  -3  -3  -9  139.39    7.90
  -4  -3  -9   24.60    2.60
  -4  -3  -9   24.60    2.60
   7  -4  -9    7.30    2.40
   7  -4  -9    7.30    2.40
  -7   4   9    6.40   11.30
  -7   4   9    6.40   11.30
   6  -4  -9   40.80    4.00
   6  -4  -9   40.80    4.00
  -6   4   9   61.19   10.70
  -6   4   9   61.19   10.70
   5  -4  -9  112.39    6.60
   5  -4  -9  112.39    6.60
  -5   4   9  156.78   10.20
  -5   4   9  156.68   10.20
   4  -4  -9   10.70    2.40
   4  -4  -9   10.70    2.40
  -4   4   9   11.50    9.40
  -4   4   9   11.50    9.40
  -3   4   9  221.48   11.90
  -3   4   9  221.48   11.90
  -2   4   9  121.69    7.20
  -2   4   9  121.69    7.20
  -1   4   9   -6.90    3.20
  -1   4   9   -6.90    3.20
   0  -4  -9  118.49    7.30
   0  -4  -9  118.49    7.30
   0   4   9  148.29    7.00
   0   4   9  148.29    7.00
  -1  -4  -9   60.69    4.90
  -1  -4  -9   60.69    4.90
   1   4   9   63.49    3.90
   1   4   9   63.49    3.90
  -2  -4  -9   14.20    2.00
  -2  -4  -9   14.20    2.00
  -3  -4  -9   85.09    6.50
  -3  -4  -9   85.09    6.50
   6  -5  -9   58.49    4.10
   6  -5  -9   58.49    4.10
  -6   5   9   77.39    9.00
  -6   5   9   77.39    9.00
   5  -5  -9   31.90    3.10
   5  -5  -9   31.90    3.10
  -5   5   9   47.80    8.90
  -5   5   9   47.80    8.90
   4  -5  -9   28.00    3.10
   4  -5  -9   28.00    3.10
  -4   5   9   21.40    7.00
  -4   5   9   21.30    7.10
  -3   5   9  175.48   10.40
  -3   5   9  175.48   10.40
  -2   5   9   56.69    7.10
  -2   5   9   56.69    7.10
  -1   5   9   99.29    6.00
  -1   5   9   99.39    6.00
   0   5   9  144.79    7.60
   0   5   9  144.79    7.60
   1   5   9   34.50    3.60
   1   5   9   34.60    3.60
   2   5   9   71.89    4.40
   2   5   9   71.99    4.40
   5  -6  -9    0.90    2.70
   5  -6  -9    0.90    2.70
  -5   6   9   -0.90    7.60
  -5   6   9   -0.90    7.60
   4  -6  -9   44.30    3.80
   4  -6  -9   44.30    3.80
  -4   6   9   56.89    8.10
  -4   6   9   56.89    8.10
  -3   6   9   82.59    7.00
  -3   6   9   82.59    7.00
  -2   6   9   -7.30    5.20
  -2   6   9   -7.20    5.20
  -1   6   9   81.09    6.10
  -1   6   9   81.09    6.10
   1   6   9   19.20    3.80
   1   6   9   19.20    3.80
   2   8 -10   62.99    5.30
   2   8 -10   62.99    5.30
  -2  -8  10   52.39    3.60
  -2  -8  10   77.99   11.20
  -2  -8  10   77.99   11.20
  -2  -8  10   52.39    3.60
   1   8 -10    4.80    4.50
   1   8 -10    4.80    4.50
  -1  -8  10   -0.30    1.10
  -1  -8  10   -0.30    1.10
  -1  -8  10   -4.70    2.20
  -1  -8  10   -4.70    2.20
   0   8 -10   55.89    6.00
   0   8 -10   55.89    6.00
   0  -8  10   83.79    9.10
   0  -8  10   83.79    9.10
   4   7 -10   19.90    3.70
   4   7 -10   19.90    3.70
   3   7 -10  111.09    7.00
   3   7 -10  111.09    7.00
  -3  -7  10  117.59   13.70
  -3  -7  10  117.59   13.70
   2   7 -10   56.79    5.10
   2   7 -10   56.79    5.10
  -2  -7  10   54.09   10.00
  -2  -7  10   54.09   10.00
   1   7 -10   49.00    5.20
   1   7 -10   49.00    5.20
  -1  -7  10   61.49    8.80
  -1  -7  10   61.49    8.80
   0   7 -10  130.39    8.40
   0   7 -10  130.39    8.40
   0  -7  10  159.58   10.80
   0  -7  10  159.58   10.80
  -1   7 -10    6.00    4.60
  -1   7 -10    6.00    4.60
   1  -7  10    3.50    1.00
   1  -7  10    3.50    1.00
   2  -7  10   50.39    8.50
   2  -7  10   50.39    8.50
   5   6 -10    6.00    2.90
   5   6 -10    6.00    2.90
  -5  -6  10    1.90    2.00
  -5  -6  10    1.90    2.00
   4   6 -10   85.89    5.50
   4   6 -10   85.89    5.50
  -4  -6  10   75.09   14.50
  -4  -6  10   75.09   14.50
   3   6 -10  124.19    6.80
   3   6 -10  124.19    6.80
  -3  -6  10  126.19   13.80
  -3  -6  10  126.19   13.80
  -3  -6  10  101.69    5.50
  -3  -6  10  101.69    5.50
  -2  -6  10    1.50    1.30
  -2  -6  10    1.50    1.30
   0   6 -10  118.49    8.00
   0   6 -10  118.49    8.00
   0  -6  10  162.08    9.80
   0  -6  10  162.08    9.80
  -1   6 -10   -3.70    4.30
  -1   6 -10   -3.70    4.30
   2  -6  10  181.38   10.70
   2  -6  10  181.38   10.70
  -6  -5  10    2.00    2.20
  -6  -5  10    2.00    2.20
   5   5 -10   10.20    3.00
   5   5 -10   10.20    3.00
   4   5 -10  307.17   14.10
   4   5 -10  307.17   14.10
  -4  -5  10  266.57   21.70
  -4  -5  10  266.57   21.70
   2   5 -10   81.19    5.10
   2   5 -10   81.19    5.10
  -2  -5  10   91.79    9.70
  -2  -5  10   91.79    9.70
   1   5 -10  289.37   14.30
   1   5 -10  289.37   14.30
  -1  -5  10  305.87   16.50
  -1  -5  10  305.87   16.50
   0   5 -10   45.20    4.60
   0   5 -10   45.20    4.60
   0  -5  10   55.69    5.80
   0  -5  10   55.69    5.80
  -1   5 -10  127.49    8.60
  -1   5 -10  127.49    8.60
   1  -5  10  151.88    8.60
   1  -5  10  151.88    8.60
   2  -5  10  226.08   12.00
   2  -5  10  226.08   12.00
  -3   5 -10    1.20    1.90
  -3   5 -10    1.20    1.90
  -4   5 -10   35.60    3.40
  -4   5 -10   35.60    3.40
  -7  -4  10   12.90    2.40
  -7  -4  10   12.90    2.40
  -6  -4  10   -0.30    1.70
  -6  -4  10   -0.30    1.70
   5   4 -10  118.49    5.90
   5   4 -10  118.49    5.90
  -5  -4  10   80.49   14.40
  -5  -4  10   80.49   14.40
   3   4 -10    6.20    2.50
   3   4 -10    6.20    2.50
   2   4 -10  395.86   19.70
   2   4 -10  395.86   19.70
  -2  -4  10  445.26   22.80
  -2  -4  10  445.26   22.80
   1   4 -10  145.29    7.70
   1   4 -10  145.29    7.70
  -1  -4  10  156.88   10.00
  -1  -4  10  156.88   10.00
   0   4 -10   36.00    3.60
   0   4 -10   36.00    3.60
   0  -4  10   40.30    5.00
   0  -4  10   40.30    5.00
  -1   4 -10  340.47   17.50
  -1   4 -10  340.47   17.50
   1  -4  10  374.46   17.80
   1  -4  10  374.46   17.80
  -3   4 -10   10.10    2.10
  -3   4 -10   10.10    2.10
  -4   4 -10  177.78   10.50
  -4   4 -10  177.78   10.50
  -7  -3  10   10.70    2.60
  -7  -3  10   10.70    2.60
  -6  -3  10   -1.40    2.00
  -6  -3  10   -1.40    2.00
  -5  -3  10  151.98   18.60
  -5  -3  10  151.98   18.60
   4   3 -10  154.98    7.20
   4   3 -10  154.98    7.20
  -4  -3  10  110.29   14.40
  -4  -3  10  110.29   14.40
   3   3 -10   70.39    4.00
   3   3 -10   70.39    4.00
  -3  -3  10   49.50    9.70
  -3  -3  10   49.50    9.70
   2   3 -10  488.55   23.60
   2   3 -10  488.55   23.60
  -2  -3  10  525.75   26.10
  -2  -3  10  525.75   26.10
   1   3 -10   83.99    5.00
   1   3 -10   83.99    5.00
  -1  -3  10   89.99    7.10
  -1  -3  10   89.99    7.10
   0   3 -10   72.89    5.10
   0   3 -10   72.89    5.10
   0  -3  10   99.39    9.20
   0  -3  10   99.39    9.20
  -1   3 -10  150.88    8.60
  -1   3 -10  150.88    8.60
   1  -3  10  165.98    8.80
   1  -3  10  165.98    8.80
  -3   3 -10  160.58    9.30
  -3   3 -10  160.58    9.30
  -4   3 -10  138.09    8.80
  -4   3 -10  138.09    8.80
  -8  -2  10   15.30    3.00
  -8  -2  10   15.30    3.00
  -7  -2  10    4.90    2.50
  -7  -2  10    4.90    2.50
  -6  -2  10   15.10    2.70
  -6  -2  10   15.10    2.70
  -5  -2  10  207.78   24.00
  -5  -2  10  207.78   24.00
   4   2 -10   12.50    2.30
   4   2 -10   12.50    2.30
   3   2 -10  347.57   16.20
   3   2 -10  347.57   16.20
  -3  -2  10  341.97   19.90
  -3  -2  10  341.97   19.90
   2   2 -10  506.25   24.30
   2   2 -10  506.25   24.30
  -2  -2  10  541.75   26.70
  -2  -2  10  541.75   26.70
   1   2 -10    4.90    2.40
   1   2 -10    4.90    2.40
   0   2 -10  744.83   34.70
   0   2 -10  744.83   34.70
   0  -2  10  749.82   35.50
   0  -2  10  749.82   35.50
  -1   2 -10  231.58   11.60
  -1   2 -10  231.58   11.60
  -3   2 -10  265.97   13.80
  -3   2 -10  265.97   13.80
  -4   2 -10   25.70    2.80
  -4   2 -10   25.70    2.80
  -5   2 -10   17.20    2.50
  -5   2 -10   17.20    2.50
  -8  -1  10  146.59   18.80
  -8  -1  10  146.59   18.80
  -7  -1  10    5.20    2.40
  -7  -1  10    5.20    2.40
  -6  -1  10  370.76   26.80
  -6  -1  10  370.76   26.80
  -5  -1  10  319.67   22.30
  -5  -1  10  319.67   22.30
   4   1 -10   35.50    2.70
   4   1 -10   35.50    2.70
   3   1 -10  513.35   27.10
   3   1 -10  513.35   27.10
  -3  -1  10  667.63   30.10
  -3  -1  10  667.63   30.10
   2   1 -10  218.68   11.00
   2   1 -10  218.68   11.00
  -2  -1  10  242.08   13.30
  -2  -1  10  242.08   13.30
   1   1 -10  196.78    9.60
   1   1 -10  196.78    9.60
   0   1 -10  690.63   31.10
   0   1 -10  690.63   31.10
   0  -1  10  649.64   31.80
   0  -1  10  649.64   31.80
  -1   1 -10   53.99    4.40
  -1   1 -10   53.99    4.40
  -3   1 -10  164.88    9.50
  -3   1 -10  164.88    9.50
  -4   1 -10    1.40    1.80
  -4   1 -10    1.40    1.80
  -5   1 -10   60.29    5.60
  -5   1 -10   60.29    5.60
  -8   0  10  138.59   21.90
  -8   0  10  138.59   21.90
  -5   0  10   64.19   10.60
  -5   0  10   64.19   10.60
   4   0 -10  200.28    9.60
   4   0 -10  200.28    9.60
   3   0 -10  449.06   20.80
   3   0 -10  449.06   20.80
   2   0 -10   -4.90    1.90
   2   0 -10   -4.90    1.90
  -2   0  10    9.60    3.90
  -2   0  10    9.60    3.90
   1   0 -10  579.14   26.90
   1   0 -10  579.14   26.90
   0   0 -10  474.35   22.90
   0   0 -10  474.35   22.90
   0   0  10  500.15   23.40
   0   0  10  500.15   23.40
  -1   0 -10   10.00    3.20
  -1   0 -10   10.00    3.20
  -2   0 -10  535.85   25.50
  -2   0 -10  535.85   25.50
  -3   0 -10   91.69    6.80
  -3   0 -10   91.69    6.80
  -4   0 -10    7.80    1.80
  -4   0 -10    7.80    1.80
  -8   1  10   67.29   14.70
  -8   1  10   67.39   14.70
  -7   1  10  420.76   25.10
  -7   1  10  420.56   25.10
  -6   1  10  365.66   22.00
  -6   1  10  365.46   22.00
   4  -1 -10  276.77   13.00
   4  -1 -10  276.77   13.00
   3  -1 -10  172.28    8.30
   3  -1 -10  172.28    8.30
   2  -1 -10   72.79    4.50
   2  -1 -10   72.79    4.50
  -2   1  10  100.29    5.90
  -2   1  10  100.39    5.90
   1  -1 -10  750.12   37.20
   1  -1 -10  750.12   37.20
  -1   1  10  862.61   37.50
  -1   1  10  862.51   37.50
   0   1  10   77.29    4.70
   0   1  10   77.19    4.70
  -2  -1 -10  319.27   15.80
  -2  -1 -10  319.27   15.80
  -4  -1 -10   86.09    6.10
  -4  -1 -10   86.09    6.10
  -6   2  10   38.70   12.40
  -6   2  10   38.80   12.40
  -5   2  10  156.68   12.30
  -5   2  10  156.68   12.30
   4  -2 -10  198.58    9.50
   4  -2 -10  198.58    9.50
   3  -2 -10    3.80    2.00
   3  -2 -10    3.80    2.00
  -3   2  10    9.30    5.10
  -3   2  10    9.30    5.10
   2  -2 -10  316.47   15.00
   2  -2 -10  316.47   15.00
  -2   2  10  318.77   15.40
  -2   2  10  318.77   15.40
   1  -2 -10  311.97   14.30
   1  -2 -10  311.97   14.30
  -1   2  10  289.97   14.40
  -1   2  10  289.97   14.40
   0  -2 -10   -7.40    2.60
   0  -2 -10   -7.40    2.60
   0   2  10   -2.10    2.50
   0   2  10   -2.10    2.50
  -1  -2 -10  406.56   20.70
  -1  -2 -10  406.56   20.70
   1   2  10  459.05   20.20
   1   2  10  458.95   20.20
  -2  -2 -10   53.59    4.90
  -2  -2 -10   53.59    4.90
  -4  -2 -10   73.79    5.70
  -4  -2 -10   73.79    5.70
  -7   3  10  130.39   14.20
  -7   3  10  130.39   14.20
   6  -3 -10   11.80    2.30
   6  -3 -10   11.80    2.30
  -6   3  10   19.20   11.20
  -6   3  10   19.20   11.20
   5  -3 -10  196.98    9.50
   5  -3 -10  196.98    9.50
   4  -3 -10  132.39    6.60
   4  -3 -10  132.39    6.60
   3  -3 -10   -0.20    2.20
   3  -3 -10   -0.20    2.20
  -3   3  10   15.70    5.30
  -3   3  10   15.70    5.30
   2  -3 -10  237.78   12.10
   2  -3 -10  237.78   12.10
  -2   3  10  247.18   12.30
  -2   3  10  247.18   12.30
  -1   3  10   95.49    5.70
  -1   3  10   95.49    5.70
   0   3  10   73.89    4.50
   0   3  10   73.89    4.50
  -1  -3 -10  162.48    9.40
  -1  -3 -10  162.48    9.40
   1   3  10  185.68    8.70
   1   3  10  185.68    8.70
   2   3  10   29.40    3.20
   2   3  10   29.40    3.20
  -3  -3 -10   29.80    3.30
  -3  -3 -10   29.80    3.30
   6  -4 -10   35.40    3.40
   6  -4 -10   35.40    3.40
  -6   4  10   53.99   11.40
  -6   4  10   53.99   11.40
   5  -4 -10  114.79    6.10
   5  -4 -10  116.39    6.10
   5  -4 -10  114.79    6.10
   5  -4 -10  116.39    6.10
  -4   4  10   38.10    7.80
  -4   4  10   38.20    7.80
  -2   4  10  253.57   12.90
  -2   4  10  253.57   12.90
  -1   4  10   13.20    3.90
  -1   4  10   13.20    3.90
   0   4  10  159.98    8.20
   0   4  10  159.98    8.20
  -1  -4 -10   58.09    5.60
  -1  -4 -10   58.09    5.60
   1   4  10   89.29    4.70
   1   4  10   89.29    4.70
  -2  -4 -10    2.00    1.70
  -2  -4 -10    2.00    1.70
   2   4  10    2.80    3.10
   2   4  10    2.90    3.10
   5  -5 -10   46.10    3.90
   5  -5 -10   46.10    3.90
  -5   5  10   76.69    8.30
  -5   5  10   76.79    8.30
  -4   5  10   -3.00    6.10
  -4   5  10   -3.00    6.10
  -3   5  10  127.29    8.50
  -3   5  10  127.29    8.50
  -2   5  10   60.89    5.80
  -2   5  10   60.79    5.70
  -1   5  10   59.79    7.70
  -1   5  10   59.69    7.70
   0   5  10  113.29    6.50
   0   5  10  113.29    6.50
   1   5  10   35.00    4.00
   1   5  10   34.90    4.00
  -4   6  10   17.70    6.60
  -4   6  10   17.50    6.50
  -3   6  10   54.59    6.40
  -3   6  10   54.59    6.50
  -2   6  10   -8.30    5.40
  -2   6  10   -8.30    5.40
  -1   6  10   70.19    5.70
  -1   6  10   70.19    5.70
   3   7 -11   88.89    5.70
   3   7 -11   88.89    5.70
  -3  -7  11  100.89   13.00
  -3  -7  11   66.49    4.20
  -3  -7  11   66.49    4.20
  -3  -7  11  100.89   13.00
   2   7 -11   71.19    5.70
   2   7 -11   71.19    5.70
  -2  -7  11   76.79   10.80
  -2  -7  11   76.79   10.80
   1   7 -11   13.50    4.60
   1   7 -11   13.50    4.60
   0   7 -11   96.69    7.40
   0   7 -11   96.69    7.40
   0  -7  11  128.59    9.70
   0  -7  11  128.59    9.70
  -1   7 -11   19.40    5.70
  -1   7 -11   19.40    5.70
   5   6 -11   11.70    3.40
   5   6 -11   11.70    3.40
   4   6 -11   38.00    4.30
   4   6 -11   38.00    4.30
   3   6 -11  118.69    6.90
   3   6 -11  118.69    6.90
  -3  -6  11  108.79   13.80
  -3  -6  11  108.79   13.80
   2   6 -11   31.30    4.30
   2   6 -11   31.30    4.30
   1   6 -11  109.29    7.10
   1   6 -11  109.29    7.10
  -1  -6  11  124.39   10.40
  -1  -6  11  124.39   10.40
   0   6 -11  161.78    8.90
   0   6 -11  161.78    8.90
  -1   6 -11   -8.60    4.40
  -1   6 -11   -8.60    4.40
   1  -6  11    0.20    0.70
   1  -6  11    0.20    0.70
   2  -6  11   95.59    7.90
   2  -6  11   95.59    7.90
   5   5 -11   -1.90    2.90
   5   5 -11   -1.90    2.90
  -5  -5  11    0.30    2.00
  -5  -5  11    0.30    2.00
   4   5 -11  108.29    6.20
   4   5 -11  108.29    6.20
  -4  -5  11   93.09   14.70
  -4  -5  11   93.09   14.70
   3   5 -11   54.29    4.70
   3   5 -11   54.29    4.70
  -3  -5  11   67.29   11.50
  -3  -5  11   67.29   11.50
   2   5 -11   13.60    3.50
   2   5 -11   13.60    3.50
   1   5 -11  255.77   13.10
   1   5 -11  255.77   13.10
  -1  -5  11  273.87   15.40
  -1  -5  11  273.87   15.40
   0   5 -11   86.79    6.00
   0   5 -11   86.79    6.00
   0  -5  11  100.39    7.50
   0  -5  11  100.39    7.50
  -1   5 -11   58.29    5.50
  -1   5 -11   58.29    5.50
   1  -5  11   47.50    5.30
   1  -5  11   47.50    5.30
   2  -5  11  234.88   12.40
   2  -5  11  234.88   12.40
  -3   5 -11    9.80    2.40
  -3   5 -11    9.80    2.40
  -6  -4  11    1.10    2.10
  -6  -4  11    1.10    2.10
   5   4 -11   33.40    3.40
   5   4 -11   33.40    3.40
   4   4 -11  302.97   14.60
   4   4 -11  302.97   14.60
   3   4 -11   48.90    5.10
   3   4 -11   48.90    5.10
  -2  -4  11   43.50    7.90
  -2  -4  11   43.50    7.90
  -1  -4  11  221.08   13.00
  -1  -4  11  221.08   13.00
   0   4 -11    9.60    3.90
   0   4 -11    9.60    3.90
  -1   4 -11  204.98   11.30
  -1   4 -11  204.98   11.30
   1  -4  11  226.98   11.60
   1  -4  11  226.98   11.60
  -3   4 -11    3.20    2.20
  -3   4 -11    3.20    2.20
  -7  -3  11   15.70    3.10
  -7  -3  11   15.70    3.10
   5   3 -11  167.68    7.90
   5   3 -11  167.68    7.90
  -5  -3  11  119.79   16.60
  -5  -3  11  119.79   16.60
   4   3 -11  174.08    9.30
   4   3 -11  174.08    9.30
   3   3 -11    0.00    2.90
   3   3 -11    0.00    2.90
  -3  -3  11   -1.00    1.10
  -3  -3  11   -1.00    1.10
   2   3 -11  701.13   34.80
   2   3 -11  701.13   34.80
  -2  -3  11  805.72   37.20
  -2  -3  11  805.72   37.20
   1   3 -11  213.78   10.90
   1   3 -11  213.78   10.90
  -1  -3  11  224.78   12.50
  -1  -3  11  224.78   12.50
   0   3 -11   16.50    4.80
   0   3 -11   16.50    4.80
  -1   3 -11  395.96   17.60
  -1   3 -11  395.96   17.60
   1  -3  11  331.97   18.00
   1  -3  11  331.97   18.00
  -3   3 -11  108.09    7.60
  -3   3 -11  108.09    7.60
  -4   3 -11  120.59    8.50
  -4   3 -11  120.59    8.50
  -7  -2  11    9.40    3.00
  -7  -2  11    9.40    3.00
  -6  -2  11    4.70    2.20
  -6  -2  11    4.70    2.20
   5   2 -11  232.78   10.90
   5   2 -11  232.78   10.90
  -5  -2  11  206.98   18.50
  -5  -2  11  206.98   18.50
   3   2 -11  188.18    9.00
   3   2 -11  188.18    9.00
  -3  -2  11  174.38   13.20
  -3  -2  11  174.38   13.20
   2   2 -11  418.66   20.30
   2   2 -11  418.66   20.30
  -2  -2  11  451.35   22.70
  -2  -2  11  451.35   22.70
   1   2 -11   38.40    3.80
   1   2 -11   38.40    3.80
   0   2 -11  432.86   21.10
   0   2 -11  432.86   21.10
   0  -2  11  459.15   22.50
   0  -2  11  459.15   22.50
  -3   2 -11  204.68   11.40
  -3   2 -11  204.68   11.40
  -4   2 -11   41.90    3.70
  -4   2 -11   41.90    3.70
  -7  -1  11    3.00    2.30
  -7  -1  11    3.00    2.30
  -6  -1  11  258.37   21.90
  -6  -1  11  258.47   21.90
  -5  -1  11  340.17   22.70
  -5  -1  11  340.17   22.70
   4   1 -11    4.70    2.30
   4   1 -11    4.70    2.30
  -4  -1  11    4.00    1.40
  -4  -1  11    4.00    1.40
   3   1 -11  401.36   21.70
   3   1 -11  401.36   21.70
  -3  -1  11  536.55   24.60
  -3  -1  11  536.55   24.60
   2   1 -11  244.48   12.70
   2   1 -11  244.48   12.70
  -2  -1  11  293.07   14.90
  -2  -1  11  293.07   14.90
   1   1 -11   65.09    4.20
   1   1 -11   65.09    4.20
  -1  -1  11   53.89    5.80
  -1  -1  11   53.89    5.80
   0   1 -11  608.94   27.90
   0   1 -11  608.94   27.90
   0  -1  11  583.44   28.60
   0  -1  11  583.44   28.60
  -1   1 -11   98.09    6.30
  -1   1 -11   98.09    6.30
  -2   1 -11  112.09    7.70
  -2   1 -11  112.09    7.70
  -3   1 -11  194.38   11.00
  -3   1 -11  194.38   11.00
  -4   1 -11    2.50    2.20
  -4   1 -11    2.50    2.20
   5   0 -11   45.90    3.60
   5   0 -11   45.90    3.60
   4   0 -11   71.49    4.10
   4   0 -11   71.49    4.10
   3   0 -11  427.76   19.90
   3   0 -11  427.76   19.90
   2   0 -11   31.10    3.10
   2   0 -11   31.10    3.10
   1   0 -11  234.98   11.50
   1   0 -11  234.98   11.50
   0   0 -11  346.17   17.50
   0   0 -11  346.17   17.50
   0   0  11  381.46   18.00
   0   0  11  381.46   18.00
  -1   0 -11  -10.70    3.30
  -1   0 -11  -10.70    3.30
  -2   0 -11  253.47   13.60
  -2   0 -11  253.47   13.60
  -3   0 -11  100.49    7.20
  -3   0 -11  100.49    7.20
  -4   0 -11   -4.90    1.70
  -4   0 -11   -4.90    1.70
  -7   1  11  161.58   15.90
  -7   1  11  161.58   16.00
  -6   1  11  345.07   21.30
  -6   1  11  344.67   21.30
   5  -1 -11   -0.50    2.20
   5  -1 -11   -0.50    2.20
  -5   1  11    8.90    9.70
  -5   1  11    8.90    9.70
   4  -1 -11  195.38    9.40
   4  -1 -11  195.38    9.40
   3  -1 -11  158.98    7.90
   3  -1 -11  158.98    7.90
   2  -1 -11   16.00    2.70
   2  -1 -11   16.00    2.70
   1  -1 -11  443.86   23.00
   1  -1 -11  443.86   23.00
  -1   1  11  536.55   23.10
  -1   1  11  536.65   23.10
   0  -1 -11  125.79    7.10
   0  -1 -11  125.79    7.10
  -3  -1 -11    5.40    2.20
  -3  -1 -11    5.40    2.20
  -7   2  11  509.15   29.20
  -7   2  11  509.15   29.20
  -6   2  11  257.87   17.70
  -6   2  11  257.77   17.70
   5  -2 -11   20.60    2.80
   5  -2 -11   20.60    2.80
  -5   2  11   45.90   10.30
  -5   2  11   45.90   10.30
   4  -2 -11  194.18    9.40
   4  -2 -11  194.18    9.40
   3  -2 -11   48.00    3.40
   3  -2 -11   48.00    3.40
   2  -2 -11  116.99    7.00
   2  -2 -11  116.99    7.00
  -2   2  11  152.58    7.70
  -2   2  11  152.58    7.70
   1  -2 -11  262.77   13.50
   1  -2 -11  262.77   13.50
  -1   2  11  295.77   13.60
  -1   2  11  295.77   13.60
   0  -2 -11    6.00    3.20
   0  -2 -11    6.00    3.20
  -1  -2 -11  193.48   10.40
  -1  -2 -11  193.48   10.40
   1   2  11  191.98    9.70
   1   2  11  191.98    9.70
  -2  -2 -11  161.98   10.80
  -2  -2 -11  161.98   10.80
  -6   3  11   21.90   11.20
  -6   3  11   21.90   11.20
   5  -3 -11  196.18    9.60
   5  -3 -11  196.18    9.60
   4  -3 -11  153.78    7.70
   4  -3 -11  153.78    7.70
   3  -3 -11   -6.10    2.60
   3  -3 -11   -6.10    2.60
   2  -3 -11  209.58   10.80
   2  -3 -11  209.58   10.80
  -2   3  11  231.38   11.40
  -2   3  11  231.38   11.40
   1  -3 -11   70.69    5.40
   1  -3 -11   70.69    5.40
  -1   3  11   99.79    5.50
  -1   3  11   99.69    5.50
   0   3  11   27.20    3.60
   0   3  11   27.20    3.60
  -1  -3 -11  154.28    9.60
  -1  -3 -11  154.28    9.60
   1   3  11  184.18    8.70
   1   3  11  184.18    8.70
  -2  -3 -11    4.70    2.10
  -2  -3 -11    4.70    2.10
   6  -4 -11   11.20    3.30
   6  -4 -11   11.20    3.30
  -6   4  11   29.50   11.10
  -6   4  11   29.50   11.10
   5  -4 -11   70.19    4.50
   5  -4 -11   70.19    4.50
   4  -4 -11   25.10    3.40
   4  -4 -11   25.10    3.40
  -4   4  11   44.50    7.70
  -4   4  11   44.50    7.60
  -3   4  11   71.19    6.60
  -3   4  11   71.29    6.60
  -1   4  11   18.30    4.30
  -1   4  11   18.30    4.30
   0  -4 -11   47.50    5.40
   0  -4 -11   47.50    5.40
   0   4  11   47.00    4.10
   0   4  11   47.00    4.10
  -1  -4 -11   38.30    3.10
  -1  -4 -11   38.30    3.10
  -4   5  11   -0.80    7.60
  -4   5  11   -0.80    7.60
  -3   5  11   99.29    7.60
  -3   5  11   99.29    7.60
  -2   5  11   56.49    5.80
  -2   5  11   56.49    5.80
  -1   5  11   -0.40    5.00
  -1   5  11   -0.40    5.00
   0   5  11   93.99    7.30
   0   5  11   93.99    7.30
   4   6 -12   11.70    4.00
   4   6 -12   11.70    4.00
   3   6 -12  104.89    6.70
   3   6 -12  104.89    6.70
  -3  -6  12  113.79   13.80
  -3  -6  12  113.79   13.80
   2   6 -12   30.30    4.50
   2   6 -12   30.30    4.50
   1   6 -12   53.19    5.50
   1   6 -12   53.19    5.50
  -1  -6  12   62.59    8.60
  -1  -6  12   62.59    8.60
   0   6 -12  135.59    8.40
   0   6 -12  135.59    8.40
   0  -6  12  149.09   10.50
   0  -6  12  149.09   10.50
  -1   6 -12   -5.30    4.70
  -1   6 -12   -5.30    4.70
   5   5 -12    4.20    3.30
   5   5 -12    4.20    3.30
  -5  -5  12    1.10    2.00
  -5  -5  12    1.10    2.00
   3   5 -12  101.59    6.30
   3   5 -12  101.59    6.30
  -3  -5  12  109.69   12.30
  -3  -5  12  109.69   12.30
   2   5 -12    4.00    3.50
   2   5 -12    4.00    3.50
   1   5 -12  167.18    9.20
   1   5 -12  167.18    9.20
   0   5 -12  106.79    6.70
   0   5 -12  106.79    6.70
   0  -5  12  103.79    8.20
   0  -5  12  103.79    8.20
  -1   5 -12    9.40    4.70
  -1   5 -12    9.40    4.70
   6   4 -12   22.90    3.30
   6   4 -12   22.90    3.30
   5   4 -12   10.40    3.10
   5   4 -12   10.40    3.10
   4   4 -12  291.87   14.30
   4   4 -12  291.87   14.30
  -4  -4  12  300.17   19.80
  -4  -4  12  300.17   19.80
   3   4 -12   49.50    4.50
   3   4 -12   49.50    4.50
  -3  -4  12   52.59    9.80
  -3  -4  12   52.59    9.80
   2   4 -12   42.50    4.00
   2   4 -12   42.50    4.00
   1   4 -12  267.27   13.70
   1   4 -12  267.27   13.70
  -1  -4  12  284.47   15.50
  -1  -4  12  284.47   15.50
   0   4 -12   27.80    4.20
   0   4 -12   27.80    4.20
   0  -4  12   29.20    5.30
   0  -4  12   29.20    5.30
  -1   4 -12   86.89    6.70
  -1   4 -12   86.89    6.70
   1  -4  12  104.79    7.00
   1  -4  12  104.79    7.00
   6   3 -12    7.50    2.70
   6   3 -12    7.50    2.70
  -6  -3  12   -2.20    2.00
  -6  -3  12   -2.20    2.00
   4   3 -12  117.59    6.60
   4   3 -12  117.59    6.60
  -4  -3  12  123.49   13.50
  -4  -3  12  123.49   13.50
   3   3 -12   -1.10    3.00
   3   3 -12   -1.10    3.00
   2   3 -12  220.48   11.00
   2   3 -12  220.48   11.00
  -2  -3  12  227.38   13.90
  -2  -3  12  227.38   13.90
   1   3 -12  103.09    6.50
   1   3 -12  103.09    6.50
  -1  -3  12  110.29    8.10
  -1  -3  12  110.29    8.10
   0   3 -12    7.00    3.70
   0   3 -12    7.00    3.70
  -1   3 -12  185.68   10.40
  -1   3 -12  185.68   10.40
   1  -3  12  200.58   10.60
   1  -3  12  200.58   10.60
  -3   3 -12   19.10    2.70
  -3   3 -12   19.10    2.70
  -7  -2  12   10.40    3.20
  -7  -2  12   10.40    3.20
   6   2 -12    7.70    2.70
   6   2 -12    7.70    2.70
  -6  -2  12   -1.20    2.10
  -6  -2  12   -1.20    2.10
   5   2 -12  138.79    7.10
   5   2 -12  138.79    7.10
  -5  -2  12  122.89   15.20
  -5  -2  12  122.89   15.20
   4   2 -12   74.79    4.60
   4   2 -12   74.79    4.60
  -4  -2  12   65.79   11.90
  -4  -2  12   65.79   11.90
   3   2 -12   44.70    4.40
   3   2 -12   44.70    4.40
  -2  -2  12  350.76   19.00
  -2  -2  12  350.76   19.00
  -1  -2  12   54.69    6.20
  -1  -2  12   54.69    6.20
   0   2 -12   65.99    5.20
   0   2 -12   65.99    5.20
   0  -2  12   66.99    5.70
   0  -2  12   66.99    5.70
  -1   2 -12  210.98   11.10
  -1   2 -12  210.98   11.10
  -3   2 -12  181.88   10.90
  -3   2 -12  181.88   10.90
  -7  -1  12    7.80    2.60
  -7  -1  12    7.80    2.60
  -6  -1  12   97.89   16.60
  -6  -1  12   97.89   16.60
   5   1 -12  148.79    7.60
   5   1 -12  148.79    7.60
   4   1 -12    9.60    2.90
   4   1 -12    9.60    2.90
  -4  -1  12    4.20    1.30
  -4  -1  12    4.20    1.30
   3   1 -12  145.19    8.80
   3   1 -12  145.19    8.80
  -3  -1  12  189.18   11.90
  -3  -1  12  189.18   11.90
   2   1 -12  245.28   12.80
   2   1 -12  245.28   12.80
  -2  -1  12  286.47   14.80
  -2  -1  12  286.47   14.80
   1   1 -12    2.70    3.80
   1   1 -12    2.70    3.80
   0  -1  12  268.47   14.10
   0  -1  12  268.47   14.10
  -1   1 -12  102.09    6.80
  -1   1 -12  102.09    6.80
  -2   1 -12   22.20    2.70
  -2   1 -12   22.20    2.70
  -3   1 -12  179.48   10.70
  -3   1 -12  179.48   10.70
   6   0 -12   84.79    5.00
   6   0 -12   84.79    5.00
   5   0 -12   68.59    4.40
   5   0 -12   68.59    4.40
   3   0 -12  284.37   13.60
   3   0 -12  284.37   13.60
   2   0 -12  135.69    7.20
   2   0 -12  135.69    7.20
   1   0 -12   64.79    5.50
   1   0 -12   64.79    5.50
  -1   0  12   92.79    6.60
  -1   0  12   92.79    6.60
   0   0 -12  319.67   17.70
   0   0 -12  319.67   17.70
   0   0  12  378.36   17.60
   0   0  12  378.36   17.60
  -2   0 -12  127.49    8.40
  -2   0 -12  127.49    8.40
  -3   0 -12  109.09    8.10
  -3   0 -12  109.09    8.10
  -5   1  12   83.39   11.00
  -5   1  12   83.39   11.00
   4  -1 -12   79.29    4.70
   4  -1 -12   79.29    4.70
   3  -1 -12  211.78   10.30
   3  -1 -12  211.78   10.30
   2  -1 -12   -2.40    2.90
   2  -1 -12   -2.40    2.90
  -2   1  12   15.10    4.80
  -2   1  12   15.10    4.80
   1  -1 -12  231.28   13.30
   1  -1 -12  231.28   13.30
  -1   1  12  310.57   13.40
  -1   1  12  310.37   13.40
   0  -1 -12  255.87   12.90
   0  -1 -12  255.87   12.90
  -2  -1 -12  245.78   13.40
  -2  -1 -12  245.78   13.40
  -5   2  12   47.00   10.90
  -5   2  12   47.00   10.90
   4  -2 -12  146.29    7.50
   4  -2 -12  146.29    7.50
   3  -2 -12   68.99    4.40
   3  -2 -12   68.99    4.40
   2  -2 -12   60.39    4.90
   2  -2 -12   60.39    4.90
  -2   2  12   64.59    5.50
  -2   2  12   64.59    5.50
   1  -2 -12  261.17   14.50
   1  -2 -12  261.17   14.50
  -1   2  12  329.77   14.50
  -1   2  12  329.77   14.50
   0   2  12   47.10    4.70
   0   2  12   47.10    4.70
  -2  -2 -12  158.18    9.80
  -2  -2 -12  158.18    9.80
   5  -3 -12   42.80    4.00
   5  -3 -12   42.80    4.00
   4  -3 -12   94.39    5.60
   4  -3 -12   94.39    5.60
   3  -3 -12   -1.30    3.30
   3  -3 -12   -1.30    3.30
  -3   3  12    7.20    6.20
  -3   3  12    7.20    6.20
   2  -3 -12   84.89    5.60
   2  -3 -12   84.89    5.60
   1  -3 -12  105.29    7.30
   1  -3 -12  105.29    7.30
  -1   3  12  148.39    7.40
  -1   3  12  148.49    7.40
   0   3  12    2.30    3.50
   0   3  12    2.20    3.50
  -1  -3 -12  123.79    8.70
  -1  -3 -12  123.79    8.70
   1   3  12  137.69    7.50
   1   3  12  137.69    7.50
   4  -4 -12   51.19    4.60
   4  -4 -12   51.19    4.60
  -4   4  12   82.79    7.70
  -4   4  12   82.89    7.70
  -3   4  12   10.60    6.00
  -3   4  12   10.60    6.00
  -2   4  12  141.99    8.50
  -2   4  12  142.09    8.50
  -1   4  12   56.59    9.50
  -1   4  12   56.59    9.50
   0  -4 -12   32.90    3.10
   0  -4 -12   32.90    3.10
   0   4  12   39.70    4.10
   0   4  12   39.60    4.10
   4   5 -13   40.60    4.70
   4   5 -13   40.60    4.70
   3   5 -13  113.99    7.20
   3   5 -13  113.99    7.20
  -3  -5  13  137.19   12.80
  -3  -5  13  137.19   12.80
   2   5 -13   12.70    4.10
   2   5 -13   12.70    4.10
   1   5 -13  106.99    6.80
   1   5 -13  106.99    6.80
  -1  -5  13   95.79    9.60
  -1  -5  13   95.79    9.60
   0   5 -13  136.49    7.90
   0   5 -13  136.49    7.90
   0  -5  13  119.09   12.20
   0  -5  13  119.09   12.20
   5   4 -13    3.50    3.40
   5   4 -13    3.50    3.40
   4   4 -13   75.89    5.30
   4   4 -13   75.89    5.30
  -4  -4  13   71.09   11.80
  -4  -4  13   71.09   11.80
   3   4 -13   37.00    3.90
   3   4 -13   37.00    3.90
  -3  -4  13   48.00    9.10
  -3  -4  13   48.00    9.10
   2   4 -13   11.20    3.60
   2   4 -13   11.20    3.60
   1   4 -13  192.48   10.20
   1   4 -13  192.48   10.20
   0   4 -13   65.59    5.40
   0   4 -13   65.59    5.40
   0  -4  13   65.49    6.70
   0  -4  13   65.49    6.70
  -1   4 -13   46.80    5.90
  -1   4 -13   46.80    5.90
   1  -4  13   33.50    5.30
   1  -4  13   33.50    5.30
   5   3 -13   28.30    3.80
   5   3 -13   28.30    3.80
   4   3 -13  181.78    9.20
   4   3 -13  181.78    9.20
  -4  -3  13  173.08   14.90
  -4  -3  13  173.08   14.90
   3   3 -13   27.90    3.50
   3   3 -13   27.90    3.50
   2   3 -13   48.90    4.20
   2   3 -13   48.90    4.20
   1   3 -13  171.98    9.10
   1   3 -13  171.98    9.10
  -1  -3  13  166.88   10.80
  -1  -3  13  166.88   10.80
   0   3 -13   -4.20    3.80
   0   3 -13   -4.20    3.80
   0  -3  13    0.20    0.60
   0  -3  13    0.20    0.60
  -1   3 -13  186.18   10.30
  -1   3 -13  186.18   10.30
   6   2 -13   -2.50    2.90
   6   2 -13   -2.50    2.90
   4   2 -13  113.39    6.30
   4   2 -13  113.39    6.30
  -4  -2  13  111.79   12.40
  -4  -2  13  111.79   12.40
   3   2 -13    9.10    2.90
   3   2 -13    9.10    2.90
   2   2 -13  243.08   12.10
   2   2 -13  243.08   12.10
  -2  -2  13  248.28   14.70
  -2  -2  13  248.28   14.70
   1   2 -13   56.19    4.70
   1   2 -13   56.19    4.70
  -1  -2  13   53.99    6.30
  -1  -2  13   53.99    6.30
   0   2 -13   21.50    4.60
   0   2 -13   21.50    4.60
  -1   2 -13  157.58    9.10
  -1   2 -13  157.58    9.10
  -2   2 -13   71.89    7.00
  -2   2 -13   71.89    7.00
   6   1 -13   23.40    3.20
   6   1 -13   23.40    3.20
  -6  -1  13    9.50    2.20
  -6  -1  13    9.50    2.20
   5   1 -13  127.39    6.90
   5   1 -13  127.39    6.90
   4   1 -13   38.00    3.60
   4   1 -13   38.00    3.60
   3   1 -13   89.99    5.80
   3   1 -13   89.99    5.80
  -3  -1  13  126.09   10.10
  -3  -1  13  126.09   10.10
   2   1 -13  274.37   14.60
   2   1 -13  274.37   14.60
  -2  -1  13  327.07   16.50
  -2  -1  13  327.07   16.50
   1   1 -13   16.40    4.20
   1   1 -13   16.40    4.20
   0   1 -13  120.99    7.50
   0   1 -13  120.99    7.50
   0  -1  13  117.39    8.00
   0  -1  13  117.39    8.00
  -1   1 -13  106.29    7.40
  -1   1 -13  106.29    7.40
  -2   1 -13   14.30    2.70
  -2   1 -13   14.30    2.70
   3   0 -13  149.09    7.80
   3   0 -13  149.09    7.80
   2   0 -13  129.39    8.60
   2   0 -13  129.39    8.60
  -2   0  13  186.18   10.40
  -2   0  13  186.18   10.40
   1   0 -13   48.80    5.20
   1   0 -13   48.80    5.20
  -1   0  13   66.19    6.20
  -1   0  13   66.19    6.20
   0   0 -13  241.98   13.00
   0   0 -13  241.98   13.00
   0   0  13  258.87   13.50
   0   0  13  258.87   13.50
  -2   0 -13   31.50    3.40
  -2   0 -13   31.50    3.40
  -5   1  13  103.69   10.10
  -5   1  13  103.79   10.10
   4  -1 -13   36.50    3.90
   4  -1 -13   36.50    3.90
  -3   1  13  367.46   18.40
  -3   1  13  367.46   18.40
   1  -1 -13  100.59    9.70
   1  -1 -13  100.59    9.70
   0  -1 -13  155.88    9.60
   0  -1 -13  155.88    9.60
   0   1  13  181.48    9.80
   0   1  13  181.48    9.80
  -5   2  13   28.30    9.90
  -5   2  13   28.30    9.90
  -4   2  13  202.78   12.60
  -4   2  13  202.68   12.60
   3  -2 -13   84.19    6.20
   3  -2 -13   84.19    6.20
   2  -2 -13    3.20    4.00
   2  -2 -13    3.20    4.00
  -2   2  13   18.60    7.00
  -2   2  13   18.70    7.00
  -1   2  13  241.28   12.40
  -1   2  13  241.38   12.40
   4  -3 -13   82.79    6.20
   4  -3 -13   82.79    6.20
  -3   3  13   34.40    6.70
  -3   3  13   34.50    6.70
   2  -3 -13   61.39    5.90
   2  -3 -13   61.39    5.90
  -2   3  13   98.79    6.60
  -2   3  13   98.79    6.60
   1  -3 -13   91.69    6.40
   1  -3 -13   91.69    6.40
   3   4 -14   65.59    4.90
   3   4 -14   65.59    4.90
  -3  -4  14   63.79   10.00
  -3  -4  14   63.79   10.00
   2   4 -14   -2.20    3.90
   2   4 -14   -2.20    3.90
  -2  -4  14   -0.50    1.00
  -2  -4  14   -0.50    1.00
   1   4 -14  131.79    7.70
   1   4 -14  131.79    7.70
  -1  -4  14  123.49   10.00
  -1  -4  14  123.49   10.00
   4   3 -14  132.19    7.20
   4   3 -14  132.19    7.20
  -4  -3  14  120.49   13.00
  -4  -3  14  120.49   13.00
   3   3 -14   21.80    3.70
   3   3 -14   21.80    3.70
   2   3 -14   16.80    4.10
   2   3 -14   16.80    4.10
   1   3 -14  119.29    7.20
   1   3 -14  119.29    7.20
   0   3 -14   18.50    4.90
   0   3 -14   18.50    4.90
   4   2 -14  109.89    6.60
   4   2 -14  109.89    6.60
  -4  -2  14  124.39   12.40
  -4  -2  14  124.39   12.40
   3   2 -14    1.40    3.00
   3   2 -14    1.40    3.00
   2   2 -14  106.29    6.40
   2   2 -14  106.29    6.40
  -2  -2  14   92.39    9.50
  -2  -2  14   92.39    9.50
   1   2 -14   97.09    6.20
   1   2 -14   97.09    6.20
  -1  -2  14   91.89    7.70
  -1  -2  14   91.89    7.70
   0   2 -14   -2.80    4.80
   0   2 -14   -2.80    4.80
   0  -2  14    0.00    0.70
   0  -2  14    0.00    0.70
   5   1 -14   67.89    4.70
   5   1 -14   67.89    4.70
   4   1 -14   42.20    4.30
   4   1 -14   42.20    4.30
  -4  -1  14   60.39    9.50
  -4  -1  14   60.39    9.50
   3   1 -14   36.40    3.70
   3   1 -14   36.40    3.70
  -3  -1  14   46.00    8.20
  -3  -1  14   46.00    8.20
   2   1 -14  175.68    9.70
   2   1 -14  175.68    9.70
  -2  -1  14  190.48   12.40
  -2  -1  14  190.48   12.40
   1   1 -14   28.60    4.60
   1   1 -14   28.60    4.60
   0   1 -14   70.29    6.20
   0   1 -14   70.29    6.20
   0  -1  14   40.30    5.60
   0  -1  14   40.30    5.60
   5   0 -14   90.99    5.60
   5   0 -14   90.99    5.60
   4   0 -14   -1.30    3.00
   4   0 -14   -1.30    3.00
   3   0 -14   56.79    4.50
   3   0 -14   56.79    4.50
   2   0 -14  128.99    8.10
   2   0 -14  128.99    8.10
  -2   0  14  156.18   10.40
  -2   0  14  156.18   10.40
   1   0 -14    8.60    4.30
   1   0 -14    8.60    4.30
   0   0 -14  121.29    8.00
   0   0 -14  121.29    8.00
   4  -1 -14    7.90    3.20
   4  -1 -14    7.90    3.20
   3  -1 -14  140.99    8.00
   3  -1 -14  140.99    8.00
   2  -1 -14   47.90    5.10
   2  -1 -14   47.90    5.10
   1  -1 -14   60.59    6.10
   1  -1 -14   60.59    6.10
  -1   1  14   49.00    5.70
  -1   1  14   49.00    5.70

_computing_structure_solution     'SHELXT 2014/4 (Sheldrick, 2014)'
_computing_structure_solution     'SHELXT 2014/4 (Sheldrick, 2014)'
;
_shelx_hkl_checksum              96218
loop_
_space_group_symop_operation_xyz
'x, y, z'
'-x, -y, -z'
loop_
_atom_site_type_symbol
_atom_site_label
_atom_site_fract_x
_atom_site_fract_y
_atom_site_fract_z
_atom_site_U_iso_or_equiv
_atom_site_adp_type
_atom_site_calc_flag
_atom_site_refinement_flags_adp
_atom_site_refinement_flags_posn
_atom_site_occupancy
Au Au01 0.67880(8) 0.58091(8) 0.45972(5) 0.0562(4) Uani d . . 1
C C1 0.240(3) 1.333(2) 0.0576(16) 0.084(7) Uani d . D 1
C C2 0.301(2) 1.206(2) 0.1260(19) 0.069(6) Uani d . . 1
C C3 0.311(3) 1.055(3) 0.0736(17) 0.076(6) Uani d . . 1
H H3 0.273 1.0322 -0.006 0.091 Uiso calc U R 1
C C4 0.355(3) 1.241(3) 0.2420(19) 0.074(6) Uani d . . 1
H H4 0.3484 1.3466 0.2798 0.089 Uiso calc U R 1
C C5 0.374(3) 0.933(3) 0.1343(19) 0.071(6) Uani d . . 1
H H5 0.3832 0.8277 0.0957 0.086 Uiso calc U R 1
C C6 0.419(3) 1.119(3) 0.3017(18) 0.060(5) Uani d . . 1
H H6 0.4602 1.1458 0.3811 0.072 Uiso calc U R 1
C C7 0.427(2) 0.963(2) 0.2535(18) 0.054(4) Uani d . . 1
C C8 0.502(2) 0.843(2) 0.3131(16) 0.051(4) Uani d U D 1
C C9 0.557(2) 0.736(2) 0.3667(16) 0.058(5) Uani d U D 1
C C10 0.806(2) 0.438(2) 0.5555(15) 0.047(4) Uani d U D 1
C C11 0.961(4) 0.269(2) 0.7100(19) 0.113(14) Uani d . D 1
H H11A 0.8806 0.2609 0.7593 0.135 Uiso calc U R 1
H H11B 1.078 0.3233 0.7557 0.135 Uiso calc U R 1
C C12 0.983(3) 0.0986(18) 0.6498(14) 0.057(4) Uani d U D 1
H H12A 1.0587 0.109 0.5978 0.068 Uiso calc U R 1
H H12B 0.8652 0.0448 0.6058 0.068 Uiso calc U R 1
C C13 1.072(3) -0.0041(16) 0.7397(14) 0.055(3) Uani d U D 1
H H13A 1.1899 0.0515 0.7831 0.066 Uiso calc U R 1
H H13B 0.9972 -0.0105 0.7923 0.066 Uiso calc U R 1
C C14 1.099(3) -0.1787(16) 0.6890(16) 0.062(4) Uani d U D 1
H H14A 1.1806 -0.1728 0.6401 0.075 Uiso calc U R 1
H H14B 0.9827 -0.2323 0.6418 0.075 Uiso calc U R 1
C C15 1.177(4) -0.283(3) 0.780(2) 0.082(7) Uani d U D 1
H H15A 1.306 -0.253 0.8101 0.124 Uiso calc U R 1
H H15B 1.1571 -0.3987 0.7473 0.124 Uiso calc U R 1
H H15C 1.1186 -0.2633 0.8409 0.124 Uiso calc U R 1
F F1 0.332(4) 1.357(4) -0.017(3) 0.175(11) Uani d U D 1
F F2 0.075(3) 1.293(3) -0.012(2) 0.151(9) Uani d U D 1
F F3 0.214(4) 1.472(2) 0.1191(18) 0.123(7) Uani d U D 1
N N1 0.883(2) 0.359(2) 0.6185(14) 0.059(4) Uani d U D 1
loop_
_atom_site_aniso_label
_atom_site_aniso_U_11
_atom_site_aniso_U_22
_atom_site_aniso_U_33
_atom_site_aniso_U_12
_atom_site_aniso_U_13
_atom_site_aniso_U_23
Au01 0.0588(6) 0.0612(6) 0.0469(6) 0.0088(4) 0.0103(4) 0.0087(4)
C1 0.083(16) 0.103(18) 0.087(18) 0.029(13) 0.036(14) 0.055(15)
C2 0.079(14) 0.064(11) 0.059(13) 0.028(10) 0.005(10) 0.008(9)
C3 0.103(17) 0.065(11) 0.040(10) 0.010(11) -0.005(10) -0.010(8)
C4 0.081(15) 0.070(12) 0.056(12) 0.020(10) 0.000(10) -0.010(10)
C5 0.099(16) 0.056(10) 0.050(12) 0.020(10) 0.001(10) 0.004(8)
C6 0.055(11) 0.087(14) 0.043(10) 0.019(9) 0.020(8) 0.009(9)
C7 0.038(8) 0.059(10) 0.069(12) -0.005(7) 0.018(8) 0.018(9)
C8 0.045(7) 0.064(8) 0.044(7) 0.007(6) 0.007(6) 0.012(6)
C9 0.045(7) 0.081(9) 0.057(8) -0.013(6) 0.036(7) 0.002(7)
C10 0.043(7) 0.057(7) 0.048(7) -0.002(6) 0.021(6) 0.012(6)
C11 0.19(3) 0.057(12) 0.056(14) -0.041(16) -0.028(17) 0.018(11)
C12 0.061(9) 0.051(7) 0.050(8) -0.003(7) 0.004(7) 0.001(7)
C13 0.066(8) 0.041(6) 0.054(8) 0.001(6) 0.009(6) 0.009(6)
C14 0.074(9) 0.038(6) 0.067(9) 0.003(6) 0.006(7) 0.005(6)
C15 0.092(14) 0.066(11) 0.083(14) 0.022(10) 0.014(12) 0.005(10)
F1 0.194(19) 0.171(16) 0.182(18) 0.054(14) 0.062(15) 0.073(14)
F2 0.156(15) 0.132(13) 0.139(15) 0.037(12) -0.025(12) 0.044(12)
F3 0.164(16) 0.087(10) 0.111(12) 0.049(10) 0.015(11) 0.021(9)
N1 0.062(7) 0.065(7) 0.058(7) -0.005(6) 0.030(6) 0.015(6)
loop_
_atom_type_symbol
_atom_type_description
_atom_type_scat_dispersion_real
_atom_type_scat_dispersion_imag
_atom_type_scat_source
C C 0.0033 0.0016 'International Tables Vol C Tables 4.2.6.8 and 6.1.1.4'
H H 0.0000 0.0000 'International Tables Vol C Tables 4.2.6.8 and 6.1.1.4'
N N 0.0061 0.0033 'International Tables Vol C Tables 4.2.6.8 and 6.1.1.4'
F F 0.0171 0.0103 'International Tables Vol C Tables 4.2.6.8 and 6.1.1.4'
Au Au -2.0133 8.8022 'International Tables Vol C Tables 4.2.6.8 and 6.1.1.4'
loop_
_geom_angle_atom_site_label_1
_geom_angle_atom_site_label_2
_geom_angle_atom_site_label_3
_geom_angle
C10 Au01 C9 177.3(6)
F3 C1 F1 114.(2)
F3 C1 F2 101.1(19)
F1 C1 F2 100.(3)
F3 C1 C2 112.7(18)
F1 C1 C2 115.2(19)
F2 C1 C2 112.3(18)
C3 C2 C4 120.(2)
C3 C2 C1 119.(2)
C4 C2 C1 121.5(19)
C2 C3 C5 121.(2)
C2 C3 H3 119.5
C5 C3 H3 119.5
C6 C4 C2 119.(2)
C6 C4 H4 120.4
C2 C4 H4 120.4
C3 C5 C7 120.7(19)
C3 C5 H5 119.6
C7 C5 H5 119.6
C7 C6 C4 124.(2)
C7 C6 H6 118.1
C4 C6 H6 118.1
C6 C7 C8 124.(2)
C6 C7 C5 115.6(18)
C8 C7 C5 120.1(19)
C9 C8 C7 175.5(19)
C8 C9 Au01 171.7(16)
N1 C10 Au01 175.9(18)
N1 C11 C12 104.6(15)
N1 C11 H11A 110.8
C12 C11 H11A 110.8
N1 C11 H11B 110.8
C12 C11 H11B 110.8
H11A C11 H11B 108.9
C11 C12 C13 108.4(14)
C11 C12 H12A 110.0
C13 C12 H12A 110.0
C11 C12 H12B 110.0
C13 C12 H12B 110.0
H12A C12 H12B 108.4
C14 C13 C12 113.0(13)
C14 C13 H13A 109.0
C12 C13 H13A 109.0
C14 C13 H13B 109.0
C12 C13 H13B 109.0
H13A C13 H13B 107.8
C13 C14 C15 112.3(15)
C13 C14 H14A 109.1
C15 C14 H14A 109.1
C13 C14 H14B 109.1
C15 C14 H14B 109.1
H14A C14 H14B 107.9
C14 C15 H15A 109.5
C14 C15 H15B 109.5
H15A C15 H15B 109.5
C14 C15 H15C 109.5
H15A C15 H15C 109.5
H15B C15 H15C 109.5
C10 N1 C11 171.(2)
loop_
_geom_bond_atom_site_label_1
_geom_bond_atom_site_label_2
_geom_bond_distance
Au01 C10 1.928(14)
Au01 C9 1.968(17)
C1 F3 1.343(10)
C1 F1 1.344(10)
C1 F2 1.350(10)
C1 C2 1.47(3)
C2 C3 1.35(3)
C2 C4 1.38(3)
C3 C5 1.39(3)
C3 H3 0.95
C4 C6 1.37(3)
C4 H4 0.95
C5 C7 1.42(3)
C5 H5 0.95
C6 C7 1.36(3)
C6 H6 0.95
C7 C8 1.39(3)
C8 C9 1.217(10)
C10 N1 1.158(10)
C11 N1 1.47(3)
C11 C12 1.546(7)
C11 H11A 0.99
C11 H11B 0.99
C12 C13 1.547(7)
C12 H12A 0.99
C12 H12B 0.99
C13 C14 1.545(7)
C13 H13A 0.99
C13 H13B 0.99
C14 C15 1.547(7)
C14 H14A 0.99
C14 H14B 0.99
C15 H15A 0.98
C15 H15B 0.98
C15 H15C 0.98
