#------------------------------------------------------------------------------
#$Date: 2019-11-24 04:26:39 +0200 (Sun, 24 Nov 2019) $
#$Revision: 236695 $
#$URL: file:///home/coder/svn-repositories/cod/cif/7/23/69/7236992.cif $
#------------------------------------------------------------------------------
#
# This file is available in the Crystallography Open Database (COD),
# http://www.crystallography.net/
#
# All data on this site have been placed in the public domain by the
# contributors.
#
data_7236992
loop_
_publ_author_name
'Wei, Fengxia'
'Brivio, Federico'
'Wu, Yue'
'Sun, Shijing'
'Bristowe, Paul D.'
'Cheetham, Anthony K.'
_publ_section_title
;
 Synthesis, crystal structure, magnetic and electronic properties of the
 caesium-based transition metal halide Cs3Fe2Br9
;
_journal_issue                   14
_journal_name_full               'Journal of Materials Chemistry C'
_journal_page_first              3573
_journal_paper_doi               10.1039/C7TC04798C
_journal_volume                  6
_journal_year                    2018
_chemical_formula_moiety         '0.25(Br20 Cs8 Fe4 H8 O4)'
_chemical_formula_sum            'Br5 Cs2 Fe H0.25 O'
_chemical_formula_weight         737.47
_space_group_crystal_system      orthorhombic
_space_group_IT_number           62
_space_group_name_Hall           '-P 2ac 2n'
_space_group_name_H-M_alt        'P n m a'
_atom_sites_solution_hydrogens   difmap
_atom_sites_solution_primary     direct
_audit_creation_date             2017-06-05
_audit_creation_method
;
Olex2 1.2
(compiled 2017.03.28 svn.r3405 for OlexSys, GUI svn.r5337)
;
_audit_update_record
;
2017-09-16 deposited with the CCDC.
2017-11-13 downloaded from the CCDC.
;
_cell_angle_alpha                90
_cell_angle_beta                 90
_cell_angle_gamma                90
_cell_formula_units_Z            4
_cell_length_a                   14.6652(3)
_cell_length_b                   10.4144(2)
_cell_length_c                   7.5110(2)
_cell_measurement_reflns_used    2569
_cell_measurement_temperature    298.8(3)
_cell_measurement_theta_max      28.0450
_cell_measurement_theta_min      2.7740
_cell_volume                     1147.15(4)
_computing_cell_refinement
;
CrysAlisPro, Agilent Technologies,
Version 1.171.37.34i (release 04-08-2014 CrysAlis171 .NET)
(compiled Aug  4 2014,14:34:23)
;
_computing_data_collection
;
CrysAlisPro, Agilent Technologies,
Version 1.171.37.34i (release 04-08-2014 CrysAlis171 .NET)
(compiled Aug  4 2014,14:34:23)
;
_computing_data_reduction
;
CrysAlisPro, Agilent Technologies,
Version 1.171.37.34i (release 04-08-2014 CrysAlis171 .NET)
(compiled Aug  4 2014,14:34:23)
;
_computing_molecular_graphics    'Olex2 (Dolomanov et al., 2009)'
_computing_publication_material  'Olex2 (Dolomanov et al., 2009)'
_computing_structure_refinement  'ShelXL (Sheldrick, 2015)'
_computing_structure_solution    'ShelXS (Sheldrick, 2008)'
_diffrn_ambient_environment      air
_diffrn_ambient_temperature      298.8(3)
_diffrn_detector                 'CCD plate'
_diffrn_detector_area_resol_mean 16.1183
_diffrn_detector_type            Eos
_diffrn_measured_fraction_theta_full 1.000
_diffrn_measured_fraction_theta_max 0.928
_diffrn_measurement_details
;
#__ type_ start__ end____ width___ exp.time_
  1 omega -109.00   58.00   1.0000    8.5700
omega____ theta____ kappa____ phi______ frames
    -      -27.2013   19.0000   30.0000 167

#__ type_ start__ end____ width___ exp.time_
  2 omega -120.00  -35.00   1.0000    8.5700
omega____ theta____ kappa____ phi______ frames
    -      -27.2013 -178.0000  -30.0000 85

#__ type_ start__ end____ width___ exp.time_
  3 omega  -17.00   26.00   1.0000    8.5700
omega____ theta____ kappa____ phi______ frames
    -       26.2638   80.0000 -128.0000 43

#__ type_ start__ end____ width___ exp.time_
  4 omega -104.00   11.00   1.0000    8.5700
omega____ theta____ kappa____ phi______ frames
    -      -27.2013  -57.0000  -30.0000 115
;
_diffrn_measurement_device       'four-circle diffractometer'
_diffrn_measurement_device_type  'Xcalibur, Eos, Gemini ultra'
_diffrn_measurement_method       '\w scans'
_diffrn_orient_matrix_UB_11      -0.0166792000
_diffrn_orient_matrix_UB_12      0.0577716000
_diffrn_orient_matrix_UB_13      0.0379138000
_diffrn_orient_matrix_UB_21      0.0274898000
_diffrn_orient_matrix_UB_22      -0.0103142000
_diffrn_orient_matrix_UB_23      0.0763606000
_diffrn_orient_matrix_UB_31      0.0361246000
_diffrn_orient_matrix_UB_32      0.0345496000
_diffrn_orient_matrix_UB_33      -0.0406572000
_diffrn_radiation_monochromator  graphite
_diffrn_radiation_probe          x-ray
_diffrn_radiation_type           MoK\a
_diffrn_radiation_wavelength     0.71073
_diffrn_reflns_av_R_equivalents  0.0289
_diffrn_reflns_av_unetI/netI     0.0239
_diffrn_reflns_Laue_measured_fraction_full 1.000
_diffrn_reflns_Laue_measured_fraction_max 0.928
_diffrn_reflns_limit_h_max       19
_diffrn_reflns_limit_h_min       -17
_diffrn_reflns_limit_k_max       13
_diffrn_reflns_limit_k_min       -13
_diffrn_reflns_limit_l_max       8
_diffrn_reflns_limit_l_min       -9
_diffrn_reflns_number            6817
_diffrn_reflns_point_group_measured_fraction_full 1.000
_diffrn_reflns_point_group_measured_fraction_max 0.928
_diffrn_reflns_theta_full        25.242
_diffrn_reflns_theta_max         28.362
_diffrn_reflns_theta_min         2.778
_diffrn_source                   'Enhance (Mo) X-ray Source'
_exptl_absorpt_coefficient_mu    24.925
_exptl_absorpt_correction_T_max  0.150
_exptl_absorpt_correction_T_min  0.032
_exptl_absorpt_correction_type   analytical
_exptl_absorpt_process_details
;
CrysAlisPro, Agilent Technologies,
Version 1.171.37.34i (release 04-08-2014 CrysAlis171 .NET)
(compiled Aug  4 2014,14:34:23)
Analytical numeric absorption correction using a multifaceted crystal
			model based on expressions derived by R.C. Clark & J.S. Reid.
(Clark, R. C. & Reid, J. S. (1995). Acta Cryst. A51, 887-897)
Empirical absorption correction using spherical harmonics,
 implemented in SCALE3 ABSPACK scaling algorithm.
;
_exptl_crystal_colour            black
_exptl_crystal_density_diffrn    4.270
_exptl_crystal_description       ribbon
_exptl_crystal_F_000             1277
_exptl_crystal_size_max          0.308
_exptl_crystal_size_mid          0.2056
_exptl_crystal_size_min          0.095
_refine_diff_density_max         4.578
_refine_diff_density_min         -5.804
_refine_diff_density_rms         0.689
_refine_ls_extinction_coef       0.0010(5)
_refine_ls_extinction_expression Fc^*^=kFc[1+0.001xFc^2^\l^3^/sin(2\q)]^-1/4^
_refine_ls_extinction_method     'SHELXL-2014/7 (Sheldrick 2014'
_refine_ls_goodness_of_fit_ref   1.163
_refine_ls_hydrogen_treatment    refall
_refine_ls_matrix_type           full
_refine_ls_number_parameters     54
_refine_ls_number_reflns         1399
_refine_ls_number_restraints     1
_refine_ls_restrained_S_all      1.163
_refine_ls_R_factor_all          0.0916
_refine_ls_R_factor_gt           0.0816
_refine_ls_shift/su_max          0.000
_refine_ls_shift/su_mean         0.000
_refine_ls_structure_factor_coef Fsqd
_refine_ls_weighting_details
'w=1/[\s^2^(Fo^2^)+(0.1786P)^2^+36.9643P] where P=(Fo^2^+2Fc^2^)/3'
_refine_ls_weighting_scheme      calc
_refine_ls_wR_factor_gt          0.2927
_refine_ls_wR_factor_ref         0.3075
_reflns_Friedel_coverage         0.000
_reflns_number_gt                1140
_reflns_number_total             1399
_reflns_threshold_expression     'I > 2\s(I)'
_iucr_refine_instructions_details
;

    fw120_1_abs.res created by SHELXL-2014/7

TITL Fw120_1_abs in Pnma #62
REM reset to Pnma #62
CELL 0.71073 14.665195 10.414412 7.511042 90 90 90
ZERR 4 0.000336 0.000221 0.000198 0 0 0
LATT 1
SYMM 0.5-X,-Y,0.5+Z
SYMM 0.5+X,0.5-Y,0.5-Z
SYMM -X,0.5+Y,-Z
SFAC Br Cs Fe O H
UNIT 20 8 4 4 1
DFIX 0.9 O1 H1
 
L.S. 10
PLAN  20
BOND
fmap 2
acta
REM <olex2.extras>
REM <HklSrc "%.\\Fw120_1_abs.hkl">
REM </olex2.extras>
 
WGHT    0.178600   36.964306
EXTI    0.000962
FVAR       1.36671
CS1   2    0.357941   -0.000360    0.837718    11.00000    0.02992    0.03381 =
         0.03793    0.00275   -0.00252   -0.00084
FE2   3    0.383834   -0.250000    1.306793    10.50000    0.02307    0.02176 =
         0.02924    0.00000   -0.00391    0.00000
BR3   1    0.396196   -0.006786    1.326392    11.00000    0.03574    0.02939 =
         0.04448   -0.00283   -0.00447   -0.00243
BR4   1    0.244203    0.250000    0.600238    10.50000    0.05291    0.04916 =
         0.05394    0.00000   -0.00067    0.00000
BR5   1    0.491619   -0.250000    1.052859    10.50000    0.04904    0.04622 =
         0.08313    0.00000    0.00341    0.00000
BR6   1    0.222053    0.250000    1.061294    10.50000    0.07827    0.05134 =
         0.05023    0.00000    0.00173    0.00000
O1    4    0.497211   -0.250000    1.488003    10.50000    0.06441    0.02054 =
         0.06381    0.00000   -0.04724    0.00000
H1    5    0.544437   -0.198650    1.513106    11.00000    0.02580
HKLF 4
 
REM  Fw120_1_abs in Pnma #62
REM R1 =  0.0816 for    1140 Fo > 4sig(Fo)  and  0.0916 for all    1399 data
REM     54 parameters refined using      1 restraints
 
END  
     
WGHT      0.1786     36.9887 

REM Highest difference peak  4.578,  deepest hole -5.804,  1-sigma level  0.689
Q1    1   0.3564 -0.0016  1.4649  11.00000  0.05    1.70
Q2    1   0.3989  0.0005  1.5307  11.00000  0.05    1.26
Q3    1   0.2892 -0.0033  0.6773  11.00000  0.05    1.23
Q4    1   0.4334 -0.2500  1.1603  10.50000  0.05    1.19
Q5    1   0.4120  0.0018  0.6797  11.00000  0.05    1.19
Q6    1   0.3206  0.0037  1.5527  11.00000  0.05    1.00
Q7    1   0.4614  0.0001  1.3294  11.00000  0.05    0.95
Q8    1   0.3586  0.0042  0.6163  11.00000  0.05    0.92
Q9    1   0.4995 -0.1825  1.5144  11.00000  0.05    0.90
Q10   1   0.2365  0.1682  0.5044  11.00000  0.05    0.90
Q11   1   0.2665 -0.0488  0.7810  11.00000  0.05    0.87
Q12   1   0.6505 -0.2500  1.6869  10.50000  0.05    0.85
Q13   1   0.3209 -0.2500  1.2085  10.50000  0.05    0.83
Q14   1   0.2329  0.1920  0.9330  11.00000  0.05    0.81
Q15   1   0.4997 -0.1521  1.0091  11.00000  0.05    0.78
Q16   1   0.2965  0.0024  1.3409  11.00000  0.05    0.78
Q17   1   0.5089  0.0084  1.2638  11.00000  0.05    0.77
Q18   1   0.5411 -0.2500  0.9372  10.50000  0.05    0.76
Q19   1   0.4405 -0.0051  1.2128  11.00000  0.05    0.76
Q20   1   0.2336  0.1460  1.0937  11.00000  0.05    0.74

  REM The information below was added by Olex2.
  REM
  REM R1 = 0.0816 for 1140 Fo > 4sig(Fo) and 0.0916 for all 7316 data
  REM n/a parameters refined using n/a restraints
  REM Highest difference peak 4.58, deepest hole -5.80
  REM Mean Shift 0, Max Shift 0.000.

  REM +++ Tabular Listing of Refinement Information +++
  REM R1_all = 0.0916
  REM R1_gt = 0.0816
  REM wR_ref = 0.3075
  REM GOOF = 1.163
  REM Shift_max = 0.000
  REM Shift_mean = 0
  REM Reflections_all = 7316
  REM Reflections_gt = 1140
  REM Parameters = n/a
  REM Hole = -5.80
  REM Peak = 4.58
  REM Flack = n/a

  
;
_cod_data_source_file            c7tc04798c2.cif
_cod_data_source_block           fw120_1_abs
_cod_original_cell_volume        1147.16(5)
_cod_original_formula_sum        'Br5 H0.25 Cs2 Fe O'
_cod_database_code               7236992
_shelx_shelxl_version_number     2014/7
_chemical_oxdiff_formula         'Cs2 Fe Br5 O H2'
_shelx_space_group_comment
;
The symmetry employed for this shelxl refinement is uniquely defined
by the following loop, which should always be used as a source of
symmetry information in preference to the above space-group names.
They are only intended as comments.
;
_reflns_odcompleteness_completeness 99.93
_reflns_odcompleteness_iscentric 1
_reflns_odcompleteness_theta     26.32
_olex2_refinement_description
;
1. Restrained distances
 O1-H1
 0.9 with sigma of 0.02
;
_olex2_submission_special_instructions 'No special instructions were received'
loop_
_space_group_symop_operation_xyz
'x, y, z'
'-x+1/2, -y, z+1/2'
'x+1/2, -y+1/2, -z+1/2'
'-x, y+1/2, -z'
'-x, -y, -z'
'x-1/2, y, -z-1/2'
'-x-1/2, y-1/2, z-1/2'
'x, -y-1/2, z'
loop_
_atom_site_label
_atom_site_type_symbol
_atom_site_fract_x
_atom_site_fract_y
_atom_site_fract_z
_atom_site_U_iso_or_equiv
_atom_site_adp_type
_atom_site_occupancy
_atom_site_site_symmetry_order
_atom_site_calc_flag
_atom_site_refinement_flags_posn
_atom_site_refinement_flags_adp
_atom_site_refinement_flags_occupancy
Cs1 Cs 0.35794(7) -0.00036(8) 0.83772(15) 0.0339(6) Uani 1 1 d . . .
Fe2 Fe 0.38383(19) -0.2500 1.3068(4) 0.0247(8) Uani 1 2 d S T P
Br3 Br 0.39620(13) -0.00679(14) 1.3264(3) 0.0365(7) Uani 1 1 d . . .
Br4 Br 0.2442(2) 0.2500 0.6002(4) 0.0520(9) Uani 1 2 d S T P
Br5 Br 0.4916(2) -0.2500 1.0529(6) 0.0595(10) Uani 1 2 d S T P
Br6 Br 0.2221(3) 0.2500 1.0613(5) 0.0599(10) Uani 1 2 d S T P
O1 O 0.4972(13) -0.2500 1.488(3) 0.050(6) Uani 1 2 d DS T P
H1 H 0.544(7) -0.199(12) 1.51(2) 0.03(4) Uiso 1 1 d D . .
loop_
_atom_site_aniso_label
_atom_site_aniso_U_11
_atom_site_aniso_U_22
_atom_site_aniso_U_33
_atom_site_aniso_U_23
_atom_site_aniso_U_13
_atom_site_aniso_U_12
Cs1 0.0299(8) 0.0338(8) 0.0379(9) 0.0028(4) -0.0025(4) -0.0008(3)
Fe2 0.0231(14) 0.0218(14) 0.0292(16) 0.000 -0.0039(11) 0.000
Br3 0.0357(12) 0.0294(10) 0.0445(13) -0.0028(6) -0.0045(7) -0.0024(6)
Br4 0.0529(17) 0.0492(16) 0.0539(19) 0.000 -0.0007(14) 0.000
Br5 0.0490(18) 0.0462(17) 0.083(3) 0.000 0.0034(15) 0.000
Br6 0.078(2) 0.0513(17) 0.0502(19) 0.000 0.0017(15) 0.000
O1 0.064(14) 0.021(8) 0.064(14) 0.000 -0.047(11) 0.000
loop_
_atom_type_symbol
_atom_type_description
_atom_type_scat_dispersion_real
_atom_type_scat_dispersion_imag
_atom_type_scat_source
Br Br -0.2901 2.4595 'International Tables Vol C Tables 4.2.6.8 and 6.1.1.4'
Cs Cs -0.3680 2.1192 'International Tables Vol C Tables 4.2.6.8 and 6.1.1.4'
Fe Fe 0.3463 0.8444 'International Tables Vol C Tables 4.2.6.8 and 6.1.1.4'
O O 0.0106 0.0060 'International Tables Vol C Tables 4.2.6.8 and 6.1.1.4'
H H 0.0000 0.0000 'International Tables Vol C Tables 4.2.6.8 and 6.1.1.4'
loop_
_exptl_crystal_face_index_h
_exptl_crystal_face_index_k
_exptl_crystal_face_index_l
_exptl_crystal_face_perp_dist
_exptl_oxdiff_crystal_face_indexfrac_h
_exptl_oxdiff_crystal_face_indexfrac_k
_exptl_oxdiff_crystal_face_indexfrac_l
_exptl_oxdiff_crystal_face_x
_exptl_oxdiff_crystal_face_y
_exptl_oxdiff_crystal_face_z
2 2 5 0.0480 1.9997 2.0051 5.0021 0.2721 0.4163 -0.0619
5 -1 -1 0.0720 5.0043 -0.9978 -1.0002 -0.1790 0.0715 0.1870
-1 -5 1 0.1078 -0.9965 -4.9993 1.0019 -0.2342 0.1007 -0.2495
5 -4 0 0.0949 5.0068 -3.9967 0.0011 -0.3144 0.1789 0.0427
-5 3 0 0.1089 -5.0060 2.9968 -0.0009 0.2566 -0.1686 -0.0773
5 2 -1 0.1084 5.0018 2.0020 -1.0010 -0.0057 0.0404 0.2906
-5 -2 1 0.1557 -5.0018 -2.0020 1.0010 0.0057 -0.0404 -0.2906
5 3 5 0.0418 5.0010 3.0068 5.0018 0.2799 0.4884 0.0812
-3 -2 -5 0.0443 -3.0004 -2.0057 -5.0021 -0.2555 -0.4438 0.0257
loop_
_geom_angle_atom_site_label_1
_geom_angle_atom_site_label_2
_geom_angle_atom_site_label_3
_geom_angle
_geom_angle_site_symmetry_1
_geom_angle_site_symmetry_3
Cs1 Cs1 Cs1 160.46(4) 5_657 2_554
Br3 Cs1 Cs1 150.95(5) 2_554 5_657
Br3 Cs1 Cs1 112.02(5) 1_554 5_657
Br3 Cs1 Cs1 50.99(4) . 5_657
Br3 Cs1 Cs1 111.25(4) 5_657 2_554
Br3 Cs1 Cs1 49.21(3) 5_657 5_657
Br3 Cs1 Cs1 148.55(5) . 2_554
Br3 Cs1 Cs1 48.45(3) 1_554 2_554
Br3 Cs1 Cs1 48.57(4) 2_554 2_554
Br3 Cs1 Br3 159.69(3) 2_554 5_657
Br3 Cs1 Br3 162.88(7) . 1_554
Br3 Cs1 Br3 100.01(5) . 2_554
Br3 Cs1 Br3 62.85(5) 5_657 1_554
Br3 Cs1 Br3 100.20(5) . 5_657
Br3 Cs1 Br3 97.02(5) 2_554 1_554
Br4 Cs1 Cs1 98.75(6) 2 2_554
Br4 Cs1 Cs1 46.86(4) . 2_554
Br4 Cs1 Cs1 94.81(6) 2 5_657
Br4 Cs1 Cs1 130.84(5) . 5_657
Br4 Cs1 Br3 105.42(6) . 5_657
Br4 Cs1 Br3 125.91(6) 2 5_657
Br4 Cs1 Br3 65.55(6) . 1_554
Br4 Cs1 Br3 60.47(6) 2 .
Br4 Cs1 Br3 126.24(6) 2 1_554
Br4 Cs1 Br3 60.49(6) . 2_554
Br4 Cs1 Br3 67.04(6) 2 2_554
Br4 Cs1 Br3 125.25(6) . .
Br4 Cs1 Br4 127.44(3) . 2
Br4 Cs1 Br5 57.52(7) 2 .
Br4 Cs1 Br5 174.73(8) . .
Br4 Cs1 Br6 92.09(6) 2 .
Br4 Cs1 Br6 57.24(7) . .
Br5 Cs1 Cs1 133.52(6) . 2_554
Br5 Cs1 Cs1 48.60(5) 5_657 5_657
Br5 Cs1 Cs1 46.46(4) . 5_657
Br5 Cs1 Cs1 125.63(6) 5_657 2_554
Br5 Cs1 Br3 57.79(6) 5_657 5_657
Br5 Cs1 Br3 57.74(7) . .
Br5 Cs1 Br3 69.36(6) . 5_657
Br5 Cs1 Br3 98.83(8) 5_657 1_554
Br5 Cs1 Br3 128.19(5) 5_657 2_554
Br5 Cs1 Br3 124.30(6) . 2_554
Br5 Cs1 Br3 71.78(8) 5_657 .
Br5 Cs1 Br3 110.46(7) . 1_554
Br5 Cs1 Br4 82.43(6) 5_657 .
Br5 Cs1 Br4 132.14(9) 5_657 2
Br5 Cs1 Br5 95.06(3) 5_657 .
Br5 Cs1 Br6 153.31(10) 5_657 2_554
Br5 Cs1 Br6 126.51(10) . .
Br5 Cs1 Br6 73.02(7) 5_657 .
Br6 Cs1 Cs1 48.46(5) 2_554 2_554
Br6 Cs1 Cs1 125.83(6) 2_554 5_657
Br6 Cs1 Cs1 103.62(7) . 5_657
Br6 Cs1 Cs1 89.93(7) . 2_554
Br6 Cs1 Br3 70.66(7) 2_554 2_554
Br6 Cs1 Br3 97.97(8) 2_554 5_657
Br6 Cs1 Br3 56.85(6) 2_554 1_554
Br6 Cs1 Br3 69.16(7) . .
Br6 Cs1 Br3 130.16(6) . 5_657
Br6 Cs1 Br3 122.75(6) . 1_554
Br6 Cs1 Br3 128.22(6) 2_554 .
Br6 Cs1 Br3 57.04(6) . 2_554
Br6 Cs1 Br4 69.56(7) 2_554 2
Br6 Cs1 Br4 95.09(7) 2_554 .
Br6 Cs1 Br5 85.06(6) 2_554 .
Br6 Cs1 Br6 127.56(4) 2_554 .
Br3 Fe2 Br3 169.46(16) . 8
Br4 Fe2 Br3 95.27(8) 2 .
Br4 Fe2 Br3 95.27(8) 2 8
Br4 Fe2 Br5 90.09(15) 2 .
Br4 Fe2 Br6 90.47(14) 2 2
Br5 Fe2 Br3 89.95(8) . 8
Br5 Fe2 Br3 89.95(8) . .
Br6 Fe2 Br3 90.00(9) 2 8
Br6 Fe2 Br3 90.00(9) 2 .
Br6 Fe2 Br5 179.44(19) 2 .
O1 Fe2 Br3 84.73(8) . .
O1 Fe2 Br3 84.73(8) . 8
O1 Fe2 Br4 179.7(6) . 2
O1 Fe2 Br5 89.7(6) . .
O1 Fe2 Br6 89.8(6) . 2
Cs1 Br3 Cs1 162.29(6) 2 5_657
Cs1 Br3 Cs1 82.60(4) . 2
Cs1 Br3 Cs1 162.88(7) . 1_556
Cs1 Br3 Cs1 117.15(5) 5_657 1_556
Cs1 Br3 Cs1 79.80(5) . 5_657
Cs1 Br3 Cs1 80.36(4) 2 1_556
Fe2 Br3 Cs1 87.13(8) . 2
Fe2 Br3 Cs1 93.68(9) . 1_556
Fe2 Br3 Cs1 93.91(9) . 5_657
Fe2 Br3 Cs1 87.13(9) . .
Cs1 Br4 Cs1 92.79(8) 2_554 7_665
Cs1 Br4 Cs1 86.590(17) 8_565 7_665
Cs1 Br4 Cs1 86.589(17) . 2_554
Cs1 Br4 Cs1 175.95(11) . 7_665
Cs1 Br4 Cs1 175.95(11) 8_565 2_554
Cs1 Br4 Cs1 93.75(8) 8_565 .
Fe2 Br4 Cs1 91.62(9) 2_554 7_665
Fe2 Br4 Cs1 91.62(9) 2_554 2_554
Fe2 Br4 Cs1 92.40(9) 2_554 8_565
Fe2 Br4 Cs1 92.40(9) 2_554 .
Cs1 Br5 Cs1 166.79(13) 5_657 8
Cs1 Br5 Cs1 84.94(3) 4_647 8
Cs1 Br5 Cs1 95.84(8) 5_657 4_647
Cs1 Br5 Cs1 84.94(3) 5_657 .
Cs1 Br5 Cs1 91.32(9) 8 .
Cs1 Br5 Cs1 166.79(13) 4_647 .
Fe2 Br5 Cs1 89.89(9) . .
Fe2 Br5 Cs1 102.74(11) . 4_647
Fe2 Br5 Cs1 102.74(11) . 5_657
Fe2 Br5 Cs1 89.89(9) . 8
Cs1 Br6 Cs1 85.79(2) 2 .
Cs1 Br6 Cs1 94.94(9) 7_666 2
Cs1 Br6 Cs1 85.79(2) 7_666 8_565
Cs1 Br6 Cs1 90.03(9) 8_565 .
Cs1 Br6 Cs1 165.71(13) 7_666 .
Cs1 Br6 Cs1 165.71(13) 2 8_565
Fe2 Br6 Cs1 89.27(10) 2_554 .
Fe2 Br6 Cs1 104.31(11) 2_554 7_666
Fe2 Br6 Cs1 89.27(10) 2_554 8_565
Fe2 Br6 Cs1 104.31(11) 2_554 2
loop_
_geom_bond_atom_site_label_1
_geom_bond_atom_site_label_2
_geom_bond_distance
_geom_bond_site_symmetry_2
Cs1 Cs1 4.9119(14) 2_554
Cs1 Cs1 4.827(2) 5_657
Cs1 Br3 3.729(2) 2_554
Cs1 Br3 3.882(2) 1_554
Cs1 Br3 3.714(2) .
Cs1 Br3 3.811(2) 5_657
Cs1 Br4 3.572(2) .
Cs1 Br4 3.590(2) 2
Cs1 Br5 3.513(2) 5_657
Cs1 Br5 3.635(3) .
Cs1 Br6 3.686(3) .
Cs1 Br6 3.528(3) 2_554
Fe2 Br3 2.5437(15) .
Fe2 Br3 2.5437(15) 8
Fe2 Br4 2.436(4) 2
Fe2 Br5 2.477(5) .
Fe2 Br6 2.463(5) 2
Fe2 O1 2.149(15) .
Br3 Cs1 3.882(2) 1_556
Br3 Cs1 3.811(2) 5_657
Br3 Cs1 3.729(2) 2
Br4 Cs1 3.572(2) 8_565
Br4 Cs1 3.590(2) 7_665
Br4 Cs1 3.590(2) 2_554
Br4 Fe2 2.436(4) 2_554
Br5 Cs1 3.513(2) 5_657
Br5 Cs1 3.513(2) 4_647
Br5 Cs1 3.635(3) 8
Br6 Cs1 3.686(3) 8_565
Br6 Cs1 3.528(3) 7_666
Br6 Cs1 3.528(3) 2
Br6 Fe2 2.463(5) 2_554
loop_
_refln_index_h
_refln_index_k
_refln_index_l
_refln_F_squared_meas
_refln_F_squared_sigma
_refln_scale_group_code
2 0 0 9682.22 233.932 2
-3 0 0 12.6061 15.3306 1
3 0 0 43.5652 28.9609 2
4 0 0 243058 3666.09 2
-4 0 0 252382 3573.15 1
5 0 0 63.3746 38.4059 2
-5 0 0 18.6537 23.1752 1
-6 0 0 2356.68 138.197 1
6 0 0 2211.12 169.142 2
7 0 0 86.4314 48.0485 2
-7 0 0 16.4178 26.6345 1
-8 0 0 335364 5067.49 1
8 0 0 338475 5245.77 2
-9 0 0 643.282 101.204 1
9 0 0 782.701 147.924 2
10 0 0 2057.8 213.4 2
11 0 0 79.6392 71.285 2
12 0 0 1144.82 185.994 2
13 0 0 -130.6 92.9216 2
14 0 0 7636.68 506.14 2
15 0 0 34.7552 102.745 2
16 0 0 417.454 151.177 2
17 0 0 59.3461 93.7942 2
18 0 0 778.462 210.132 2
19 0 0 -18.9565 112.835 2
0 1 0 65.5795 18.7665 1
0 -1 0 99.6141 27.1972 4
1 1 0 13.8922 12.5481 1
-1 -1 0 22.6273 28.2976 4
-1 1 0 17.0263 18.2817 1
1 1 0 -4.14957 12.9949 2
1 -1 0 26.0153 23.6977 4
2 -1 0 57441.6 886.432 2
2 -1 0 57017.5 1045.12 4
-2 1 0 59761.1 957.211 1
2 1 0 56107.7 969.827 2
3 -1 0 9.38096 38.7267 4
3 1 0 -16.2488 31.2078 2
-3 1 0 -70.1713 30.3022 1
3 -1 0 19.164 20.7204 2
-4 1 0 1208.33 92.7459 1
4 -1 0 1492.74 97.4968 2
4 -1 0 1550.09 166.169 4
4 1 0 1506.83 122.114 2
5 1 0 15.9716 40.3197 2
-5 1 0 -7.89119 25.1029 1
-5 -1 0 -47.5024 71.3354 1
5 -1 0 -5.5972 26.1507 2
-6 -1 0 674.117 107.109 1
-6 1 0 529.306 69.9277 1
6 1 0 602.769 96.4133 2
6 -1 0 613.976 83.1542 2
7 1 0 10.9363 50.8884 2
-7 1 0 25.3392 28.2525 1
7 -1 0 7.69662 46.1751 2
-7 -1 0 -0.77077 46.48 1
8 1 0 11592.7 479.423 2
8 -1 0 11358.9 434.852 2
-8 -1 0 10848.2 478.908 1
-8 1 0 11643.6 397.286 1
-9 -1 0 96.8118 62.3357 1
9 -1 0 -77.7515 60.782 2
9 1 0 36.548 50.3425 2
-9 1 0 1.83236 36.2214 1
10 -1 0 29714.1 868.811 2
10 1 0 29919.3 923.915 2
-10 1 0 29480.8 778.86 1
11 1 0 -73.8992 71.6212 2
11 -1 0 -48.2729 58.6672 2
12 -1 0 257.146 101.194 2
12 1 0 396.467 122.003 2
13 1 0 65.1651 96.594 2
13 -1 0 -26.2585 71.0801 2
14 -1 0 1417.87 211.362 2
14 1 0 1212.49 218.08 2
15 1 0 -29.1845 89.8845 2
15 -1 0 -117.444 85.4975 2
16 -1 0 756.149 171.625 2
16 1 0 1289.13 250.737 2
17 -1 0 -179.999 127.071 2
17 1 0 -70.9715 106.554 2
18 1 0 2562.63 366.719 2
19 1 0 -114.123 135.877 2
0 2 0 114188 1817.51 1
0 -2 0 116724 1884.05 4
0 2 0 117669 1723.29 2
-1 -2 0 52.1062 41.0798 4
1 2 0 13.6705 21.2575 2
1 -2 0 48.6183 39.2775 4
1 2 0 24.203 21.4045 1
-1 2 0 -16.1914 27.4838 1
2 -2 0 537.517 81.2874 4
-2 2 0 661.81 74.7405 1
-2 -2 0 681.664 104.185 4
2 2 0 664.269 59.7719 1
2 2 0 609.58 66.7857 2
3 2 0 4.91833 18.3724 1
3 2 0 32.3545 35.6375 2
3 -2 0 -5.73551 12.8984 2
-3 2 0 28.0613 30.8324 1
4 -2 0 690062 9983.86 4
-4 2 0 684260 9721.2 1
4 -2 0 677033 9573.2 2
5 -2 0 -16.8903 25.5763 2
-5 2 0 14.0871 30.1915 1
5 2 0 -0.39722 45.8423 2
6 2 0 17337.6 566.434 2
6 -2 0 16325.8 449.249 2
-6 2 0 18028.3 511.017 1
6 -2 0 17786.2 725.341 4
7 -2 0 -46.9191 103.008 4
-7 2 0 -13.1603 36.781 1
7 2 0 79.1476 68.0279 2
-7 -2 0 10.1339 19.593 1
7 -2 0 -3.82449 35.7543 2
8 -2 0 6899.47 313.638 2
-8 -2 0 6668 261.299 1
8 2 0 7357.84 388.363 2
-8 2 0 7063.99 324.877 1
9 -2 0 -1.05929 44.4773 2
-9 2 0 1.6459 35.6167 1
10 2 0 24788.4 856.517 2
10 -2 0 24697.2 745.681 2
-10 2 0 25952 747.62 1
11 2 0 -51.0058 89.9673 2
11 -2 0 -12.1258 63.2742 2
12 2 0 7169.08 477.939 2
12 -2 0 7459.41 420.561 2
13 -2 0 -95.7383 83.3215 2
13 2 0 72.9895 90.0154 2
14 -2 0 8432.11 511.343 2
14 2 0 8799.52 584.767 2
15 2 0 170.412 119.9 2
15 -2 0 203.944 85.604 2
16 2 0 13565.5 794.476 2
17 2 0 -203.655 188.695 2
18 2 0 8183.25 662.575 2
0 -3 0 73.0394 44.2764 4
0 3 0 18.6889 17.0601 2
0 3 0 6.1832 32.6521 1
1 3 0 -15.596 24.4427 2
-1 3 0 42.9431 39.4042 1
-1 -3 0 18.0845 38.732 4
1 -3 0 7.73487 51.9433 4
1 3 0 -28.6615 38.1201 1
2 -3 0 20502.9 597.166 4
-2 3 0 21928.5 562.65 1
2 3 0 21231.6 503 1
2 3 0 21500.3 513.493 2
-2 -3 0 21271.1 641.631 4
3 3 0 12.0747 29.0018 1
3 -3 0 -66.7465 63.2182 4
-3 3 0 -5.75901 39.1346 1
-3 -3 0 28.9414 66.168 4
3 3 0 11.5271 37.633 2
4 3 0 2988.66 199.849 2
-4 3 0 2951.99 193.241 1
4 -3 0 3118.59 118.908 2
-4 -3 0 3345.35 285.196 4
4 -3 0 3114.27 241.041 4
4 3 0 3089.39 153.026 1
5 3 0 18.2424 43.661 2
5 -3 0 -25.3983 67.3647 4
5 3 0 -33.1352 25.4568 1
-5 3 0 10.5973 40.7279 1
5 -3 0 6.78832 18.1752 2
-6 3 0 2520.45 192.05 1
6 -3 0 2575.27 143.883 2
6 3 0 2560.95 211.861 2
6 -3 0 2590.73 262.309 4
6 3 0 2794.85 140.801 1
7 -3 0 62.2767 78.3803 4
7 -3 0 32.0234 28.2155 2
7 3 0 48.7891 25.7637 1
7 3 0 -87.7738 63.4726 2
-7 3 0 69.6628 55.2895 1
8 -3 0 4183.39 410.905 4
8 -3 0 4257.47 231.973 2
8 3 0 4112.2 171.787 1
8 3 0 4215.14 312.858 2
-8 3 0 4490.58 274.012 1
9 3 0 -55.6928 77.3095 2
9 -3 0 56.99 47.3057 2
-9 3 0 35.4899 46.7282 1
-10 3 0 23524.1 741.919 1
10 -3 0 23553.6 701.309 2
10 3 0 23445.4 857.696 2
-11 3 0 -16.0062 46.6549 1
11 -3 0 7.58208 50.5451 2
11 3 0 -89.9836 103.12 2
12 3 0 -2.59547 89.6327 2
12 -3 0 -0.9936 62.112 2
13 3 0 -1.62599 98.2926 2
14 3 0 686.458 169.635 2
15 3 0 4.01969 98.8786 2
16 3 0 356.381 146.568 2
17 3 0 -178.167 128.234 2
18 3 0 3023.35 409.881 2
0 4 0 984397 13923.7 2
0 -4 0 999999 14307 4
0 4 0 973608 14157.4 1
1 -4 0 -23.6876 62.4224 4
-1 -4 0 -30.9416 53.9277 4
1 4 0 41.1202 46.6943 1
-1 4 0 104.696 53.0657 1
-1 4 0 -16.0162 16.2209 2
1 4 0 -2.79389 27.2784 2
-2 4 0 6562.59 309.795 1
-2 -4 0 5970.28 349.494 4
2 4 0 6061.15 258.286 2
2 -4 0 6319.77 338.555 4
2 4 0 6414.77 275.028 1
3 4 0 -32.931 34.2677 1
-3 4 0 44.2005 45.9084 1
3 -4 0 164.205 73.4674 4
-3 -4 0 -15.9954 81.9887 4
3 4 0 2.73196 35.1084 2
4 -4 0 166489 2973.41 4
-4 4 0 165898 2817.46 1
-4 -4 0 171235 3107.49 4
4 4 0 165507 2794.2 2
4 4 0 167501 2664.45 1
5 4 0 122.861 43.9017 1
5 4 0 38.7893 53.2403 2
-5 4 0 -60.6014 63.5638 1
-5 -4 0 -20.2417 87.9157 4
5 -4 0 188.814 81.3842 4
-6 -4 0 927.884 197.651 4
6 4 0 1141.34 102.968 1
6 4 0 1103.32 146.297 2
6 -4 0 1097.49 181.259 4
6 -4 0 1033.23 83.2323 2
-6 4 0 1038.44 140.475 1
7 -4 0 80.935 31.8259 2
-7 4 0 67.564 57.6454 1
7 4 0 109.49 34.6101 1
7 -4 0 44.5968 95.4373 4
7 4 0 19.8476 63.9 2
8 -4 0 243360 4577.97 4
8 4 0 247567 4182.8 2
8 4 0 248226 3704.36 1
-8 4 0 240808 4039.45 1
8 -4 0 244756 3779.93 2
9 -4 0 5.33251 99.1331 4
9 4 0 -39.8701 76.6197 2
9 -4 0 10.9315 38.7493 2
-9 4 0 -16.5538 53.0214 1
10 -4 0 1100.81 251.422 4
10 4 0 1461.76 208.692 2
-10 4 0 1239.22 163.646 1
11 -4 0 -97.7807 130.975 4
-11 4 0 -80.9415 69.5771 1
11 4 0 -46.6162 69.8493 2
12 4 0 975.836 185.279 2
-12 4 0 850.825 149.108 1
13 4 0 -32.3228 96.6576 2
14 4 0 4772.82 450.606 2
15 4 0 -169.546 138.301 2
16 4 0 56.9563 111.644 2
17 4 0 120.571 110.485 2
0 5 0 33.7073 26.5456 2
0 5 0 21.9338 57.9085 1
1 -5 0 45.9822 56.7697 4
-1 5 0 -51.7654 63.6429 1
1 5 0 -36.1113 38.4035 1
-1 -5 0 -56.2684 69.5837 4
1 5 0 -16.3219 29.819 2
-1 5 0 3.4695 13.9294 2
-2 5 0 40605 990.94 1
2 5 0 39123.6 858.91 2
-2 -5 0 39907.4 1121.79 4
2 -5 0 38543.1 1063.84 4
2 5 0 40342.8 935.009 1
3 5 0 -48.1629 52.4219 2
3 -5 0 -15.1807 62.0013 4
-3 -5 0 98.0767 89.6591 4
-3 5 0 32.5072 64.0774 1
3 5 0 -18.6762 33.4679 1
-4 -5 0 43.4572 79.2774 4
4 -5 0 78.0239 60.923 4
4 5 0 4.73118 41.9753 2
4 5 0 -1.56353 41.9727 1
-4 5 0 -14.5964 49.2153 1
5 5 0 -51.6548 60.459 2
-5 5 0 57.5065 58.4842 1
5 5 0 7.64793 34.0788 1
5 -5 0 0.72846 82.2013 4
6 5 0 157.422 74.7657 2
-6 -5 0 -93.7412 111.186 4
-6 5 0 66.8544 52.9783 1
6 5 0 122.126 45.8432 1
6 -5 0 36.2299 76.6749 4
7 5 0 -13.9404 60.309 2
7 5 0 -37.1028 43.6995 1
-7 -5 0 38.2297 91.5438 4
7 -5 0 -2.38578 78.0628 4
-7 5 0 20.5022 52.7031 1
-8 5 0 11135 520.877 1
-8 -5 0 11633.9 740.322 4
8 -5 0 11711.5 697.664 4
8 5 0 11116.6 552.355 2
-9 5 0 -38.7241 75.1194 1
9 5 0 26.9002 75.8915 2
9 -5 0 -26.5754 123.834 4
-9 -5 0 210.651 126.79 4
10 5 0 21070.4 857.918 2
-10 -5 0 19157 1108.67 4
10 -5 0 18542.3 1025.74 4
-10 5 0 19770.8 751.206 1
11 5 0 315.101 146.764 2
-11 5 0 38.6301 84.0417 1
11 -5 0 20.1291 121.794 4
12 -5 0 892.629 279.891 4
-12 5 0 1072.57 180.791 1
12 5 0 1161.76 212.458 2
13 5 0 -54.6327 90.218 2
14 5 0 1105.92 226.118 2
15 5 0 37.9601 106.743 2
16 5 0 642.491 186.266 2
17 5 0 -168.867 188.265 2
0 6 0 51431.2 1204.75 1
0 6 0 49898.9 936.09 2
0 -6 0 52121.2 1350.66 4
-1 -6 0 62.9977 70.5941 4
-1 6 0 -3.54639 16.9661 2
-1 6 0 -47.9038 54.5873 1
1 6 0 32.366 42.088 2
1 6 0 -107.188 75.4302 1
1 -6 0 30.5021 89.4912 4
2 6 0 325.948 88.2026 1
-2 -6 0 304.935 109.566 4
-2 6 0 396.061 95.7819 1
2 -6 0 473.477 129.902 4
2 6 0 295.375 70.3737 2
-3 6 0 61.8453 64.1787 1
3 6 0 32.2766 36.9183 2
-3 -6 0 -3.97892 88.0827 4
3 6 0 43.7865 43.9124 1
4 -6 0 323265 5312.17 4
-4 -6 0 314585 5399.29 4
4 6 0 314621 4950.09 2
4 6 0 309659 4919.63 1
-4 6 0 308271 5092.14 1
5 6 0 -3.86246 44.4241 1
5 6 0 10.6904 72.2821 2
-5 -6 0 6.6283 84.3332 4
5 -6 0 2.24175 75.7805 4
-5 6 0 -86.3297 89.0017 1
6 6 0 9316.1 399.255 1
6 -6 0 7947.25 531.513 4
6 6 0 8592.27 453.552 2
-6 -6 0 8473.9 587.146 4
-6 6 0 8740.13 467.978 1
7 6 0 19.0633 38.7032 1
7 6 0 9.3369 58.9212 2
-7 -6 0 -35.9914 89.1683 4
-7 6 0 28.584 65.7127 1
7 -6 0 -31.5185 96.7579 4
8 6 0 3738.61 324.95 2
-8 6 0 3547.43 304.746 1
8 -6 0 3071.82 367.117 4
-8 -6 0 3377.76 416.393 4
-9 6 0 4.6733 69.2622 1
9 -6 0 69.1096 114.888 4
9 6 0 64.7387 74.3614 2
10 -6 0 11831.7 816.191 4
10 6 0 11971.5 658.087 2
-10 -6 0 11024.6 814.302 4
-10 6 0 11547.7 587.254 1
-11 6 0 -72.6086 97.3497 1
11 6 0 -76.0528 83.7971 2
11 -6 0 -148.461 153.052 4
12 -6 0 4140.27 538.101 4
-12 -6 0 3522.72 503.647 4
-12 6 0 3846.17 348.289 1
12 6 0 4291.58 406.168 2
13 -6 0 -187.54 169.02 4
13 6 0 -7.75513 81.4398 2
-13 6 0 180.294 112.497 1
-13 -6 0 213.121 216.189 4
-14 -6 0 4365.34 627.46 4
14 6 0 4621.41 471.311 2
-15 -6 0 -198.576 225.282 4
15 6 0 67.2553 95.2902 2
16 6 0 7709.18 653.903 2
-16 -6 0 7620.42 884.27 4
-17 -6 0 102.211 225.293 4
0 7 0 109.154 77.307 1
0 -7 0 151.588 113.302 4
-1 -7 0 134.708 109.735 4
1 7 0 44.78 52.326 1
-1 7 0 58.1141 58.2753 1
1 -7 0 108.417 75.0779 4
1 7 0 1.75382 37.8207 2
2 7 0 2849.22 251.328 1
-2 7 0 2784.41 271.134 1
2 7 0 2809.96 200.192 2
2 -7 0 3075.05 321.621 4
-2 -7 0 2450.8 285.996 4
3 7 0 -29.8141 50.061 2
-3 -7 0 48.2567 100.289 4
3 7 0 30.8055 47.0752 1
-3 7 0 -64.2842 81.7817 1
3 -7 0 130.745 77.6671 4
4 -7 0 2222.52 276.865 4
-4 7 0 1987.92 239.873 1
4 7 0 1946.63 198.434 2
-4 -7 0 1974.4 281.73 4
4 7 0 2121.15 210.648 1
-5 -7 0 47.2272 87.6195 4
-5 7 0 190.877 92.2951 1
5 7 0 -21.4393 52.2178 2
5 7 0 72.2027 58.9065 1
5 -7 0 -102.201 115.469 4
6 -7 0 2683.03 331.019 4
6 7 0 2674.18 264.484 2
6 7 0 2286.63 213.988 1
-6 -7 0 2806.38 349.194 4
-6 7 0 2745.65 278.999 1
-7 -7 0 -68.6878 111.607 4
7 7 0 -16.7912 68.0363 2
-7 7 0 14.1668 68.6756 1
7 -7 0 -131.585 113.031 4
-8 7 0 519.602 146.612 1
8 -7 0 372.018 163.851 4
-8 -7 0 459.254 189.534 4
8 7 0 500.137 147.546 2
9 7 0 68.5718 116.015 2
9 -7 0 -0.77643 119.9 4
-9 7 0 122.331 91.08 1
-9 -7 0 -0.20505 97.3627 4
10 7 0 10582.7 638.416 2
-10 -7 0 10299.8 797.993 4
-10 7 0 9742.49 574.089 1
10 -7 0 11440.6 813.343 4
-11 -7 0 111.475 166.298 4
11 7 0 139.205 130.982 2
-11 7 0 43.0866 88.3483 1
11 -7 0 -12.0647 150.995 4
-12 7 0 311.265 124.308 1
-12 -7 0 -33.7013 163.793 4
12 -7 0 409.196 221.34 4
12 7 0 171.185 94.4461 2
13 7 0 -127.993 149.69 2
13 -7 0 -67.9806 150.064 4
-13 -7 0 -6.65152 137.277 4
-13 7 0 106.561 104.484 1
-14 -7 0 333.376 227.178 4
14 -7 0 -79.9303 228.958 4
14 7 0 426.702 189.358 2
-15 -7 0 -64.7178 174.664 4
15 7 0 244.649 152.387 2
-16 -7 0 -87.4802 196.704 4
0 -8 0 424826 7062.04 4
0 8 0 418923 6764.47 1
-1 8 0 -36.5209 78.8019 1
1 8 0 -8.67225 70.8121 1
-1 -8 0 -72.2573 103.656 4
1 -8 0 32.3127 87.2501 4
-2 -8 0 2069.67 284.613 4
2 -8 0 1973.95 280.649 4
-2 8 0 2297.24 258.091 1
2 8 0 2565.23 255.641 1
-3 8 0 -33.9052 74.0238 1
3 -8 0 193.447 106.789 4
3 8 0 -18.4921 40.0029 2
-3 -8 0 -20.2173 86.3456 4
3 8 0 28.8162 70.0478 1
4 -8 0 60578.7 1754.36 4
-4 8 0 58840.1 1567.13 1
4 8 0 59667.3 1387.82 2
4 8 0 62616.1 1487.68 1
-4 -8 0 64697.5 1827.02 4
5 -8 0 104.909 85.7502 4
-5 8 0 -166.386 91.9739 1
5 8 0 36.669 69.2258 1
5 8 0 -25.0094 63.3543 2
-5 -8 0 -24.9017 107.754 4
-6 8 0 128.53 104.086 1
6 -8 0 42.6833 104.562 4
6 8 0 74.758 65.8772 1
-6 -8 0 -71.0515 111.564 4
6 8 0 102.09 83.6865 2
7 -8 0 -7.50943 98.2119 4
-7 8 0 43.8695 73.4406 1
7 8 0 73.1619 90.874 2
-7 -8 0 56.7764 145.016 4
-8 -8 0 94445.6 2606.05 4
8 -8 0 91415.7 2533.54 4
-8 8 0 97667.8 2244.85 1
-9 8 0 -78.5328 94.456 1
9 8 0 -99.2942 116.56 2
-9 -8 0 65.819 123.596 4
9 -8 0 32.9839 125.938 4
-10 -8 0 100.752 122.215 4
10 -8 0 551.25 228.57 4
10 8 0 471.017 156.011 2
-10 8 0 353.036 128.444 1
-11 8 0 20.4963 98.1189 1
11 8 0 207.807 142.884 2
-11 -8 0 306.882 189.514 4
11 -8 0 345.606 206.015 4
12 8 0 454.206 165.609 2
12 -8 0 172.195 144.437 4
-12 8 0 171.273 100.382 1
-12 -8 0 345.698 199.72 4
13 -8 0 216.007 171.074 4
-13 -8 0 63.7143 156.304 4
13 8 0 -136.109 117.36 2
-13 8 0 -89.2461 97.3666 1
14 8 0 1816.25 320.658 2
14 -8 0 1073.45 328.237 4
-14 -8 0 1633.67 385.053 4
-15 -8 0 119.099 166.298 4
15 -8 0 321.907 222.302 4
0 -9 0 877.802 241.499 4
0 9 0 883.172 186.211 1
1 -9 0 -179.136 121.167 4
-1 -9 0 -150.234 127.945 4
1 9 0 55.1372 81.4818 1
-1 9 0 -97.5847 90.5277 1
2 9 0 19885.4 814.819 1
-2 -9 0 18082.9 925.112 4
2 -9 0 18608.9 924.872 4
-2 9 0 18924 818.611 1
3 -9 0 -105.411 125.502 4
-3 -9 0 39.6688 104.251 4
-3 9 0 54.7592 80.3017 1
3 9 0 -91.0883 109.955 1
-4 -9 0 157.136 101.169 4
4 9 0 126.94 81.6659 1
4 -9 0 112.819 99.5904 4
-4 9 0 313.523 132.973 1
-5 -9 0 -101.783 121.18 4
5 9 0 -62.9429 86.7556 1
5 -9 0 25.4679 100.139 4
-5 9 0 5.10863 75.2197 1
6 -9 0 298.395 176.949 4
-6 -9 0 136.257 120.612 4
6 9 0 333.963 112.643 2
-6 9 0 600.773 154.127 1
7 9 0 9.77822 69.2538 2
-7 9 0 -128.977 112.307 1
7 -9 0 53.2448 113.358 4
-7 -9 0 124.573 154.262 4
-8 -9 0 6246.79 606.433 4
-8 9 0 6177.02 490.385 1
8 -9 0 5830.81 587.42 4
8 9 0 6368.27 475 2
-9 -9 0 83.69 176.032 4
9 9 0 263.038 125.706 2
-9 9 0 88.7181 85.6646 1
9 -9 0 22.1224 120.217 4
-10 9 0 8401.48 591.931 1
10 -9 0 8027.04 733.216 4
10 9 0 8228.1 589.467 2
-10 -9 0 6837.03 669.433 4
-11 9 0 -123.566 120.011 1
11 9 0 85.3941 92.3026 2
-11 -9 0 -6.40453 158.029 4
11 -9 0 -12.9582 134.138 4
12 9 0 906.449 242.053 2
-12 -9 0 960.914 282.978 4
-12 9 0 879.98 214.507 1
12 -9 0 562.894 224.717 4
13 -9 0 -242.764 194.428 4
13 9 0 -114.671 122.378 2
-13 -9 0 93.1586 174.408 4
-13 9 0 97.1127 104.568 1
14 -9 0 493.262 286.991 4
-14 9 0 778.644 201.17 1
-14 -9 0 584.763 251.22 4
0 -10 0 13496.3 823.406 4
0 10 0 13044.4 704.615 1
1 10 0 46.2187 74.1221 1
-1 -10 0 4.66606 96.4475 4
-1 10 0 51.7507 67.9358 1
1 -10 0 -77.9949 118.324 4
2 10 0 275.534 124.656 1
-2 -10 0 116.504 145.611 4
-2 10 0 89.2089 77.1392 1
2 -10 0 175.615 111.549 4
3 -10 0 -161.52 142.623 4
3 10 0 -29.8743 99.6223 1
-3 -10 0 -155.041 131.595 4
-3 10 0 97.7724 94.8144 1
4 10 0 92447.7 2165.07 1
-4 -10 0 91033 2522.16 4
4 -10 0 93526.6 2536.98 4
-4 10 0 93058.5 2279.75 1
-5 10 0 -130.202 123.768 1
-5 -10 0 36.6269 116.028 4
5 10 0 22.0463 67.1919 1
5 -10 0 -57.4471 150.66 4
6 -10 0 2834.89 421.686 4
-6 10 0 1808.8 281.615 1
-6 -10 0 2130.56 353.847 4
7 -10 0 102.319 161.841 4
-7 -10 0 123.484 135.771 4
-7 10 0 166.44 149.946 1
-8 -10 0 449.319 169.256 4
-8 10 0 541.739 169.636 1
8 -10 0 670.023 237.676 4
9 -10 0 64.8561 123.709 4
-9 -10 0 14.4322 119.943 4
-9 10 0 -151.359 123.65 1
-10 10 0 3196.5 385.518 1
10 -10 0 3045.21 479.673 4
-10 -10 0 2957.4 461.271 4
10 10 0 2728.06 350.248 2
-11 -10 0 38.0675 128.708 4
11 10 0 -47.7541 109.199 2
11 -10 0 206.853 177.896 4
-11 10 0 -74.962 103.884 1
-12 10 0 1018.97 230.12 1
12 10 0 1295.81 272.4 2
12 -10 0 790.656 283.641 4
-12 -10 0 1123.32 319.557 4
0 -11 0 22.7432 128.355 4
0 11 0 -71.7401 117.948 1
1 -11 0 -109.047 138.32 4
-1 11 0 152.863 109.853 1
1 11 0 -20.0765 83.2911 1
-1 -11 0 -95.6213 149.363 4
2 -11 0 91.215 149.616 4
-2 11 0 -86.4293 110.03 1
2 11 0 115.963 73.8375 1
-2 -11 0 149.638 130.948 4
-3 -11 0 62.0646 121.178 4
-3 11 0 -170.303 139.839 1
3 11 0 -219.862 136.992 1
3 -11 0 -30.2463 127.45 4
4 -11 0 816.13 234.834 4
4 11 0 1143.52 207.816 1
-4 -11 0 1014.24 248.812 4
-4 11 0 1089.89 225.394 1
5 -11 0 -1.41405 129.746 4
-5 11 0 -165.363 132.862 1
-5 -11 0 25.7578 124.853 4
-6 -11 0 1087.7 279.21 4
-6 11 0 1485.89 276.531 1
6 -11 0 1033.95 292.505 4
7 -11 0 46.9319 137.346 4
-7 11 0 25.7092 87.7425 1
-7 -11 0 114.978 171.894 4
-8 -11 0 -220.126 191.314 4
8 -11 0 100.832 140.404 4
-8 11 0 -129.299 142.932 1
-9 -11 0 49.3868 143.944 4
9 -11 0 -156.359 141.357 4
-9 11 0 271.51 158.312 1
-10 -11 0 2551.34 465.573 4
10 -11 0 2584.35 473.845 4
-10 11 0 2713.02 371.192 1
0 -12 0 99694.8 2874.31 4
0 12 0 105226 2597.01 1
-1 -12 0 -292.673 180.368 4
1 -12 0 -104.236 137.249 4
-1 12 0 -40.7038 100.742 1
1 12 0 121.562 103.123 1
2 -12 0 252.994 180.211 4
-2 12 0 241.466 120.262 1
2 12 0 397.111 153.982 1
-2 -12 0 406.116 204.573 4
3 -12 0 -216.392 171.893 4
-3 -12 0 193.521 186.044 4
-3 12 0 -35.8155 117.162 1
3 12 0 32.6301 95.8252 1
-4 12 0 13677.6 826.087 1
-4 -12 0 12212 911.958 4
4 -12 0 10993.1 869.913 4
-5 -12 0 170.208 129.136 4
-5 12 0 -187.77 137.512 1
5 -12 0 -69.6485 112.598 4
6 -12 0 -115.719 199.177 4
-6 12 0 22.1766 86.6586 1
-6 -12 0 104.329 143.232 4
-7 -12 0 -59.8389 151.26 4
7 -12 0 -214.076 216.895 4
-7 12 0 -173.698 146.553 1
0 -13 0 137.282 151.285 4
0 13 0 387.472 173.548 1
1 -13 0 72.8661 154.723 4
1 13 0 -27.6505 113.065 1
-1 13 0 -160.773 152.111 1
-1 -13 0 -74.056 147.88 4
-2 13 0 5331.08 534.152 1
2 13 0 5708.95 536.39 1
-3 13 0 136.433 131.957 1
0 0 -1 133.864 64.0675 1
1 0 -1 11447 470.353 1
-1 0 -1 8453.13 325.608 1
2 0 -1 7199.89 225.068 1
-2 0 -1 7096.04 285.574 1
3 0 1 4047.17 197.397 2
-3 0 -1 4258.85 221.691 1
-3 0 1 4104.52 132.754 1
3 0 -1 4239.79 191.378 2
4 0 -1 134494 2176.81 2
-4 0 1 133428 1983.53 1
-4 0 -1 136199 2260.41 1
4 0 1 133857 2194.7 2
-5 0 -1 10561.8 402.978 1
-5 0 1 10350.8 244.999 1
5 0 -1 10252.9 368.755 2
5 0 1 10829.1 380.995 2
6 0 -1 2475.13 186.576 2
-6 0 1 2465.43 110.536 1
-6 0 -1 2842.47 206.713 1
6 0 1 2681.12 197.766 2
7 0 1 98201 1824.47 2
-7 0 1 95598.7 1521.14 1
-7 0 -1 97424.9 1850.58 1
7 0 -1 97963.9 1812.11 2
-8 0 -1 165705 2879.72 1
-8 0 1 162160 2495.67 1
8 0 -1 162331 2821.52 2
8 0 1 168171 2847.94 2
-9 0 -1 18419.8 659.822 1
9 0 1 17371.6 640.706 2
9 0 -1 17023.3 622.938 2
10 0 -1 973.027 151.092 2
10 0 1 857.822 146 2
-10 0 -1 854.06 137.997 1
11 0 -1 11797 565.204 2
11 0 1 12759.6 590.547 2
12 0 1 125931 2551.46 2
12 0 -1 126921 2552.2 2
13 0 -1 21148.9 846.115 2
13 0 1 19327.9 822.384 2
14 0 -1 598.161 165.929 2
14 0 1 695.275 148.532 2
15 0 1 12219.4 694.853 2
15 0 -1 12097.8 687.439 2
16 0 1 43454 1461.21 2
16 0 -1 45246.6 1476.03 2
17 0 -1 2336.95 336.654 2
17 0 1 2267.86 340.822 2
18 0 -1 536.77 178.718 2
18 0 1 203.258 120.236 2
19 0 -1 1652.41 308.135 2
19 0 1 1668.22 291.265 2
0 -1 1 49009.7 843.257 4
0 -1 -1 49826.6 906.878 4
0 1 -1 49492 876.003 1
0 -1 -1 51204.2 982.198 1
-1 -1 1 2506 135.697 3
-1 1 -1 2699.18 143.125 1
-1 -1 1 2449.07 100.539 4
1 -1 1 2197.46 134.325 4
1 -1 -1 2630.35 108.63 4
1 1 -1 2511.82 115.296 1
-1 -1 -1 2616.26 202.225 1
2 1 -1 1103.63 89.8891 2
-2 1 -1 1243.62 100.469 1
-2 -1 1 1221.32 85.5498 4
2 1 -1 1128.37 71.6588 1
-2 1 1 957.67 78.4658 1
-2 -1 -1 1228.31 210.588 1
2 -1 -1 1144.46 80.2786 4
-2 -1 1 914.577 82.6624 3
2 -1 1 1005.52 111.652 4
-3 -1 -1 571.845 160.184 1
-3 1 1 568.39 62.7221 1
3 1 -1 569.569 70.5449 2
3 -1 1 629.861 115.964 4
3 -1 -1 475.096 72.2039 4
3 -1 1 585.757 70.8961 2
-3 1 -1 654.222 82.3875 1
3 1 1 576.871 82.8979 2
-4 -1 -1 2723.85 290.536 1
4 -1 1 2164.08 136.39 2
-4 1 -1 2076.61 152.855 1
-4 1 1 2124.81 118.801 1
4 1 1 2119.92 162.61 2
4 -1 -1 1937.7 171.183 4
4 1 -1 2159.1 153.652 2
4 -1 1 2258.42 226.242 4
4 -1 -1 2001.33 136.957 2
5 -1 -1 5091.53 239.474 2
5 -1 -1 4726.1 312.574 4
-5 -1 -1 5338.57 376.342 1
5 -1 1 4982.35 237.387 2
-5 1 -1 4939.57 251.297 1
-5 1 1 5050.27 197.445 1
5 1 1 5302.66 274.351 2
5 1 -1 5180.02 261.227 2
6 -1 1 2202.45 165.225 2
-6 1 1 2122.73 128.541 1
6 1 1 2218.14 190.893 2
-6 -1 -1 2216.11 244.379 1
6 -1 -1 2602.87 181.083 2
-6 1 -1 2046.09 167.068 1
6 1 -1 2303.13 187.185 2
-7 -1 -1 359.188 118.285 1
-7 1 1 437.66 64.0278 1
-7 1 -1 445.629 88.926 1
7 1 1 444.323 100.251 2
7 -1 -1 396.153 84.8047 2
7 1 -1 574.124 109.465 2
7 -1 1 321.49 65.3194 2
8 1 -1 18988.4 647.556 2
8 -1 -1 19795.2 621.946 2
-8 1 -1 19317.1 627.902 1
-8 1 1 20251.2 511.445 1
8 -1 1 20072.7 635.233 2
-8 -1 -1 20191 823.846 1
8 1 1 20603.9 684.509 2
9 1 -1 5814.13 357.618 2
9 1 1 6270.98 377.849 2
-9 1 -1 6023.11 343.74 1
9 -1 -1 5606.64 326.347 2
-9 1 1 6060.96 264.983 1
9 -1 1 6443.16 351.301 2
-9 -1 -1 5744.16 440.045 1
10 1 -1 481.304 117.028 2
10 1 1 493.922 124.276 2
10 -1 -1 448.35 108.127 2
-10 1 -1 346.622 90.6666 1
10 -1 1 412.718 98.7495 2
11 -1 -1 2665.89 251.855 2
-11 1 -1 2692.74 248.162 1
11 1 -1 3048.56 282.494 2
11 -1 1 2914.62 267.062 2
11 1 1 2624.3 273.993 2
12 1 -1 130.335 97.5923 2
12 -1 1 164.351 93.7615 2
12 -1 -1 231.218 94.3718 2
12 1 1 -26.0677 87.62 2
13 1 1 6561.33 467.15 2
13 -1 1 5944.73 428.922 2
13 1 -1 6330.9 456.165 2
13 -1 -1 6680.41 442.752 2
14 1 -1 2247.9 292.197 2
14 1 1 2269.72 288.329 2
14 -1 1 2283.24 271.013 2
14 -1 -1 2289.86 274.233 2
15 -1 -1 -37.1992 90.3404 2
15 -1 1 -120.263 110.422 2
15 1 -1 47.6588 100.919 2
15 1 1 -36.4555 100.235 2
16 -1 -1 2404.71 314.263 2
16 -1 1 1941.95 281.018 2
16 1 1 2005.98 309.599 2
16 1 -1 2154.32 316.867 2
17 -1 -1 3132.75 364.338 2
17 -1 1 3556.46 389.888 2
17 1 -1 2879.79 369.433 2
17 1 1 2695.38 350.648 2
18 -1 -1 -20.9762 123.582 2
18 1 -1 245.897 152.874 2
18 1 1 -183.917 170.086 2
19 1 -1 27.9571 107.254 2
19 1 1 72.4844 122.705 2
0 2 -1 27.6121 24.7634 1
0 -2 1 5.67094 32.382 4
0 -2 -1 48.8599 47.9632 4
-1 -2 1 2389.93 135.753 3
-1 -2 -1 2172.23 184.013 4
1 2 -1 2250.08 120.458 1
1 2 -1 2133.85 119.454 2
1 -2 -1 2323.64 142.313 4
1 -2 1 2350.31 151.607 4
-1 2 1 2374.1 147.791 1
-1 2 1 2155.22 125.804 3
-1 2 -1 2129.47 136.461 1
-1 -2 1 2278.59 134.584 4
2 2 -1 88967.7 1493.96 2
-2 -2 1 88529.4 1519.29 4
2 -2 1 89446.1 1618.81 4
2 -2 -1 88534.2 1525.9 4
-2 -2 1 87876.4 1461.97 3
2 2 1 91397.3 1581.9 2
2 2 -1 88377.7 1408.91 1
-2 2 -1 92077.8 1539.71 1
-2 -2 -1 89038.4 1622.93 1
-2 2 1 90304.1 1523.31 1
-2 2 1 88505.8 1463.61 3
-3 2 -1 107861 1824.2 1
3 -2 -1 104266 1832.15 4
3 2 1 108212 1861.49 2
3 -2 1 107376 1975.44 4
3 2 -1 105473 1799.3 2
-3 2 1 109795 1785.07 1
3 2 -1 106830 1629.99 1
-3 -2 1 108697 1862.29 4
-3 -2 -1 108644 1955.37 1
-4 2 1 64814.5 1181.33 1
4 -2 1 64221.4 1110.13 2
4 -2 1 64189.4 1422.5 4
4 2 -1 63996.4 991.102 1
-4 -2 1 65147.4 1342.87 4
-4 2 -1 62119.5 1227.75 1
4 2 -1 63823 1231.21 2
4 2 1 62962.8 1270.71 2
4 -2 -1 65507.3 1316.14 4
-4 -2 -1 67170.2 1431.01 1
5 -2 -1 667.008 120.512 4
5 -2 1 437.219 64.7764 2
5 2 1 419.091 86.7331 2
-5 -2 -1 583.986 127.134 1
-5 2 1 479.381 73.1943 1
5 -2 -1 528.714 74.438 2
-5 2 -1 503.133 84.8124 1
5 2 -1 551.867 91.254 2
5 -2 1 527.481 120.736 4
6 -2 1 57149.1 1103.11 2
6 2 -1 58197.3 1227.91 2
6 -2 -1 55730.9 1408.23 4
6 -2 1 58629.7 1525.57 4
-6 2 1 55926.2 1110.68 1
-6 2 -1 56453.8 1195.32 1
6 -2 -1 56561.3 1124.54 2
6 2 1 57292.7 1273.33 2
7 2 1 17328.7 622.686 2
7 -2 1 16699.1 796.012 4
-7 2 1 17278 500.441 1
7 -2 -1 16733.8 519.605 2
7 -2 1 18198.2 525.039 2
7 2 -1 17513.8 598.048 2
-7 2 -1 17018.4 568.991 1
7 -2 -1 15960.1 737.866 4
-8 2 -1 131147 2356.33 1
8 2 -1 128157 2411.92 2
-8 2 1 128429 2197.31 1
8 -2 -1 129004 2282.36 2
8 -2 1 130713 2272.38 2
8 2 1 129590 2446.17 2
9 -2 -1 7710.08 377.258 2
9 2 1 7709.64 442.62 2
-9 2 1 7881.15 339.148 1
9 2 -1 7388.43 424.997 2
-9 -2 -1 7615.85 553.112 1
9 -2 1 8136.58 379.783 2
-9 2 -1 8057.63 405.378 1
10 2 -1 20693.8 767.685 2
10 2 1 20068.3 784.072 2
10 -2 1 20988.5 682 2
10 -2 -1 21022.1 695.301 2
-10 2 -1 20197.3 703.684 1
-10 2 1 20210.2 600.553 1
11 -2 1 49710.5 1231.27 2
11 2 1 50994.7 1385.13 2
11 2 -1 50288.3 1351.36 2
-11 2 -1 46965.5 1236.04 1
11 -2 -1 49471.4 1236.61 2
12 2 1 69016 1757.29 2
12 2 -1 69615.3 1742.4 2
12 -2 -1 69195 1606.26 2
12 -2 1 70401.5 1608.78 2
13 2 1 3514.83 354.538 2
13 -2 1 2692.05 272.218 2
13 2 -1 2567.23 285.057 2
13 -2 -1 3395.53 301.436 2
14 2 1 2410.67 301.079 2
14 -2 1 2886.95 297.815 2
14 2 -1 2826.22 331.238 2
14 -2 -1 3071.98 305.036 2
15 -2 -1 6416.89 469.901 2
15 2 -1 6167.61 504.752 2
15 -2 1 5836.02 449.05 2
15 2 1 6065.64 505.806 2
16 2 -1 23515.9 1059.81 2
16 2 1 22344.5 1039.55 2
17 2 -1 5039.79 500.117 2
17 2 1 5318.7 515.672 2
18 2 1 1046.16 250.676 2
18 2 -1 1422.03 287.04 2
0 -3 1 21840.2 597.757 4
0 -3 -1 24073.9 670.32 4
0 3 1 24473.3 610.116 1
0 3 -1 21817.8 555.045 1
-1 3 1 776.385 76.3298 3
-1 -3 1 667.851 75.5181 3
-1 -3 1 746.067 92.1776 4
-1 3 1 665.372 90.8297 1
-1 3 -1 698.785 93.1813 1
-1 -3 -1 652.102 115.663 4
1 -3 -1 556.2 88.3451 4
1 3 1 616.991 83.4025 2
1 -3 1 715.989 98.7432 4
1 3 1 847.386 101.344 1
1 3 -1 710.671 78.6447 1
1 3 -1 677.664 71.06 2
2 3 1 183.015 51.1275 2
-2 -3 1 187.164 41.1451 3
-2 -3 1 161.226 50.383 4
2 -3 1 247.549 74.1357 4
-2 3 1 206.941 60.8165 1
-2 -3 -1 158.763 67.4192 4
2 3 -1 146.87 35.0027 1
2 3 -1 167.502 44.7174 2
-2 3 -1 154.274 55.0127 1
2 -3 -1 229.085 74.7912 4
-2 3 1 186.124 38.9691 3
3 3 1 4.44684 35.1966 2
3 -3 1 28.5997 60.207 4
3 -3 -1 55.979 44.5522 4
-3 3 1 22.1074 30.6318 3
-3 3 -1 82.5247 57.3693 1
3 3 -1 -25.2563 42.4153 2
3 -3 1 27.3793 13.764 2
-3 3 1 46.0402 44.5818 1
-3 -3 1 -20.0451 48.5779 4
-3 -3 -1 54.5811 89.4125 4
-3 -3 1 -15.1107 31.1649 3
3 3 -1 35.6699 27.2838 1
4 -3 -1 216.361 56.9979 4
4 -3 1 233.918 33.2543 2
4 3 -1 138.418 38.0714 2
-4 3 1 281.963 67.9248 1
4 -3 1 153.221 67.1299 4
4 3 -1 200.929 36.2971 1
-4 -3 1 134.462 65.9139 4
-4 3 -1 169.089 58.7538 1
4 3 1 254.728 70.2343 2
5 -3 -1 3348.49 261.154 4
-5 3 -1 3303.55 229.862 1
5 3 -1 3486.15 233.22 2
5 3 1 3639.81 255.472 2
5 -3 1 3531.44 159.308 2
-5 -3 1 3440.02 272.845 4
5 -3 1 3565.51 302.399 4
5 3 -1 3474.32 132.417 1
-5 3 1 3556.59 218.204 1
-6 3 1 450.626 85.5684 1
6 3 -1 179.527 25.4704 1
6 3 1 210.459 74.4137 2
6 3 -1 313.215 82.7629 2
6 -3 1 288.773 50.5353 2
6 -3 1 324.961 114.614 4
-6 3 -1 246.073 66.3757 1
6 -3 -1 40.0819 75.1658 4
-6 -3 -1 255.59 71.5991 1
7 -3 1 -49.4324 98.9649 4
7 -3 1 7.07501 26.6304 2
7 3 -1 -2.96993 53.2274 2
7 3 1 -92.22 76.2881 2
7 -3 -1 13.636 39.6613 2
-7 -3 -1 16.2339 42.5966 1
7 -3 -1 -22.0838 68.4477 4
-7 3 -1 -24.2178 41.7453 1
-7 3 1 -45.8562 51.3413 1
-8 3 -1 14288 561.984 1
-8 3 1 14266.4 509.093 1
8 3 1 15165.7 616.01 2
8 -3 1 14864.4 790.179 4
8 -3 1 15082.3 468.68 2
8 -3 -1 14203.2 485.237 2
-8 -3 -1 14617.4 582.098 1
8 3 -1 14617.4 593.835 2
8 -3 -1 13678 746.956 4
9 -3 -1 3876.42 420.115 4
9 -3 -1 4172.69 267.58 2
9 -3 1 3746.68 239.317 2
-9 3 1 3718.28 250.145 1
-9 3 -1 3831.1 292.081 1
9 -3 1 4048.52 441.558 4
9 3 -1 3854.23 311.678 2
9 3 1 4055.53 334.16 2
10 -3 -1 58.1306 58.0393 2
10 -3 1 -34.7585 50.9578 2
-10 3 1 -31.6879 48.5352 1
10 3 1 -69.0004 72.362 2
-10 3 -1 24.2341 63.1152 1
10 3 -1 -87.8117 101.441 2
11 -3 1 1797.78 183.701 2
-11 3 -1 1712.85 203.744 1
11 3 -1 1634.8 219.07 2
11 -3 -1 1616.98 182.931 2
11 3 1 1835.32 244.761 2
12 -3 1 -43.4472 62.2053 2
12 3 1 46.456 88.8476 2
-12 3 -1 22.1716 70.5239 1
12 -3 -1 0.26626 67.1973 2
13 -3 -1 6659.53 422.055 2
13 3 1 6698.52 505.563 2
13 3 -1 7518.5 520.731 2
14 3 -1 1023.06 200.324 2
14 3 1 1037.26 203.919 2
15 3 1 -0.82284 105.309 2
15 3 -1 -68.3486 145.951 2
16 3 -1 2820.82 364.724 2
16 3 1 3021.72 385.069 2
17 3 -1 1433.13 273.427 2
17 3 1 1870.47 325.85 2
18 3 -1 71.942 119.007 2
18 3 1 269.166 191.298 2
0 -4 -1 79.8844 60.7063 4
0 4 -1 18.7113 38.1837 1
0 4 -1 36.3642 20.9026 2
0 -4 1 71.9846 51.1079 4
0 4 1 -30.1862 53.2003 1
1 4 -1 5477.14 262.17 1
-1 -4 1 5843.04 311.427 4
1 4 1 5827.53 299.887 1
1 -4 1 5647.16 318.148 4
-1 4 -1 6157.66 298.779 1
1 -4 -1 5779.6 327.02 4
1 4 1 6196.42 275.473 2
-1 -4 -1 6649.42 374.838 4
1 4 -1 5700.14 227.139 2
-1 4 1 6258.92 306.227 1
2 4 1 4053.55 239.479 1
2 4 -1 3666.27 199.108 2
2 -4 -1 4124.06 273.914 4
-2 -4 -1 3701.29 302.184 4
2 4 -1 4056.55 211.767 1
-2 4 -1 3509.95 233.835 1
-2 -4 1 3558.51 247.962 4
-2 4 1 3551.05 167.941 3
-2 -4 1 3674.5 179.627 3
-2 4 1 3783.42 241.072 1
2 -4 1 4037.53 273.939 4
2 4 1 3732.82 221.619 2
-3 -4 1 2042.74 134.468 3
3 -4 -1 2189.77 202.012 4
3 4 -1 2181.02 146.644 1
3 -4 1 2210.08 208.922 4
-3 4 -1 2071.25 183.86 1
3 4 1 1809.44 167.634 2
3 4 1 2042.05 174.56 1
-3 4 1 2119.85 136.835 3
3 4 -1 2096.01 158.294 2
-3 -4 -1 2029.15 237.295 4
-3 4 1 2045.42 180.22 1
-3 -4 1 1874.65 190.115 4
-4 -4 -1 78950 1949.32 4
-4 4 1 81520.1 1571.04 1
-4 4 -1 85560.2 1613.41 1
-4 -4 1 80233 1434.68 3
4 4 1 82469.7 1540.66 1
4 4 -1 79951 1520.78 2
4 4 1 81419.9 1598.94 2
4 -4 1 78121.7 1718.65 4
4 -4 1 75653.5 1184.44 2
4 4 -1 80270.4 1379.66 1
-4 -4 1 84737.7 1696.73 4
4 -4 -1 81040 1678.16 4
5 -4 1 7236.59 200.563 2
5 -4 -1 7702.99 432.709 4
-5 4 1 7633.24 360.988 1
-5 -4 -1 7751.08 556.337 4
5 -4 1 7099.12 441.14 4
5 4 1 7414.27 387.505 2
-5 -4 1 8081.57 439.072 4
5 4 -1 7662.47 263.015 1
-5 4 -1 7690.48 377.169 1
5 4 -1 8102.08 374.579 2
6 4 -1 1203.5 154.675 2
6 4 1 1470.28 178.775 2
-6 -4 1 1290.15 187.77 4
-6 4 1 1412.24 158.899 1
6 -4 1 1206.78 193.863 4
-6 4 -1 1147.22 152.618 1
6 -4 1 1383.7 91.6199 2
6 -4 -1 1456.42 203.284 4
6 4 -1 1361.97 95.2697 1
-7 -4 1 69217.4 1718.1 4
7 -4 1 71484.1 1817.2 4
7 4 -1 67063.9 1118.52 1
7 4 -1 66298.4 1510.12 2
7 -4 -1 69572.1 1744.76 4
-7 4 -1 66615.2 1495.21 1
7 4 1 68117.4 1554.76 2
7 -4 1 67510.8 1193.21 2
-7 4 1 68601.3 1447.23 1
8 -4 1 119063 2719.82 4
-8 4 1 115994 2190.05 1
8 -4 -1 115970 2633.85 4
-8 -4 1 116559 2582.01 4
8 4 -1 119499 2329.98 2
-8 4 -1 118445 2288.01 1
8 4 1 117451 2358.39 2
8 -4 1 116276 1959.53 2
-9 -4 1 11019.4 676.921 4
-9 4 -1 11634.7 540.674 1
9 -4 -1 11927.5 741.452 4
9 -4 1 12497.8 780.25 4
9 4 -1 12523.5 593.536 2
9 4 1 12334.8 608.601 2
-9 4 1 11988.2 506.378 1
9 -4 1 12101.6 421.519 2
-10 4 -1 546.177 125.714 1
10 -4 -1 852.082 127.185 2
10 4 -1 513.871 135.643 2
-10 4 1 461.48 100.895 1
10 -4 -1 673.407 208.87 4
10 -4 1 600.688 216.455 4
10 4 1 493.799 139.313 2
-11 4 1 7683.73 423.332 1
11 -4 -1 7779.54 698.04 4
11 4 1 8695.13 547.556 2
-11 4 -1 8730.11 494.227 1
11 4 -1 8896.22 543.768 2
12 4 1 94246.3 2227.47 2
12 4 -1 92356.1 2198.86 2
-12 4 -1 90276 2060.71 1
13 4 -1 14114.6 755.133 2
13 4 1 14214.9 758.666 2
14 4 -1 398.141 145.844 2
14 4 1 448.49 152.154 2
15 4 1 8607.72 637.711 2
15 4 -1 8091.67 617.748 2
16 4 -1 34459.6 1374.85 2
16 4 1 32374 1342.09 2
17 4 -1 1502.47 303.525 2
17 4 1 1368.84 281.541 2
0 -5 -1 33000.8 975.135 4
0 5 -1 31254.5 651.065 2
0 5 1 32617.3 861.134 1
0 -5 1 34261.3 930.146 4
0 5 -1 31932.2 828.619 1
0 5 1 30630.5 735.787 2
1 5 1 2098.99 186.582 1
-1 5 -1 2054.98 182.448 1
-1 5 1 1893.2 185.246 1
-1 -5 -1 1867.17 226.016 4
1 -5 -1 2018.21 210.534 4
-1 -5 1 1888.68 198.963 4
1 5 1 1963.59 159.702 2
1 5 -1 1922.64 172.047 1
-1 5 1 1799.05 134.618 2
1 5 -1 1921.98 136.184 2
1 -5 1 2021.69 214.995 4
2 5 1 1071.48 126.609 2
-2 -5 1 1064.49 106.847 3
-2 5 -1 1042.23 142.223 1
-2 5 1 1163.81 143.218 1
2 5 1 846.676 123.622 1
2 -5 1 936.501 151.266 4
2 5 -1 979.47 122.867 1
-2 -5 1 1004.97 145.391 4
2 5 -1 994.783 110.543 2
-2 5 1 979.62 91.4202 3
2 -5 -1 1151.47 171.965 4
-2 -5 -1 1147.13 193.784 4
-3 -5 1 1423.49 174.776 4
-3 5 1 1357.87 108.943 3
-3 -5 1 1469.96 117.495 3
3 5 -1 1378.7 136.367 1
3 -5 1 1571.28 196.546 4
3 5 1 1471.9 156.854 1
-3 5 1 1478.04 166.533 1
3 5 -1 1309.75 135.52 2
-3 -5 -1 1455.33 219.279 4
3 5 1 1300.12 149.332 2
3 -5 -1 1162.86 165.838 4
-3 5 -1 1557.29 173.304 1
4 5 -1 3252.29 207.993 1
4 5 1 3639.82 248.902 1
-4 -5 1 3376.36 194.728 3
-4 5 1 3217.66 188.586 3
-4 5 -1 3241.96 255.615 1
-4 -5 1 3763.04 299.776 4
-4 5 1 3532.95 266.659 1
4 -5 1 3214.49 287.636 4
4 5 1 3253.42 253.298 2
4 -5 -1 2931.68 273.443 4
-4 -5 -1 3430.68 350.799 4
4 5 -1 3375.41 233.774 2
5 -5 1 2276.3 260.641 4
-5 -5 -1 2236.07 315.206 4
-5 5 1 2498.61 226.618 1
5 5 1 2558.01 235.44 2
-5 -5 1 2401.32 256.104 4
5 5 1 2395.17 203.561 1
-5 5 -1 2662.55 236.12 1
5 -5 -1 2608.11 266.617 4
5 5 -1 2302.48 161.35 1
5 5 -1 2219.95 207.718 2
-6 5 -1 3458.21 277.273 1
6 5 1 3436.24 241.2 1
-6 5 1 3421.27 270.246 1
6 -5 -1 3349.03 322.554 4
-6 -5 1 3268.51 312.259 4
6 5 1 3232.24 267.497 2
-6 -5 -1 3014.52 385.259 4
6 5 -1 3230.1 187.563 1
6 5 -1 3202.54 261.49 2
6 -5 1 3011.76 314.995 4
7 5 -1 712.605 130.899 2
7 -5 -1 799.609 169.631 4
7 5 1 581.592 96.5414 1
-7 -5 -1 557.483 209.208 4
7 -5 1 687.141 159.456 4
-7 5 1 778.481 129.162 1
7 5 1 770.302 148.676 2
-7 -5 1 823.64 169.893 4
-7 5 -1 726.242 134.747 1
8 -5 -1 13094.9 738.551 4
-8 -5 1 13687.9 724.003 4
8 -5 1 12955.6 747.637 4
8 5 1 13507.6 509.781 1
8 5 -1 14230.7 630.316 2
-8 5 -1 13464.8 606.22 1
-8 5 1 12939.2 554.842 1
8 5 1 12840.6 624.8 2
-8 -5 -1 14131.3 939.031 4
9 -5 1 4201.09 456.286 4
-9 5 -1 4162.54 334.806 1
9 -5 -1 3973.07 428.695 4
9 5 -1 4317.46 357.138 2
9 5 1 4681.61 388.617 2
-9 5 1 4105.94 314.665 1
-9 -5 1 4132.47 418.791 4
-10 5 -1 1244.77 194.684 1
10 -5 -1 1286.28 285.513 4
-10 -5 1 1156.56 237.244 4
10 -5 1 1286.39 264.406 4
10 5 -1 1623.75 235.066 2
-10 5 1 1180.91 169.646 1
10 5 1 1117.26 198.458 2
-11 5 1 2548.86 255.685 1
11 -5 -1 2179.53 365.783 4
11 -5 1 2083.92 370.004 4
-11 -5 1 2481.05 360.545 4
11 5 1 2508.26 308.418 2
11 5 -1 2296.06 285.149 2
-11 5 -1 2260.05 260.711 1
-12 5 -1 117.792 90.7489 1
12 5 1 358.981 145.256 2
12 -5 -1 382.791 202.196 4
-12 -5 1 297.654 178.311 4
12 5 -1 208.368 118.547 2
12 -5 1 152.544 122.309 4
-13 5 -1 2566.43 288.157 1
13 5 -1 2775.87 344.83 2
-13 -5 1 3305.23 451.629 4
13 5 1 3194.15 374.741 2
14 5 -1 2827.81 360.04 2
-14 -5 1 2357.08 407.187 4
14 5 1 2524.36 342.387 2
15 5 1 -80.3129 111.252 2
15 5 -1 -161.522 174.826 2
16 5 -1 1305.55 294.067 2
16 5 1 1051.81 250.638 2
0 6 1 65.5761 41.7254 2
0 -6 -1 -42.0912 79.531 4
0 6 -1 33.499 27.0288 2
0 -6 1 102.615 80.2218 4
1 -6 1 552.047 127.157 4
1 6 1 526.832 84.1299 2
-1 6 1 605.029 119.184 1
-1 -6 -1 428.321 124.811 4
-1 6 -1 765.772 130.913 1
-1 -6 1 538.904 117.754 4
1 -6 -1 691.934 155.972 4
1 6 1 1010.71 142.479 1
1 6 -1 533.267 76.3286 2
-1 6 1 563.539 78.1085 2
1 6 -1 598.535 101.611 1
-2 -6 -1 36344.8 1181.78 4
-2 6 1 34233.1 719.848 2
2 6 1 37075.9 902.211 2
-2 6 1 37660.2 1015.51 1
2 6 -1 35792.4 920.879 1
-2 6 -1 35554.8 981.164 1
2 6 1 35094.2 959.259 1
-2 -6 1 35563.9 1062.18 4
2 -6 1 34929.6 1075.12 4
2 -6 -1 36109.9 1109.07 4
2 6 -1 35576.2 827.363 2
3 6 1 47227.3 1120 2
3 6 -1 46265.6 1083.38 1
-3 6 -1 50761.4 1218.48 1
3 6 1 47751.2 1164.28 1
-3 -6 -1 46450.3 1416.22 4
3 -6 1 45299.2 1290.73 4
-3 6 1 45186.6 1181 1
-3 -6 1 47113.9 960.025 3
3 6 -1 46343.3 1049.91 2
3 -6 -1 46440.8 1318.69 4
-3 -6 1 47685.5 1283.79 4
-3 6 1 46449.3 923.496 3
4 -6 -1 27467.2 968.443 4
-4 -6 1 28433.2 966.114 4
-4 -6 1 27399.8 674.46 3
4 6 -1 27692.6 759.606 1
-4 6 1 28689.6 885.053 1
4 -6 1 26417.3 959.365 4
-4 -6 -1 27526.9 1075.8 4
-4 6 -1 27444.9 874.58 1
-4 6 1 27933 669.386 3
4 6 1 27662.8 828.771 1
4 6 1 28196.8 844.437 2
4 6 -1 27369.3 780.497 2
5 -6 -1 243.655 111.605 4
5 6 1 127.465 70.7895 2
-5 -6 1 61.1213 39.8127 3
-5 6 1 57.6316 74.0247 1
-5 -6 1 65.861 68.0914 4
5 6 -1 52.529 42.9393 1
5 6 -1 73.4885 58.2518 2
5 6 1 96.7333 48.3065 1
5 -6 1 220.325 121.878 4
-5 6 -1 121.697 80.927 1
-5 -6 -1 61.422 103.186 4
-5 6 1 159.387 55.6098 3
6 -6 1 26587.6 1026 4
-6 6 -1 24713.3 859.516 1
-6 -6 1 26630.1 990.479 4
6 6 -1 27182.6 705.366 1
6 -6 -1 25076.6 989.461 4
-6 -6 1 25589.7 718.4 3
6 6 1 25352.9 775.588 1
6 6 -1 26039.7 832.109 2
-6 6 1 25228.9 859.515 1
6 6 1 26111.2 881.111 2
-6 -6 -1 25441.7 1139.28 4
-6 6 1 25337.8 718.922 3
-7 -6 -1 7049.5 614.21 4
7 -6 -1 7633.94 541.276 4
7 -6 1 7456.76 538.682 4
-7 6 1 7335.19 435.015 1
7 6 1 7418.65 381.248 1
-7 6 -1 6914.22 425.791 1
7 6 1 7544.26 466.194 2
7 6 -1 7341.17 434.854 2
-7 -6 1 7446.27 514.802 4
8 6 1 64258.9 1413.67 1
-8 -6 -1 65535.8 2158.82 4
-8 -6 1 66845.4 1829.89 4
8 6 1 68942 1698.78 2
8 -6 1 66663 1916.25 4
-8 6 1 65155 1579.21 1
-8 6 -1 63497.3 1613.65 1
8 -6 -1 66781.3 1907.76 4
8 6 -1 68361.1 1640.62 2
-9 6 -1 5359.42 395.865 1
9 -6 -1 4478 458.98 4
-9 -6 -1 4675.03 552.873 4
-9 6 1 4412.73 345.449 1
9 -6 1 6240.82 544.492 4
9 6 1 4761.89 398.713 2
-9 -6 1 4584.7 443.905 4
9 6 -1 5036.35 393.114 2
-10 -6 1 10719.2 709.363 4
10 6 1 9460.01 586.487 2
-10 -6 -1 9375.68 850.75 4
10 -6 -1 10135.3 752.235 4
-10 6 -1 9698.17 550.864 1
10 -6 1 10565.6 775.362 4
-10 6 1 9770.67 539.117 1
10 6 -1 10401.4 609.644 2
-11 -6 -1 26581.4 1526.02 4
-11 6 1 25775.8 935.399 1
11 -6 -1 28000.2 1373.45 4
11 -6 1 27229.6 1341.81 4
-11 6 -1 24919.2 959.148 1
-11 -6 1 26788.1 1217.75 4
11 6 1 25472.5 1049.08 2
11 6 -1 27784.3 1065.87 2
12 -6 -1 38803.5 1734.92 4
-12 6 -1 35824.3 1213.13 1
-12 6 1 36009.5 1156.83 1
-12 -6 1 37314.3 1524.6 4
12 6 1 37252.6 1329.69 2
-12 -6 -1 38169.2 1956.71 4
12 -6 1 38542.8 1701.08 4
12 6 -1 39586.3 1352.22 2
-13 -6 1 1742.84 347.352 4
-13 -6 -1 1840.2 455.537 4
13 6 -1 1973.38 298.95 2
13 -6 -1 1803.06 388.198 4
13 -6 1 1224.05 318.47 4
-13 6 -1 1679.2 247.689 1
13 6 1 1922.77 300.241 2
-14 -6 -1 1882.91 497.83 4
-14 -6 1 1131.44 284.096 4
14 6 1 1355.73 257.213 2
14 6 -1 1677.34 285.494 2
-15 -6 -1 3658.7 689.565 4
15 6 1 3030.18 402.971 2
15 6 -1 3208.58 415.241 2
-16 -6 -1 11484.7 1228.18 4
16 6 1 12093.8 840.97 2
16 6 -1 11771.6 814.597 2
0 7 -1 4617.88 323.708 1
0 -7 -1 4125.55 375.972 4
0 -7 1 4122.72 348.491 4
0 7 1 4412.51 331.548 1
0 7 1 3930.37 225.018 2
1 -7 -1 -41.9583 93.9607 4
-1 7 1 -1.67846 66.9335 1
-1 -7 1 66.6813 85.7134 4
1 7 -1 -33.9504 60.864 1
1 -7 1 -59.0073 89.3772 4
-1 -7 -1 61.33 77.7286 4
1 7 -1 0.66231 26.9059 2
-1 7 -1 46.6653 62.623 1
1 7 1 75.6034 70.4316 1
1 7 1 101.437 50.797 2
-2 7 -1 39.0748 78.1883 1
-2 -7 1 184.541 129.284 4
2 7 -1 21.4264 58.8481 1
2 7 1 -18.9084 66.7864 1
-2 -7 -1 2.92827 91.2791 4
-2 7 1 -4.00025 66.73 1
2 -7 1 -138.858 121.672 4
2 -7 -1 165.399 110.636 4
2 7 1 -3.86648 42.1833 2
2 7 -1 19.8668 38.0712 2
-3 7 1 -0.38881 66.9317 1
3 -7 -1 57.4073 75.8364 4
3 7 -1 102.057 47.4008 2
3 7 -1 33.0071 47.2034 1
-3 -7 1 143.159 80.3885 4
3 7 1 105.784 55.8098 2
-3 7 -1 130.832 78.0154 1
-3 -7 -1 92.2689 108.987 4
3 -7 1 5.10853 73.7432 4
3 7 1 92.5871 73.2379 1
4 7 -1 92.6625 61.0726 2
4 7 1 95.2658 74.8219 2
4 -7 1 94.1067 104.736 4
-4 -7 -1 148.635 136.959 4
4 -7 -1 84.2569 104.996 4
4 7 -1 80.7265 59.4772 1
4 7 1 57.9008 59.7799 1
-4 7 -1 73.2203 80.1699 1
-4 -7 1 45.2519 90.1099 4
-4 7 1 124.17 89.5244 1
-5 -7 -1 1117.49 231.69 4
-5 7 -1 1307.88 196.607 1
5 -7 1 1177.53 211.944 4
-5 -7 1 1116.53 206.022 4
5 -7 -1 1273.31 217.01 4
5 7 1 1469.99 186.413 1
5 7 -1 1547.75 171.178 1
5 7 1 1364.6 189.557 2
5 7 -1 1180.07 161.656 2
-5 7 1 1289.33 196.213 1
6 7 -1 54.3613 57.726 2
6 7 1 39.4024 66.6568 2
-6 -7 -1 106.348 102.272 4
-6 -7 1 92.622 87.5445 4
6 7 1 71.6922 48.1363 1
6 -7 -1 139.455 86.7323 4
6 -7 1 141.061 132.894 4
-6 7 1 -16.08 80.127 1
6 7 -1 56.1149 41.3162 1
-6 7 -1 276.517 122.664 1
-7 -7 -1 -61.0875 123.142 4
7 -7 -1 99.3172 94.7318 4
7 7 -1 -40.7152 83.1728 2
7 7 1 23.2691 80.4081 2
-7 7 1 107.998 87.4008 1
7 -7 1 144.086 105.887 4
7 7 1 118.934 71.2538 1
-7 7 -1 88.8327 91.3703 1
-7 -7 1 260.66 135.948 4
8 -7 -1 4704.84 466.508 4
8 -7 1 5416.19 512.301 4
-8 -7 1 5268.15 474.643 4
-8 7 1 5863.49 427.622 1
-8 -7 -1 5236.6 575.507 4
-8 7 -1 5900.49 427.855 1
8 7 1 5847.44 442.087 2
8 7 -1 5535.08 413.916 2
-9 7 1 1137.42 201.148 1
-9 -7 -1 1446 328.219 4
9 -7 -1 1148.04 240.51 4
9 7 -1 1486.32 220.935 2
9 7 1 1574.03 236.79 2
9 -7 1 1292.05 270.741 4
-9 -7 1 1554.79 260.45 4
-9 7 -1 1500.06 223.038 1
10 -7 -1 155.701 109.938 4
-10 -7 1 277.691 105.2 4
10 -7 1 400.009 167.802 4
10 7 -1 345.648 129.305 2
10 7 1 280.642 93.5781 2
-10 -7 -1 576.614 269.534 4
-10 7 -1 217.466 108.967 1
-10 7 1 286.164 108.292 1
-11 -7 -1 908.962 288.889 4
11 -7 -1 442.695 210.369 4
11 7 1 475.215 158.341 2
11 -7 1 556.346 225.412 4
-11 -7 1 351.127 142.748 4
-11 7 1 494.505 126.349 1
-11 7 -1 563.185 166.197 1
11 7 -1 402.051 154.324 2
12 7 -1 92.2466 138.706 2
-12 -7 1 -67.5345 154.396 4
12 -7 1 -256.509 223.741 4
12 -7 -1 -192.788 136.881 4
12 7 1 -35.4159 125.062 2
-12 7 1 195.446 103.503 1
-12 -7 -1 -183.134 182.64 4
-12 7 -1 47.4636 76.3838 1
-13 -7 -1 4622.3 679.455 4
-13 -7 1 3455.42 460.719 4
13 -7 -1 3803.25 573.741 4
13 -7 1 4051.58 572.782 4
-13 7 -1 3600.48 387.109 1
13 7 -1 4463.26 464.178 2
13 7 1 4090.57 457.527 2
14 -7 -1 420.166 299.495 4
-14 -7 -1 405.39 262.099 4
14 7 1 207.847 151.282 2
14 7 -1 67.1764 107.783 2
14 -7 1 118.908 159.669 4
-14 7 -1 65.6685 76.356 1
-14 -7 1 -4.60788 131.237 4
15 7 1 -51.4767 111.913 2
15 7 -1 265.088 161.31 2
-15 -7 -1 35.8888 193.228 4
0 8 1 -86.3713 90.8182 1
0 -8 1 72.5801 107.517 4
0 8 -1 49.5207 71.8178 1
0 -8 -1 216.556 131.263 4
1 8 -1 2292.93 244.752 1
1 -8 -1 2270.3 305.858 4
-1 -8 -1 2189.34 313.432 4
-1 -8 1 2102.42 268.579 4
1 8 1 2159.35 240.698 1
1 -8 1 1724.36 253.509 4
-1 8 -1 2131.56 245.798 1
-1 8 1 2169.43 252.029 1
-2 -8 1 590.29 151.304 4
-2 -8 -1 471.776 160.682 4
2 8 1 707.449 161.764 1
2 8 -1 633.834 139.447 1
-2 8 -1 745.061 150.419 1
2 -8 1 821.567 198.461 4
2 -8 -1 659.218 177.79 4
-2 8 1 639.674 150.537 1
3 -8 1 404.446 118.378 4
-3 -8 1 419.738 150.555 4
-3 -8 -1 326.495 137.006 4
-3 8 -1 221.931 104.622 1
3 8 -1 258.944 92.6513 1
3 -8 -1 330.153 144.074 4
3 8 1 331.56 90.9972 2
3 8 1 390.739 114.514 1
-3 8 1 488.95 126.983 1
4 8 1 28799.1 959.381 1
4 -8 1 29112.6 1138.16 4
-4 8 1 28938.5 1017.17 1
-4 -8 -1 27818.3 1202.05 4
-4 8 -1 28650.3 1009.78 1
4 8 -1 30518.3 929.187 1
4 8 1 28818.5 900.353 2
4 -8 -1 29007.5 1155.18 4
-4 -8 1 29375.9 1107.78 4
4 8 -1 29475.8 871.469 2
5 8 -1 3455.68 288.09 2
5 8 1 3541.39 305.559 1
-5 8 1 3896.13 351.645 1
5 8 -1 3830.27 294.469 1
5 -8 -1 3717.05 396.805 4
-5 -8 -1 3972.98 445.031 4
-5 -8 1 3671.84 384.613 4
-5 8 -1 4378.39 370.682 1
5 8 1 3569.92 311.347 2
5 -8 1 3777.37 409.004 4
-6 -8 -1 16.3018 133.858 4
6 8 -1 324.485 97.2208 2
-6 -8 1 357.381 121.146 4
6 8 1 271.996 93.145 1
-6 8 1 304.754 126.993 1
6 8 1 207.828 87.5066 2
6 -8 1 251.329 127.097 4
-6 8 -1 260.555 110.063 1
6 -8 -1 321.677 164.753 4
-7 -8 -1 24983.5 1234.38 4
-7 -8 1 25558.2 1112.26 4
7 -8 1 26354.4 1166.43 4
-7 8 1 26567.6 993.046 1
-7 8 -1 24884.9 969.916 1
7 -8 -1 25894.4 1159.94 4
7 8 1 24606.7 945.642 2
7 8 -1 27136.6 941.661 2
-8 -8 1 45193.3 1558.8 4
8 -8 1 44215.3 1620.48 4
8 -8 -1 43207.9 1618.15 4
-8 8 1 43408.3 1358.65 1
-8 8 -1 44568.4 1381.77 1
8 8 1 47677.9 1422.33 2
-8 -8 -1 41636.7 1714.81 4
8 8 -1 46639.1 1361.86 2
9 -8 -1 4776.53 523.668 4
9 -8 1 3436.45 440.762 4
-9 8 1 4430.22 398.004 1
-9 8 -1 4460.58 410.174 1
-9 -8 -1 4706.46 565.216 4
-9 -8 1 4399.35 470.302 4
9 8 1 4292.49 414.719 2
9 8 -1 5054.93 424.191 2
10 -8 1 273.773 115.13 4
10 -8 -1 48.7575 101.812 4
10 8 1 5.9325 111.451 2
10 8 -1 -78.8043 112.828 2
-10 -8 -1 -65.5145 131.254 4
-10 8 1 143.001 103.301 1
-10 8 -1 43.2131 93.7779 1
-10 -8 1 45.5169 115.647 4
-11 -8 1 2719.84 381.878 4
11 -8 -1 2855.64 452.331 4
-11 -8 -1 3046.25 502.407 4
11 -8 1 3448.75 485.235 4
-11 8 1 2804.93 330.63 1
11 8 -1 2957.41 355.834 2
-11 8 -1 2710.6 330.131 1
11 8 1 3191.35 387.567 2
-12 -8 1 37085.2 1561.22 4
-12 -8 -1 37012.3 1884.61 4
12 -8 -1 36326.1 1755.33 4
12 8 1 38029.4 1438.93 2
-12 8 -1 36374.9 1321.71 1
-12 8 1 36998 1296.83 1
12 -8 1 40029.4 1804.81 4
12 8 -1 41042.4 1466.46 2
13 -8 1 6119.6 714.172 4
-13 -8 1 5388.28 589.752 4
13 -8 -1 5649.36 711.894 4
-13 8 1 5328.34 463.86 1
-13 8 -1 5962.2 511.729 1
-13 -8 -1 6673.03 811.044 4
13 8 1 6890.9 607.113 2
13 8 -1 6654.93 581.374 2
-14 8 -1 -47.5846 133.371 1
-14 -8 1 113.883 150.829 4
14 8 -1 -207.967 153.292 2
14 -8 -1 -257.218 288.612 4
14 8 1 -136.523 157.822 2
14 -8 1 222.043 237.988 4
-14 -8 -1 16.419 200.169 4
15 -8 1 4315.46 671.303 4
0 9 1 14281.8 704.989 1
0 9 -1 14025.1 671.366 1
0 -9 1 14861.9 789.764 4
0 -9 -1 14315.8 831.52 4
-1 9 -1 718.474 163.314 1
-1 -9 -1 902.831 225.4 4
1 -9 -1 597.485 195.594 4
-1 -9 1 713.624 155.474 4
-1 9 1 932.397 180.126 1
1 -9 1 706.623 186.396 4
1 9 -1 969.81 165.618 1
1 9 1 1136.97 200.576 1
2 -9 -1 621.175 187.537 4
-2 9 1 484.815 139.513 1
-2 -9 -1 343.7 143.138 4
-2 -9 1 431.646 154.44 4
2 -9 1 572.64 166.723 4
2 9 -1 633.559 151.68 1
2 9 1 790.927 155.752 1
-2 9 -1 411.851 120.627 1
3 9 1 887.742 168.306 1
-3 -9 -1 1279.49 268.318 4
-3 -9 1 1352.2 239.828 4
3 -9 -1 630.363 180.534 4
3 9 -1 1259.2 197.831 1
3 -9 1 843.837 207.42 4
-3 9 1 1120.43 212.004 1
-3 9 -1 1094.46 201.718 1
4 -9 -1 2119.31 323.224 4
-4 -9 -1 2780.12 383.69 4
4 9 1 1976.46 252.215 1
-4 9 1 2101.55 283.613 1
4 -9 1 2293.31 335.397 4
-4 -9 1 2309.36 317.075 4
4 9 -1 2244.91 247.428 1
-4 9 -1 2319.27 291.725 1
5 9 1 1222.17 198.952 1
5 -9 1 1010.47 234.187 4
-5 9 1 1174.42 218.504 1
5 9 -1 952.474 166.347 1
-5 9 -1 1244.58 223.866 1
-5 -9 1 741.553 196.039 4
-5 -9 -1 940.708 250.565 4
5 -9 -1 792.153 211.985 4
-6 -9 1 2125.4 321.482 4
-6 -9 -1 1751.97 337.139 4
-6 9 1 1986.09 275.368 1
6 9 1 1818.17 238.465 2
6 -9 1 2222.07 338.377 4
-6 9 -1 1883.69 270.68 1
6 -9 -1 1930.26 327.444 4
6 9 1 2207.3 261.618 1
-7 9 -1 605.704 173.478 1
7 9 1 749.342 170.714 2
-7 -9 1 309.379 158.035 4
-7 9 1 621.18 163.707 1
-7 -9 -1 723.414 219.159 4
7 9 -1 704.417 158.763 2
7 -9 1 718.119 196.527 4
7 -9 -1 873.966 249.362 4
-8 -9 -1 5364.69 587.516 4
8 -9 1 5003.03 537.96 4
-8 -9 1 5115.8 514.429 4
8 9 1 5318.5 435.677 2
-8 9 -1 5297.85 462.543 1
-8 9 1 5314.29 463.629 1
8 -9 -1 5110.01 551.007 4
8 9 -1 5685.47 449.161 2
9 -9 -1 1613.32 324.51 4
-9 -9 -1 1901.06 386.259 4
-9 -9 1 1460.12 289.921 4
9 9 1 1927.47 292.853 2
9 -9 1 1933.79 351.006 4
9 9 -1 1807.7 273.069 2
-9 9 -1 1930.04 286.5 1
-9 9 1 1871.81 278.285 1
-10 -9 -1 886.745 277.967 4
-10 9 1 1326.38 241.051 1
10 -9 1 1067.05 269.006 4
-10 9 -1 1071.38 217.016 1
10 9 -1 1597.59 272.766 2
10 -9 -1 1501.47 317.503 4
10 9 1 1356.33 256.084 2
-10 -9 1 1125.28 269.6 4
-11 -9 1 450.879 163.734 4
11 -9 -1 471.391 211.031 4
-11 9 1 864.594 196.48 1
11 -9 1 965.434 290.442 4
-11 -9 -1 1120.74 338.165 4
11 9 -1 1148.96 240.105 2
-11 9 -1 637.413 184.949 1
11 9 1 1337.92 278.327 2
-12 -9 -1 446.985 262.058 4
12 -9 -1 -105.701 126.705 4
-12 -9 1 217.099 160.894 4
12 9 1 264.586 163.227 2
12 9 -1 24.482 109.953 2
12 -9 1 676.625 290.244 4
-12 9 1 67.519 85.3746 1
-12 9 -1 153.297 119.302 1
-13 9 1 813.6 202.507 1
13 -9 -1 948.18 322.427 4
13 9 -1 818.4 230.691 2
-13 -9 1 837.593 261.195 4
13 -9 1 1042.26 324.938 4
13 9 1 924.533 237.538 2
-13 -9 -1 864.115 336.452 4
-13 9 -1 648.29 193.793 1
14 -9 -1 1462.45 414.904 4
-14 9 -1 1075.95 232.066 1
0 10 1 -95.0075 107.468 1
0 -10 -1 12.1531 118.126 4
0 -10 1 -57.6724 132.276 4
0 10 -1 -105.699 109.105 1
-1 -10 1 69.0453 123.371 4
1 -10 -1 -6.11783 140.37 4
1 10 -1 -83.6299 79.7921 1
-1 10 1 44.1561 91.2084 1
-1 10 -1 -6.06655 106.515 1
-1 -10 -1 97.1539 146.834 4
1 -10 1 26.6268 129.688 4
1 10 1 230.393 111.177 1
-2 -10 1 8676.22 647.444 4
2 -10 1 8049.25 627.767 4
2 -10 -1 9463.2 718.695 4
-2 10 1 8863.67 588.5 1
2 10 1 8424.18 559.997 1
2 10 -1 8541.69 542.605 1
-2 10 -1 8460.63 564.067 1
-2 -10 -1 8054.39 655.806 4
3 -10 -1 12490.4 833.029 4
3 10 1 14075.5 725.654 1
3 -10 1 12270.2 791.206 4
3 10 -1 13629.4 681.209 1
-3 10 -1 12764.2 710.943 1
-3 10 1 12728 728.753 1
-3 -10 1 13352.7 808.407 4
-3 -10 -1 12267.5 843.77 4
4 10 1 7712.65 530.664 1
4 10 -1 7757.63 504.61 1
-4 -10 -1 7675.65 667.736 4
-4 10 1 8005.87 572.598 1
-4 10 -1 8439.63 576.784 1
-4 -10 1 7605.42 613.924 4
4 -10 1 6739.42 593.472 4
4 -10 -1 7356.66 643.962 4
-5 -10 1 -0.56464 135.132 4
-5 -10 -1 -131.603 176.48 4
5 -10 -1 188.724 126.608 4
-5 10 1 97.4297 103.675 1
5 10 1 -12.1387 71.6334 1
-5 10 -1 135.271 94.9124 1
5 -10 1 21.0116 122.614 4
-6 10 -1 6165.12 512.711 1
-6 -10 1 5616.32 540.43 4
-6 -10 -1 5547.86 610.672 4
6 -10 -1 6767.09 645.17 4
6 -10 1 6468.95 619.007 4
-6 10 1 6485.35 520.269 1
-7 -10 -1 1368.85 314.827 4
7 -10 1 2181.52 360.871 4
-7 -10 1 1624.86 308.659 4
-7 10 1 1733.99 276.335 1
-7 10 -1 2024.9 298.738 1
7 -10 -1 1899.01 349.65 4
-8 -10 1 19152.9 1065.74 4
8 -10 1 19612.5 1129.23 4
-8 10 -1 19404.3 944.648 1
-8 10 1 19683 951.562 1
-8 -10 -1 18807.9 1180.42 4
8 -10 -1 20079.4 1167.43 4
-9 10 1 1161.36 240.687 1
-9 -10 1 1601.92 320.286 4
9 10 1 1280.83 238.953 2
-9 -10 -1 1241.78 324.264 4
9 -10 -1 1585.54 348.848 4
9 -10 1 1202 282.228 4
-9 10 -1 1481.88 268.846 1
10 10 -1 2510.22 328.029 2
-10 -10 -1 2791.84 488.776 4
10 10 1 2896.86 362.631 2
-10 -10 1 2236.45 371.82 4
10 -10 1 2824.6 455.483 4
10 -10 -1 2714.52 472.294 4
-10 10 -1 2940.84 371.113 1
-10 10 1 2896.08 371.977 1
-11 -10 -1 7787.08 828.258 4
11 -10 -1 7493.12 782.566 4
11 -10 1 7969.52 787.78 4
-11 -10 1 7139.9 691.498 4
-11 10 1 8184.76 631.752 1
-11 10 -1 8073.11 625.328 1
11 10 1 7797.36 634.815 2
11 10 -1 8147.84 626.222 2
12 -10 -1 10284.8 953.029 4
-12 -10 1 10638 863.899 4
-12 10 1 10575.3 728.504 1
12 -10 1 11745.5 1009.32 4
-12 10 -1 10612.3 739.161 1
12 10 1 11556.4 802.085 2
12 10 -1 10314.6 742.142 2
-13 -10 1 574.283 216.01 4
13 -10 -1 424.403 247.058 4
0 -11 1 446.201 206.058 4
0 -11 -1 352.532 156.571 4
0 11 -1 519.578 167.508 1
0 11 1 330.993 149.185 1
-1 11 -1 -37.9116 97.9162 1
-1 -11 -1 84.897 142.452 4
1 11 1 -37.9885 84.0109 1
1 11 -1 199.909 129.643 1
1 -11 -1 106.906 118.926 4
-1 11 1 38.5715 80.0673 1
1 -11 1 -158.11 156.455 4
-1 -11 1 -13.1128 139.208 4
2 11 1 -108.085 123.019 1
-2 -11 1 285.428 159.809 4
-2 11 1 -59.2627 87.5654 1
-2 11 -1 44.2831 104.914 1
2 -11 -1 -3.19276 114.493 4
2 11 -1 -68.8402 113.398 1
-2 -11 -1 -206.57 188.212 4
2 -11 1 -4.49214 110.429 4
3 -11 1 103.03 132.636 4
-3 -11 1 471.895 189.148 4
-3 -11 -1 64.7313 123.637 4
3 11 1 250.115 124.972 1
3 11 -1 46.7509 81.1589 1
-3 11 1 376.754 166.834 1
-3 11 -1 42.4417 112.884 1
3 -11 -1 5.75036 119.744 4
-4 -11 -1 385.981 207.484 4
-4 11 -1 192.504 126.952 1
-4 11 1 176.186 120.54 1
4 -11 -1 293.141 167.174 4
4 11 1 255.221 139.705 1
4 -11 1 298.367 150.781 4
-4 -11 1 363.452 201.153 4
-5 -11 1 279.978 151.426 4
-5 11 1 480.156 171.949 1
-5 -11 -1 176.889 189.506 4
5 -11 1 460.8 193.207 4
5 -11 -1 273.014 129.891 4
5 11 1 319.159 123.084 1
-5 11 -1 288.658 151.398 1
-6 11 -1 33.3318 80.0188 1
-6 11 1 234.817 163.843 1
-6 -11 -1 456.499 169.101 4
6 -11 1 -78.6085 187.788 4
6 -11 -1 11.3517 152.405 4
-6 -11 1 -72.6409 129.951 4
-7 11 1 275.597 147.293 1
-7 -11 -1 47.1736 135.199 4
7 -11 1 166.802 141.498 4
7 -11 -1 -27.0997 154.133 4
-7 11 -1 187.984 116.753 1
-7 -11 1 167.58 147.417 4
8 -11 1 1451.94 333.959 4
-8 -11 1 1573.32 326.946 4
-8 11 1 1160.36 238.262 1
-8 -11 -1 1430.87 334.04 4
8 -11 -1 974.965 275.894 4
-8 11 -1 1522.35 266.157 1
9 -11 1 427.227 236.047 4
-9 11 1 358.258 157.063 1
-9 -11 -1 346.889 219.019 4
-9 -11 1 288.747 158.79 4
-9 11 -1 573.114 211.635 1
9 -11 -1 223.56 181.136 4
-10 -11 1 352.026 168.993 4
10 -11 1 457.022 251.641 4
-10 11 1 372.506 145.171 1
10 -11 -1 512.829 252.665 4
11 -11 -1 -18.1312 167.47 4
-11 -11 1 228.184 176.016 4
0 -12 1 36.7573 117.152 4
0 -12 -1 94.4364 124.65 4
0 12 -1 -300.384 144.436 1
0 12 1 -108.848 100.046 1
1 -12 1 924.631 266.539 4
-1 -12 -1 209.023 160.335 4
1 -12 -1 190.888 139.039 4
-1 -12 1 438.483 172.456 4
-1 12 1 451.429 192.893 1
-1 12 -1 896.777 225.012 1
1 12 -1 270.016 128.985 1
1 12 1 393.815 158.912 1
-2 -12 -1 -87.3145 162.769 4
2 12 1 118.359 128.655 1
-2 12 1 -186.965 143.937 1
2 -12 -1 -144.756 167.623 4
2 -12 1 -17.8732 142.414 4
-2 -12 1 63.7616 172.491 4
2 12 -1 -245.97 171.374 1
-2 12 -1 -11.2417 87.3803 1
3 -12 -1 -138.648 129.525 4
-3 -12 -1 326.907 190.074 4
-3 12 1 102.218 118.349 1
3 12 1 174.415 134.13 1
3 12 -1 42.3362 89.0507 1
-3 12 -1 105.183 106.591 1
-3 -12 1 -73.4792 136.843 4
3 -12 1 -4.49056 125.22 4
4 -12 1 6981.58 677.316 4
-4 -12 -1 5714.93 646.342 4
4 12 1 6725.53 556.821 1
4 -12 -1 5415.93 616.998 4
-4 -12 1 6163.92 618.258 4
-4 12 1 5856.21 549.102 1
-4 12 -1 6179.12 553.146 1
-5 12 -1 968.746 218.77 1
-5 -12 -1 1124.11 311.407 4
-5 12 1 1208.29 259.913 1
-5 -12 1 915.118 260.002 4
5 -12 -1 952.305 293.737 4
5 -12 1 1596.98 340.739 4
-6 -12 1 84.0599 123.795 4
6 -12 1 -5.36806 110.859 4
-6 12 1 -20.1547 127.684 1
-6 12 -1 56.3874 110.686 1
-6 -12 -1 65.4286 176.138 4
6 -12 -1 61.7324 171.592 4
7 -12 1 6455.11 690.092 4
-7 -12 1 4958.46 577.352 4
7 -12 -1 5542.17 657.739 4
-8 -12 1 10319.3 847.222 4
8 -12 -1 10534.8 946.215 4
0 -13 -1 4226.45 571.519 4
0 13 1 4933.68 512.755 1
0 13 -1 4764.85 505.612 1
1 13 1 379.011 152.079 1
1 -13 -1 179.241 152.963 4
-1 13 1 12.5172 137.651 1
1 13 -1 92.7572 105.469 1
-1 13 -1 409.481 181.088 1
2 13 1 137.5 105.422 1
-2 13 1 240.164 153.898 1
2 13 -1 178.609 107.803 1
-2 13 -1 114.914 124.791 1
3 13 1 252.302 136.655 1
-3 13 -1 557.209 204.19 1
0 0 -2 72249.9 1734.86 1
-1 0 -2 144026 2756.59 1
1 0 -2 149869 2974.69 1
-2 0 -2 193.829 86.3334 1
2 0 -2 372.435 138.215 1
3 0 -2 345967 5402.72 1
-3 0 -2 360291 5640.59 1
-4 0 -2 334300 5405.36 1
5 0 2 321798 5092.73 2
-5 0 -2 324480 5278.51 1
5 0 -2 323998 5000.31 2
6 0 2 2891.3 249.983 2
6 0 -2 2365.99 202.801 2
-6 0 2 2185.68 123.195 1
-6 0 -2 2254.87 236.662 1
7 0 -2 27428.9 782.65 2
7 0 2 26756.8 802.531 2
-7 0 -2 25353.3 902.03 1
-7 0 2 26059.4 536.333 1
8 0 -2 13116.9 538.713 2
-8 0 2 12445.9 325.499 1
8 0 2 13106.9 550.049 2
-8 0 -2 12762.9 633.28 1
9 0 -2 25726.9 818.989 2
-9 0 -2 25103.9 951.718 1
9 0 2 24827.3 835.871 2
10 0 2 1279.13 184.745 2
10 0 -2 1166.24 171.272 2
-10 0 -2 1150.33 202.181 1
11 0 -2 2920.15 273.902 2
-11 0 -2 2647.08 310.712 1
11 0 2 3077.53 289.729 2
12 0 -2 8340.63 493.257 2
12 0 2 8540.35 516.696 2
13 0 -2 13117.1 667.524 2
13 0 2 13566.3 689.524 2
14 0 -2 783.587 181.478 2
14 0 2 730.564 175.895 2
15 0 -2 2654.53 324.253 2
15 0 2 2419.8 304.236 2
16 0 -2 838.1 213.942 2
16 0 2 1030.13 225.481 2
17 0 2 523.22 179.319 2
17 0 -2 592.741 179.23 2
18 0 -2 534.905 194.496 2
18 0 2 272.553 143.565 2
19 0 -2 4458.21 494.094 2
0 -1 -2 -20.0728 115.325 1
0 1 -2 66.7087 49.1701 1
0 -1 2 103.656 39.8207 4
1 -1 -2 316.69 51.7635 4
-1 1 -2 364.407 73.6993 1
1 -1 2 365.924 80.7568 4
1 1 -2 234.496 68.3452 1
-1 -1 2 369.867 47.5255 4
1 -1 -2 359.918 96.5027 1
-1 -1 2 485.783 113.461 3
-1 -1 -2 212.473 142.107 1
2 -1 -2 3598.5 244.645 1
2 -1 -2 3422.69 128.543 4
2 1 -2 3348.29 240.302 1
-2 1 -2 3279.77 226.939 1
-2 -1 2 3686.49 232.656 3
-2 -1 2 3626.7 121.721 4
2 -1 2 3623.83 254.707 4
-2 -1 -2 3417.83 372.802 1
3 -1 -2 3765.05 160.021 4
-3 -1 2 3822.18 135.453 4
-3 -1 2 3889.91 228.309 3
-3 -1 -2 3938.78 388.258 1
-3 1 -2 3466.49 244.264 1
4 1 -2 3568.26 249.943 1
-4 -1 2 3442.92 221.679 3
-4 -1 -2 3416.46 369.855 1
4 -1 -2 3069.31 184.743 4
-4 -1 2 3429.2 162.621 4
4 1 -2 3603.38 227.205 2
-4 1 -2 3522.88 253.94 1
5 1 -2 36988 715.783 1
5 1 2 35234 954.74 2
-5 1 2 36451.7 767.802 1
5 1 -2 36360.8 889.15 2
-5 1 -2 35146.3 946.491 1
5 -1 2 35010.8 906.379 2
-5 -1 2 34873.3 883.421 3
-5 -1 -2 36859.5 1281.19 1
6 1 -2 24403.9 714.755 2
-6 -1 2 23011.6 439.554 1
-6 1 2 22896.6 560.454 1
6 -1 2 23131.7 695.234 2
-6 1 -2 23699.6 758.961 1
-6 -1 2 24489 720.671 3
6 1 2 23464.1 752.15 2
-6 -1 -2 25751.3 1046.76 1
7 -1 -2 2139 195.316 2
-7 -1 -2 2357.54 310.865 1
7 1 2 2354.41 223.839 2
-7 1 2 2485.79 154.822 1
7 -1 2 2260.43 199.584 2
7 1 -2 2064.12 198.125 2
-7 1 -2 2417.08 237.021 1
-8 -1 -2 -67.1288 80.5066 1
8 1 2 -34.9629 67.2862 2
8 -1 2 76.4425 58.0016 2
8 -1 -2 22.0351 61.0906 2
-8 1 -2 51.5514 76.4062 1
-8 1 2 16.37 25.4326 1
8 1 -2 116.966 79.4932 2
9 1 2 1588.52 206.487 2
9 -1 -2 1750.09 189.345 2
9 1 -2 1685.99 204.8 2
-9 1 -2 1797.16 219.523 1
9 -1 2 1768.8 198.471 2
-9 -1 -2 1943.4 290.916 1
10 1 -2 684.115 143.763 2
-10 -1 -2 716.008 194.21 1
10 -1 -2 675.117 133.205 2
-10 1 -2 767.645 153.425 1
10 1 2 393.81 119.88 2
10 -1 2 624.185 126.779 2
11 -1 -2 400.983 106.023 2
-11 1 -2 294.631 110.402 1
11 -1 2 192.089 87.4343 2
11 1 2 158.323 91.6482 2
11 1 -2 187.293 86.9292 2
12 -1 2 1228.59 195.855 2
12 1 2 1033.21 194.045 2
12 1 -2 1011.13 179.382 2
12 -1 -2 906.813 164.129 2
13 1 -2 8117.48 522.152 2
13 -1 -2 8053.9 505.289 2
13 1 2 7750.49 537.99 2
13 -1 2 8170.87 524.162 2
14 1 -2 3645.39 366.308 2
14 -1 -2 3800.94 358.334 2
14 -1 2 3896.38 370.093 2
14 1 2 3653.94 381.441 2
15 1 2 -17.5658 103.787 2
15 -1 -2 97.3813 92.516 2
15 -1 2 101.165 95.6636 2
15 1 -2 62.7507 91.275 2
16 -1 -2 912.175 199.873 2
16 1 -2 1007.59 216.977 2
16 -1 2 1016.03 217.044 2
16 1 2 806.388 201.327 2
17 1 -2 28.9425 106.078 2
17 -1 -2 -71.7758 147.017 2
17 1 2 30.6485 112.27 2
18 1 -2 106.933 145.131 2
18 1 2 124.727 112.55 2
18 -1 -2 -93.8127 147.366 2
0 -2 2 256659 3870.78 4
0 -2 -2 251332 4180.51 1
0 2 -2 259220 3954.94 1
0 -2 -2 246833 4014.81 4
-1 -2 -2 336288 5422.66 1
-1 -2 2 330527 4910.33 4
1 -2 -2 334730 4998.18 4
1 -2 2 333549 5050.59 4
-1 2 2 330908 5220.78 3
1 2 -2 331341 5019.84 1
-1 2 -2 330196 5078.79 1
2 -2 2 43.2281 53.5298 4
2 -2 -2 30.0511 38.6337 4
-2 2 -2 15.9905 52.6857 1
-2 -2 2 25.9262 24.511 4
-2 -2 -2 46.1287 85.0207 1
-2 -2 2 136.024 61.4004 3
-2 2 2 162.865 59.84 3
2 2 -2 -14.2455 33.4356 1
3 -2 -2 34055.2 731.891 4
3 -2 2 33029.1 913.77 4
-3 -2 2 33947.9 683.38 4
3 2 -2 31612.1 783.076 2
-3 2 2 33450 805.165 1
-3 -2 2 33385.7 800.983 3
-3 2 2 32021.2 793.342 3
-3 2 -2 33703 848.456 1
3 2 -2 31311.5 720.012 1
4 -2 -2 2485.38 183.466 4
4 -2 2 2727.75 259.591 4
4 2 -2 2287.44 159.058 1
-4 -2 2 2378.19 155.646 4
-4 -2 2 2246.26 181.377 3
-4 2 2 2233.94 183.108 3
4 2 -2 2291.76 181.225 2
-4 2 2 2307.75 173.775 1
4 2 2 2214.24 215.579 2
-4 2 -2 2274.24 198.084 1
-5 -2 -2 48223.9 1556.96 1
5 2 -2 46921.7 1098.21 2
5 -2 -2 47347.1 1116.08 4
5 -2 2 49162.9 1343.09 4
-5 -2 2 47608 1087.43 3
-5 2 2 47763.5 1093.26 3
-5 2 -2 48513.2 1144.31 1
-5 -2 2 49635.6 1039.74 4
5 -2 2 47508.7 1064.94 2
-5 2 2 46740.5 1003.63 1
5 2 2 48295 1204.33 2
6 2 -2 4507.13 289.348 2
6 -2 2 4413.67 260.129 2
-6 -2 2 4196.05 264.481 4
6 -2 2 4031.28 371.224 4
-6 2 2 4332.13 233.031 1
6 -2 -2 3700.34 292.958 4
6 2 2 4142.52 304.982 2
-6 2 -2 4224.09 288.828 1
-6 -2 2 4481.89 285.553 3
-6 -2 -2 4252.11 425.3 1
7 2 -2 32625.6 922.703 2
-7 2 -2 31971.1 925.481 1
-7 2 2 31916.2 762.886 1
7 -2 2 32773.5 842.044 2
7 2 2 32654.9 965.592 2
-7 -2 -2 31236.4 1232.12 1
8 2 -2 32526.3 955.52 2
-8 2 -2 31433 950.939 1
-8 2 2 32003.2 770.233 1
8 2 2 33394.6 1011.28 2
8 -2 2 31897 870.064 2
-8 -2 -2 30216.3 1229.28 1
9 -2 -2 68213.8 1510.46 2
-9 2 2 71221.3 1360.82 1
9 2 -2 70855.3 1615.49 2
-9 2 -2 67224.2 1607.61 1
9 2 2 69801.5 1673.2 2
9 -2 2 70189.4 1510.4 2
10 2 2 -51.8672 72.3051 2
10 -2 2 19.7571 47.4389 2
10 -2 -2 44.2506 60.8198 2
-10 2 -2 3.57278 58.4648 1
-10 -2 -2 251.743 154.65 1
10 2 -2 177.864 104.146 2
11 -2 -2 2677.58 260.236 2
11 2 -2 2793.85 292.096 2
11 2 2 2677.28 294.987 2
-11 2 -2 2262.02 260.867 1
11 -2 2 3073.37 275.821 2
-12 2 -2 1765.71 237.679 1
12 2 -2 1612.71 234.355 2
12 2 2 1390.44 215.683 2
12 -2 -2 1284.11 194.342 2
12 -2 2 1898.82 232.458 2
13 2 2 1056.37 213.692 2
13 -2 -2 940.825 178.888 2
13 2 -2 677.688 176.18 2
13 -2 2 1048.65 182.195 2
14 -2 -2 5629.81 435.676 2
14 2 -2 6081.63 483.038 2
14 2 2 6534.58 513.312 2
14 -2 2 6155.4 450.981 2
15 2 -2 9124.37 628.009 2
15 -2 -2 10190.2 608.567 2
15 2 2 9902.26 669.784 2
16 2 2 1469.77 274.597 2
16 2 -2 1021.43 226.765 2
16 -2 -2 1033.02 207.975 2
17 2 2 623.429 202.281 2
17 2 -2 302.405 167.958 2
18 2 2 497.792 186.36 2
18 2 -2 438.321 166.209 2
0 -3 -2 44.5011 52.9517 4
0 -3 2 76.8581 61.7975 4
0 3 -2 37.0848 42.9085 1
1 -3 -2 2156.71 187.116 4
-1 -3 -2 2210.76 225.961 4
1 -3 2 2107.43 179.863 4
-1 -3 2 2221.21 162.48 4
-1 3 -2 2331.24 184.055 1
1 3 -2 2146.57 162.287 1
2 -3 -2 565.396 96.1464 4
2 3 -2 638.686 83.4119 1
-2 3 2 577.311 105.608 1
-2 3 -2 436.945 93.4757 1
-2 -3 -2 456.164 118.904 4
-2 -3 2 447.674 69.733 4
2 -3 2 614.612 107.475 4
-2 -3 2 375.392 87.2152 3
-2 3 2 506.662 91.4036 3
-2 -3 -2 473.686 113.507 1
3 3 -2 1548.3 150.066 2
-3 -3 -2 1790.99 223.367 1
3 -3 2 1605.43 180.773 4
-3 -3 2 1445.22 143.96 3
-3 3 2 1534.4 157.142 1
3 -3 -2 1482.98 147.46 4
-3 3 2 1519.68 143.02 3
-3 3 -2 1660.25 167.304 1
3 3 -2 1499.6 125.51 1
-3 -3 2 1582.65 139.12 4
4 3 -2 1596.6 166.225 2
-4 3 -2 1382.86 153.936 1
4 -3 -2 1433.55 149.176 4
-4 -3 2 1514.29 148.309 3
-4 -3 -2 1744.82 229.88 1
4 -3 2 1354.24 185.687 4
4 3 -2 1423.46 113.84 1
-4 -3 2 1646.36 145.635 4
-4 3 2 1499.08 151.287 1
-4 3 2 1536.33 155.793 3
-5 -3 -2 17876.5 811.243 1
5 -3 -2 18026.2 628.245 4
-5 -3 2 18583.7 575.376 4
5 -3 2 17447.6 734.504 4
-5 3 2 17870.8 578.518 3
-5 3 -2 17154.7 617.208 1
-5 -3 2 17527 575.742 3
5 3 -2 17510.6 599.591 2
5 3 -2 17052.9 441.585 1
5 -3 2 18069.4 526.19 2
-5 3 2 17021.7 560.137 1
5 3 2 17516 659.263 2
6 3 -2 15612.5 582.692 2
6 -3 -2 15203.6 630.027 4
-6 -3 2 15243.1 555.449 3
6 -3 2 15282.2 730.015 4
-6 3 2 14868.5 514.739 1
-6 3 -2 14935.3 584.675 1
6 -3 2 15065.5 483.017 2
6 3 2 15629.7 631.45 2
6 3 -2 13735.1 407.408 1
-6 -3 2 15397.1 557.359 4
7 3 -2 2738.06 240.347 2
-7 -3 2 2499.66 231.148 4
7 -3 2 2405.48 185.121 2
7 -3 -2 2146.4 253.771 4
-7 3 2 2724.3 206.48 1
7 -3 2 2293.04 303.323 4
-7 3 -2 2580.43 238.27 1
-7 -3 -2 2787.77 360.293 1
-7 -3 2 2657.17 236.11 3
7 3 2 2436.07 247.963 2
8 3 -2 224.145 95.1248 2
8 3 2 101.047 84.0951 2
8 -3 2 72.6678 47.1099 2
-8 3 -2 207.399 96.8278 1
-8 -3 2 160.322 80.6173 4
8 -3 -2 21.8521 72.3453 4
8 -3 2 41.4794 103.789 4
-8 -3 -2 115.552 123.176 1
-8 3 2 139.514 58.2036 1
-9 -3 -2 3957.61 442.211 1
-9 -3 2 3479.81 322.957 4
9 3 -2 3470.72 306.609 2
-9 3 2 3852.06 263.05 1
9 -3 -2 3410.43 390.085 4
-9 3 -2 3402.85 295.889 1
9 3 2 3580.41 328.497 2
9 -3 2 3787.16 258.352 2
-10 3 -2 854.263 151.709 1
-10 3 2 635.704 108.085 1
10 -3 2 753.258 123.671 2
10 3 2 366.634 109.071 2
10 3 -2 866.159 160.277 2
11 3 -2 -87.6626 108.701 2
-11 3 -2 59.3543 78.935 1
11 -3 2 -19.5552 48.4494 2
11 3 2 28.5815 95.7125 2
12 3 -2 492.804 147.776 2
-12 3 -2 576.144 147.898 1
12 3 2 263.583 113.098 2
13 3 -2 4919.07 429.528 2
13 3 2 5054.6 459.018 2
14 3 -2 3445.82 369.623 2
14 3 2 3432.58 379.283 2
15 3 -2 222.879 141.511 2
15 3 2 282.334 151.408 2
16 3 -2 616.954 180.855 2
16 3 2 602.97 210.539 2
17 3 2 28.527 131.625 2
17 3 -2 -182.832 168.257 2
0 -4 -2 46245 1202.71 4
0 4 -2 48804.5 1064.44 1
0 4 2 49608.1 1167.9 1
0 -4 2 46461.2 1084.86 4
-1 -4 2 92109.5 1733.06 4
-1 -4 -2 91092.3 1952.45 4
1 4 -2 87318.3 1667.95 1
-1 4 -2 92974.1 1736.8 1
-1 4 2 90854.1 1809.99 1
1 -4 2 91176.8 1767.32 4
1 -4 -2 90101.7 1831.94 4
-2 -4 2 38.8596 47.8276 4
2 4 -2 331.086 66.1158 2
-2 -4 -2 -3.07688 80.1451 4
2 -4 2 -35.586 55.992 4
-2 -4 2 -60.6525 70.8261 3
-2 4 2 116.719 64.3867 3
2 -4 -2 14.6313 45.1343 4
-2 4 -2 248.621 72.6805 1
2 4 -2 102.414 47.7537 1
-2 4 2 -61.3411 52.3076 1
-3 4 -2 230574 3784.77 1
-3 -4 -2 222138 4230.11 4
3 -4 2 229376 3888.13 4
3 4 -2 225313 3594.07 1
3 4 2 235665 3914 2
-3 4 2 233765 3777.39 1
-3 -4 2 228856 3703.74 3
-3 4 2 220902 3662.4 3
3 4 -2 233709 3674.51 2
-3 -4 2 228311 3684.48 4
3 -4 -2 230976 3800.24 4
4 4 -2 215791 3494.29 2
-4 -4 2 210799 3450.37 3
4 -4 2 214275 3734.57 4
-4 -4 2 214970 3495.9 4
-4 -4 -2 208839 4200.83 4
-4 4 -2 208323 3579.71 1
-4 4 2 205838 3525.82 1
-4 4 2 211307 3436.09 3
4 4 -2 214635 3327.11 1
4 4 2 213608 3675.89 2
4 -4 -2 212438 3597.52 4
5 4 -2 215210 3596.13 2
-5 4 2 215796 3582.17 1
-5 -4 2 216462 3591.21 4
5 4 -2 211290 3334.93 1
5 -4 2 218306 3884.33 4
-5 4 2 216828 3530.85 3
-5 -4 2 211626 3530.39 3
-5 4 -2 223642 3683.43 1
5 -4 -2 220292 3728.83 4
5 -4 2 213184 3331.34 2
5 4 2 213093 3748.7 2
-6 4 -2 1453.5 184.163 1
-6 -4 2 1314.63 168.294 4
6 4 2 1441.17 195.586 2
6 -4 -2 1886.66 226.594 4
6 -4 2 1359.51 226.423 4
6 4 -2 1513.57 174.543 2
-6 4 2 1301.38 155.466 1
6 4 -2 1350.36 109.655 1
-6 -4 2 1306.84 153.112 3
6 -4 2 1271.26 115.303 2
7 4 -2 18213.7 684.72 2
-7 -4 -2 19064 799.338 1
7 -4 2 18772.9 863.405 4
-7 4 2 18421.5 637.469 1
-7 -4 2 18996.3 704.116 4
-7 4 -2 17740.3 694.409 1
-7 -4 2 17710 646.336 3
7 4 2 18560.9 742.868 2
7 -4 2 18376.2 529.74 2
7 -4 -2 18582.8 802.317 4
8 4 -2 9465.92 498.631 2
-8 4 2 9965.46 488.154 3
-8 -4 2 9747.31 519.962 4
-8 -4 2 9444.64 478.032 3
8 -4 2 9661.32 646.407 4
-8 -4 -2 10583.9 595.46 1
8 -4 -2 8178.29 555.97 4
-8 4 2 9541.21 448.993 1
-8 4 -2 10374.8 525.517 1
8 4 2 9724.88 541.598 2
8 -4 2 9860.29 383.113 2
9 4 -2 17948.9 735.07 2
9 4 2 16989.6 758.401 2
-9 -4 -2 17597 801.148 1
-9 4 2 17081.9 630.447 1
-9 -4 2 17555.9 758.98 4
9 -4 -2 16175.7 878.848 4
9 -4 2 17170.3 945.31 4
-9 4 -2 19402.6 762.68 1
10 4 2 1017.37 195.131 2
-10 4 -2 971.089 184.802 1
-10 -4 2 947.438 179.931 4
-10 4 2 703.706 122.981 1
10 -4 -2 530.773 179.451 4
10 4 -2 832.438 177.292 2
10 -4 2 847.476 223.851 4
11 4 -2 2200.11 277.05 2
-11 4 -2 2079.52 262.549 1
11 4 2 2228.35 283.865 2
-11 -4 2 2081.05 277.318 4
11 -4 -2 2244.46 380.01 4
12 4 -2 6667.97 492.762 2
-12 4 -2 5707.57 443.72 1
12 4 2 5875.89 487.465 2
13 4 -2 9859.96 635.812 2
-13 4 -2 9290.96 593.745 1
13 4 2 9913 659.708 2
14 4 2 852.561 206.497 2
14 4 -2 788.515 214.028 2
15 4 2 1811.51 306.165 2
15 4 -2 2254.05 328.545 2
16 4 2 400.645 153.497 2
16 4 -2 1006.29 255.442 2
17 4 2 363.999 159.574 2
17 4 -2 521.425 180.068 2
0 5 2 -16.476 58.1692 1
0 -5 -2 -100.773 89.4714 4
0 5 -2 18.46 41.8212 1
0 -5 2 -134.104 70.29 4
1 5 2 566.597 118.671 1
-1 -5 -2 344.23 120.231 4
1 -5 -2 382.09 105.278 4
-1 -5 2 399.191 102.775 4
1 -5 2 508.675 123.459 4
-1 5 2 381.238 87.0088 1
1 5 -2 341.684 81.9276 1
-1 5 -2 376.873 96.3235 1
2 5 -2 4445.9 254.247 2
2 -5 -2 4431.07 338 4
2 -5 2 4012.99 308.261 4
2 5 2 4713.46 330.891 1
-2 5 2 4559.81 320.01 1
2 5 -2 4317.8 262.572 1
-2 5 -2 4713.2 307.954 1
2 5 2 4429.25 322.898 2
-2 -5 2 4561.32 302.95 4
-2 -5 -2 4707.88 395.782 4
3 5 -2 2983.06 220.804 2
3 -5 -2 2936.3 273.545 4
3 -5 2 3137.69 282.744 4
-3 5 2 3220.38 260.151 1
3 5 2 3027.4 261.673 1
3 5 2 2842.03 256.307 2
-3 -5 2 3052.49 232.383 3
-3 5 2 2840.69 210.507 3
-3 5 -2 2610.4 242.167 1
-3 -5 2 3296.85 252.778 4
3 5 -2 2996.81 209.044 1
-3 -5 -2 3267.69 343.681 4
4 5 -2 2282.25 203.887 2
-4 -5 2 2325.6 197.129 3
-4 5 2 2039.06 179.57 3
4 -5 -2 2061.67 235.912 4
4 -5 2 2059.81 250.226 4
-4 -5 2 2327.75 222.398 4
4 5 -2 2231.31 174.074 1
-4 5 -2 2093.05 219.305 1
-4 -5 -2 2151.11 319.697 4
4 5 2 2457.07 245.723 2
-4 5 2 2171.2 217.709 1
5 5 -2 26825.4 821.86 2
5 -5 -2 26388 921.17 4
-5 -5 -2 27409.8 1231.51 4
5 5 -2 27971.2 699.664 1
5 -5 2 27682.3 987.476 4
-5 -5 2 27934.3 785.878 3
-5 5 2 27399.3 852.995 1
-5 5 2 28449.1 778.661 3
-5 5 -2 28503.5 895.427 1
5 -5 2 28252.2 589.159 2
5 5 2 27806.4 919.142 2
-5 -5 2 27831.2 868.372 4
6 5 -2 17375.6 653.468 2
6 -5 -2 17464.9 760.893 4
-6 5 -2 17116.4 694.607 1
6 -5 2 17030.3 793.599 4
6 5 2 18351.7 736.07 2
-6 -5 2 17137.7 674.32 4
-6 5 2 17910.2 665.965 1
-6 -5 2 17414.6 614.917 3
-6 -5 -2 17284.1 1034.8 4
6 5 -2 17426.6 504.617 1
7 5 2 1006.92 173.257 2
7 5 -2 987.743 157.08 2
-7 -5 2 1011.81 146.485 3
-7 5 2 768.334 137.442 1
7 -5 2 738.92 180.747 4
7 -5 -2 910.906 190.624 4
-7 -5 2 1227.78 186.516 4
-7 5 -2 1200.5 193.561 1
-8 5 -2 191.415 105.82 1
-8 5 2 112.61 68.981 3
-8 -5 2 294.379 116.68 4
8 5 2 103.38 85.8373 2
8 5 -2 282.628 100.169 2
8 -5 -2 190.575 127.082 4
8 -5 2 162.074 114.246 4
-8 5 2 143.484 76.2883 1
-8 -5 2 207.362 75.7567 3
-9 5 -2 358.969 126.515 1
9 5 2 121.201 89.3353 2
9 5 -2 294.373 115.436 2
-9 -5 2 289.45 110.713 4
9 -5 -2 406.938 165.993 4
9 -5 2 202.974 129.552 4
-9 5 2 148.374 84.6776 1
-9 -5 2 216.177 86.0172 3
-9 5 2 269.628 104.103 3
-10 5 -2 304.495 122.147 1
10 5 2 362.614 123.54 2
-10 -5 2 192.343 84.7311 4
10 5 -2 200.22 102.797 2
-10 5 2 395.018 111.991 1
10 -5 -2 221.842 97.7434 4
10 -5 2 585.872 205.074 4
-10 5 2 395.355 118.685 3
-10 -5 2 315.119 100.395 3
-11 5 -2 658.149 160.247 1
-11 -5 2 668.33 154.435 3
-11 -5 2 575.375 161.298 4
11 -5 -2 559.032 213.251 4
11 -5 2 528.343 218.053 4
-11 5 2 503.473 120.74 1
11 5 2 469.064 152.141 2
11 5 -2 421.231 141.674 2
12 5 2 866.234 199.947 2
-12 5 -2 973.43 193.96 1
12 -5 -2 1163.75 321.957 4
12 5 -2 1183.02 217.855 2
13 5 -2 6574.95 531.017 2
-13 5 -2 6153.4 488.22 1
13 5 2 6492.4 540.662 2
14 5 -2 2635.1 353.425 2
14 5 2 2484.09 349.954 2
15 5 2 101.086 101.025 2
15 5 -2 27.6062 124.575 2
16 5 2 964.307 254.302 2
16 5 -2 919.963 239.594 2
-17 -5 2 135.748 121.839 3
0 -6 2 107088 2214.98 4
0 6 2 111857 2210.76 1
0 -6 -2 105907 2373.82 4
0 6 -2 109702 2112.91 1
1 -6 -2 155604 3025.85 4
-1 -6 -2 151079 3100.3 4
-1 -6 2 149660 2830.85 4
1 6 2 151539 2858.2 1
1 6 -2 150889 2715.59 1
-1 6 -2 151972 2785.94 1
1 -6 2 155945 2901 4
-1 6 2 151871 2856.2 1
1 6 2 159354 2818.11 2
2 6 2 -78.331 70.6544 2
2 6 2 37.6218 65.9343 1
-2 6 2 0.27338 80.815 1
2 6 -2 80.0809 50.2702 2
2 -6 2 -76.0451 82.53 4
-2 -6 -2 -27.7391 99.8676 4
2 6 -2 120.463 67.6864 1
2 -6 -2 48.2068 71.1521 4
-2 6 -2 37.0567 65.9893 1
-2 -6 2 49.2815 59.9217 4
3 6 -2 15321 544.601 2
3 -6 -2 14140.4 683.21 4
-3 6 2 15044.9 554.312 3
3 -6 2 13995.8 662.286 4
3 6 2 14566.2 632.931 1
-3 6 2 14908.3 636.044 1
-3 -6 -2 14332.1 776.604 4
-3 -6 2 14780.6 601.243 3
3 6 -2 15097.7 545.484 1
-3 6 -2 14911.6 630.843 1
3 6 2 15237.9 636.31 2
-3 -6 2 13881 608.575 4
4 6 2 1348.4 193.264 1
4 6 2 1408.92 188.777 2
4 -6 2 1041.37 181.699 4
4 6 -2 1437.76 167.344 2
-4 -6 2 1531.84 169.716 3
-4 6 2 1356.19 193.343 1
-4 -6 2 1398.09 192.297 4
4 -6 -2 1407.86 208.97 4
4 6 -2 1614.75 161.858 1
-4 6 2 1446.26 157.616 3
-4 -6 -2 1191.95 231.857 4
-4 6 -2 1683.8 220.739 1
5 6 -2 20975.1 726.245 2
-5 -6 2 21999.6 809.399 4
-5 6 2 21216.4 669.865 3
5 -6 -2 21202 874.699 4
5 -6 2 22662.2 921.833 4
5 6 2 21321.4 799.706 1
-5 6 2 22290.3 800.774 1
-5 -6 2 21441.7 695.407 3
-5 6 -2 22124 822.294 1
5 6 -2 22817 657.251 1
5 6 2 21891.7 820.292 2
-5 -6 -2 20774.9 1057.99 4
6 6 2 1636.61 207.352 1
6 6 2 1543.62 208.878 2
-6 -6 2 1538.8 216.734 4
-6 -6 -2 1869.77 325.9 4
6 6 -2 1701.28 203.774 2
-6 6 2 1365.23 200.697 1
6 -6 2 1746.38 260.415 4
6 -6 -2 1514.95 236.698 4
-6 -6 2 1393.42 162.975 3
-6 6 -2 1517.09 211.997 1
7 6 -2 17495.4 710.793 2
-7 -6 2 17020.3 646.681 3
7 -6 2 17085 853.832 4
-7 -6 2 17248.6 751.173 4
7 -6 -2 17138 835.174 4
-7 6 -2 17030.7 740.975 1
7 6 2 17134.3 715.457 1
-7 6 2 16716.2 696.928 1
7 6 2 16806.6 759.922 2
-7 -6 -2 17128.8 1077.73 4
8 6 -2 16432.3 713.619 2
-8 -6 2 16754.5 764.008 4
-8 6 -2 16727.1 754.048 1
8 -6 -2 15432.8 840.551 4
8 -6 2 15841.4 872.013 4
-8 -6 -2 17383.4 1155.11 4
-8 6 2 15728.1 643.083 3
-8 6 2 16107.8 692.636 1
-8 -6 2 17009 665.196 3
8 6 2 15139.3 744.167 2
8 6 2 16428.3 700.956 1
9 6 -2 36899.4 1182.93 2
9 -6 2 36332.1 1427.99 4
-9 6 2 36191.3 1118 1
-9 -6 2 36281.3 1091.5 3
9 -6 -2 39956.2 1478.64 4
-9 6 2 35353 1068.47 3
-9 -6 -2 37439.8 1849.98 4
-9 6 -2 35645.9 1185.84 1
9 6 2 34458.6 1219.4 2
-9 -6 2 36727.4 1224.17 4
-10 6 -2 66.5888 86.6385 1
-10 6 2 -95.357 83.8352 3
10 6 2 70.1089 108.915 2
-10 6 2 164.066 91.0256 1
-10 -6 2 304.551 124.056 4
10 -6 -2 162.537 148.519 4
10 -6 2 -85.4833 144.723 4
10 6 -2 -43.4323 99.3771 2
-10 -6 -2 -116.119 205.021 4
-10 -6 2 83.9942 69.654 3
-11 6 -2 1472.99 231.363 1
11 6 2 997.854 216.958 2
11 6 -2 1303.87 233.423 2
-11 -6 2 1464.26 259.494 4
-11 -6 2 1422.14 223.881 3
-11 6 2 1145.14 185.081 3
11 -6 -2 1387.05 320.258 4
11 -6 2 1344.95 319.615 4
-11 6 2 1395.15 202.143 1
-11 -6 -2 1088.54 363.734 4
12 6 -2 981.721 206.789 2
-12 6 -2 1114.93 212.2 1
12 6 2 1234.72 244.044 2
12 -6 -2 833.986 254.673 4
12 -6 2 1252.01 299.745 4
-12 -6 2 870.514 183.065 3
-12 6 2 728.269 159.699 3
-13 6 -2 172.913 120.937 1
13 6 -2 294.331 149.299 2
-13 -6 2 208.197 103.831 3
13 6 2 495.125 177.157 2
-13 6 2 280.782 115.619 3
14 6 -2 3666 425.423 2
14 6 2 3465.58 421.962 2
-14 6 2 3029.96 351.449 3
-14 6 -2 2775.21 352.592 1
15 6 -2 5475.09 543.845 2
-15 6 2 4780.26 449.314 3
15 6 2 5721.37 573.834 2
-16 6 2 703.632 206.669 3
-17 6 2 509.581 184.617 3
0 -7 -2 12.4132 82.8228 4
0 7 2 -1.18098 53.1982 2
0 7 2 -16.2388 72.1069 1
0 -7 2 -30.6315 87.7163 4
0 7 -2 45.6423 59.6965 1
1 -7 -2 2242.68 278.309 4
-1 7 2 2013.8 238.502 1
1 -7 2 1954.83 249.248 4
-1 -7 2 2151.8 248.692 4
-1 -7 -2 1855.01 287.023 4
1 7 2 2005.4 243.957 1
1 7 2 2259.48 218.379 2
1 7 -2 2177.66 222.464 1
-1 7 -2 2496.01 257.928 1
2 -7 -2 -48.5463 84.9334 4
2 7 2 54.8381 49.0404 2
2 7 2 19.1712 71.1866 1
2 7 -2 34.0496 50.2869 2
-2 7 2 -16.5167 77.2903 1
-2 -7 -2 29.0978 107.453 4
2 -7 2 -131.28 113.959 4
-2 -7 2 -33.1444 66.8278 4
2 7 -2 30.9829 67.575 1
-2 7 -2 78.3932 60.0368 1
3 7 2 208.966 87.383 2
-3 -7 -2 58.7366 92.2935 4
3 7 -2 199.201 65.6251 2
3 7 2 248.315 98.5144 1
-3 7 2 215.209 111.472 1
-3 -7 2 308.004 109.661 4
3 -7 -2 416.094 129.425 4
3 -7 2 168.958 99.9229 4
-3 7 -2 128.49 87.7734 1
3 7 -2 308.683 86.6982 1
4 7 2 203.766 100.444 2
4 7 2 40.6796 78.9624 1
-4 -7 -2 171.343 157.843 4
4 7 -2 243.309 79.7817 2
-4 7 2 295.177 98.4428 1
4 7 -2 232.12 64.7923 1
-4 -7 2 258.05 106.569 4
4 -7 2 477.634 152.448 4
4 -7 -2 225.624 123.958 4
-4 7 -2 347.922 111.53 1
5 7 -2 3514.43 288.716 2
5 -7 2 4051.26 389.316 4
-5 -7 2 3386.94 323.913 4
5 7 -2 4098.24 282.051 1
-5 7 -2 3623.51 328.613 1
-5 7 2 3317.67 317.97 1
5 7 2 3804.98 324.464 1
5 -7 -2 3946.99 393.731 4
-5 -7 -2 3707.08 445.011 4
5 7 2 3959.63 346.715 2
6 7 -2 4963.24 358.662 2
-6 -7 -2 4569.67 537.547 4
6 -7 2 4545.87 438.511 4
6 7 2 4708.57 387.441 2
-6 7 2 5245.35 393.703 1
-6 -7 2 4738.53 393.662 4
6 -7 -2 4819.48 443.392 4
-6 7 -2 4800.55 386.604 1
6 7 2 4872.94 375.745 1
7 7 2 1378.91 204.356 1
-7 -7 2 1208.39 202.195 4
-7 -7 -2 1409.57 325.131 4
-7 7 -2 1016.44 173.43 1
7 7 -2 1508.72 203.835 2
-7 7 2 1296.87 197.503 1
7 -7 -2 1115.66 222.699 4
7 -7 2 1583.25 269.462 4
7 7 2 1106.43 207.026 2
8 7 -2 157.372 90.5868 2
8 7 2 125.388 99.0508 2
8 7 2 274.792 111.247 1
-8 -7 -2 4.22488 168.046 4
-8 -7 2 295.235 122.201 4
8 -7 -2 81.4578 110.359 4
8 -7 2 -75.0328 167.206 4
-8 7 2 242.14 125.906 1
-8 7 -2 132.607 81.1071 1
9 7 -2 2958.2 318.492 2
9 -7 2 3074.31 402.858 4
-9 -7 -2 3533.5 551.557 4
-9 7 -2 3335.58 351.001 1
9 -7 -2 3261.76 421.98 4
-9 7 2 3061.88 316.424 1
-9 -7 2 3609.31 367.961 4
9 7 2 2779.37 334.009 2
-10 7 -2 335.008 128.788 1
10 7 2 500.22 161.902 2
-10 -7 -2 577.932 294.508 4
10 7 -2 426.302 147.921 2
10 -7 -2 561.876 201.013 4
10 -7 2 141.533 112.838 4
-10 7 2 420.107 125.496 1
-10 -7 2 476.526 162.652 4
-11 7 -2 108.714 91.7143 1
11 7 2 55.6477 85.9488 2
-11 -7 -2 165.118 191.486 4
11 7 -2 -82.0632 98.8586 2
-11 -7 2 149.311 112.39 4
11 -7 -2 14.0508 105.955 4
11 -7 2 261.426 162.106 4
-11 7 2 18.8517 62.8888 1
-12 7 -2 -7.55167 100.22 1
-12 -7 -2 -5.91238 186.689 4
12 7 -2 -30.8715 116.479 2
-12 7 2 76.7634 81.4835 1
12 -7 -2 -160.885 242.611 4
12 -7 2 177.263 162.031 4
12 7 2 -89.481 106.702 2
-13 7 -2 2170.88 309.997 1
13 7 2 2051.15 344.003 2
-13 -7 -2 2245.64 503.786 4
13 7 -2 2065.56 322.311 2
13 -7 2 1441.91 365.211 4
14 7 2 1992.56 345.467 2
-14 7 -2 1577.2 256.837 1
-14 -7 -2 1598.72 450.902 4
14 7 -2 1988.27 347.303 2
15 7 -2 664.868 216.21 2
15 7 2 396.714 175.307 2
-15 -7 -2 390.009 265.381 4
0 -8 2 16941.5 783.564 4
0 8 -2 17764.1 728.626 1
0 -8 -2 16011.4 865.617 4
0 8 2 16661.7 753.295 1
-1 8 2 31201.9 1064.04 1
1 -8 2 30557.7 1100.12 4
-1 -8 2 31383.7 1091.66 4
1 8 2 30384.1 1055.94 1
-1 -8 -2 30134.8 1223.9 4
1 8 -2 31126.4 1002.28 1
-1 8 -2 30844.3 1018.48 1
1 -8 -2 29599.3 1195 4
2 -8 2 -91.0939 113.209 4
2 -8 -2 21.9958 109.081 4
2 8 2 -20.6341 48.3738 2
2 8 2 64.6096 76.7844 1
-2 8 2 133.342 106.69 1
-2 -8 -2 321.211 151.686 4
-2 -8 2 52.1468 73.3144 4
2 8 -2 -3.29013 56.8543 1
-2 8 -2 -48.5737 75.7553 1
3 -8 -2 83298.3 2204.98 4
3 8 2 82026.8 1970 1
3 8 -2 88138.3 1875.48 1
-3 8 -2 87498 1992.79 1
3 -8 2 83669.9 2127.51 4
-3 -8 -2 81497.3 2310.02 4
-3 -8 2 85140.8 2042.23 4
3 8 2 79871.6 1830.15 2
-3 8 2 87785.9 2043.51 1
4 8 -2 77157.5 1682.46 2
4 8 2 76796.6 1866.62 1
-4 -8 -2 74703.7 2230.45 4
-4 -8 2 75379.8 1919.67 4
-4 8 2 83683.8 1959.88 1
4 8 -2 77777.6 1712.8 1
-4 8 -2 77494.9 1883.32 1
4 -8 -2 75724.6 2103.22 4
4 -8 2 76130.2 2031.09 4
4 8 2 73298.5 1768.46 2
5 8 -2 81539.6 1795.55 2
-5 -8 2 79392.3 1987.26 4
5 -8 -2 76927.1 2139.75 4
-5 8 -2 78852.6 1948.93 1
5 8 2 80065.3 1912.9 1
5 -8 2 80612 2132.02 4
-5 -8 -2 73854.9 2314.63 4
5 8 2 79019 1891.12 2
-5 8 2 81946.5 1983.19 1
6 8 -2 742.063 148.136 2
-6 -8 -2 846.128 262.846 4
6 8 2 370.77 115.347 2
-6 -8 2 586.97 173.106 4
-6 8 2 518.842 145.275 1
6 -8 2 599.27 214.552 4
6 8 2 475.08 126.827 1
6 -8 -2 820.153 221.692 4
-6 8 -2 462.455 130.316 1
7 8 -2 7020.02 466.896 2
-7 -8 -2 5977.32 645.008 4
-7 -8 2 7291.35 532.566 4
7 -8 -2 6781.07 578.489 4
7 -8 2 7496.56 606.051 4
-7 8 2 6581.08 488.624 1
-7 8 -2 6774.72 499.984 1
7 8 2 6816.43 462.854 1
7 8 2 7248.9 513.085 2
8 8 -2 3722.43 350.561 2
-8 -8 2 3599.89 385.07 4
8 -8 2 3548.41 434.581 4
8 -8 -2 3316.85 425.035 4
-8 8 2 3142.96 337.545 1
-8 8 -2 3558.11 370.879 1
-8 -8 -2 3243.54 479.401 4
8 8 2 3534.25 372.267 2
9 8 -2 6466.52 485.976 2
-9 -8 -2 6337.24 734.024 4
-9 8 2 5632.17 459.615 1
-9 -8 2 6329.55 520.642 4
9 -8 -2 5491.25 566.561 4
9 -8 2 5846.38 575.233 4
-9 8 -2 5580.66 480.854 1
9 8 2 5996.11 507.727 2
-10 -8 -2 236.752 232.993 4
10 8 -2 210.808 119.954 2
-10 -8 2 276.801 123.254 4
10 -8 -2 407.819 169.118 4
10 -8 2 220.976 145.307 4
10 8 2 206.266 129.339 2
-10 8 2 188.269 105.218 1
-10 8 -2 272.405 132.433 1
-11 8 -2 1266.73 239.692 1
11 8 2 1534.29 278.761 2
-11 -8 -2 1003.74 339.979 4
11 8 -2 1129.14 238.686 2
-11 -8 2 1328.71 271.679 4
11 -8 -2 936.861 290.015 4
11 -8 2 1459.06 337.125 4
-11 8 2 1092.99 212.184 1
-12 8 -2 2499.15 341.853 1
12 8 -2 2618.82 360.4 2
-12 -8 -2 2948.39 585.855 4
12 8 2 1981.79 323.804 2
12 -8 2 2878.03 472.289 4
-12 8 2 2429.78 307.762 1
13 8 -2 3948.53 455.933 2
13 8 2 3293.44 425.493 2
-13 -8 -2 4663.56 766.31 4
13 -8 2 2960.68 510.989 4
-13 8 -2 3829.42 429.54 1
-14 8 -2 141.837 113.388 1
14 8 2 251.79 161.851 2
14 8 -2 475.534 204.643 2
14 -8 2 402.705 168.588 4
-14 -8 -2 575.816 342.648 4
0 -9 -2 209.054 166.535 4
0 9 2 -34.5278 105.604 1
0 -9 2 118.001 105.74 4
0 9 -2 201.721 107.82 1
-1 -9 2 653.22 168.682 4
1 -9 2 394.816 159.757 4
1 9 2 692.452 169.964 1
-1 9 2 841.354 178.969 1
-1 -9 -2 805.117 212.579 4
1 -9 -2 931.523 229.288 4
-1 9 -2 862.507 173.287 1
1 9 -2 621.161 139.988 1
-2 -9 2 3140.07 352.71 4
-2 -9 -2 2775.08 381.415 4
2 9 2 2440.37 293.782 1
-2 9 2 2725.24 313.922 1
2 -9 2 2514.42 329.144 4
2 9 -2 2603.41 281.333 1
-2 9 -2 2673.02 301.231 1
2 -9 -2 2423.51 348.925 4
3 -9 2 1192.15 219.502 4
-3 -9 2 1478.56 242.622 4
3 9 2 1512.82 238.025 1
-3 -9 -2 1761.43 333.734 4
-3 9 -2 1690.7 249.256 1
3 -9 -2 1702.2 310.288 4
-3 9 2 1661.83 262.691 1
3 9 -2 1661.01 216.979 1
4 9 2 1085.62 208.691 1
4 -9 2 975.967 219.164 4
-4 -9 -2 1128.96 278.696 4
-4 9 2 1000.31 212.087 1
4 -9 -2 1310.13 274.233 4
4 9 -2 1105.7 183.775 1
-4 -9 2 1170.4 227.282 4
-4 9 -2 858.502 183.245 1
5 -9 -2 12255.6 812.631 4
-5 9 2 14053.2 745.212 1
-5 9 -2 13256.9 720.969 1
-5 -9 2 13051.8 740.873 4
5 9 2 12411.6 672.848 1
5 9 2 13332.2 660.777 2
5 -9 2 13775.6 829.192 4
-5 -9 -2 12623.6 890.228 4
-6 -9 2 7204.79 556.623 4
6 -9 -2 7223.82 636.229 4
6 -9 2 6715.99 583.558 4
-6 9 2 7095.54 538.345 1
6 9 2 7143.84 500.396 1
-6 9 -2 7705.95 543.952 1
6 9 2 7164.59 502.013 2
-6 -9 -2 6378.5 659.893 4
7 9 2 286.954 126.7 2
7 9 2 312.983 129.463 1
-7 -9 2 231.555 115.347 4
7 9 -2 177.983 76.3453 2
7 -9 2 307.161 175.444 4
-7 -9 -2 242.79 214.66 4
-7 9 2 84.7287 84.5019 1
7 -9 -2 500.209 207.307 4
-7 9 -2 162.258 119.226 1
-8 9 2 164.441 96.2521 1
-8 -9 2 117.216 113.683 4
-8 -9 -2 107.267 185.81 4
8 -9 2 272.053 144.23 4
8 9 -2 321.335 134.067 2
8 -9 -2 93.3467 126.686 4
8 9 2 244.057 140.907 2
-8 9 -2 155.376 116.938 1
-9 -9 2 -6.69468 100.922 4
-9 -9 -2 138.857 178.497 4
9 9 -2 11.416 95.8552 2
9 9 2 -51.4204 86.4398 2
9 -9 -2 175.43 157.921 4
9 -9 2 165.697 187.431 4
-9 9 2 -166.606 124.222 1
-9 9 -2 44.772 88.2592 1
10 9 2 -63.7427 118.603 2
-10 -9 -2 136.225 218.486 4
10 9 -2 342.005 147.343 2
10 -9 -2 397.973 224.797 4
10 -9 2 155.379 158.955 4
-10 -9 2 137.726 113.852 4
-10 9 2 211.703 130.201 1
-10 9 -2 3.40599 102.409 1
-11 9 -2 462.542 170.674 1
-11 9 2 536.755 172.825 1
-11 -9 -2 184.933 225.055 4
11 -9 -2 489.381 219.463 4
11 -9 2 351.433 179.943 4
11 9 2 374.764 172.766 2
11 9 -2 272.442 144.745 2
-12 9 -2 1016.05 240.895 1
12 9 2 717.461 219.04 2
-12 -9 -2 918.928 385.547 4
12 9 -2 603.958 188.093 2
-12 9 2 657.052 192.275 1
12 -9 2 304.118 183.328 4
-13 9 -2 2715.82 376.145 1
13 9 -2 2887.35 408.728 2
13 9 2 2851.9 417.576 2
0 -10 2 29930.3 1221.64 4
0 -10 -2 30969.3 1373.38 4
0 10 2 28775.3 1149.37 1
0 10 -2 30437.4 1115.09 1
1 -10 2 44607.4 1536.88 4
1 10 -2 43949.1 1379.48 1
1 -10 -2 39839.9 1607.22 4
-1 10 2 44785.2 1466.74 1
-1 10 -2 46204.5 1426.1 1
1 10 2 43263.8 1434.1 1
-1 -10 -2 40367.5 1638.23 4
-1 -10 2 45177.9 1520.45 4
-2 -10 -2 -145.324 164.593 4
2 10 2 118.082 114.89 1
-2 10 2 -140.38 114.802 1
2 -10 -2 -165.544 161.975 4
-2 -10 2 46.5621 93.4349 4
2 -10 2 -100.603 124.893 4
2 10 -2 168.353 114.909 1
-2 10 -2 11.2157 86.1171 1
3 -10 2 3605.54 435.282 4
-3 -10 2 3300.74 389.077 4
-3 10 -2 4097.42 397.616 1
3 10 2 3145.05 355.697 1
-3 10 2 3535.84 388.094 1
3 10 -2 3934.54 363.257 1
3 -10 -2 3268.49 434.622 4
-3 -10 -2 3666.24 475.573 4
4 10 2 415.888 148.524 1
-4 -10 2 346.32 145.769 4
-4 10 2 527.444 158.742 1
4 -10 -2 341.398 192.669 4
4 -10 2 231.471 139.722 4
-4 -10 -2 383.152 185.397 4
-4 10 -2 275.214 136.349 1
5 -10 -2 4790.99 541.052 4
-5 10 -2 5218.59 468.747 1
5 10 2 5312.71 454.429 1
-5 10 2 5622.81 498.762 1
-5 -10 -2 4728.57 574.098 4
-5 -10 2 5341.68 499.929 4
5 -10 2 5796.55 561.62 4
6 -10 -2 373.708 145.985 4
6 10 2 59.2898 90.5608 1
-6 -10 -2 437.621 205.939 4
-6 -10 2 345.446 168.787 4
-6 10 2 320.836 157.969 1
6 -10 2 426.771 159.741 4
-6 10 -2 604.25 179.648 1
7 -10 -2 4791.12 565.559 4
-7 -10 2 5370.14 513.167 4
7 -10 2 5069.83 552.384 4
-7 10 2 5386.59 494.418 1
-7 10 -2 5451.82 478.473 1
-7 -10 -2 5099.39 626.932 4
-8 -10 2 4315.4 473.226 4
8 -10 2 5145.9 579.088 4
-8 -10 -2 4476.32 591.921 4
8 -10 -2 3855.27 501.417 4
-8 10 2 4616.16 467.789 1
-8 10 -2 4768.36 475.395 1
-9 -10 -2 10044.8 942.126 4
-9 -10 2 10432.4 754.672 4
9 -10 -2 10481.9 881.745 4
-9 10 2 11011 724.407 1
-9 10 -2 11662.3 754.336 1
9 -10 2 11764.8 891.629 4
9 10 2 10139.6 699.972 2
10 10 2 159.612 147.146 2
-10 -10 -2 33.4064 142.63 4
-10 -10 2 73.824 123.582 4
10 -10 -2 -182.653 209.009 4
10 -10 2 255.116 211.383 4
-10 10 2 49.8816 116.871 1
-10 10 -2 278.231 144.106 1
-11 10 2 272.07 139.717 1
-11 -10 -2 478.549 291.528 4
11 10 -2 21.7851 132.696 2
11 10 2 649.194 197.105 2
11 -10 -2 111.667 172.783 4
11 -10 2 753.94 278.741 4
-11 10 -2 373.829 177.617 1
12 10 2 303.578 179.329 2
12 10 -2 322.217 168.531 2
-12 10 2 330.966 171.443 1
0 11 2 -377.814 195.306 1
0 -11 -2 -116.12 168.976 4
0 -11 2 282.766 176.103 4
0 11 -2 -9.08198 123.77 1
1 -11 -2 1112.39 290.277 4
-1 11 2 1409.32 265.92 1
-1 11 -2 1268.59 243.788 1
-1 -11 -2 905.089 249.324 4
-1 -11 2 1248.21 259.946 4
1 -11 2 1446.46 281.923 4
1 11 2 1591.89 266.881 1
1 11 -2 1080.35 211.148 1
-2 -11 2 342.278 159.372 4
2 11 2 524.515 191.598 1
-2 -11 -2 362.12 174.899 4
2 -11 -2 43.0853 160.233 4
-2 11 2 89.2992 94.9842 1
2 -11 2 -53.923 107.41 4
2 11 -2 290.977 158.094 1
-2 11 -2 381.221 175.057 1
-3 -11 -2 72.1215 155.072 4
-3 11 2 88.4466 103.536 1
3 11 -2 23.346 78.6171 1
-3 -11 2 42.2711 110.275 4
3 -11 -2 -6.35817 126.823 4
3 -11 2 -82.3749 120.191 4
3 11 2 -153.581 111.575 1
-3 11 -2 28.1447 107.577 1
4 11 2 -91.09 135.185 1
-4 -11 -2 28.8559 153.18 4
-4 -11 2 186.036 151.971 4
-4 11 2 70.8792 108.364 1
4 -11 2 -101.193 123.137 4
4 -11 -2 185.11 171.014 4
-4 11 -2 227.877 155.729 1
5 -11 -2 169.842 143.978 4
-5 -11 -2 210.966 181.244 4
-5 -11 2 295.661 133.66 4
-5 11 2 697.171 191.093 1
5 11 2 334.327 152.39 1
5 -11 2 407.27 202.083 4
-5 11 -2 505.848 195.185 1
-6 -11 -2 1054.56 317.243 4
-6 -11 2 798.505 230.567 4
6 -11 2 981.29 262.561 4
-6 11 2 921.888 231.498 1
6 -11 -2 1307.57 327.678 4
-6 11 -2 879.652 228.976 1
-7 -11 -2 665.917 273.727 4
7 -11 -2 544.073 253.427 4
-7 -11 2 314.556 143.228 4
7 -11 2 558.404 244.898 4
-7 11 2 484.306 179.141 1
-7 11 -2 406.94 155.432 1
-8 -11 -2 178.096 178.344 4
-8 -11 2 454.71 209.847 4
8 -11 -2 299.028 180.846 4
8 -11 2 604.133 228.685 4
-8 11 2 240.181 165.633 1
-8 11 -2 499.5 164.173 1
-9 -11 -2 1407.35 387.882 4
-9 -11 2 1934.79 348.851 4
-9 11 2 822.852 214.102 1
9 -11 2 1319.61 304.991 4
-9 11 -2 1726.31 309.782 1
9 -11 -2 1149.06 317.504 4
-10 -11 2 299.716 143.098 4
10 -11 -2 -148.657 223.01 4
0 -12 2 2926.59 405.96 4
0 12 2 3422.45 419.904 1
0 -12 -2 3467.21 503.303 4
0 12 -2 3519.18 400.156 1
-1 -12 2 6151.35 595.37 4
1 -12 2 6908.7 644.251 4
1 12 2 5728.86 541.944 1
-1 12 2 6872.16 592.879 1
1 12 -2 6741.77 554.105 1
-1 -12 -2 5671.39 642.159 4
1 -12 -2 5178.29 621.069 4
-1 12 -2 6087.14 536.048 1
-2 -12 -2 83.5043 161.493 4
2 12 2 -82.4466 118.975 1
2 -12 -2 260.827 228.035 4
-2 -12 2 -254.586 162.225 4
2 -12 2 -57.2394 134.341 4
-2 12 2 -161.102 154.148 1
2 12 -2 -178.115 149.12 1
-2 12 -2 77.4621 113.94 1
-3 -12 -2 19515.2 1222.33 4
-3 -12 2 18967.1 1062.74 4
3 -12 -2 18950.1 1195.03 4
3 -12 2 19370.9 1124.37 4
3 12 2 20415.5 1036.24 1
-3 12 2 21684.7 1097.47 1
-3 12 -2 21102.9 1043.67 1
4 -12 -2 16780.2 1133.28 4
-4 -12 -2 16827.3 1159.82 4
4 -12 2 18499.2 1112.2 4
4 12 2 19269.7 994.392 1
-4 -12 2 18448.1 1052.65 4
-4 12 2 19617 1047 1
-4 12 -2 19678.2 1022.79 1
-5 -12 -2 16721.6 1168.82 4
-5 -12 2 18434 1063.85 4
5 -12 -2 17524.9 1176.42 4
5 -12 2 19744.6 1164.57 4
-5 12 2 19384.1 1050.96 1
-5 12 -2 19630.1 1030.73 1
-6 -12 2 86.1795 127.926 4
-6 -12 -2 421.062 237.368 4
6 -12 -2 332.644 188.118 4
-6 12 -2 311.835 157.408 1
6 -12 2 -76.7962 131.737 4
-6 12 2 97.6696 95.3652 1
7 -12 -2 1760.21 406.679 4
-7 -12 2 1600.97 335.065 4
-8 -12 2 575.272 232 4
8 -12 -2 819.139 282.061 4
0 13 2 132.306 151.305 1
0 13 -2 101.416 110.424 1
1 13 2 356.256 161.601 1
1 13 -2 459.312 166.943 1
-1 13 -2 523.758 191.931 1
2 13 2 1432.17 308.645 1
-2 13 -2 983.31 244.451 1
3 13 2 263.304 163.821 1
4 13 2 69.2102 103.677 1
0 0 -3 522.315 190.914 1
1 0 -3 266.176 139.019 1
-1 0 -3 248.284 117.552 1
-2 0 -3 20904.7 910.493 1
2 0 -3 23673.1 1014.32 1
3 0 -3 92962.2 2159.19 1
-3 0 -3 83705.8 2084.01 1
4 0 -3 1635.54 191.623 1
-4 0 -3 1588.95 239.51 1
5 0 -3 40077.4 996.823 1
-5 0 -3 41402.5 1324.93 1
-6 0 -3 2880.64 333.178 1
-7 0 3 76748.5 1429.24 1
-7 0 3 83314.9 1769.35 3
7 0 3 79628.3 1836.16 2
-7 0 -3 78976.5 2061.89 1
-8 0 3 4439.29 342.682 3
8 0 3 4228.98 351.045 2
-8 0 -3 4701.04 436.011 1
-9 0 3 54625.9 1446.46 3
9 0 3 55042.4 1463.99 2
-9 0 -3 54334.1 1694.94 1
10 0 3 665.374 150.664 2
-10 0 3 723.884 159.777 3
-10 0 -3 836.383 211.391 1
11 0 -3 94253 2152.8 2
-11 0 3 100946 2249.99 3
11 0 3 96074.7 2222.31 2
-11 0 -3 97147.7 2553.44 1
12 0 -3 131.96 80.8372 2
12 0 3 64.8196 76.3489 2
-12 0 3 -18.7263 108.96 3
-12 0 -3 -9.84679 111.001 1
13 0 -3 42984.1 1354.27 2
-13 0 3 43843.4 1427.63 3
13 0 3 41359.4 1359.05 2
14 0 -3 207.678 103.471 2
-14 0 3 431.506 147.32 3
14 0 3 369.04 142.412 2
15 0 -3 22122.8 986.55 2
-15 0 3 22606.2 1075.52 3
15 0 3 24122.9 1065.64 2
16 0 3 247.316 148.287 2
-16 0 3 67.5872 161.108 3
16 0 -3 121.824 110.167 2
17 0 -3 12747.6 797.559 2
-17 0 3 13556.5 865.862 3
17 0 3 12946.2 816.323 2
18 0 3 776.678 230.229 2
18 0 -3 1245.51 265.212 2
0 1 -3 1064.63 186.63 1
0 -1 3 1448.62 143.006 4
0 -1 -3 1742.71 300.728 1
1 -1 -3 19.9403 34.5856 4
1 -1 -3 -57.3488 130.088 1
-1 -1 3 -8.97284 29.7324 4
-1 1 -3 -18.1293 73.118 1
1 1 -3 3.64815 63.552 1
2 -1 -3 4650.25 382.79 1
2 -1 -3 4221.86 160.4 4
-2 -1 3 4542.05 168.51 4
-2 -1 3 4281.86 328.12 3
-2 1 -3 4439.86 333.304 1
2 1 -3 4513.59 388.171 1
-2 -1 -3 3808.18 422.685 1
3 -1 -3 22379.2 798.185 1
-3 -1 3 23463.5 758.296 3
-3 1 -3 22563.1 819.336 1
3 1 -3 23424.5 962.813 1
-3 -1 -3 23276.3 1062.76 1
-4 -1 3 18894.6 674.773 3
-4 1 -3 19170.9 756.924 1
-4 -1 -3 19497.8 992.669 1
5 1 -3 5815.94 366.221 1
-5 -1 3 5532.95 342.405 3
-5 1 -3 5749.05 395.596 1
-5 -1 3 5336.27 172.629 4
-5 -1 -3 5447.51 525.993 1
-6 -1 -3 1462.32 283.903 1
6 1 -3 1385.5 137.317 1
-6 -1 3 1482.08 108.563 4
-6 1 3 1391.54 173.959 3
-6 1 3 1307.68 137.155 1
-6 1 -3 1226.24 189.159 1
-6 -1 3 1444.31 177.113 3
6 1 3 1269.25 208.106 2
7 -1 3 693.417 135.909 2
7 1 3 615.347 140.284 2
-7 -1 -3 880.137 232.575 1
-7 1 3 605.657 92.6899 1
-7 1 -3 667.341 157.496 1
-7 -1 3 654.918 122.882 3
-7 1 3 814.308 143 3
8 1 -3 5360.99 367.061 2
-8 1 3 4865.2 251.563 1
-8 -1 3 5083.76 366.491 3
-8 1 3 5077.13 367.82 3
-8 1 -3 4798.61 397.718 1
8 -1 3 5316.78 378.106 2
8 1 3 5114.2 395.983 2
-8 -1 -3 4738.91 508.913 1
9 -1 3 61.7768 75.0829 2
9 1 3 124.739 95.8558 2
9 1 -3 136.589 87.1431 2
-9 1 -3 137.321 72.1067 1
-9 -1 -3 161.065 109.339 1
-9 -1 3 -7.15629 72.0457 3
-9 1 3 189.446 74.3449 3
10 -1 3 1184.88 185.341 2
10 1 3 1316.52 213.198 2
-10 -1 -3 1403.84 282.645 1
10 1 -3 903.305 166.817 2
-10 1 -3 1102.7 210.327 1
-10 -1 3 1238.56 202.562 3
-10 1 3 1313.35 201.057 3
11 1 -3 5347.39 405.627 2
-11 -1 3 5574.78 425.835 3
-11 1 3 5445.23 424.541 3
-11 1 -3 4402.63 425.133 1
11 1 3 4416.6 398.385 2
11 -1 3 5049.96 391.715 2
-11 -1 -3 5067.22 559.971 1
12 1 -3 9755.84 582.901 2
-12 -1 3 10243.1 625.923 3
-12 1 3 10367.3 620.534 3
-12 1 -3 9260.77 651.402 1
12 1 3 10742.6 635.416 2
12 -1 3 9761.48 580.938 2
13 -1 3 2.91917 90.2453 2
13 1 -3 51.2323 105.224 2
13 1 3 69.1371 85.7835 2
-13 -1 3 280.204 141.361 3
-13 1 3 86.9456 103.277 3
14 -1 3 64.3391 95.0816 2
14 1 -3 148.373 120.164 2
-14 1 3 203.126 126.99 3
14 1 3 -127.215 119.782 2
-14 -1 3 -54.47 126.081 3
15 -1 3 175.381 85.5382 2
15 1 3 152.704 116.803 2
15 1 -3 313.849 149.119 2
-15 -1 3 282.403 158.17 3
-15 1 3 455.23 193.906 3
16 1 3 1960.88 315.721 2
16 -1 3 1645.96 282.658 2
16 1 -3 1350.74 263.284 2
-16 -1 3 1848.58 329.84 3
-16 1 3 1833.1 312.621 3
17 1 -3 -81.1434 126.964 2
-17 1 3 77.8094 109.412 3
-17 -1 3 17.7902 136.97 3
17 1 3 -107.66 110.721 2
18 1 3 348.027 166.717 2
18 1 -3 775.033 228.887 2
0 -2 -3 53.3927 102.195 1
0 -2 -3 22.8021 49.1962 4
0 2 -3 108.204 66.2488 1
0 -2 3 177.599 59.2817 4
1 -2 -3 25012.3 676.913 4
1 -2 -3 24156.3 913.74 1
-1 -2 3 23165 587.258 4
1 -2 3 24173.2 697.826 4
-1 2 -3 25861.9 794.642 1
1 2 -3 23036.7 745.13 1
-2 -2 -3 92.647 129.808 1
2 -2 -3 100.896 45.1315 4
-2 2 -3 279.423 109.059 1
-2 -2 3 80.3372 35.6379 4
2 -2 3 222.154 80.5129 4
2 2 -3 114.139 57.4768 1
-2 -2 3 103.807 85.3007 3
-2 2 3 114.089 75.0929 3
2 -2 -3 41.2245 91.5064 1
-3 -2 -3 80505.6 2198.16 1
-3 -2 3 84064 1376.37 4
3 -2 -3 84241 1445.23 4
3 -2 3 82130.6 1808.55 4
-3 -2 3 81254.4 1745.23 3
-3 2 3 81224.3 1726.87 3
-3 2 -3 84887.1 1784.12 1
3 2 -3 77276.4 1726.11 1
4 2 -3 1487.74 199.421 1
-4 -2 3 1518.4 103.603 4
4 -2 -3 1739.12 141.932 4
-4 2 -3 1304.8 185.063 1
4 -2 3 1619.03 215.998 4
-4 -2 3 1542.33 181.903 3
-5 2 3 1119.08 143.199 1
-5 -2 3 1177.57 95.539 4
-5 2 -3 1094.98 172.39 1
5 2 -3 1071.85 187.634 1
5 -2 -3 1018.25 124.719 4
-5 -2 3 948.492 142.047 3
-5 -2 -3 1071.82 237.404 1
6 2 -3 807.46 137.848 1
6 2 3 580.228 140.935 2
-6 2 3 599.45 105.611 1
-6 -2 3 506.876 77.1318 4
-6 2 -3 599.624 149.979 1
6 -2 -3 475.687 100.538 4
-6 -2 -3 562.69 158.992 1
-6 -2 3 477.272 109.438 3
-6 2 3 465.612 114.44 3
7 2 -3 174229 3144.15 2
-7 2 3 174003 2901.89 1
-7 -2 3 172864 2808.79 4
-7 -2 3 176457 3153.33 3
-7 2 3 170257 3120.81 3
-7 2 -3 170919 3242.9 1
7 -2 3 169042 3103.7 2
7 2 3 173248 3335.57 2
8 2 -3 4456.37 341.97 2
-8 2 3 4156.54 257.803 1
-8 -2 3 4366.56 348.024 3
-8 2 3 4333.98 338.353 3
-8 2 -3 4599.83 371.19 1
8 -2 3 4333.16 329.386 2
8 2 3 4267.79 373.751 2
-8 -2 -3 3818.3 438.064 1
9 2 -3 20459 810.211 2
-9 -2 3 20526.5 809.946 3
-9 2 3 21044.6 811.64 3
-9 2 -3 20422.4 846.997 1
9 -2 3 20129.5 757.592 2
9 2 3 20015.9 857.999 2
-9 -2 -3 18552.8 1013.19 1
10 2 3 447.439 142.354 2
10 -2 3 630.553 143.194 2
10 2 -3 388.372 121.32 2
-10 2 -3 437.571 141.632 1
-10 -2 -3 494.798 162.85 1
-10 -2 3 584.277 152.301 3
-10 2 3 484.891 129.763 3
11 2 -3 63816 1680.85 2
-11 -2 3 66541.9 1729.43 3
-11 2 3 66012.4 1716.86 3
-11 2 -3 61122 1750.08 1
11 2 3 64292.8 1780.95 2
11 -2 3 65512.2 1628.1 2
12 2 3 77.0464 126.257 2
12 2 -3 304.517 124.931 2
-12 2 -3 44.6832 101.075 1
-12 2 3 281.162 136.252 3
12 -2 3 -7.86581 69.1416 2
-12 -2 3 221.934 113.703 3
13 2 -3 12774.7 719.723 2
-13 2 3 12471.1 717.414 3
-13 -2 3 13654.3 757.352 3
-13 2 -3 11404.3 720.798 1
13 2 3 11768.9 720.542 2
13 -2 3 13368.9 680.729 2
14 2 3 2052.42 316.78 2
14 -2 3 2093.13 273.834 2
14 2 -3 1961.36 288.462 2
-14 -2 3 1904.21 299.439 3
-14 2 3 1827.39 277.501 3
15 2 -3 30982.7 1242.3 2
-15 -2 3 32371.8 1309.56 3
-15 2 3 29181.2 1211.72 3
15 2 3 30663.7 1285.71 2
16 2 -3 406.185 162.519 2
16 2 3 -47.8328 143.265 2
-16 -2 3 510.072 193.506 3
-16 2 3 313.582 122.965 3
17 2 -3 4732.85 492.361 2
-17 -2 3 5352.08 540.744 3
-17 2 3 4417.43 481.145 3
17 2 3 4843.26 518.303 2
0 3 -3 664.667 124.998 1
0 -3 -3 732.72 132.771 4
0 -3 -3 529.048 135.082 1
0 -3 3 634.962 99.4316 4
-1 3 -3 524.786 109.862 1
-1 -3 -3 338.776 132.417 1
-1 -3 -3 337.391 104.818 4
1 3 -3 440.367 100.194 1
1 -3 -3 433.352 93.0299 4
-1 -3 3 399.681 77.2206 4
1 -3 3 565.056 105.975 4
-2 -3 -3 3397.27 378.969 1
2 -3 -3 3547.32 239.459 4
2 -3 3 4095.24 285.934 4
-2 3 3 3772.11 317.836 3
-2 -3 3 3662.45 208.691 4
-2 3 -3 3842.84 295.036 1
2 3 -3 3743.61 263.058 1
-3 -3 -3 11483.3 728.23 1
-3 -3 3 10586.1 370.638 4
3 -3 3 10892.5 517.483 4
-3 -3 3 10895.9 525.214 3
-3 3 3 10219.9 488.445 3
3 -3 -3 10674.9 415.315 4
-3 3 -3 10343.8 495.051 1
3 3 -3 9961.09 432.924 1
-4 -3 -3 18736.8 1009.25 1
-4 -3 3 16987 484.524 4
4 -3 -3 16835.2 557.313 4
4 -3 3 17428.5 724.749 4
-4 3 3 16389.6 631.317 1
-4 -3 3 17076.3 648.505 3
-4 3 -3 16826.7 664.18 1
4 3 -3 16195.4 570.226 1
-5 -3 -3 4414.72 490.594 1
-5 -3 3 4669.59 241.632 4
5 -3 -3 4633.03 299.796 4
-5 3 3 5077.94 321.923 1
-5 -3 3 5055.35 332.066 3
5 -3 3 5246.18 412.831 4
-5 3 -3 5258.89 365.999 1
5 3 3 5425.54 434.305 2
5 3 -3 4925.88 309.008 1
6 3 3 1193.23 217.021 2
6 3 -3 1023.02 164.962 1
-6 3 3 786.738 115.18 1
-6 3 -3 995.887 160.894 1
-6 -3 3 913.553 112.373 4
6 3 -3 915.455 152.176 2
6 -3 -3 771.128 133.235 4
-6 -3 -3 1128.98 254.434 1
6 -3 3 1126.83 208.889 4
-6 -3 3 940.871 150.787 3
-6 3 3 915.027 146.778 3
7 -3 3 27.562 57.76 2
7 3 3 59.359 113.614 2
7 3 -3 -128.362 105.253 2
-7 3 3 -38.1741 53.1148 1
-7 3 -3 124.241 104.148 1
-7 -3 3 5.47803 33.1033 4
-7 -3 -3 24.671 119.034 1
7 -3 -3 51.4886 86.5954 4
7 -3 3 44.5412 83.9874 4
-7 -3 3 -66.5961 77.9989 3
-7 3 3 29.3244 56.855 3
8 3 -3 4509.07 352.522 2
8 -3 -3 3715.08 358.941 4
-8 -3 -3 3136.48 380.31 1
-8 3 3 3689.87 264.281 1
-8 -3 3 3942.26 322.622 3
-8 3 3 4132.94 327.738 3
-8 3 -3 4119.22 351.103 1
8 -3 3 3858.26 291.504 2
8 3 3 3651.54 363.136 2
9 -3 3 625.753 127.384 2
9 3 3 566.163 159.589 2
-9 3 3 562.186 105.117 1
-9 -3 -3 487.78 160.609 1
-9 3 -3 810.604 165.731 1
9 3 -3 434.349 117.969 2
-9 3 3 573.234 136.023 3
-9 -3 3 670.154 139.711 3
-10 -3 3 652.945 166.972 3
10 3 3 720.495 177.652 2
10 -3 3 933.224 159.541 2
-10 -3 -3 446.219 147.105 1
10 3 -3 525.483 146.515 2
-10 3 -3 812.593 171.848 1
-10 3 3 996.049 186.71 3
11 3 -3 3211.12 344.187 2
11 3 3 3002.64 345.079 2
-11 3 3 2981.53 316.657 3
-11 -3 3 3097.09 332.092 3
-11 3 -3 2905.47 323.074 1
11 -3 3 2871.59 279.459 2
12 3 -3 8672.97 575.222 2
-12 -3 3 9398.77 597.346 3
-12 3 3 9077.23 585.179 3
-12 3 -3 8771.95 596.019 1
12 3 3 9342.04 634.811 2
13 3 3 155.591 129.861 2
13 3 -3 185.691 110.473 2
-13 3 -3 -50.4151 115.01 1
-13 -3 3 225.845 129.011 3
-13 3 3 15.2519 79.5919 3
14 3 3 358.939 158.947 2
14 3 -3 66.3519 110.505 2
-14 3 3 -44.0331 93.8955 3
-14 -3 3 58.61 104.897 3
15 3 3 225.858 114.825 2
15 3 -3 260.226 146.146 2
-15 -3 3 268.536 141.697 3
-15 3 3 137.578 115.894 3
16 3 3 1721.78 312.403 2
16 3 -3 1781.1 302.03 2
-16 -3 3 1280.59 258.828 3
-16 3 3 1417.92 260.91 3
17 3 3 484.286 231.764 2
17 3 -3 212.762 140.314 2
-17 -3 3 339.2 165.535 3
-17 3 3 244.846 155.027 3
0 4 -3 34.803 60.2506 1
0 -4 -3 -31.1175 68.1758 4
0 -4 3 80.1049 65.1221 4
-1 4 -3 29.3544 55.3002 1
1 4 -3 95.5041 54.6097 1
-1 -4 -3 101.599 81.6904 4
1 -4 -3 164.818 90.7775 4
1 -4 3 193.863 78.0465 4
-1 -4 3 91.2117 45.2893 4
2 -4 3 12822.9 558.322 4
-2 -4 3 13168 480.354 4
-2 4 3 12789.7 585.095 1
2 -4 -3 12484.3 535.375 4
-2 4 -3 12663.5 546.783 1
-2 -4 -3 12915.1 700.36 4
2 4 -3 13044.6 509.68 1
3 -4 -3 52624.1 1267.47 4
-3 -4 -3 53030.8 1584.37 1
-3 -4 3 54735.8 1163.11 4
-3 4 3 56921.7 1378.47 1
-3 -4 3 52868.5 1384.11 3
-3 4 3 51583.2 1316.76 3
3 -4 3 52243.1 1362.48 4
-3 4 -3 52749.3 1319.23 1
3 4 -3 53867 1206.05 1
-3 -4 -3 55813.1 1718.17 4
-4 4 3 858.331 144.882 1
4 4 -3 1059.71 136.214 1
4 -4 -3 709.499 124.205 4
4 -4 3 892.829 174.421 4
-4 -4 3 1028.63 161.933 3
-4 4 -3 1072.51 162.522 1
-4 -4 3 976.734 121.286 4
-4 -4 -3 698.194 188.658 1
-5 -4 -3 28206.5 1176.2 1
-5 -4 3 26986.1 737.288 4
5 -4 -3 26658.5 860.537 4
5 -4 3 27078.1 1000.34 4
-5 4 3 27205.3 859.128 1
-5 -4 3 26854.6 866.219 3
-5 4 -3 27728.3 917.108 1
5 4 -3 26298.6 737.725 1
5 4 3 27845 1048.94 2
6 4 3 2161.15 291.184 2
-6 -4 3 1792.23 173.786 4
-6 4 3 1738.18 192.054 1
6 4 -3 1683.38 201.969 2
-6 4 -3 1641.62 214.507 1
6 -4 -3 1741.14 219.688 4
6 -4 3 1470.53 245.05 4
-6 -4 -3 1864.58 304.146 1
-6 -4 3 1656 204.942 3
-6 4 3 1533.46 196.458 3
6 4 -3 1684.79 167.29 1
7 4 -3 56137.7 1412.08 2
-7 -4 -3 58239.9 1884.77 1
-7 -4 3 55385.1 1266.21 4
7 -4 -3 54027.4 1496.01 4
7 -4 3 55264 1691.09 4
-7 4 3 52385.7 1310.39 1
-7 -4 3 54614.8 1385.12 3
-7 4 3 56724.7 1394.97 3
-7 4 -3 51538.4 1432.83 1
7 -4 3 54185.4 1249.04 2
7 4 3 54842.4 1584.92 2
8 4 -3 3195.7 298.658 2
8 -4 -3 3294.48 349.163 4
8 -4 3 3311.94 403.981 4
-8 -4 -3 3453.82 436 1
-8 4 3 3065 260.669 1
-8 -4 3 3551.73 310.049 3
-8 4 3 3030.75 286.231 3
-8 4 -3 3209.98 315.306 1
8 -4 3 3261.54 254.866 2
8 4 3 3669.56 373.453 2
9 4 -3 41942.6 1254.9 2
-9 -4 -3 42005.7 1640.02 1
9 -4 3 42012 1584.18 4
-9 4 3 40344.7 1104.16 1
-9 -4 3 41278.2 1231.63 3
-9 4 3 40701.7 1225.09 3
-9 4 -3 39089.3 1254.19 1
9 4 3 41806.7 1368.83 2
10 4 3 425.123 157.593 2
-10 4 -3 489.289 147.772 1
10 4 -3 340.014 126.203 2
-10 -4 3 520.082 132.846 3
-10 4 3 556.457 135.919 3
-10 4 3 498.99 117.262 1
11 4 -3 71319.9 1875.58 2
-11 -4 3 73798.6 1874.12 3
-11 4 3 73430.3 1868.96 3
-11 4 -3 69132.1 1886.23 1
11 4 3 72860.3 2005.5 2
12 4 3 173.279 139.096 2
-12 4 -3 11.5551 92.5416 1
12 4 -3 120.932 87.8593 2
-12 -4 3 13.4889 102.98 3
-12 4 3 155.302 112.903 3
13 4 -3 32274.9 1238.52 2
-13 -4 3 32122.3 1218.57 3
-13 4 3 33096.6 1211.07 3
-13 4 -3 30499.9 1219.22 1
13 4 3 31405.5 1283.12 2
14 4 3 318.054 177.285 2
14 4 -3 186.01 131.203 2
-14 -4 3 231.174 144.375 3
-14 4 3 216.492 112.292 3
15 4 -3 17154.1 938.155 2
-15 -4 3 17197.7 946.509 3
-15 4 3 16933.3 900.758 3
15 4 3 17012.6 978.399 2
16 4 -3 83.7893 127.659 2
16 4 3 -60.0127 129.702 2
-16 -4 3 280.989 156.283 3
-16 4 3 -66.6289 120.437 3
-17 -4 3 10154.2 773.392 3
-17 4 3 10877.3 769.143 3
0 5 -3 1005.79 158.247 1
0 -5 -3 769.661 176.568 4
0 5 3 966.83 176.312 1
0 -5 3 945.315 150.575 4
-1 5 -3 304.502 95.3035 1
1 5 -3 341.555 84.1839 1
-1 5 3 274.113 115.397 1
-1 -5 -3 547.69 156.614 4
1 -5 -3 246.538 89.9583 4
-1 -5 3 249.811 78.1142 4
1 -5 3 165.294 82.1993 4
-2 5 3 2092.89 240.01 1
-2 -5 3 2197.42 210.762 4
2 -5 3 2424.88 250.451 4
-2 -5 -3 2086.1 280.762 4
2 -5 -3 1987.4 231.244 4
-2 5 -3 2187.4 230.448 1
2 5 -3 2046.76 202.296 1
-3 -5 -3 19302.1 959.963 4
3 -5 -3 19044.3 749.154 4
-3 -5 3 19590.3 655.018 4
3 -5 3 19409.6 772.208 4
-3 5 3 19393.6 760.394 1
-3 -5 3 18897.5 791.88 3
-3 5 3 18050.4 726.839 3
-3 5 -3 20329.8 748.533 1
3 5 -3 19631.8 656.506 1
4 -5 3 10457.4 571.913 4
-4 -5 3 9928.72 451.737 4
4 -5 -3 10134.2 530.501 4
-4 5 3 10497.7 531.152 1
-4 -5 3 10898.9 545.852 3
-4 5 -3 10112 529.121 1
4 5 -3 10438.3 448.569 1
4 5 3 11148.9 643.051 2
-4 -5 -3 9549.42 721.811 4
5 5 -3 3101.12 272.506 2
-5 -5 3 2900.85 241.418 4
5 -5 -3 3124.97 299.232 4
-5 -5 -3 3753.41 485.475 4
-5 5 3 3208.83 290.397 1
-5 -5 3 3021.76 272.594 3
-5 5 -3 3281.05 312.497 1
5 5 -3 3220.04 235.571 1
5 -5 3 3352.17 340.83 4
5 5 3 3434.89 353.451 2
6 5 3 1175.36 216.577 2
-6 5 -3 1049.1 186.844 1
-6 5 3 906.424 150.061 1
-6 -5 -3 1191.93 296.058 4
-6 -5 3 1167.45 158.172 4
6 5 -3 1022.8 174.509 2
6 -5 -3 1199.77 199.165 4
6 -5 3 1229.84 210.555 4
-6 -5 3 1088.11 167.601 3
-6 5 3 1319.01 179.211 3
7 5 3 1946.93 275.921 2
-7 5 -3 2113.97 266.355 1
-7 -5 3 1840.04 204.18 4
7 5 -3 1987.6 237.821 2
-7 5 3 2127.16 240.538 1
7 -5 -3 1789.31 257.475 4
7 -5 3 1989.35 291.252 4
-7 -5 3 1959.72 228.914 3
-7 5 3 1941.29 222.031 3
8 5 -3 3851.15 339.742 2
8 -5 -3 3745.09 387.533 4
-8 -5 3 3367.64 311.903 3
-8 5 3 3531.94 309.06 3
-8 5 3 3328.44 300.139 1
-8 5 -3 3769.6 355.127 1
8 -5 3 3694.12 404.884 4
8 5 3 3717.18 390.521 2
9 5 3 33.9454 98.669 2
-9 5 -3 109.68 104.508 1
9 5 -3 115.999 103.522 2
-9 5 3 -45.1475 58.6221 1
9 -5 3 -37.4395 124.007 4
-9 -5 3 -8.67964 81.6733 3
-9 5 3 66.9461 73.4591 3
10 5 3 1158.16 231.71 2
-10 5 -3 941.999 184.194 1
10 5 -3 971.434 206.218 2
-10 5 3 693.053 144.016 1
10 -5 3 927.276 245.457 4
-10 -5 3 758.973 167.683 3
-10 5 3 1083.35 196.659 3
11 5 -3 5315.32 453.438 2
-11 -5 3 4692.02 414.53 3
-11 5 3 5078.02 422.662 3
-11 5 -3 4448.28 428.247 1
11 5 3 4529.03 455.56 2
12 5 -3 6729.29 534.907 2
-12 -5 3 6344.48 495.234 3
-12 5 3 5867.92 471.07 3
-12 5 -3 6117.33 512.498 1
12 5 3 6811.98 574.115 2
13 5 3 463.935 177.369 2
-13 5 -3 738.477 191.419 1
13 5 -3 380.465 155.54 2
-13 -5 3 529.663 172.372 3
-13 5 3 611.519 180.089 3
14 5 3 -21.6205 90.9209 2
-14 5 -3 -5.98887 100.006 1
14 5 -3 -63.678 119.81 2
-14 -5 3 8.50619 92.6507 3
-14 5 3 39.1514 111.419 3
15 5 -3 168.409 151.035 2
15 5 3 593.028 210.349 2
-15 -5 3 244.125 143.71 3
-15 5 3 162.944 116.054 3
-16 -5 3 880.026 226.219 3
-16 5 3 607.734 196.359 3
0 6 -3 -39.8599 68.2321 1
0 6 3 153.736 119.665 1
0 -6 -3 131.353 121.05 4
0 -6 3 103.969 88.4758 4
-1 -6 -3 11388.2 674.742 4
1 -6 -3 11525.3 643.545 4
-1 -6 3 11788.2 557.206 4
1 -6 3 12375.5 592.083 4
1 6 3 13708.1 675.628 1
-1 6 3 12110.5 624.957 1
-1 6 -3 11584.8 563.551 1
1 6 -3 12455 548.092 1
-2 6 -3 77.0007 87.7578 1
2 6 -3 -101.997 68.8215 1
2 6 3 38.7528 72.0975 1
-2 6 3 143.763 92.0168 1
-2 -6 -3 -49.755 86.6098 4
2 -6 -3 0.12365 76.9748 4
-2 -6 3 -54.8871 69.7635 4
2 -6 3 100.505 85.1376 4
-3 -6 -3 33488.9 1323.29 4
3 -6 -3 35986.4 1185.33 4
-3 -6 3 36993.4 1040.14 4
3 -6 3 34856.8 1140.62 4
3 6 3 34196.7 1173.26 1
-3 6 3 36634.9 1138.38 1
-3 6 -3 37445.8 1116.26 1
3 6 -3 36478.4 998.942 1
3 6 3 39632.9 1287.33 2
-4 6 -3 714.063 160.678 1
4 6 3 681.36 171.718 2
4 6 -3 896.493 135.354 1
-4 6 3 782.383 171.931 1
-4 -6 -3 504.405 160.456 4
-4 -6 3 721.834 137.327 4
4 -6 -3 708.66 159.481 4
4 -6 3 671.472 165.222 4
-4 -6 3 786.295 143.796 3
-5 6 -3 1046.24 188.382 1
5 6 3 1096.61 224.756 2
5 6 -3 1075.77 143.772 1
-5 6 3 814.057 163.377 1
-5 -6 -3 1114.35 306.128 4
5 6 -3 914.817 148.929 2
-5 -6 3 995.1 157.792 4
5 -6 -3 924.545 179.522 4
5 -6 3 777.389 185.716 4
-5 -6 3 1086.06 181.186 3
-6 6 -3 306.912 106.224 1
6 6 3 423.153 136.185 2
-6 -6 -3 353.288 150.177 4
-6 6 3 235.056 97.7617 1
-6 -6 3 331.564 101.773 4
6 6 -3 348.271 101.453 2
6 -6 -3 120.699 80.6954 4
6 -6 3 205.195 120.988 4
-6 6 3 432.889 118.908 3
7 6 -3 88920.5 2029.94 2
7 -6 -3 85761.3 2223.27 4
7 -6 3 87330.6 2308.37 4
-7 -6 3 93167.4 1991.57 4
-7 6 3 87000.9 2030.54 1
-7 -6 3 92487 2026.84 3
-7 6 3 89734.6 1976.79 3
-7 6 -3 89203.6 2134.75 1
7 6 3 92777.7 2265.8 2
-8 6 -3 2087.91 279.629 1
8 6 3 2434 314.142 2
8 6 -3 2217.2 262.055 2
-8 -6 -3 2199.84 414.454 4
-8 6 3 2342.64 265.307 1
8 -6 -3 2253.51 317.968 4
8 -6 3 2797.36 386.243 4
-8 -6 3 2182.06 252.712 3
-8 6 3 2188.15 250.948 3
9 6 -3 10680.1 614.052 2
9 -6 3 10792.2 773.491 4
-9 6 3 10618.8 587.69 1
-9 -6 3 10761.6 590.592 3
-9 6 3 10927.8 589.412 3
-9 6 -3 11883.7 676.533 1
9 6 3 11273.2 714.714 2
-9 -6 -3 10121.7 895.674 4
10 6 3 514.081 162.786 2
-10 6 -3 102.367 105.487 1
-10 -6 -3 476.254 229.704 4
-10 6 3 245.885 101.888 1
10 6 -3 249.767 129.936 2
10 -6 3 5.41592 124.075 4
-10 -6 3 343.16 134.842 3
-10 6 3 241.462 111.24 3
11 6 -3 36743.8 1290.81 2
11 -6 3 32974.5 1548.75 4
-11 6 3 33082.1 1127.09 1
-11 -6 3 36824.3 1240.14 3
-11 6 3 33546.6 1179.74 3
-11 6 -3 33079.5 1270.22 1
11 6 3 32332.9 1328.21 2
-12 6 -3 42.7283 116.617 1
12 6 -3 -112.852 128.289 2
12 6 3 -43.3689 119.978 2
-12 -6 3 153.509 91.736 3
-12 6 3 74.3279 102.93 3
13 6 -3 7122.52 589.565 2
-13 -6 3 6778.94 546.47 3
-13 6 3 6920.49 536.497 3
-13 6 -3 8093.29 610.704 1
13 6 3 6898.7 617.115 2
14 6 3 1452.33 303.629 2
14 6 -3 1089.57 229.954 2
-14 6 -3 1388.14 278.301 1
-14 6 3 1090.79 231.504 3
15 6 -3 18209.5 1022.91 2
-15 6 3 17265.6 919.453 3
15 6 3 18463.8 1086.03 2
-16 6 3 599.879 213.668 3
0 7 3 197.977 99.2054 1
0 -7 -3 86.2238 104.886 4
0 -7 3 147.093 90.3057 4
0 7 -3 170.076 76.9636 1
1 7 3 593.045 158.415 1
-1 7 3 447.09 128.91 1
-1 -7 -3 578.224 169.296 4
1 -7 -3 567.681 156.715 4
-1 -7 3 777.236 167.951 4
1 -7 3 689.148 148.79 4
1 7 3 675.683 185.409 2
-1 7 -3 699.467 150.429 1
1 7 -3 682.398 137.59 1
2 7 -3 1444.29 184.987 1
2 7 3 1516.19 242.19 2
2 7 3 1389.89 233.163 1
-2 7 3 1433.06 222.149 1
-2 -7 -3 1322.44 243.084 4
2 -7 -3 1452.22 244.242 4
-2 -7 3 1738.99 213.925 4
2 -7 3 1447.41 231.806 4
-2 7 -3 1552.28 217.903 1
3 7 3 1835.59 253.977 2
-3 7 3 1823.58 253.695 1
-3 -7 -3 1770.11 300.482 4
3 -7 -3 1682.25 256.534 4
-3 -7 3 1676.18 215.536 4
3 -7 3 1774.86 245.493 4
3 7 -3 2010.43 216.415 1
3 7 3 1832.01 251.262 1
-3 7 -3 1773.22 240.18 1
-4 -7 -3 6020.42 587.668 4
-4 -7 3 7745.37 470.619 4
4 -7 -3 7025.96 537.068 4
4 -7 3 7408.47 533.536 4
4 7 3 7880.52 539.958 1
-4 7 3 8162.71 519.777 1
-4 7 -3 7846.59 505.245 1
4 7 -3 8376.24 448.464 1
4 7 3 7684.53 543.494 2
5 7 -3 2174.12 244.983 2
5 7 3 2577.16 322.024 2
5 7 3 2301.81 292.693 1
-5 7 3 2367.33 279.642 1
-5 -7 -3 2211.37 388.203 4
-5 -7 3 2143.21 247.671 4
5 -7 -3 2299.16 300.936 4
5 -7 3 2115.65 297.478 4
-5 7 -3 2737.39 311.674 1
-6 7 -3 241.964 114.568 1
6 7 3 170.954 118.401 2
6 7 3 292.066 134.987 1
-6 -7 -3 351.591 161.537 4
-6 7 3 303.046 117.144 1
6 7 -3 338.969 109.792 2
-6 -7 3 340.744 123.644 4
6 -7 -3 394.906 139.559 4
6 -7 3 496.904 166.314 4
-7 7 -3 331.892 129.942 1
7 7 3 555.275 160.101 1
7 7 3 468.233 163.499 2
-7 -7 -3 341.755 200.275 4
-7 7 3 426.061 140.868 1
7 7 -3 583.245 155.031 2
-7 -7 3 456.668 130.223 4
7 -7 3 289.261 142.234 4
7 -7 -3 475.661 169.087 4
-8 7 -3 1536.12 258.251 1
8 7 3 1627.9 254.685 1
8 7 3 1665.11 282.539 2
-8 -7 -3 2076.24 470.487 4
8 7 -3 1592.39 237.87 2
-8 7 3 1522.39 238.464 1
8 -7 -3 1314.38 264.03 4
8 -7 3 1586.46 303.762 4
-9 7 -3 727.193 191.117 1
9 7 3 662.248 200.663 2
-9 -7 -3 654.683 313.527 4
9 7 -3 741.53 187.738 2
9 -7 3 871.606 253.995 4
-9 7 3 681.421 170.03 1
-10 7 -3 159.929 106.013 1
10 7 3 -24.421 102.643 2
-10 -7 -3 51.8256 210.962 4
10 7 -3 310.962 140.583 2
-10 7 3 205.513 107.413 1
10 -7 3 115.298 103.598 4
-11 7 -3 776.442 222.329 1
11 7 3 1102.18 255.928 2
-11 -7 -3 631.018 270.981 4
11 7 -3 755.544 181.702 2
-11 7 3 448.123 127.319 1
11 -7 3 648.356 223.32 4
12 7 -3 4838.77 479.324 2
12 -7 3 4462.82 578.543 4
-12 -7 -3 3960.14 599.207 4
-12 7 -3 3853.64 426.362 1
12 7 3 4223.62 477.959 2
13 7 3 175.967 156.777 2
-13 7 -3 544.843 190.657 1
-13 -7 -3 2.8499 219.768 4
13 7 -3 342.028 143.084 2
14 7 3 171.737 132.555 2
-14 7 -3 -102.968 117.572 1
-14 -7 -3 -152.002 199.229 4
14 7 -3 228.593 161.132 2
-15 7 -3 238.576 160.432 1
0 8 3 -2.76579 81.2379 1
0 -8 -3 198.046 161.966 4
0 -8 3 14.1721 87.6012 4
0 8 -3 -6.03737 84.7053 1
1 8 3 171.199 94.9992 1
-1 8 3 280.154 106.507 1
-1 -8 -3 179.742 100.269 4
1 -8 -3 21.4471 100.344 4
-1 -8 3 284.938 121.581 4
1 -8 3 186.32 112.636 4
-1 8 -3 73.5565 77.4134 1
1 8 -3 275.454 111.047 1
-2 -8 -3 4730.86 501.857 4
2 -8 -3 4875.98 476.759 4
2 -8 3 4734.94 431.128 4
2 8 3 4379.61 406.247 1
-2 8 3 4571.99 404.112 1
-2 8 -3 5111.38 413.763 1
2 8 -3 5211.41 384.129 1
-2 -8 3 4642.66 392.41 4
2 8 3 4836.02 397.901 2
-3 -8 -3 16808.2 984.869 4
3 -8 -3 19411.4 962.614 4
-3 -8 3 18744.8 807.179 4
3 -8 3 19739.8 906.851 4
3 8 3 17616.5 856.073 1
-3 8 3 18906.4 867.569 1
-3 8 -3 19942.3 861.19 1
3 8 -3 20066.3 783.315 1
3 8 3 20129.6 877.67 2
4 8 -3 261.944 105.717 1
4 8 3 99.6023 89.4133 2
4 8 3 430.24 147.448 1
-4 8 3 103.983 103.982 1
-4 -8 -3 84.5833 126.264 4
-4 -8 3 295.781 105.558 4
4 -8 -3 414.336 190.892 4
4 -8 3 284.661 129.247 4
-4 8 -3 268.125 120.437 1
-5 -8 -3 9195.03 777.11 4
-5 -8 3 11292.3 619.318 4
5 -8 -3 9886.96 690.391 4
5 -8 3 10648.1 692.854 4
5 8 3 10122.5 639.824 1
-5 8 3 10330.9 632.212 1
-5 8 -3 10001 633.736 1
5 8 3 10899.5 668.594 2
-6 8 -3 643.952 168.011 1
6 8 3 760.195 178.575 2
6 8 3 667.416 177.578 1
-6 -8 -3 629.408 199.315 4
6 8 -3 915.305 179.397 2
-6 8 3 841.542 205.543 1
-6 -8 3 736.049 166.066 4
6 -8 -3 787.509 203.133 4
6 -8 3 1032.3 238.554 4
7 8 -3 19750.5 835.158 2
-7 -8 -3 18449.5 1227.95 4
-7 -8 3 20435.1 882.158 4
7 -8 -3 15756.8 927.472 4
7 -8 3 19184 1011.72 4
7 8 3 18225.9 888.911 1
-7 8 3 18819.4 887.442 1
-7 8 -3 18794.6 905.61 1
7 8 3 19447.3 957.159 2
-8 8 -3 1087.23 210.413 1
8 8 3 1630.24 282.412 2
8 8 3 1741 272.164 1
-8 -8 -3 1301.44 361.009 4
8 8 -3 1278.16 216.364 2
-8 8 3 1193.93 219.956 1
8 -8 -3 995.283 234.2 4
8 -8 3 1220.6 260.443 4
9 8 -3 17719.7 860.873 2
-9 -8 -3 18619.8 1344.94 4
9 -8 3 16599.9 1015.57 4
-9 8 3 16584.6 845.749 1
-9 8 -3 18059.6 914.869 1
9 8 3 18329.7 969.625 2
-10 8 -3 271.614 118.456 1
-10 -8 -3 252.789 210.9 4
10 8 3 295.635 155.53 2
10 8 -3 289.2 154.585 2
-10 8 3 217.034 100.724 1
10 -8 3 108.007 123.325 4
11 8 -3 31267.5 1253.88 2
-11 -8 -3 30995 1785.45 4
11 -8 3 29708.6 1495.75 4
-11 8 3 27759.3 1140.91 1
-11 8 -3 28418.9 1227.51 1
11 8 3 30630.3 1345.45 2
-12 8 -3 -9.48434 110.616 1
12 8 3 312.553 192.805 2
-12 -8 -3 -19.3715 159.772 4
12 8 -3 -0.18629 113.47 2
12 -8 3 121.747 159.222 4
13 8 -3 14937 899.01 2
-13 -8 -3 12420.9 1126.41 4
-13 8 -3 12927.8 835.08 1
13 -8 3 14169 1106.25 4
13 8 3 13843.7 948.048 2
-14 8 -3 289.733 185.489 1
0 9 3 381.517 158.978 1
0 -9 -3 356.29 126.069 4
0 -9 3 371.931 155.126 4
0 9 -3 431.681 134.28 1
-1 9 3 328.668 142.648 1
-1 -9 -3 354.364 164.569 4
1 -9 -3 411.344 172.464 4
-1 -9 3 420.737 132.598 4
1 -9 3 366.929 138.005 4
1 9 3 671.245 176.819 1
-1 9 -3 521.78 153.326 1
1 9 -3 250.512 84.0229 1
2 9 3 637.611 174.31 1
-2 9 3 598.23 179.187 1
-2 -9 -3 392.862 222.575 4
2 -9 -3 481.243 184.786 4
-2 -9 3 557.447 161.661 4
2 -9 3 545.775 175.662 4
-2 9 -3 580.218 163.879 1
2 9 -3 715.931 161.707 1
-3 -9 -3 7918.32 690.389 4
3 -9 -3 10181.1 729.314 4
-3 -9 3 9317.46 603.096 4
3 9 3 9394.8 629.138 1
-3 9 3 9585.64 639.389 1
3 -9 3 9791.25 675.676 4
-3 9 -3 9619.33 611.883 1
3 9 -3 9796.61 562.107 1
4 -9 3 3820.4 415.528 4
-4 -9 -3 2719.49 420.429 4
-4 9 3 3020.45 364.47 1
4 -9 -3 2976.74 396.239 4
4 9 3 3014.09 355.653 1
-4 9 -3 3373.35 363.6 1
-4 -9 3 3964.24 393.848 4
5 9 3 699.818 164.598 2
5 9 3 757.927 188.263 1
-5 -9 -3 695.013 233.107 4
-5 9 3 1166.15 240.498 1
-5 -9 3 980.137 198.224 4
5 -9 -3 773.044 190.393 4
5 -9 3 1531.78 295.517 4
-5 9 -3 1105.34 231.896 1
-6 9 3 753.745 187.733 1
6 9 3 457.298 156 2
6 9 3 345.496 142.005 1
-6 -9 -3 257.227 230.402 4
-6 -9 3 649.407 188.067 4
6 -9 -3 353.737 159.243 4
6 -9 3 14.5081 110.463 4
-6 9 -3 549.445 154.456 1
-7 9 -3 1543.69 264.937 1
7 9 3 2048.27 315.359 2
7 9 3 1535.58 266.143 1
-7 -9 -3 1869.21 416.02 4
-7 -9 3 1221.54 228.978 4
-7 9 3 1756.57 275.882 1
7 -9 -3 1467.39 293.939 4
7 -9 3 1722.02 319.069 4
-8 9 -3 1717.96 295.018 1
8 9 3 1599.48 280.733 2
-8 -9 -3 1429.29 394.589 4
8 9 -3 1358.2 229.894 2
-8 9 3 1130.82 228.696 1
8 -9 -3 1224.19 293.859 4
8 -9 3 1792.89 342.598 4
-9 9 -3 328.874 163.623 1
9 9 3 242.86 146.881 2
9 9 -3 199.045 99.9096 2
-9 9 3 154.052 118.541 1
9 -9 3 200.64 162.37 4
-10 9 -3 222.63 129.937 1
10 9 3 376.097 162.042 2
-10 -9 -3 428.485 225.158 4
10 9 -3 287.548 130.028 2
-10 9 3 195.968 123.107 1
10 -9 3 197.093 119.854 4
-11 9 -3 2949.52 392.093 1
-11 -9 -3 2757.85 520.765 4
11 9 -3 2649.53 361.925 2
11 9 3 2409.53 378.43 2
-11 9 3 2801.24 357.545 1
11 -9 3 2639.21 450.422 4
-12 9 -3 2118.6 344.203 1
12 9 3 2443.1 389.565 2
12 9 -3 2668.23 375.494 2
-12 9 3 2128.26 320.123 1
0 10 3 128.891 128.199 1
0 -10 -3 -37.1899 119.428 4
0 -10 3 52.4095 82.8387 4
0 10 -3 -9.93576 84.0872 1
-1 -10 3 3090.4 367.451 4
-1 -10 -3 2739.76 417.724 4
1 -10 -3 3185.89 430.801 4
1 -10 3 2948.3 374.998 4
1 10 3 3431.76 396.599 1
-1 10 3 3599.78 407.494 1
1 10 -3 3489.55 362.723 1
-1 10 -3 2862.52 335.113 1
2 10 3 328.123 152.702 1
-2 10 3 -50.5149 93.1689 1
-2 -10 -3 188.822 171.987 4
2 -10 -3 106.441 141.964 4
-2 -10 3 -96.7074 138.612 4
2 -10 3 -125.28 158.596 4
-2 10 -3 102.344 107.624 1
2 10 -3 149.737 91.799 1
-3 -10 -3 7310.2 702.927 4
3 -10 -3 9594.19 764.444 4
3 -10 3 9004.06 675.173 4
3 10 3 8528.57 624.319 1
-3 10 3 9397.73 670.593 1
-3 -10 3 8787.74 617.884 4
-3 10 -3 9365.98 631.585 1
4 10 3 140.887 89.8708 1
-4 -10 -3 382.808 204.051 4
-4 10 3 194.163 105.83 1
-4 -10 3 252.388 128.729 4
4 -10 -3 6.50167 144.115 4
4 -10 3 171.096 103.278 4
-4 10 -3 308.883 129.384 1
5 10 3 387.814 145.942 1
-5 -10 -3 310.843 165.783 4
-5 10 3 471.897 193.303 1
-5 -10 3 526.036 175.336 4
5 -10 -3 251.426 152.434 4
5 -10 3 420.01 175.089 4
-5 10 -3 401.522 185.236 1
6 10 3 209.25 145.473 1
-6 -10 -3 -59.8451 136.664 4
-6 -10 3 -40.77 88.8099 4
-6 10 3 -94.9396 125.704 1
6 -10 -3 -100.977 189.071 4
6 -10 3 -22.4098 137.3 4
-6 10 -3 60.7378 120.705 1
-7 -10 -3 24595.7 1498.45 4
-7 -10 3 26503.5 1152.66 4
7 -10 -3 24293.3 1322.3 4
7 -10 3 25466.2 1283.23 4
-7 10 3 28312.9 1223.08 1
-7 10 -3 27576.8 1197.7 1
-8 10 -3 809.116 225.093 1
8 10 3 603.545 201.397 2
-8 -10 -3 365.822 245.309 4
-8 10 3 1070.72 249.001 1
8 -10 -3 641.975 258.7 4
8 -10 3 980.181 279.27 4
-9 10 -3 2903.71 389.233 1
9 10 3 3408.3 430.731 2
-9 -10 -3 3343.33 590.221 4
9 -10 3 4094.98 532.894 4
-9 10 3 3626.43 428.353 1
-10 10 -3 109.865 138.108 1
10 10 3 86.2063 162.827 2
-10 -10 -3 243.806 234.234 4
-10 10 3 -86.6585 127.035 1
10 -10 3 -92.4304 155.175 4
-11 10 3 9448.25 711.56 1
11 10 3 10534.7 822.246 2
12 10 -3 321.677 183.99 2
0 11 3 82.8133 117.916 1
0 -11 -3 233.728 177.732 4
0 -11 3 150.611 149.113 4
0 11 -3 35.5142 100.799 1
1 11 3 171.272 122.43 1
-1 11 3 436.62 173.781 1
-1 -11 -3 162.955 124.295 4
1 -11 -3 400.519 215.09 4
-1 -11 3 257.949 141.994 4
1 -11 3 276.699 167.553 4
-1 11 -3 534.337 170.657 1
1 11 -3 525.754 162.771 1
2 11 3 293.98 118.221 1
-2 11 3 330.759 144.406 1
-2 -11 -3 176.721 131.763 4
2 -11 -3 507.604 217.34 4
-2 -11 3 242.832 127.639 4
2 -11 3 602.762 218.184 4
-2 11 -3 474.616 159.111 1
2 11 -3 581.383 172.478 1
3 11 3 171.49 120.008 1
-3 -11 -3 124.677 127.903 4
-3 11 3 37.702 136.844 1
3 -11 -3 197.002 161.181 4
-3 -11 3 123.801 119.141 4
3 -11 3 -49.3041 116.314 4
-3 11 -3 -12.3534 112.705 1
4 11 3 2044.39 325.604 1
-4 -11 -3 1783.04 376.853 4
-4 11 3 2283.17 344.676 1
-4 -11 3 2735.98 374.642 4
4 -11 -3 1720.62 345.199 4
4 -11 3 2406.62 387.166 4
-4 11 -3 2340.38 342.639 1
5 11 3 605.186 188.246 1
-5 -11 -3 688.355 232.483 4
-5 -11 3 710.453 213.314 4
-5 11 3 860.537 232.184 1
5 -11 3 180.976 118.687 4
5 -11 -3 802.003 286.882 4
-5 11 -3 452.186 151.654 1
6 11 3 119.062 162.446 1
-6 -11 -3 504.021 286.963 4
-6 -11 3 187.154 132.089 4
-6 11 3 -127.979 132.859 1
6 -11 -3 32.1889 157.476 4
6 -11 3 183.988 154.934 4
-6 11 -3 225.78 166.668 1
-7 11 -3 226.076 144.222 1
-7 -11 -3 -110.441 168.405 4
-7 -11 3 511.46 182.451 4
7 -11 -3 649.65 228.005 4
-7 11 3 330.991 174.735 1
7 -11 3 738.679 265.239 4
-8 -11 -3 265.542 214.498 4
-8 11 3 467.231 190.562 1
0 -12 -3 81.951 177.34 4
0 12 3 122.799 134.996 1
0 -12 3 -210.486 180.579 4
0 12 -3 133.325 122.265 1
1 12 3 28.4293 124.022 1
-1 -12 -3 387.049 186.849 4
-1 12 3 265.82 151.557 1
1 -12 -3 137.818 141.331 4
-1 -12 3 338.143 189.92 4
1 -12 3 294.522 189.974 4
-1 12 -3 314.036 147.555 1
1 12 -3 713.448 240.54 1
-2 -12 -3 1322.59 331.397 4
2 12 3 1216.49 283.127 1
-2 12 3 986.804 252.645 1
2 -12 -3 1734.99 394.151 4
-2 -12 3 1415.88 282.476 4
2 -12 3 935.279 228.958 4
-2 12 -3 1286.13 254.977 1
-3 -12 -3 3535.43 519.991 4
3 -12 -3 3424.44 522.755 4
-3 -12 3 3552.94 446.159 4
3 -12 3 3947.53 486.261 4
3 12 3 3817.29 466.378 1
-3 12 3 4413.41 502.75 1
-3 12 -3 3418.77 431.998 1
4 12 3 287.629 169.287 1
-4 -12 -3 399.107 207.369 4
-4 -12 3 159.479 145.869 4
-4 12 3 180.584 140.78 1
4 -12 -3 104.158 130.201 4
4 -12 3 125.478 116.931 4
-4 12 -3 2.82137 119.797 1
5 12 3 2737.26 392.013 1
-5 -12 3 1786.16 330.963 4
5 -12 -3 1846.18 390.656 4
-6 -12 3 299.075 160.022 4
6 -12 -3 415.269 231.407 4
7 -12 -3 4177.45 613.403 4
0 13 -3 374.997 173.353 1
-1 13 -3 401.977 173.064 1
0 0 -4 84738.6 2345.95 1
-1 0 -4 270310 5142.73 1
1 0 -4 241541 4841.75 1
-2 0 -4 17892.7 949.488 1
2 0 -4 16750.3 878.677 1
3 0 -4 86825.3 2231.42 1
-3 0 -4 75135.1 2189.29 1
4 0 -4 45742.4 1471.8 1
-4 0 4 41845.4 1248.37 3
-4 0 -4 43595.3 1554.21 1
5 0 -4 42349.9 1262.61 1
-5 0 4 43779.8 1255.94 3
-5 0 -4 43763.9 1573.03 1
-6 0 -4 -45.6039 154.492 1
-6 0 4 65.5414 70.6515 3
6 0 -4 104.995 56.5456 1
-7 0 4 64091.5 1617.44 3
-7 0 -4 60854 1950.57 1
-8 0 4 21961.9 871.304 3
8 0 4 22159.4 991.296 2
-8 0 -4 21204.4 1093.64 1
-9 0 4 42778.7 1314.04 3
9 0 4 41335.1 1389.18 2
-10 0 4 19338.3 858.551 3
10 0 4 18032.5 877.079 2
-10 0 -4 18136.5 1049.76 1
-11 0 4 7050.43 528.965 3
11 0 4 5841.81 493.817 2
-11 0 -4 5929.19 597.006 1
-12 0 -4 73.3949 124.74 1
12 0 4 -178.641 149.342 2
-12 0 4 150.073 118.404 3
13 0 4 825.064 212.326 2
-13 0 4 579.863 184.637 3
14 0 4 946.648 228.799 2
-14 0 4 1125.09 245.724 3
15 0 4 1810.28 305.984 2
-15 0 4 2055.89 331.977 3
16 0 4 105.404 140.614 2
-16 0 4 166.165 166.173 3
17 0 4 26.5359 134.834 2
0 1 -4 -13.5772 106.914 1
0 -1 -4 35.2295 109.01 1
-1 1 -4 25356.1 1024.33 1
1 1 -4 23185.1 1032.73 1
-1 -1 -4 23042.5 1084.99 1
2 1 -4 364.043 180.295 1
2 -1 -4 35.1693 23.0875 4
2 -1 -4 186.315 186.739 1
-2 -1 -4 59.7865 103.516 1
-2 1 -4 151.338 119.379 1
3 -1 -4 1404.5 227.128 1
3 1 -4 1033.62 214.685 1
-3 -1 -4 1246.91 290.985 1
-3 -1 4 1186.94 203.241 3
-3 1 4 1557.12 225.33 3
-3 1 -4 1288.04 242.465 1
-4 -1 -4 126.427 149.202 1
-4 -1 4 368.797 121.82 3
-4 1 4 208.505 93.5546 3
-4 1 -4 194.757 128.844 1
4 1 -4 134.472 98.1636 1
4 -1 -4 167.646 78.6573 1
5 1 -4 1922.2 279.114 1
-5 -1 -4 1550.6 293.234 1
-5 -1 4 1752.73 232.756 3
-5 1 4 1646.94 213.029 3
-5 1 -4 1976.71 277.703 1
6 1 -4 193.863 95.1479 1
-6 -1 -4 206.468 115.401 1
-6 1 -4 26.395 84.6192 1
-6 -1 4 311.655 119.286 3
-6 1 4 149.769 94.1499 3
-7 -1 -4 7.27969 108.782 1
7 1 -4 75.4467 46.4478 1
-7 1 -4 6.32706 91.6944 1
-7 -1 4 126.213 87.9932 3
-7 1 4 38.9178 81.3155 3
8 -1 4 391.503 163.267 2
8 1 4 196.465 101.041 2
-8 -1 -4 387.319 154.648 1
-8 1 -4 217.238 116.065 1
-8 -1 4 459.347 137.473 3
-8 1 4 358.66 143.586 3
-9 -1 4 24651.9 953.087 3
-9 1 4 23836 936.299 3
9 -1 4 23807 987.574 2
9 1 4 24155.1 1049.26 2
-9 1 -4 21861.8 1052.6 1
-9 -1 -4 22859.8 1246.12 1
10 -1 4 -175.271 137.792 2
10 1 4 101.333 94.598 2
-10 -1 -4 -16.9401 141.981 1
-10 1 -4 -119.369 137.568 1
-10 -1 4 -47.6418 76.8544 3
-10 1 4 93.7895 92.9674 3
11 -1 4 239.92 106.264 2
11 1 4 266.792 110.197 2
-11 -1 -4 250.102 206.559 1
-11 -1 4 367.577 149.451 3
-11 1 4 578.687 168.914 3
-11 1 -4 98.7363 101.058 1
12 1 4 345.012 149.237 2
12 -1 4 491.022 153.687 2
-12 -1 -4 470.598 191.688 1
-12 -1 4 487.674 155.216 3
-12 1 4 582.147 182.485 3
-12 1 -4 544.382 220.436 1
13 1 4 -8.97217 93.1767 2
13 -1 4 -111.638 142.397 2
-13 -1 4 -46.0101 100.532 3
-13 1 4 277.511 125.259 3
-13 1 -4 -158.668 168.145 1
14 1 4 308.657 172.879 2
14 -1 4 -6.67058 88.5655 2
-14 -1 4 150.399 127.824 3
-14 1 4 68.2701 104.971 3
15 1 4 86.9984 117.89 2
15 -1 4 -233.642 162.225 2
-15 -1 4 154.078 124.307 3
-15 1 4 71.9284 109.445 3
16 1 4 134.425 108.299 2
-16 -1 4 149.09 127.491 3
17 1 4 1622.17 321.052 2
0 -2 -4 84991.2 2366.31 1
0 -2 4 73096 1516.07 4
0 -2 -4 79169.9 1749.23 4
0 2 -4 68014.4 1777.65 1
-1 -2 -4 25412.8 1146.27 1
1 -2 -4 26800.7 1177.91 1
1 -2 -4 24277.3 744.776 4
-1 -2 4 24622.2 674.768 4
1 -2 4 25951 806.817 4
-1 2 -4 25346.1 938.915 1
1 2 -4 23842.2 918.297 1
2 -2 -4 3376.63 368.752 1
2 -2 -4 3493.77 211.428 4
-2 -2 4 3548.64 194.926 4
2 -2 4 3737.5 308.348 4
-2 -2 -4 3323.59 400.246 1
-2 2 -4 3501.69 337.972 1
2 2 -4 3354.27 330.673 1
-3 -2 -4 95335.8 2426.11 1
3 -2 -4 91738.6 2168.49 1
3 -2 -4 93928.8 1562.81 4
-3 -2 4 93417.6 1517.71 4
-3 -2 4 94752.5 2169.17 3
-3 2 -4 95102.8 2138.2 1
3 2 -4 95158.3 2221.37 1
-4 -2 -4 63391.8 1994.84 1
4 -2 -4 63882.3 1206.72 4
-4 -2 4 70118.6 1705.25 3
-4 2 4 67316.1 1678.7 3
-4 2 -4 70972.2 1765.89 1
4 2 -4 71190.4 1952.44 1
-5 -2 4 97955.4 2131.62 3
-5 2 4 96557.4 2118.04 3
-5 2 -4 97620.5 2252.19 1
5 2 -4 93088.5 2330.24 1
-5 -2 -4 89302.4 2520.23 1
-6 -2 4 20042.4 809.11 3
-6 2 4 20574 827.681 3
-6 2 -4 19337.4 875.594 1
-6 -2 -4 18206.8 1035.33 1
-7 2 4 4182.69 313.159 1
-7 -2 4 3859.14 346.016 3
-7 2 4 4070.9 354.988 3
-7 -2 -4 3849.44 461.341 1
7 2 4 4665.79 458.55 2
-7 2 -4 4192.02 399.368 1
-8 2 4 10839.8 494.931 1
-8 -2 4 10024.1 583.292 3
-8 2 4 11481.5 614.968 3
8 -2 4 11865.3 661.221 2
8 2 4 12333.2 753.044 2
-8 2 -4 10861.9 663.237 1
-8 -2 -4 10288.8 791.714 1
-9 -2 4 4766.17 405.624 3
-9 2 4 4771.73 399.387 3
9 -2 4 4421.93 389.077 2
-9 2 -4 4715.54 443.032 1
9 2 4 4523.25 464.646 2
-9 -2 -4 4700.54 537.285 1
10 -2 4 527.366 136.824 2
10 2 4 599.212 203.158 2
-10 2 -4 603.705 183.745 1
-10 -2 -4 485.701 187.037 1
-10 -2 4 627.443 155.96 3
-10 2 4 1194.4 222.187 3
11 -2 4 1591 230.412 2
11 2 4 1774.74 297.974 2
-11 2 -4 1434.46 264.654 1
-11 -2 -4 1485.7 316.384 1
-11 -2 4 1434.07 232.071 3
-11 2 4 1727.9 267.936 3
12 2 4 2519.19 361.477 2
12 -2 4 2368.11 298.15 2
-12 2 -4 2065.03 330.028 1
-12 -2 4 2467.93 330.469 3
-12 2 4 2679.31 346.62 3
13 2 4 2628.28 371.117 2
-13 2 4 3149.83 384.913 3
-13 2 -4 2871.22 402.39 1
-13 -2 4 2501.8 346.669 3
13 -2 4 2707.7 330.985 2
-14 -2 4 5606.08 522.343 3
-14 2 4 6494.62 564.611 3
14 2 4 5431.04 536.038 2
15 2 4 3050.28 416.664 2
-15 -2 4 3338.07 416.307 3
-15 2 4 3220.33 413.249 3
16 2 4 1030.57 269.043 2
-16 -2 4 1044.62 282.702 3
-16 2 4 1171.14 261.896 3
17 2 4 286.003 159.792 2
0 -3 -4 6.70621 103.584 1
0 -3 -4 37.9755 51.7734 4
0 3 -4 -116.24 96.8741 1
0 -3 4 -71.7855 57.9008 4
-1 -3 -4 13545.6 855.49 1
1 -3 -4 11490.4 712.816 1
-1 -3 -4 13828.8 694.891 4
1 -3 -4 12637.6 545.296 4
-1 -3 4 11788.6 459.788 4
1 -3 4 12435.7 535.867 4
-1 3 -4 11679.1 596.551 1
1 3 -4 12103.5 592.877 1
-2 -3 -4 116.824 123.761 1
2 -3 -4 282.34 74.6899 4
-2 3 -4 368.898 124.624 1
-2 -3 4 414.046 78.3319 4
2 -3 4 336.629 98.5218 4
2 3 -4 418.079 116.734 1
3 -3 -4 384.41 85.219 4
-3 3 -4 183.83 75.0956 1
-3 -3 4 286.28 62.6798 4
3 -3 4 348.748 93.9625 4
-3 -3 4 532.242 142.989 3
-3 3 4 386.515 143.314 3
3 3 -4 149.481 66.3691 1
-3 -3 -4 307.536 165.436 1
-4 3 -4 485.134 139.07 1
4 -3 -4 398.462 74.4164 4
4 -3 4 481.535 134.425 4
-4 -3 -4 606.584 198.177 1
-4 -3 4 447.534 132.206 3
-4 3 4 438.811 129.065 3
4 3 -4 572.98 132.633 1
-5 -3 -4 3936.33 434.041 1
5 -3 4 3991.48 391.329 4
-5 3 4 4098.07 337.745 1
-5 -3 4 4418.49 371.331 3
-5 3 4 4514.7 358.943 3
-5 3 -4 4380.1 377.098 1
5 3 -4 4152.46 381.121 1
-6 3 4 189.665 93.955 1
6 3 -4 39.6597 104.428 1
-6 -3 -4 249.606 131.657 1
-6 3 -4 228.452 122.653 1
-6 -3 4 215.289 86.8814 3
-6 3 4 296.882 113.545 3
7 3 4 59.0789 114.098 2
-7 3 4 93.1078 53.5241 1
-7 -3 -4 116.066 142.062 1
-7 3 -4 128.667 130.944 1
-7 -3 4 15.0265 73.0707 3
-7 3 4 28.1525 61.7983 3
8 -3 4 -31.0457 88.2271 2
8 3 4 1.97104 116.779 2
-8 -3 -4 -72.9629 90.237 1
-8 3 4 -8.83968 64.9028 1
-8 3 -4 -37.2925 93.9928 1
-8 -3 4 -57.2403 80.8346 3
-8 3 4 120.438 85.0914 3
-9 -3 4 15983.7 767.629 3
-9 3 4 16108.5 769.24 3
-9 3 -4 15422.2 805.303 1
9 -3 4 16064.5 731.368 2
9 3 4 16051.9 892.466 2
10 -3 4 -67.4519 65.0657 2
10 3 4 -23.8863 103.413 2
-10 -3 -4 -58.4047 129.845 1
-10 3 -4 -196.976 137.037 1
-10 -3 4 -30.8396 87.461 3
-10 3 4 114.319 111.703 3
11 3 4 833.075 207.295 2
-11 -3 -4 709.151 202.801 1
-11 3 -4 740.341 191.509 1
-11 -3 4 751.015 190.5 3
-11 3 4 866.806 210.308 3
12 3 4 1129.63 261.726 2
-12 3 -4 959.564 219.209 1
-12 -3 4 1013.3 225.236 3
-12 3 4 668.048 158.084 3
13 3 4 651.381 198.023 2
-13 3 -4 367.459 159.157 1
-13 -3 4 274.912 165.717 3
-13 3 4 101.541 88.397 3
14 3 4 324.347 180.601 2
-14 3 -4 263.937 160.267 1
-14 -3 4 196.028 153.729 3
-14 3 4 74.9716 120.177 3
15 3 4 -9.28129 113.092 2
-15 -3 4 146.36 125.549 3
-15 3 4 -28.9003 98.0636 3
16 3 4 130.205 132.148 2
-16 -3 4 123.229 121.406 3
-16 3 4 62.8406 111.516 3
0 -4 -4 65580.5 1673.53 4
0 -4 4 69300.1 1502.35 4
0 4 -4 66139.4 1621.81 1
-1 -4 -4 194344 4035.33 1
-1 -4 -4 196107 3785.53 4
1 -4 -4 192664 3540.64 4
-1 -4 4 202896 3332.17 4
1 -4 4 193271 3448.5 4
-1 4 -4 195756 3571.36 1
1 4 -4 196603 3532 1
-2 -4 -4 10751.4 744.034 1
-2 -4 -4 12880.7 752.602 4
2 -4 -4 10903.5 519.395 4
-2 -4 4 10984.9 454.889 4
2 -4 4 11568.3 562.018 4
-2 4 -4 11471.4 594.458 1
2 4 -4 10876.7 549.256 1
-3 -4 -4 60027.9 1832.82 4
-3 -4 -4 56306.8 1920.47 1
3 -4 -4 50788.7 1278.88 4
-3 -4 4 53065.6 1171.45 4
3 -4 4 53568.7 1450.25 4
-3 4 -4 58320.7 1501.62 1
3 4 -4 52759.1 1363.03 1
-4 -4 -4 31380.8 1426.06 1
4 -4 -4 26310.7 838.435 4
4 -4 4 28106.6 1028.95 4
-4 4 4 28247.8 996.849 1
-4 -4 4 28352.7 1060.47 3
-4 4 4 27576.7 1009.32 3
-4 4 -4 28173.9 1004.8 1
4 4 -4 27718.5 913.402 1
-5 -4 -4 30139.9 1402.82 1
5 -4 4 31558.6 1156.04 4
-5 4 4 32042.1 1057.53 1
-5 -4 4 30553.5 1072.08 3
-5 4 4 31211.2 1051.88 3
-5 4 -4 32093.8 1091.44 1
5 4 -4 29732.7 980.789 1
6 4 4 -5.21346 129.494 2
-6 4 4 -29.8184 70.6428 1
-6 4 -4 124.982 103.798 1
-6 -4 -4 183.185 146.821 1
6 -4 4 -54.9736 113.966 4
-6 -4 4 142.405 93.3723 3
-6 4 4 34.4249 66.7019 3
-7 -4 -4 40450.1 1606.17 1
7 -4 4 45837 1574.65 4
-7 4 4 46245 1279.82 1
-7 -4 4 45484.8 1363.12 3
-7 4 4 45601.3 1347 3
-7 4 -4 45894.6 1408.36 1
7 4 4 46354.8 1610.82 2
-8 -4 -4 13175.8 863.295 1
-8 4 4 14840.6 663.668 1
-8 -4 4 15336.7 744.915 3
-8 4 4 14915.8 718.004 3
-8 4 -4 15570.5 791.26 1
8 -4 4 15549 692.814 2
8 4 4 16307.2 928.793 2
-9 4 4 29877.5 969.494 1
-9 -4 4 29044.2 1080.72 3
-9 4 4 30513.2 1093.58 3
-9 4 -4 28051.2 1129.15 1
9 4 4 29772.5 1281.3 2
-10 -4 -4 11282.3 784.867 1
-10 -4 4 13533.1 732.079 3
-10 4 4 13808.6 731.409 3
-10 4 -4 13159.7 765.108 1
10 4 4 14171.2 863.757 2
-11 -4 4 4884.36 451.471 3
-11 4 4 4957.15 445.635 3
-11 4 -4 4752.92 468.206 1
11 4 4 4447.31 482.906 2
12 4 4 39.1565 117.059 2
-12 4 -4 79.8956 79.0261 1
-12 -4 4 -121.65 133.995 3
-12 4 4 168.407 135.668 3
13 4 4 49.7668 121.221 2
13 4 -4 433.074 156.587 2
-13 4 -4 329.012 165.495 1
-13 -4 4 55.8792 104.15 3
-13 4 4 275.56 128.25 3
14 4 -4 654.583 197.316 2
-14 4 -4 564.331 185.813 1
-14 -4 4 766.884 202.037 3
-14 4 4 832.063 216.235 3
14 4 4 938.398 261.045 2
15 4 4 873.071 232.579 2
15 4 -4 1602.11 291.06 2
-15 -4 4 1670.93 325.908 3
-15 4 4 1161.88 253.045 3
-16 -4 4 193.834 156.068 3
-16 4 4 157.119 131.044 3
0 5 -4 15.2321 72.7582 1
0 -5 -4 -25.3713 98.1935 4
0 -5 4 9.90257 71.8796 4
-1 -5 -4 19500 899.354 4
1 -5 -4 19045.1 819.316 4
-1 -5 4 20985.2 720.57 4
1 -5 4 18156.3 728.395 4
-1 5 -4 20439.6 810.701 1
1 5 -4 21570.5 799.54 1
-2 5 -4 115.049 70.3338 1
2 5 -4 90.453 66.6711 1
-2 -5 -4 -87.3135 96.8726 4
2 -5 -4 -7.82924 73.3613 4
-2 5 4 62.1564 107.078 1
-2 -5 4 48.8202 59.5257 4
2 -5 4 27.9692 66.2537 4
-3 5 4 1839.94 248.46 1
-3 -5 4 2041.4 204.555 4
-3 5 -4 1862.97 241.803 1
-3 -5 -4 1454.32 272.802 4
3 5 -4 1467.88 196.913 1
3 -5 -4 1564.76 211.141 4
3 -5 4 1573.38 228.382 4
-4 5 4 193.642 102.647 1
-4 5 -4 17.9378 81.498 1
-4 -5 -4 49.2662 114.453 4
4 5 -4 -17.0691 47.1515 1
4 -5 -4 -41.9171 75.5591 4
-4 -5 4 43.2327 47.3404 4
4 -5 4 9.03663 69.6919 4
-4 -5 4 80.2273 83.8836 3
-4 5 4 -150.036 117.12 3
-5 5 4 171.562 88.7484 1
-5 5 -4 230.577 134.188 1
-5 -5 -4 -68.1386 113.958 4
5 -5 -4 83.3719 62.6065 4
5 5 -4 57.7235 52.3667 1
5 -5 4 168.589 112.011 4
-5 -5 4 179.835 105.913 3
-5 5 4 -44.7609 78.3445 3
-5 -5 -4 147.077 116.05 1
5 5 4 122.712 110.451 2
-6 -5 -4 -168.223 152.748 1
6 5 4 85.9371 128.291 2
-6 5 4 -49.7539 66.8862 1
-6 5 -4 -102.797 98.997 1
6 -5 4 28.439 96.434 4
-6 -5 4 -71.0494 89.1238 3
-6 5 4 -48.4424 74.4285 3
7 5 4 47.8194 130.415 2
-7 5 -4 -112.618 118.963 1
-7 5 4 -47.7674 87.5505 1
-7 -5 -4 362.568 139.242 1
7 -5 4 123.232 129.552 4
-7 -5 4 -36.864 79.7191 3
-7 5 4 2.37144 70.2951 3
-8 -5 -4 722.663 258.558 1
8 5 4 834.994 229.001 2
-8 5 -4 679.097 163.975 1
-8 5 4 509.074 135.508 1
8 -5 4 480.213 180.061 4
-8 -5 4 629.526 149.998 3
-8 5 4 521.104 156.175 3
-9 -5 -4 17487.2 1086.34 1
9 -5 4 18090.8 1049.83 4
-9 5 4 18817.6 795.352 1
-9 -5 4 18838.1 867.762 3
-9 5 4 19286.4 857.477 3
-9 5 -4 18049.1 896.521 1
9 5 4 18767.5 1010.64 2
10 5 4 -128.403 116.59 2
-10 5 -4 82.6927 127.089 1
-10 -5 4 85.4375 110.034 3
-10 5 4 -13.2459 99.4008 3
-10 -5 -4 150.957 132.72 1
11 5 4 21.2781 125.222 2
-11 5 -4 98.7587 115.507 1
-11 -5 4 109.83 87.7552 3
-11 5 4 -3.68095 105.721 3
12 5 4 263.162 147.519 2
-12 5 -4 332.163 162.535 1
12 5 -4 487.674 169.923 2
-12 -5 4 176.33 125.829 3
-12 5 4 42.8359 107.628 3
-13 5 -4 -26.5302 107.165 1
13 5 -4 92.8212 125.228 2
-13 -5 4 29.1962 91.7947 3
-13 5 4 82.9122 124.103 3
14 5 -4 78.158 100.45 2
-14 5 -4 57.7259 106.13 1
14 5 4 -150.705 181.721 2
-14 -5 4 -7.75205 126.401 3
-14 5 4 7.51648 98.7012 3
15 5 4 277.033 159.392 2
15 5 -4 166.152 154.633 2
-15 -5 4 285.312 150.636 3
-15 5 4 7.56833 147.368 3
-16 -5 4 195.463 150.384 3
-16 5 4 35.2213 143.839 3
0 -6 -4 32584.7 1229.47 4
0 -6 4 33931.1 1060.07 4
0 6 4 31335.2 1207.76 1
0 6 -4 34071.7 1083.55 1
-1 -6 -4 11251.2 721.329 4
1 -6 -4 11512.6 665.993 4
-1 -6 4 12132.8 574.097 4
1 -6 4 12322.3 615.21 4
-1 6 4 11210.3 674.645 1
-1 6 -4 11417.4 605.744 1
1 6 -4 12864.2 614.494 1
-2 6 4 1346.51 232.776 1
-2 6 -4 1542.94 225.52 1
2 6 -4 1720.82 220.682 1
-2 -6 -4 1351.31 261.501 4
2 -6 -4 1426.49 221.821 4
-2 -6 4 1716.24 208.067 4
2 -6 4 1693.51 238.749 4
-3 -6 4 52912.8 1314.06 4
-3 -6 -4 50703.9 1774.06 4
3 -6 -4 51113.3 1517.1 4
3 -6 4 50948.7 1480.08 4
-3 6 4 50732.2 1530.61 1
-3 6 -4 51160.5 1465.84 1
3 6 -4 51489.4 1366.42 1
-4 -6 -4 40748 1621.69 4
4 -6 -4 35259.3 1204.25 4
-4 -6 4 36310.9 1039 4
4 -6 4 34599 1228.09 4
-4 6 4 37538.4 1255.88 1
-4 6 -4 37065.8 1217.15 1
4 6 -4 38535.6 1115.11 1
4 6 4 36602.8 1412.42 2
-5 -6 -4 56623.4 2030.8 4
5 -6 -4 48769.4 1478.1 4
5 -6 4 52838 1600.45 4
-5 6 4 48158.8 1476.67 1
-5 -6 4 49238.4 1560.09 3
-5 6 4 47725.4 1467.5 3
-5 6 -4 53711.4 1537.37 1
5 6 4 53584.4 1762.39 2
-6 -6 -4 10781.3 833.905 4
6 -6 4 9459.02 647.508 4
-6 6 4 9004.25 581.443 1
-6 -6 4 9339.8 597.188 3
-6 6 4 9857 585.094 3
-6 6 -4 10018 622.05 1
6 6 4 10498.6 744.731 2
7 6 4 2247.8 352.779 2
-7 6 -4 2093.57 299.111 1
-7 6 4 2591.07 301.688 1
-7 -6 -4 1729.02 341.919 4
7 -6 4 2305.38 342.955 4
-7 -6 4 2131.43 281.183 3
-7 6 4 2157.57 267.981 3
-8 -6 -4 6008.39 618.161 4
8 -6 4 5713.89 557.159 4
-8 6 4 5501.1 445.903 1
-8 -6 4 5257.7 443.598 3
-8 6 4 5745.05 457.51 3
-8 6 -4 5261.29 470.673 1
8 6 4 5759.56 568.368 2
9 6 4 2244.62 359.644 2
-9 6 -4 2103.45 305.513 1
-9 6 4 1944.87 257.22 1
-9 -6 -4 1778.94 363.529 4
9 -6 4 2550.24 400.72 4
-9 -6 4 2053.85 279.61 3
-9 6 4 2154.42 296.689 3
10 6 4 326.229 184.273 2
-10 6 -4 79.7001 121.394 1
-10 6 4 408.513 126.991 1
10 -6 4 455.816 192.529 4
-10 -6 4 181.409 109.714 3
-10 6 4 407.535 145.194 3
11 6 4 985.098 240.111 2
-11 6 -4 696.231 196.621 1
11 6 -4 637.968 185.367 2
-11 -6 4 720.263 176.304 3
-11 6 4 650.785 180.986 3
12 6 4 1249.28 287.955 2
-12 6 -4 1588.38 299.622 1
12 6 -4 1738.13 286.337 2
-12 -6 4 1412.07 269.414 3
-12 6 4 1515.03 269.207 3
-13 6 -4 1719.24 301.96 1
13 6 4 1593.24 355.979 2
13 6 -4 1597.97 306.608 2
-13 6 4 1720.19 296.814 3
14 6 -4 3165.94 430.608 2
14 6 4 3566.17 483.916 2
-14 6 -4 2827.49 414.16 1
-14 6 4 2626.32 366.758 3
-15 6 -4 1554.14 309.28 1
-15 6 4 1792.18 314.698 3
0 7 -4 49.7687 68.1398 1
0 7 4 -128.954 132.798 1
0 -7 -4 44.3279 122.366 4
0 -7 4 57.7979 84.2529 4
1 7 4 2954.05 351.785 1
-1 7 4 2819.08 347.947 1
-1 -7 4 2951.53 301.596 4
1 -7 4 2604.84 295.542 4
-1 -7 -4 2582.57 349.813 4
1 -7 -4 2077.09 317.293 4
-1 7 -4 2711.56 304.945 1
1 7 -4 2941.25 302.143 1
2 7 4 260.894 132.235 1
-2 7 -4 474.028 145.169 1
2 7 -4 559.03 134.105 1
-2 7 4 745.555 202.007 1
-2 -7 -4 443.648 172.185 4
2 -7 -4 351.551 131.728 4
-2 -7 4 293.017 105.983 4
2 -7 4 261.464 114.096 4
3 7 4 69.1162 131.134 2
3 7 4 16.5605 93.698 1
-3 7 -4 22.7227 82.945 1
3 7 -4 -61.5716 83.6003 1
-3 7 4 97.6991 113.271 1
-3 -7 -4 175.705 131.537 4
3 -7 -4 52.0554 112.963 4
-3 -7 4 67.4331 65.1282 4
3 -7 4 31.9 85.6913 4
4 7 4 306.862 153.11 2
-4 7 -4 588.918 163.556 1
4 7 -4 447.585 124.566 1
-4 7 4 462.242 147.868 1
-4 -7 -4 548.736 212.216 4
4 7 4 219.69 138.784 1
4 -7 -4 440.138 153.797 4
-4 -7 4 386.901 120.636 4
4 -7 4 491.369 139.316 4
-5 -7 -4 4650.87 573.259 4
5 -7 -4 3823.39 400.368 4
5 -7 4 4078.71 423.06 4
-5 7 4 4026.32 393.979 1
-5 7 -4 4189.75 408.426 1
5 7 4 4692.71 509.85 2
6 7 4 205.171 156.479 2
-6 7 -4 241.439 137.168 1
-6 7 4 201.314 117.554 1
-6 -7 -4 68.7975 121.204 4
6 -7 4 23.7933 92.4636 4
7 7 4 180.71 114.434 2
-7 7 -4 401.697 155.245 1
-7 -7 -4 -140.938 161.982 4
-7 7 4 93.4647 92.6176 1
7 -7 4 -79.8525 104.025 4
8 7 4 -194.927 152.592 2
-8 7 -4 -106.783 130.105 1
-8 -7 -4 -64.3072 129.818 4
-8 7 4 -141.828 113.999 1
8 -7 4 54.9192 140.055 4
9 -7 4 5306.75 557.085 4
-9 -7 -4 4893.09 593.44 4
-9 7 4 5545.95 474.775 1
-9 7 -4 5739.28 517.144 1
9 7 4 5516.38 560.719 2
10 7 4 169.835 186.743 2
-10 7 -4 -135.298 153.11 1
-10 -7 -4 -51.8607 149.259 4
-10 7 4 -104.714 107.217 1
10 -7 4 -218.982 217.339 4
11 7 4 938.846 242.483 2
-11 7 -4 677.693 222.848 1
-11 -7 -4 798.412 266.185 4
11 -7 4 455.858 213.249 4
12 7 4 1212.8 297.166 2
-12 7 -4 1028.19 258.307 1
-12 -7 -4 984.25 303.691 4
12 7 -4 1307.09 259.493 2
13 7 4 70.0928 137.166 2
-13 7 -4 101.48 138.613 1
-13 -7 -4 173.022 150.572 4
13 7 -4 352.378 134.096 2
-14 7 -4 10.7306 86.6279 1
0 -8 -4 25197.8 1176.34 4
0 -8 4 27558.2 1050.31 4
0 8 4 24782 1102.18 1
0 8 -4 25390.8 994.313 1
-1 -8 -4 71282.7 2224.56 4
1 -8 -4 73510 2178.32 4
-1 -8 4 78105.5 1938.06 4
1 -8 4 79418.7 2022.43 4
1 8 4 74105.9 2109.88 1
-1 8 4 75883 2092.54 1
-1 8 -4 78604.8 1973.28 1
1 8 -4 79780 1941.49 1
1 8 4 71318.4 2093.35 2
-2 -8 -4 4328.04 491.016 4
2 -8 -4 4114.08 445.23 4
-2 -8 4 4416.24 383.035 4
2 -8 4 4158.25 401.011 4
2 8 4 4021.63 435.077 1
-2 8 4 4338.34 437.428 1
-2 8 -4 4409.87 403.961 1
2 8 -4 4239.96 374.664 1
2 8 4 4227.66 457.903 2
-3 -8 -4 18720.7 1093.55 4
3 -8 -4 19653.5 1017.6 4
-3 -8 4 20338.6 847.223 4
3 -8 4 22333.9 993.543 4
3 8 4 19923.8 1011.97 1
-3 8 4 19760.9 965.2 1
-3 8 -4 21385.8 943.97 1
3 8 -4 21699.5 879.733 1
3 8 4 20550.8 1053.53 2
-4 -8 -4 9725.32 812.644 4
4 -8 -4 9882.74 713.614 4
-4 -8 4 10294.5 587.662 4
4 -8 4 9961.28 674.283 4
4 8 4 9441.97 690.161 1
-4 8 4 9367.61 651.968 1
-4 8 -4 10727.7 659.372 1
4 8 4 10632.4 765.759 2
-5 -8 -4 10992.3 898.229 4
5 -8 -4 9922.42 709.27 4
5 -8 4 11105 729.279 4
5 8 4 10293.5 738.869 1
-5 8 4 10938 694.265 1
-5 8 -4 11057.4 691.812 1
5 8 4 11403.6 792.248 2
6 8 4 69.1297 103.595 2
-6 8 -4 225.389 125.025 1
6 8 4 13.0095 97.4366 1
-6 8 4 98.0941 92.3008 1
-6 -8 -4 -40.0748 181.882 4
6 -8 4 218.995 163.156 4
-7 -8 -4 20077.6 1271.18 4
7 -8 4 20273.4 1067.07 4
7 8 4 18305.8 1011.32 1
-7 8 4 19124.7 941.741 1
-7 8 -4 20055.8 992.618 1
7 8 4 18565.8 1042.47 2
-8 -8 -4 5793.74 686.099 4
8 -8 4 6295.48 610.514 4
8 8 4 5132.36 534.307 1
-8 8 4 5765.22 514.414 1
-8 8 -4 7075.9 580.924 1
8 8 4 6286.71 613.566 2
-9 -8 -4 10834.6 934.211 4
9 -8 4 11873.9 874.596 4
-9 8 4 10501.3 701.801 1
-9 8 -4 12728.6 803.972 1
9 8 4 12567.5 888.316 2
10 -8 4 5421.99 605.122 4
-10 -8 -4 4917.69 637.48 4
-10 8 4 5799.08 512.875 1
-10 8 -4 5843.44 557.617 1
10 8 4 6101.26 617.977 2
11 8 4 2371.63 422.199 2
-11 8 -4 2126.16 343.04 1
-11 -8 -4 2389.16 482.132 4
-11 8 4 1806.47 288.822 1
11 -8 4 2364.36 417.268 4
12 8 4 155.969 135.239 2
-12 8 -4 -69.3257 118.28 1
-12 -8 -4 -249.005 219.44 4
12 -8 4 212.905 204.395 4
0 9 -4 -9.74363 87.3184 1
0 9 4 33.3478 85.3839 1
0 -9 -4 49.1556 140.58 4
0 -9 4 -118.351 125.168 4
1 -9 4 10278.3 674.404 4
-1 -9 -4 9215.31 747.921 4
1 -9 -4 10574.7 789.907 4
-1 -9 4 10029.7 630.513 4
1 9 4 9518.37 684.255 1
-1 9 4 10757.2 724.887 1
-1 9 -4 10757.3 666.892 1
1 9 -4 11352.6 659.498 1
-2 9 -4 94.4615 84.9646 1
2 9 -4 -56.4829 98.1327 1
2 9 4 -43.1561 106.338 1
-2 9 4 -10.5756 101.826 1
-2 -9 -4 -12.9899 105.46 4
2 -9 -4 58.1822 110.571 4
-2 -9 4 -66.5303 96.2147 4
2 -9 4 109.864 123.544 4
-3 9 -4 1053.63 230.785 1
3 9 4 1143.75 258.327 1
-3 9 4 831.389 223.18 1
-3 -9 -4 760.636 244.267 4
3 -9 -4 944.291 240.96 4
-3 -9 4 1081.15 207.866 4
3 -9 4 582.137 166.887 4
-4 9 -4 187.669 111.468 1
4 9 4 -133.881 133.379 2
4 9 4 -127.196 104.74 1
-4 9 4 -33.206 108.864 1
-4 -9 -4 -333.962 222.772 4
4 -9 -4 -45.8881 114.493 4
4 -9 4 -120.554 127.043 4
-5 9 -4 176.387 139.337 1
5 9 4 -65.9481 105.905 2
5 9 4 118.06 127.23 1
-5 9 4 308.338 153.536 1
-5 -9 -4 -5.20013 136.227 4
5 -9 4 15.2973 107.256 4
-6 9 -4 -49.5191 108.237 1
6 9 4 152.712 131.776 2
6 9 4 116.028 107.246 1
-6 -9 -4 -71.6608 189.776 4
-6 9 4 274.667 161.828 1
6 -9 4 -179.186 148.18 4
-7 9 -4 -79.08 116.169 1
7 9 4 -85.2478 162.916 2
7 9 4 112.019 134.232 1
-7 -9 -4 97.3798 138.384 4
-7 9 4 38.4265 107.331 1
7 -9 4 21.4909 113.709 4
-8 9 -4 590.091 221.197 1
8 9 4 746.517 241.622 2
8 9 4 192.692 105.571 1
-8 -9 -4 497.417 188.826 4
-8 9 4 334.44 129.381 1
8 -9 4 528.596 208.579 4
-9 -9 -4 8754.56 875.016 4
9 -9 4 9015.53 787.151 4
-9 9 4 8578.04 664.259 1
-9 9 -4 8950.7 699.931 1
9 9 4 8848.06 756.956 2
10 9 4 -115.085 177.247 2
-10 9 -4 83.041 145.872 1
-10 -9 -4 -249.843 207.052 4
-10 9 4 6.16991 113.344 1
10 -9 4 -50.3126 141.48 4
11 9 4 82.7348 112.173 2
-11 9 4 -253.651 189.804 1
0 -10 -4 8047.55 731.881 4
0 -10 4 9188.75 661.644 4
0 10 4 9065.15 693.141 1
0 10 -4 10014.8 661.662 1
1 -10 4 3018.1 383.496 4
1 10 4 2862.88 400.109 1
-1 10 4 3033.68 403.001 1
-1 -10 -4 2398.21 416.222 4
1 -10 -4 2999.11 443.054 4
-1 -10 4 2620.73 347.339 4
-1 10 -4 2905.29 362.71 1
1 10 -4 3206.76 370.771 1
-2 10 -4 391.788 154.341 1
2 10 -4 666.504 183.081 1
2 10 4 487.222 180.394 1
-2 10 4 667.622 228.65 1
-2 -10 -4 764.116 253.586 4
2 -10 -4 428.554 174.302 4
-2 -10 4 518.227 172.628 4
2 -10 4 495.713 184.934 4
-3 -10 -4 13132.1 997.293 4
3 -10 -4 13869 956.003 4
-3 -10 4 15720.9 826.739 4
3 -10 4 15158.1 905.055 4
3 10 4 14386.6 897.488 1
-3 10 4 14384.2 888.069 1
-3 10 -4 16205.1 893.579 1
-4 -10 -4 9160.07 837.747 4
4 -10 -4 9746.75 803.092 4
4 -10 4 10716.8 773.418 4
4 10 4 10502.7 771.135 1
-4 10 4 10836.6 775.808 1
-4 10 -4 10890.9 739.432 1
-5 -10 -4 14880.3 1119.26 4
5 -10 4 17251.9 1005.18 4
5 10 4 14242.5 903.646 1
-5 10 4 15306.4 932.342 1
-5 10 -4 14459 879.597 1
-6 10 -4 3458.73 422.923 1
6 10 4 3125.53 426.948 1
-6 -10 -4 3156.99 544.887 4
-6 10 4 3492.8 438.087 1
6 -10 4 3287.4 456.77 4
-7 10 -4 611.585 211.49 1
7 10 4 722.863 205.45 1
-7 -10 -4 1247.93 385.559 4
-7 10 4 742.805 217.518 1
7 -10 4 564.713 223.912 4
-8 10 -4 1699.22 316.862 1
8 10 4 1488.74 325.356 2
-8 -10 -4 1562.5 401.723 4
-8 10 4 1602.63 311.384 1
8 -10 4 1450.36 319.753 4
9 10 4 692.858 242.51 2
-9 -10 -4 582.585 297.284 4
-9 10 4 571.176 180.405 1
9 -10 4 506.446 196.223 4
10 10 4 243.068 147.687 2
-10 10 4 -15.0284 99.4903 1
0 11 -4 34.4453 91.0875 1
0 11 4 -12.8313 146.94 1
0 -11 -4 -33.0699 141.465 4
0 -11 4 -178.163 161.611 4
-1 11 -4 528.743 169.697 1
1 11 -4 216.661 147.645 1
1 11 4 422.926 163.958 1
-1 11 4 392.933 207.628 1
-1 -11 -4 532.911 209.987 4
1 -11 -4 407.29 227.082 4
-1 -11 4 581.049 180.691 4
1 -11 4 421.319 182.052 4
-2 11 -4 404.789 180.078 1
2 11 4 395.768 203.117 1
-2 11 4 525.531 208.505 1
-2 -11 -4 212.227 163.883 4
2 -11 -4 -74.4498 142.659 4
-2 -11 4 9.81978 89.8784 4
2 -11 4 84.8952 115.278 4
-3 11 -4 -15.5793 88.2332 1
3 11 4 -129.189 158.483 1
-3 11 4 -14.0942 108.206 1
-3 -11 -4 -123.447 130.732 4
3 -11 -4 -97.971 138.548 4
-3 -11 4 176.257 162.583 4
3 -11 4 94.4069 121.679 4
-4 11 -4 157.49 103.027 1
4 11 4 494.809 202.135 1
-4 -11 -4 295.394 216.993 4
-4 11 4 250.454 171.483 1
4 -11 -4 64.4573 138.853 4
4 -11 4 -35.0164 145.748 4
-5 11 -4 2698.52 387.823 1
5 11 4 1895.98 331.401 1
-5 -11 -4 1754.01 418.382 4
-5 11 4 2163.2 366.951 1
5 -11 4 1746.85 339.712 4
-6 11 -4 21.1712 130.981 1
6 11 4 -29.892 148.104 1
-6 -11 -4 -165.13 188.284 4
-6 11 4 28.5235 113.759 1
6 -11 4 339.838 178.764 4
0 -12 4 5903.17 585.483 4
0 -12 -4 4643.53 627.86 4
0 12 -4 6117.52 591.062 1
-1 -12 -4 16923.9 1191.33 4
1 -12 -4 17165.9 1185.51 4
-1 -12 4 18698.8 1055.05 4
1 -12 4 18514.1 1069.81 4
1 12 4 18669.1 1105.74 1
-1 12 -4 18508.1 1036.3 1
-2 12 -4 1412.4 299.35 1
2 12 4 1516.23 338.744 1
-2 -12 -4 904.238 317.033 4
2 -12 -4 1041.89 308.934 4
-2 -12 4 1255.35 293.096 4
2 -12 4 1038.72 276.479 4
-3 -12 4 4200.26 479.241 4
-3 -12 -4 4042 596.28 4
3 -12 -4 4280.7 589.956 4
3 12 4 4945.76 555.841 1
-3 12 -4 4917.22 535.221 1
4 12 4 1895.26 368.82 1
5 12 4 2394.18 393.268 1
0 0 -5 78.6309 125.806 1
-1 0 -5 7470.32 652.772 1
1 0 -5 7517.66 625.884 1
2 0 -5 13271.6 791.401 1
-2 0 -5 14746.8 945.285 1
3 0 -5 1111.08 235.597 1
-3 0 -5 1370.18 301.566 1
4 0 -5 16241.9 892.673 1
-4 0 5 14735.5 795.892 3
-4 0 -5 14743.3 954.72 1
5 0 -5 14129.1 808.36 1
-5 0 5 12955 735.344 3
-5 0 -5 13995 924.91 1
6 0 -5 15905.8 797.917 1
-6 0 5 16658.8 810.242 3
-6 0 -5 15753.9 1023.7 1
-7 0 -5 4495.55 531.201 1
-7 0 5 5145.67 444.962 3
-8 0 5 87180.2 2196.37 3
-8 0 -5 80935.7 2566.77 1
-9 0 5 18006.5 889.213 3
9 0 5 16086.1 920.742 2
-9 0 -5 16617.4 1086.32 1
10 0 5 707.198 211.783 2
-10 0 -5 819.352 255.29 1
-10 0 5 1143.12 234.256 3
-11 0 5 10238.9 690.27 3
11 0 5 10341.4 739.899 2
-11 0 -5 9090.01 812.298 1
-12 0 5 27334.9 1187.21 3
12 0 5 26714.1 1240.84 2
13 0 5 3499.16 454.131 2
-13 0 -5 3082.12 491.002 1
-13 0 5 4036.85 456.603 3
14 0 5 562.151 194.134 2
-14 0 5 233.864 162.953 3
-15 0 5 6290.06 607.582 3
15 0 5 5692.33 588.766 2
16 0 5 19104.7 1107.26 2
17 0 5 90.1488 179.469 2
0 1 -5 931.806 204.769 1
0 -1 -5 901.089 205.638 1
1 -1 -5 7363.12 580.752 1
-1 1 -5 7297.92 619.394 1
1 1 -5 7328.27 642.267 1
-1 -1 -5 7351.57 606.58 1
2 -1 -5 12422.9 776.942 1
-2 1 -5 12560.2 812.915 1
2 1 -5 10531.2 735.088 1
-2 -1 -5 11398.3 801.507 1
-3 -1 -5 285.349 187.664 1
3 1 -5 22.0051 132.771 1
3 -1 -5 336.792 184.055 1
-3 1 -5 156.153 118.169 1
4 -1 -5 895.576 228.851 1
-4 -1 -5 462.344 169.442 1
-4 -1 5 591.901 164.251 3
-4 1 5 620.575 180.502 3
4 1 -5 583.692 174.55 1
-4 1 -5 593.765 195.313 1
5 1 -5 447.61 172.542 1
-5 -1 -5 546.451 182.873 1
-5 -1 5 410.973 157.922 3
-5 1 5 288.863 143.922 3
5 -1 -5 369.619 117.079 1
-5 1 -5 264.201 173.646 1
6 1 -5 7026.79 554.815 1
-6 -1 5 6000.44 478.471 3
-6 1 5 5624.31 465.601 3
-6 1 -5 6417.4 588.416 1
-7 -1 5 9518.52 609.915 3
-7 1 5 10329.1 639.043 3
-7 1 -5 9916.92 746.393 1
-7 -1 -5 9256.85 792.706 1
-8 -1 -5 612.073 241.206 1
-8 -1 5 452.006 169.314 3
-8 1 5 706.857 177.697 3
-8 1 -5 277.345 143.421 1
9 -1 5 2900.82 383.12 2
9 1 5 2545.38 362.537 2
-9 -1 -5 2586.71 420.729 1
-9 -1 5 2638.21 332.778 3
-9 1 5 2664.95 335.914 3
-9 1 -5 2575.12 400.59 1
10 -1 5 537.275 188.507 2
10 1 5 300.22 164.107 2
-10 -1 -5 480.417 183.499 1
-10 -1 5 616.214 197.046 3
-10 1 5 494.166 151.664 3
-10 1 -5 557.786 220.365 1
11 -1 5 -196.281 150.585 2
11 1 5 114.621 116.416 2
-11 -1 -5 -84.7338 111.472 1
-11 -1 5 17.2198 113.659 3
-11 1 5 -10.7973 109.606 3
-11 1 -5 10.0281 120.87 1
12 -1 5 1581.13 288.821 2
12 1 5 1655.05 324.143 2
-12 -1 -5 2210.17 405.996 1
-12 -1 5 1826.15 297.865 3
-12 1 5 2052.43 321.956 3
-12 1 -5 1948.49 382.145 1
-13 1 -5 1046.88 291.289 1
13 1 5 1010.65 267.983 2
13 -1 5 1011.23 239.848 2
-13 -1 5 883.884 232.536 3
-13 1 5 1103.91 255.435 3
14 1 5 -48.6556 135.439 2
14 -1 5 -78.6542 161.623 2
-14 -1 5 237.301 173.288 3
-14 1 5 48.1433 108.644 3
15 1 5 2342.95 386.314 2
15 -1 5 1581.37 290.565 2
-15 -1 5 1999.47 339.984 3
-15 1 5 2330.88 379.565 3
16 1 5 368.936 179.684 2
0 -2 -5 44.1344 58.0314 4
0 -2 -5 -126.614 145.507 1
0 2 -5 15.3827 143.828 1
1 2 -5 2093.9 312.708 1
1 -2 -5 2803.04 246.671 4
-1 -2 -5 1852.64 303.824 1
-1 2 -5 2252.79 327.587 1
1 -2 -5 2370.79 365.699 1
-2 -2 -5 29802.6 1258.22 1
-2 2 -5 33655.6 1309.73 1
2 2 -5 29999.8 1260.47 1
-3 -2 -5 4999.5 508.621 1
3 -2 -5 4789.34 476.53 1
-3 2 -5 4902.49 479.095 1
3 2 -5 5354.11 525.155 1
-4 -2 -5 38109.4 1503.36 1
4 -2 -5 38374.5 1386.69 1
-4 -2 5 39904 1399.33 3
-4 2 5 38940.6 1371.08 3
-4 2 -5 42042.8 1480.81 1
4 2 -5 36625.2 1415.8 1
5 2 -5 537.51 165.075 1
-5 -2 5 695.948 161.434 3
-5 2 5 658.673 181.907 3
-5 2 -5 845.051 232.31 1
-5 -2 -5 740.657 229.749 1
6 2 -5 9433.57 660.092 1
-6 -2 5 6822.93 516.001 3
-6 2 5 7877.52 558.156 3
-6 2 -5 8206.21 635.569 1
-6 -2 -5 7598.25 661.247 1
-7 -2 5 18254.9 876.762 3
-7 2 5 18772 882.682 3
-7 2 -5 18838.2 990.19 1
-7 -2 -5 17849 1056.7 1
-8 -2 5 28768 1135.57 3
-8 2 5 29080.3 1144.55 3
8 2 5 27434.7 1263.47 2
-8 2 -5 27248.1 1245.15 1
-8 -2 -5 25945.3 1325.21 1
9 -2 5 282.226 163.029 2
9 2 5 586.688 228.049 2
-9 2 -5 239.41 155.492 1
-9 -2 5 79.1184 89.3407 3
-9 2 5 75.8471 99.8408 3
-9 -2 -5 194.399 119.358 1
-10 -2 5 6988.46 560.396 3
-10 2 5 6115.2 515.472 3
10 -2 5 6458.97 543.548 2
10 2 5 6320.58 597.059 2
-10 2 -5 6439.84 610.089 1
-10 -2 -5 4831.49 565.599 1
-11 -2 5 12144.7 761.819 3
-11 2 5 11373 739.363 3
11 -2 5 10754.6 721.954 2
11 2 5 10952.2 811.736 2
-11 2 -5 10732.3 811.04 1
-11 -2 -5 9447.96 796.184 1
-12 -2 5 52345.7 1725.15 3
-12 2 5 53006.3 1733.66 3
12 -2 5 50560.7 1672.95 2
12 2 5 52909.2 1890.89 2
-12 2 -5 47687.2 1864.38 1
13 2 5 831.104 256.529 2
-13 -2 5 934.237 225.065 3
-13 2 5 795.665 208.863 3
-13 2 -5 1218.6 290.782 1
14 2 5 490.973 210.093 2
-14 -2 5 402.836 166.529 3
-14 2 5 946.335 262.136 3
-14 2 -5 530.05 204.607 1
15 2 5 4037.67 523.835 2
-15 -2 5 4223.68 499.933 3
-15 2 5 3724.21 467.922 3
0 -3 -5 -8.75528 67.359 4
0 -3 -5 -45.8002 147.333 1
0 -3 5 28.9256 54.3874 4
0 3 -5 296.085 123.765 1
-1 -3 -5 7166.84 634.355 1
1 -3 -5 6706.14 646.213 1
-1 -3 -5 6840.4 490.582 4
1 -3 -5 6647.7 417.039 4
1 -3 5 6568.56 421.735 4
-1 3 -5 7054.2 523.189 1
1 3 -5 5858.79 489.568 1
-2 -3 -5 11479.6 790.265 1
2 -3 -5 12947.2 822.828 1
2 -3 5 12801.4 645.344 4
-2 3 -5 12028.4 711.555 1
2 3 -5 11845.4 700.007 1
-3 3 -5 30.7705 86.4051 1
-3 -3 -5 -67.3732 165.182 1
3 3 -5 -21.654 98.3447 1
4 3 -5 144.407 80.9598 1
-4 3 -5 106.31 101.219 1
-4 -3 -5 259.471 134.55 1
5 3 -5 102.091 94.2929 1
-5 -3 -5 -71.5025 132.902 1
-5 3 -5 -19.3906 84.6137 1
-5 -3 5 137.697 94.6901 3
-5 3 5 68.4479 89.7178 3
-6 -3 -5 2908.04 394.271 1
-6 3 -5 3102.44 361.903 1
-6 -3 5 3698.77 390.462 3
-6 3 5 3417.88 367.418 3
-7 -3 -5 5705.21 555.201 1
-7 3 5 6016.61 455.718 1
-7 -3 5 5894.35 484.937 3
-7 3 5 6254.96 506.29 3
-7 3 -5 6240.27 544.367 1
8 3 5 176.836 187.387 2
-8 3 5 686.514 155.673 1
-8 -3 -5 613.016 223.587 1
-8 3 -5 343.843 173.79 1
-8 -3 5 418.71 157.703 3
-8 3 5 777.436 191.796 3
9 3 5 3396.35 459.064 2
-9 -3 -5 3255.05 416.605 1
-9 3 -5 3071.97 396.368 1
-9 -3 5 3977.54 423.146 3
-9 3 5 4015.09 407.442 3
9 -3 5 3837.05 406.992 2
10 -3 5 1337.7 247.366 2
10 3 5 884.461 268.844 2
-10 -3 -5 572.422 189.172 1
-10 3 -5 789.507 207.971 1
-10 -3 5 1126.01 234.825 3
-10 3 5 1101.32 237.966 3
11 3 5 130.265 169.352 2
-11 -3 -5 -3.61957 109.792 1
-11 3 -5 5.55304 131.472 1
-11 -3 5 -88.775 127.664 3
-11 3 5 55.8109 107.379 3
12 3 5 1494.23 303.662 2
-12 3 -5 1551.99 301.966 1
-12 -3 5 1961.42 325.39 3
-12 3 5 2012.61 321.417 3
13 3 5 749.496 247.014 2
-13 3 -5 419.57 192.664 1
-13 -3 5 791.399 225.329 3
-13 3 5 215.185 123.694 3
14 3 5 -184.232 186.781 2
-14 3 -5 -22.8431 134.225 1
-14 -3 5 -87.8035 139.035 3
-14 3 5 81.0328 120.409 3
15 3 5 2170.04 411.726 2
-15 -3 5 2014.28 359.107 3
-15 3 5 2124.99 365.779 3
0 -4 -5 -46.4722 148.975 1
0 -4 -5 186.195 110.732 4
0 -4 5 -61.9971 88.986 4
-1 -4 -5 5905.49 623.665 1
-1 -4 -5 5852.48 488.083 4
1 -4 -5 5929.81 422.939 4
1 -4 5 5532.18 387.503 4
-1 4 -5 5483.02 457.117 1
1 4 -5 5753.27 451.38 1
-2 -4 -5 10057.7 808.522 1
2 -4 5 9625.3 556.572 4
-2 4 -5 10036.3 629.729 1
2 4 -5 9562.96 598.137 1
-3 -4 -5 897.603 204.028 4
3 -4 5 1133.58 203.726 4
-3 -4 -5 822.766 232.73 1
3 4 -5 768.538 184.026 1
-4 -4 -5 8733.8 708.054 1
4 -4 5 10331.9 643.863 4
-4 4 -5 10603.9 662.18 1
4 4 -5 11069.1 660.76 1
-5 -4 -5 9471.57 719.363 1
5 -4 5 10929.2 706.076 4
-5 4 5 9297.86 614.368 1
-5 -4 5 9909.47 676.639 3
-5 4 5 9250.63 640.357 3
-5 4 -5 10441 675.926 1
-6 -4 -5 11000.6 785.069 1
-6 4 5 12453.5 692.047 1
-6 -4 5 11967.5 721.873 3
-6 4 5 11622.2 707.8 3
-6 4 -5 11185.3 715.028 1
7 4 5 3287.84 432.635 2
-7 -4 -5 3301.06 432.721 1
-7 4 5 3569.17 362.374 1
-7 -4 5 3481.59 388.453 3
-7 4 5 3996.06 394.11 3
-7 4 -5 3772.5 413.793 1
-8 -4 -5 54350.8 1910.74 1
-8 4 5 61739.3 1654.77 1
-8 -4 5 61214.8 1798.12 3
-8 4 5 62821.1 1796.57 3
-8 4 -5 61361 1878.49 1
8 4 5 56904.9 1982.79 2
-9 -4 -5 11334.5 795.878 1
-9 -4 5 13099.7 769.065 3
-9 4 5 13996.8 791.629 3
-9 4 -5 12717.9 801.463 1
9 4 5 13152.5 902.072 2
10 4 5 582.41 217.2 2
-10 4 -5 684.597 209.735 1
-10 -4 5 675.645 194.559 3
-10 4 5 557.83 177.67 3
-10 -4 -5 735.258 228.933 1
-11 -4 -5 6032.65 584.85 1
-11 -4 5 7705.24 609.036 3
-11 4 5 7760.34 607.517 3
-11 4 -5 6688.74 609.448 1
11 4 5 6351.83 640.915 2
-12 -4 5 20056.4 1042.2 3
-12 4 5 21531.2 1067.36 3
-12 4 -5 18527 1056.44 1
12 4 5 19310.4 1165.03 2
13 4 5 3126.63 475.573 2
-13 4 -5 2464.27 401.371 1
-13 -4 5 2967.23 407.133 3
-13 4 5 3193.18 413.756 3
14 4 5 -170.497 198.301 2
-14 4 -5 -29.4112 202.984 1
-14 -4 5 -186.877 165.531 3
-14 4 5 -128.111 156.323 3
-15 4 5 4549.34 523.161 3
-15 -4 5 4588.55 531.094 3
0 -5 -5 1909.45 268.607 4
0 5 -5 1496.66 231.311 1
0 -5 5 1793.45 219.951 4
-1 -5 -5 6059.89 511.952 4
1 -5 -5 5496.34 441.982 4
1 -5 5 5526.13 408.884 4
-1 5 -5 5642.58 449.879 1
1 5 -5 5774.83 453.592 1
-2 -5 -5 8352.09 650.602 4
2 -5 5 7824.46 511.513 4
-2 5 -5 7483.45 536.969 1
2 5 -5 7341.48 513.553 1
-3 -5 -5 192.392 90.8024 4
-3 5 -5 495.422 166.699 1
3 5 -5 226.887 115.327 1
3 -5 5 328.093 107.428 4
-4 -5 -5 1188.01 300.247 1
-4 5 5 1503.29 262.942 1
-4 -5 -5 1219.11 252.93 4
-4 5 -5 1438.69 260.175 1
4 -5 5 1443.14 250.701 4
4 5 -5 1229.82 208.459 1
-5 5 5 448.186 143.124 1
-5 -5 -5 478.965 217.533 1
-5 -5 -5 485.721 164.106 4
-5 5 -5 670.129 206.604 1
5 -5 5 378.837 169.204 4
-6 -5 -5 5233 570.253 1
6 -5 5 5163.55 492.131 4
-6 -5 -5 4642.24 483.086 4
-6 5 5 5197.74 447.322 1
-6 -5 5 4767.31 470.046 3
-6 5 5 5072.03 461.955 3
-6 5 -5 5342.23 494.91 1
6 5 5 4888.67 536.215 2
-7 -5 -5 6678.75 645.88 1
7 -5 5 7333.12 634.385 4
-7 5 5 7000.45 526.909 1
-7 -5 5 7353.55 574.973 3
-7 5 5 7450.13 566.119 3
-7 5 -5 8065.27 609.709 1
7 5 5 6665.43 635.546 2
8 5 5 171.818 171.459 2
-8 5 5 62.9194 91.1388 1
-8 -5 -5 -99.6156 169.097 1
-8 5 -5 -16.7723 117.568 1
-8 -5 5 199.145 135.065 3
-8 5 5 114.626 107.747 3
9 5 5 1060.2 282.044 2
-9 -5 -5 808.369 227.908 1
-9 5 5 1054.24 199.22 1
-9 5 -5 898.732 225.169 1
-9 -5 5 957.822 207.449 3
-9 5 5 1543.91 269.615 3
10 5 5 92.7664 155.613 2
-10 -5 -5 181.249 160.321 1
-10 5 -5 199.697 122.134 1
-10 -5 5 -56.2427 110.417 3
-10 5 5 241.443 129.155 3
11 5 5 -11.9609 141.32 2
-11 5 -5 102.835 125.606 1
-11 -5 5 334.809 174.066 3
-11 5 5 -6.76345 127.794 3
12 5 5 895.01 260.011 2
-12 5 -5 956.011 255.916 1
-12 -5 5 1601.3 291.888 3
-12 5 5 1615.97 311.597 3
13 5 5 1475.86 355.482 2
-13 5 -5 870.838 229.94 1
-13 -5 5 1092.85 251.078 3
-13 5 5 1442.63 297.932 3
-14 5 -5 346.6 195.113 1
-14 -5 5 296.293 159.968 3
-14 5 5 -29.4978 134.065 3
-15 5 -5 1523.38 342.058 1
0 6 -5 75.8477 108.527 1
0 -6 -5 -70.3431 105.259 4
0 -6 5 -7.84112 79.633 4
-1 6 -5 844.888 196.982 1
-1 -6 -5 717.423 203.552 4
1 6 -5 805.069 201.481 1
1 -6 -5 710.521 173.758 4
1 -6 5 622.18 151.037 4
-2 -6 -5 17879 978.781 4
2 -6 5 16520.8 777.048 4
-2 6 -5 15869.8 812.99 1
2 6 -5 17337.2 806.144 1
-3 6 5 2197.23 334.876 1
3 -6 5 3164.32 349.87 4
-3 6 -5 2965.17 336.614 1
-3 -6 -5 2636.61 379.956 4
3 6 -5 2941.76 324.815 1
-4 -6 -5 22034.3 1114.15 4
4 -6 5 22239.2 992.043 4
-4 6 5 19209.8 965.915 1
-4 6 -5 22732.2 1003.21 1
-5 6 5 496.152 167.734 1
-5 6 -5 558.906 165.418 1
-5 -6 -5 396.169 185.639 4
5 -6 5 483.961 178.488 4
5 6 5 562.22 220.761 2
6 6 5 3353.71 456.209 2
-6 6 5 3071.3 365.173 1
6 -6 5 4130.5 450.849 4
-6 -6 -5 3539.17 449.084 4
-6 6 5 3801.02 423.502 3
-6 6 -5 3664.14 410.353 1
-7 -6 -5 8134.99 684.681 4
7 -6 5 9178.86 718.588 4
-7 6 5 8795.93 618.838 1
-7 -6 5 9893.39 696.92 3
-7 6 5 8921.92 642.351 3
-7 6 -5 9826.71 675.798 1
7 6 5 9206.04 755.858 2
-8 -6 -5 12454.5 867.726 4
8 -6 5 16141.2 989.562 4
-8 6 5 15022.1 812.766 1
-8 -6 5 14501.3 855.789 3
-8 6 5 14699.1 834.093 3
-8 6 -5 14935.1 870.973 1
8 6 5 14441.4 961.438 2
9 6 5 217.378 135.262 2
-9 -6 -5 -48.3449 138.454 4
-9 6 5 363.936 154.252 1
-9 6 -5 118.774 125.92 1
9 -6 5 369.938 174.572 4
-9 -6 5 117.921 137.961 3
-9 6 5 290.377 163.871 3
10 6 5 2868.46 436.577 2
-10 6 -5 3282.99 430.165 1
-10 -6 5 3395.34 410.529 3
-10 6 5 3164.76 387.327 3
-11 6 5 6655.24 585.211 3
-11 6 -5 7512.62 654.149 1
11 6 5 6470.45 685.336 2
-12 6 5 30994.3 1340.76 3
-12 6 -5 27283.2 1331.49 1
12 6 5 28964.7 1513.47 2
13 6 5 486.563 264.8 2
-13 6 -5 517.707 200.291 1
-13 6 5 826.976 239.005 3
-14 6 -5 471.672 219.989 1
-14 6 5 530.835 208.22 3
0 7 5 69.0671 97.3188 1
0 7 -5 -23.9991 113.549 1
0 -7 -5 138.026 102.958 4
0 -7 5 305.722 111.614 4
-1 7 5 2608.53 379.586 1
1 -7 -5 3105.37 380.465 4
1 -7 5 3254.4 341.586 4
-1 7 -5 2747.36 332.095 1
-1 -7 -5 3158.3 413.421 4
1 7 5 2833 404.783 1
1 7 -5 3212.01 348.011 1
-2 -7 -5 6792.69 623.235 4
2 -7 5 6388.6 503.265 4
-2 7 5 5979.64 559.129 1
-2 7 -5 7555.05 561.827 1
2 7 -5 6985.98 515.109 1
-3 7 5 189.613 153.064 1
-3 7 -5 75.2515 91.3954 1
-3 -7 -5 40.3282 134.171 4
3 7 -5 -41.6074 106.989 1
3 -7 5 -45.7788 106.243 4
-4 7 5 -161.803 114.318 1
-4 7 -5 -152.24 146.268 1
-4 -7 -5 36.1758 149.013 4
4 -7 5 28.5082 94.9472 4
4 7 5 -137.201 142.223 2
5 7 5 -199.461 161.242 2
-5 7 5 -135.203 131.585 1
-5 7 -5 -74.2492 115.962 1
-5 -7 -5 216.354 156.305 4
5 -7 5 61.3373 105.047 4
6 7 5 737.752 224.435 2
-6 7 5 808.331 210.251 1
-6 7 -5 916.635 224.392 1
-6 -7 -5 832.012 250.905 4
6 -7 5 947.335 239.797 4
7 7 5 2091.74 388.905 2
-7 7 5 2176.8 312.873 1
-7 7 -5 2333.9 356.101 1
-7 -7 -5 2088.35 367.732 4
7 -7 5 2357.23 370.175 4
8 7 5 651.132 244.636 2
-8 7 -5 488.853 190.112 1
-8 7 5 521.544 182.841 1
-8 -7 -5 498.677 230.554 4
8 -7 5 279.48 173.886 4
9 7 5 2630.89 432.961 2
-9 7 -5 2712.81 387.576 1
-9 -7 -5 2248.16 390.302 4
-9 7 5 2836.79 365.423 1
9 -7 5 2363.96 407.109 4
10 7 5 796.702 246.171 2
-10 -7 -5 990.87 284.14 4
-10 7 -5 1172.29 270.67 1
10 -7 5 813.952 251.425 4
11 7 5 5.38202 137.536 2
-11 -7 -5 -193.709 233.197 4
-11 7 -5 125.471 176.996 1
12 7 5 1131.94 309.606 2
-12 -7 -5 913.899 292.393 4
-12 7 -5 1233.46 280.543 1
0 8 5 -82.3029 105.615 1
0 8 -5 172.405 118.751 1
0 -8 -5 -115.212 137.962 4
0 -8 5 57.4733 82.1948 4
1 8 5 1560 325.162 1
-1 8 5 1788.41 326.187 1
-1 8 -5 2460.85 327.222 1
1 8 -5 2366.12 310.047 1
-1 -8 -5 2122.47 366.021 4
1 -8 -5 2714.16 389.099 4
1 -8 5 2540.25 329.315 4
2 8 5 3042.55 412.702 1
-2 8 5 3241.38 412.179 1
2 -8 5 3275.29 376.045 4
-2 -8 -5 3804.11 483.978 4
-2 8 -5 3685.18 401.779 1
2 8 -5 3644.69 380.68 1
3 8 5 428.723 184.214 2
3 8 5 69.1423 136.246 1
-3 8 5 410.944 187.552 1
-3 8 -5 337.872 159.454 1
-3 -8 -5 -21.431 148.925 4
3 -8 5 200.925 116.29 4
4 8 5 3286.91 450.634 1
4 -8 5 3521.16 410.483 4
-4 -8 -5 2916.9 443.579 4
-4 8 5 3774.17 457.733 1
-4 8 -5 4041.68 428.221 1
4 8 5 3978.39 492.627 2
5 8 5 3661.34 465.171 2
5 8 5 4079.21 522.417 1
-5 -8 -5 4495.13 542.55 4
5 -8 5 4460.32 485.26 4
-5 8 5 4231.51 466.209 1
-5 8 -5 4625.01 475.528 1
6 8 5 3503.22 485.334 2
6 -8 5 4088.58 480.647 4
-6 -8 -5 3636.26 489.895 4
6 8 5 3291.64 465.218 1
-6 8 5 3498.26 424.519 1
-6 8 -5 4398.04 478.632 1
7 8 5 1543.81 334.937 2
-7 8 -5 1003.57 255.4 1
-7 8 5 1496.35 290.18 1
-7 -8 -5 1316.03 304.436 4
7 8 5 967.3 276.257 1
7 -8 5 1761.1 352.448 4
-8 -8 -5 23209.8 1288.88 4
8 -8 5 26873.6 1347.19 4
-8 8 5 24585 1159.61 1
-8 8 -5 27658.2 1272.04 1
8 8 5 22740.7 1290.96 2
-9 -8 -5 5342.62 616.719 4
9 -8 5 6810.6 685.53 4
-9 8 5 6253.4 560.815 1
-9 8 -5 6846.29 622.887 1
9 8 5 5687.61 644.874 2
10 8 5 397.723 214.94 2
-10 8 -5 266.788 172.921 1
-10 -8 -5 155.053 192.598 4
-10 8 5 109.864 108.401 1
10 -8 5 232.042 182.926 4
11 8 5 2262.6 425.986 2
-11 -8 -5 2468.27 450.829 4
11 -8 5 3316.26 512.406 4
0 9 5 1011.52 255.436 1
0 9 -5 1383.48 255.484 1
0 -9 -5 1057.95 255.829 4
0 -9 5 1245.22 228.486 4
1 9 5 1663.74 328.904 1
-1 9 -5 2190.52 313.909 1
-1 9 5 1523.66 297.937 1
1 9 -5 1925.57 298.562 1
-1 -9 -5 1849.03 334.829 4
1 -9 -5 2569.76 407.448 4
1 -9 5 2170.64 323.923 4
2 9 5 2153.84 383.158 1
-2 9 -5 2479.4 349.691 1
-2 9 5 2110.79 348.537 1
2 9 -5 2448.95 325.447 1
-2 -9 -5 2290.49 397.517 4
2 -9 5 2029.48 308.774 4
3 9 5 286.011 185.341 1
-3 9 -5 385.172 152.635 1
-3 9 5 185.326 154.497 1
-3 -9 -5 244.721 184.081 4
3 -9 5 389.209 177.78 4
4 9 5 907.519 269.65 2
4 9 5 1622.21 337.666 1
-4 9 -5 897.513 217.436 1
-4 9 5 1248.11 272.997 1
-4 -9 -5 709.303 237.876 4
4 -9 5 877.626 225.927 4
5 9 5 61.2518 152.747 2
5 9 5 496.718 221.905 1
-5 9 -5 284.867 162.156 1
-5 9 5 496.658 178.49 1
-5 -9 -5 261.501 200.896 4
5 -9 5 369.724 189.085 4
6 9 5 2651.93 416.552 2
6 9 5 2282.85 409.361 1
-6 9 -5 2399.37 358.941 1
-6 9 5 2775.26 398.62 1
-6 -9 -5 2051.63 398.819 4
6 -9 5 2594.91 397.291 4
7 9 5 3899.54 527.097 2
7 9 5 2849.16 445.303 1
-7 -9 -5 4214.12 559.859 4
-7 9 5 2729.96 400.571 1
7 -9 5 3561.48 478.973 4
-7 9 -5 4020.4 477.479 1
8 9 5 -110.557 162.869 2
8 9 5 84.1238 151.439 1
-8 9 -5 -4.24501 105.47 1
-8 -9 -5 81.7494 134.985 4
-8 9 5 -55.4868 105.202 1
8 -9 5 13.3779 144.103 4
9 9 5 37.8218 132.109 2
-9 9 -5 152.838 136.263 1
-9 -9 -5 363.899 246.275 4
-9 9 5 468.533 192.286 1
9 -9 5 22.6485 182.466 4
10 9 5 150.461 209.056 2
-10 9 5 139.738 121.769 1
0 10 -5 -80.9602 146.209 1
0 10 5 -116.801 134 1
0 -10 -5 127.194 152.105 4
-1 10 -5 29.8249 110.714 1
1 10 -5 433.327 179.187 1
1 10 5 203.005 138.521 1
-1 10 5 188.541 136.432 1
-1 -10 -5 -66.1749 148.271 4
1 -10 5 37.4302 117.257 4
-2 -10 -5 5555.43 649.487 4
2 10 5 3692.2 500.209 1
2 -10 5 4810.29 500.058 4
-2 10 5 3933.04 486.369 1
-2 10 -5 5305.05 526.786 1
-3 10 -5 774.031 233.51 1
3 10 5 298.841 157.433 1
-3 10 5 947.51 271.991 1
-3 -10 -5 609.253 218.19 4
3 -10 5 621.069 211.226 4
-4 -10 -5 6245.72 716.472 4
4 -10 5 7366.94 659.771 4
4 10 5 5483.31 613.778 1
-4 10 5 6260.44 619.423 1
-4 10 -5 6545.67 605.086 1
-5 10 -5 122.695 118.969 1
5 10 5 195.934 195.908 1
-5 10 5 37.4782 154.913 1
-5 -10 -5 -176.63 231.814 4
5 -10 5 5.02682 127.664 4
-6 10 -5 1576.7 326.438 1
6 10 5 963.624 277.232 1
-6 -10 -5 1224.73 310.952 4
-6 10 5 1070.65 271.406 1
6 -10 5 850.04 243.394 4
7 10 5 2711.18 443.502 1
-7 -10 -5 2631.51 441.142 4
-7 10 5 2605.95 407.498 1
7 -10 5 2596.18 421.583 4
8 10 5 3990.11 558.002 2
0 11 -5 420.496 182.796 1
0 11 5 -11.1792 118.41 1
0 -11 -5 454.022 215.291 4
-1 11 -5 701.8 216.863 1
1 11 5 777.741 252.083 1
-1 11 5 427.161 214.222 1
-1 -11 -5 555.211 212.85 4
1 -11 5 754.401 215.21 4
-2 11 -5 2241.1 361.217 1
2 11 5 1481.16 344.99 1
-2 -11 -5 2363.6 442.642 4
2 -11 5 1846.46 339.318 4
-3 11 -5 285.28 165.097 1
3 11 5 160.687 185.461 1
-3 -11 -5 -99.5097 150.352 4
3 -11 5 18.0629 112.584 4
-4 11 -5 53.1756 127.089 1
4 11 5 75.3604 140.181 1
-4 -11 -5 90.2647 145.516 4
4 -11 5 -125.883 174.394 4
5 11 5 65.0592 134.824 1
-5 -11 -5 -259.391 222.441 4
5 -11 5 -304.648 188.507 4
6 11 5 204.301 160.862 1
7 11 5 601.538 240.959 1
-1 -12 -5 674.75 231.731 4
0 0 -6 83480.9 2462.01 1
-1 0 -6 166.237 109.317 1
1 0 -6 -31.1672 137.538 1
2 0 -6 2546.4 344.585 1
-2 0 -6 2364.17 396.001 1
3 0 -6 2345.64 326.412 1
-3 0 -6 2106.38 371.762 1
4 0 -6 152330 3388.34 1
-4 0 -6 145374 3743.85 1
5 0 -6 98.3154 101.198 1
-5 0 -6 258.245 213.632 1
6 0 -6 6010.14 555.412 1
-6 0 6 5014.02 509.181 3
-6 0 -6 4681.47 605.748 1
-7 0 6 9197.09 684.856 3
-7 0 -6 8627.84 806.959 1
-8 0 6 19862.4 1021.06 3
-8 0 -6 19524.5 1247.94 1
-9 0 -6 359.174 170.86 1
-9 0 6 659.129 213.194 3
10 0 6 892.838 242.161 2
-10 0 -6 1365.33 361.716 1
-10 0 6 1100.86 244.484 3
11 0 6 89.815 159.335 2
-11 0 -6 6.50997 162.961 1
-11 0 6 338.214 185.433 3
12 0 6 3530.01 460.936 2
-12 0 -6 2876.89 484.993 1
-12 0 6 4084.79 494.908 3
13 0 6 970.928 257.427 2
-13 0 -6 815.033 280.697 1
-13 0 6 1440.7 302.594 3
14 0 6 1284.86 313.155 2
-14 0 6 2109.41 388.551 3
15 0 6 3996.79 533.455 2
0 -1 -6 -134.601 133.535 1
0 1 -6 185.625 141.65 1
-1 1 -6 -23.6622 155.86 1
1 -1 -6 131.938 109.033 1
1 1 -6 147.788 126.313 1
-1 -1 -6 -35.8244 126.544 1
-2 1 -6 405.808 172.634 1
2 1 -6 440.055 178.934 1
2 -1 -6 282.83 130.904 1
-2 -1 -6 506.167 200.841 1
-3 1 -6 1888.5 348.728 1
-3 -1 -6 1756.67 324.1 1
3 1 -6 1660.32 302.735 1
3 -1 -6 1953.18 313.805 1
4 1 -6 1027.04 208.346 1
4 -1 -6 1069.41 251.662 1
-4 -1 -6 796.715 191.633 1
5 1 -6 7499.33 604.231 1
5 -1 -6 8808.87 684.224 1
-5 1 -6 7334.33 695.868 1
-5 -1 -6 7782.98 709.921 1
-6 1 -6 3721.8 505.976 1
-6 -1 6 4183.22 463.83 3
-6 1 6 3946.18 442.96 3
-6 -1 -6 3989.18 530.066 1
-7 1 -6 134.212 172.714 1
-7 -1 -6 129.916 172.003 1
-7 -1 6 126.163 117.328 3
-7 1 6 -35.9471 119.572 3
-8 1 -6 654.367 221.52 1
-8 -1 -6 112.576 153.951 1
-8 -1 6 322.482 145.174 3
-8 1 6 521.179 172.198 3
-9 1 -6 134.157 167.578 1
-9 -1 -6 67.282 115.91 1
-9 -1 6 42.4887 133.643 3
-9 1 6 -180.639 158.502 3
9 1 6 -90.247 138.712 2
10 -1 6 491.393 186.668 2
10 1 6 226.653 146.144 2
-10 1 -6 178.954 160.287 1
-10 -1 -6 59.2611 152.052 1
-10 -1 6 -143.525 155.467 3
-10 1 6 -345.963 206.708 3
11 -1 6 152.617 108.495 2
11 1 6 110.464 112.288 2
-11 1 -6 305.701 201.021 1
-11 -1 -6 118.598 144.235 1
-11 -1 6 229.507 177.725 3
-11 1 6 -72.4472 115.004 3
12 -1 6 586.248 217.951 2
12 1 6 773.822 273.069 2
-12 1 -6 522.606 230.422 1
-12 -1 -6 826.633 253.781 1
-12 -1 6 798.733 254.405 3
-12 1 6 838.716 232.249 3
13 -1 6 1131.52 282.301 2
13 1 6 1292.8 320.767 2
-13 1 -6 771.753 269.704 1
-13 -1 -6 808.863 253.527 1
-13 -1 6 1595.23 319.166 3
-13 1 6 1410.65 301.146 3
14 1 6 579.484 215.301 2
14 -1 6 255.781 149.999 2
-14 1 -6 14.221 187.978 1
-14 -1 6 513.003 195.866 3
-14 1 6 539.952 204.495 3
15 1 6 148.156 147.295 2
0 -2 -6 143815 3349.67 1
0 2 -6 150851 3582.15 1
1 -2 -6 802.224 212.087 1
-1 2 -6 1307.8 296.273 1
1 2 -6 645.103 196.668 1
-1 -2 -6 1025.27 233.627 1
-2 -2 -6 4821.14 493.253 1
2 -2 -6 6515.55 585.456 1
-2 2 -6 6047.92 607.484 1
2 2 -6 6038.34 607.408 1
-3 -2 -6 116.886 127.223 1
3 2 -6 158.056 100.578 1
3 -2 -6 259.031 142.152 1
-3 2 -6 173.321 118.792 1
-4 -2 -6 32442.6 1410.39 1
4 -2 -6 38874.9 1541.6 1
-4 2 -6 37274.6 1558.03 1
4 2 -6 33006.2 1399.75 1
5 2 -6 3615.53 420.081 1
-5 -2 -6 3682.18 457.876 1
-5 2 -6 3638.27 485.652 1
-6 -2 6 -6.09344 153.611 3
-6 2 -6 157.11 146.99 1
-6 -2 -6 250.297 146.856 1
-7 -2 6 795.029 214.489 3
-7 2 6 968.848 239.544 3
-7 2 -6 639.001 215.09 1
-7 -2 -6 1330.17 300.721 1
-8 -2 -6 26489.1 1359.45 1
-8 -2 6 30365.3 1294.44 3
-8 2 6 30004.9 1285.56 3
-8 2 -6 29074.3 1424.4 1
9 2 6 2943.33 428.233 2
-9 -2 6 2752.18 378.522 3
-9 2 6 2987.15 401.646 3
-9 -2 -6 2669.58 442.976 1
-9 2 -6 2690.71 432.623 1
10 2 6 3657.01 482.763 2
-10 -2 6 4283.98 488.454 3
-10 2 6 5221.49 518.016 3
10 -2 6 4040.92 477.584 2
-10 -2 -6 3793.63 504.935 1
-10 2 -6 4446.78 565.974 1
11 -2 6 1305.47 272.125 2
11 2 6 1297.3 301.406 2
-11 -2 6 1813.58 332.865 3
-11 2 6 1352.02 297.167 3
-11 -2 -6 1256.97 316.278 1
-11 2 -6 1621.97 361.968 1
12 -2 6 -25.9155 107.759 2
12 2 6 169.11 209.421 2
-12 -2 6 100.046 126.796 3
-12 2 6 93.2409 154.597 3
-12 -2 -6 147.051 139.529 1
-12 2 -6 -16.7429 109.247 1
-13 2 -6 333.876 214.777 1
13 2 6 368.982 174.669 2
-13 -2 6 626.048 218.113 3
-13 2 6 310.135 212.412 3
-14 2 -6 2327.6 437.124 1
14 2 6 2200.83 413.422 2
-14 -2 6 2796.72 428.705 3
-14 2 6 2424.44 414.422 3
0 -3 -6 92.7531 159.485 1
0 3 -6 -369.013 185.803 1
1 -3 -6 156.6 140.807 1
-1 -3 -6 428.011 184.172 1
-1 3 -6 313.291 186.055 1
1 3 -6 -0.20282 115.509 1
2 3 -6 124.037 122.212 1
2 -3 -6 24.2231 174.331 1
-2 3 -6 -0.405 109.935 1
-2 -3 -6 215.875 139.097 1
3 3 -6 1058.61 269.008 1
-3 3 -6 915.61 239.018 1
-3 -3 -6 1127.9 257.911 1
4 3 -6 507.612 197.11 1
-4 -3 -6 603.335 179.859 1
-4 3 -6 282.275 187.606 1
-5 -3 -6 5705.7 559.376 1
-5 3 -6 6207.17 589.169 1
-6 -3 -6 1602.15 307.875 1
-6 -3 6 1817.18 329.123 3
-6 3 6 1744.04 312.858 3
-6 3 -6 1749.46 330.179 1
-7 -3 -6 93.5116 118.49 1
-7 3 6 -157.157 125.382 1
-7 -3 6 97.7415 105.735 3
-7 3 6 69.3793 116.1 3
-7 3 -6 -173.698 154.913 1
-8 -3 -6 760.913 227.511 1
-8 -3 6 1118.62 272.215 3
-8 3 6 1280.82 288.223 3
-8 3 -6 799.007 259.215 1
8 3 6 987.095 272.859 2
9 3 6 -21.5673 144.815 2
-9 -3 -6 -152.167 140.626 1
-9 -3 6 79.5431 110.803 3
-9 3 6 129.236 153.244 3
-9 3 -6 7.53088 126.938 1
10 3 6 352.442 224.963 2
-10 -3 -6 444.539 246.599 1
-10 -3 6 189.273 145.163 3
-10 3 6 12.5731 107.912 3
-10 3 -6 148.89 150.018 1
11 3 6 -73.2115 146.626 2
-11 -3 -6 38.4669 108.057 1
-11 -3 6 -2.57288 115.97 3
-11 3 6 -256.4 149.905 3
-11 3 -6 -152.648 171.344 1
12 3 6 322.061 181.387 2
-12 -3 -6 82.1054 116.595 1
-12 -3 6 390.307 188.01 3
-12 3 6 743.796 227.916 3
-12 3 -6 567.82 231.666 1
13 3 6 956.94 263.983 2
-13 -3 6 1431.58 318.04 3
-13 3 6 1441.85 315.864 3
-13 3 -6 1419.59 340.842 1
-14 3 -6 869.449 292.793 1
0 -4 -6 71823.5 2361.79 1
0 4 -6 73757.3 2134.2 1
-1 -4 -6 78.7762 141.209 1
1 4 -6 -51.3092 143.337 1
-2 4 -6 2371.66 344.006 1
-2 -4 -6 1578.88 317.585 1
2 4 -6 1781.81 315.508 1
-3 -4 -6 1755.38 254.774 4
-3 -4 -6 2150.19 353.862 1
-3 4 -6 1501.42 279.755 1
3 4 -6 2148.24 348.398 1
-4 -4 -6 107521 2856.66 1
-4 -4 -6 102948 2510.8 4
-4 4 -6 119699 2911.08 1
4 4 -6 115937 2936.55 1
-5 -4 -6 128.805 166.101 1
-5 4 -6 -84.4674 144.558 1
-6 4 6 3178.89 386.579 1
-6 -4 -6 3266.7 431.47 1
-6 4 -6 3872.54 450.927 1
-7 -4 -6 6631.45 618.562 1
-7 4 6 6117.22 522.484 1
-7 -4 6 6163.08 588.588 3
-7 4 6 7017.16 614.434 3
-7 4 -6 7011.54 627.611 1
-8 -4 -6 12801.1 871.707 1
-8 -4 6 14360.5 909.154 3
-8 4 6 15772 922.51 3
8 4 6 12565.6 905.957 2
-8 4 -6 15197.6 961.513 1
9 4 6 574.229 195.159 2
-9 4 -6 643.222 229.441 1
-9 -4 6 387.778 180.592 3
-9 4 6 596.181 206.125 3
-9 -4 -6 829.516 243.045 1
10 4 6 764.114 264.696 2
-10 4 -6 680.575 229.74 1
-10 -4 6 664.483 219.214 3
-10 4 6 571.531 179.595 3
-10 -4 -6 440.059 185.068 1
-11 -4 -6 25.2782 108.737 1
11 4 6 391.952 224.702 2
-11 4 -6 261.954 175.574 1
-11 -4 6 293.941 183.644 3
-11 4 6 -41.377 125.379 3
12 4 6 3145.66 495.382 2
-12 4 -6 3279.01 487.999 1
-12 -4 6 3832.72 488.25 3
-12 4 6 3312.08 457.976 3
13 4 6 648.13 245.555 2
-13 4 -6 1137.47 311.472 1
-13 -4 6 1214.62 297.105 3
-13 4 6 543.512 197.165 3
-14 4 -6 1131.28 317.58 1
0 5 -6 -115.822 132.12 1
-1 5 -6 192.249 165.858 1
1 5 -6 175.758 139.448 1
-2 5 -6 1547.8 281.822 1
2 5 -6 1562.88 281.418 1
-3 -5 -6 1152.52 226.955 4
-3 -5 -6 1223.32 276.223 1
-3 5 -6 1510.49 288.378 1
3 5 -6 1144.29 242.039 1
-4 -5 -6 901.059 206.545 4
-4 -5 -6 1305.4 303.457 1
-4 5 -6 989.708 244.815 1
4 -5 6 1271.45 229.542 4
-5 -5 -6 4208.99 438.491 4
5 -5 6 6049.94 544.643 4
-5 5 6 5040.69 507.831 1
-5 -5 -6 4211.42 503.487 1
-5 5 -6 5513.35 542.305 1
-6 -5 -6 2990.87 376.964 4
-6 5 6 3428.76 419.54 1
-6 -5 -6 3863.32 480.303 1
-6 5 -6 4073.04 468.329 1
7 5 6 -208.528 197.062 2
-7 -5 -6 -55.141 132.755 1
-7 5 6 14.5047 96.4773 1
-7 5 -6 66.4864 140.657 1
-7 5 6 198.057 155.062 3
8 5 6 87.8659 164.443 2
-8 5 6 47.3791 105.061 1
-8 5 -6 -72.4326 124.934 1
-8 -5 6 57.6024 135.387 3
-8 5 6 351.473 169.292 3
-8 -5 -6 -282.607 191.556 1
9 5 6 -251.127 169.096 2
-9 5 -6 -8.39854 110.652 1
-9 -5 6 109.632 151.888 3
-9 5 6 -82.6783 101.51 3
-9 -5 -6 -84.9271 118.167 1
10 5 6 -74.2597 226.272 2
-10 5 -6 327.746 165.666 1
-10 -5 6 -40.0565 168.371 3
-10 5 6 57.2653 101.183 3
-10 -5 -6 -171.469 157.239 1
11 5 6 13.6043 141.631 2
-11 5 -6 -104.319 153.577 1
-11 -5 6 -83.2114 158.864 3
-11 5 6 355.201 171.389 3
-11 -5 -6 156.797 126.554 1
12 5 6 820.772 275.691 2
-12 5 -6 820.304 262.91 1
-12 -5 6 822.358 251.529 3
-12 5 6 1057.24 265.964 3
-13 -5 6 413.1 193.261 3
-13 5 6 1212.34 309.367 3
0 6 -6 90617.7 2391.65 1
-1 6 -6 805.71 196.683 1
1 6 -6 831.418 207.054 1
-2 6 -6 3317.24 390.086 1
2 6 -6 3207.84 391.121 1
-3 6 6 53.8559 102.669 1
-3 -6 -6 72.4318 119.575 4
-3 6 -6 212.382 149.295 1
3 6 -6 85.0751 98.4959 1
-4 -6 -6 18111.2 947.842 4
4 -6 6 22188.5 1052.26 4
-4 6 6 16429.7 976.854 1
-4 6 -6 20521.4 1049.2 1
-5 6 6 1593.35 303.027 1
-5 -6 -6 1834.28 302.01 4
-5 6 -6 1882.85 324.926 1
5 -6 6 1893.55 316.667 4
-6 6 6 -7.0893 98.5668 1
-6 -6 -6 56.4079 116.813 4
-6 6 -6 117.15 101.269 1
6 -6 6 110.892 129.21 4
6 6 6 103.87 170.549 2
7 6 6 233.758 149.413 2
-7 6 6 334.467 164.559 1
-7 -6 -6 312.189 126.73 4
-7 6 -6 599.977 201.496 1
7 -6 6 488.553 207.416 4
-8 -6 -6 13032.4 872.013 4
-8 6 6 14502 874.415 1
-8 -6 6 15617.1 995.66 3
-8 6 6 16234.6 993.309 3
-8 6 -6 16572.3 1002.11 1
8 6 6 13466.9 973.323 2
9 6 6 1449.59 344.005 2
-9 -6 -6 1555.37 319.967 4
-9 6 -6 1813.69 349.035 1
-9 -6 6 1534.07 324.229 3
-9 6 6 1972.78 354.073 3
10 6 6 2472.21 444.611 2
-10 -6 -6 2124.94 372.297 4
-10 6 -6 2338.59 392.596 1
-10 6 6 2926.65 425.451 3
11 6 6 721.553 258.269 2
-11 -6 -6 683.926 219.419 4
-11 6 -6 552.922 163.345 1
-11 6 6 457.786 180.112 3
-12 6 6 50.8426 143.673 3
-13 6 6 172.136 167.793 3
0 7 6 -19.6484 132.537 1
0 7 -6 33.0379 119.624 1
-1 7 6 -27.2821 113.015 1
-1 7 -6 -63.8013 125.713 1
1 7 -6 106.81 84.9826 1
-2 7 6 618.032 185.445 1
-2 7 -6 469.587 137.171 1
2 7 -6 345.195 155.866 1
-3 7 6 75.3158 130.843 1
-3 -7 -6 74.5463 106.378 4
-4 7 6 75.2268 149.355 1
-4 -7 -6 -129.715 142.324 4
-4 7 -6 43.1289 100.405 1
4 -7 6 205.833 164.728 4
-5 7 6 2589.4 368.46 1
-5 -7 -6 3152.53 405.99 4
-5 7 -6 2922.18 399.69 1
5 -7 6 2759.78 398.983 4
5 7 6 1653.83 328.246 2
6 7 6 469.397 209.25 2
-6 7 6 256.422 173.43 1
-6 -7 -6 444.398 171.269 4
-6 7 -6 75.7914 106.266 1
6 -7 6 610.287 224.29 4
7 7 6 361.758 197.237 2
-7 7 6 -69.9442 114.499 1
-7 -7 -6 201.355 151.11 4
-7 7 -6 204.326 161.277 1
7 -7 6 -201.153 160.337 4
8 7 6 388.704 189.458 2
-8 7 6 734.892 203.968 1
-8 -7 -6 1066.41 259.396 4
-8 7 -6 869.039 246.317 1
8 -7 6 857.595 260.262 4
9 7 6 199.936 157.47 2
-9 7 6 9.48724 100.047 1
-9 -7 -6 182.869 189.012 4
-9 7 -6 -220.985 167.79 1
10 7 6 382.479 225.534 2
-10 -7 -6 337.899 165.407 4
-10 7 -6 172.992 186.851 1
-11 -7 -6 -119.137 151.009 4
0 8 6 24391.8 1344.51 1
0 8 -6 28066.3 1240.24 1
1 8 6 -30.49 136.38 1
-1 8 6 151.972 119.364 1
-1 8 -6 35.7758 92.6489 1
1 8 -6 17.0159 119.409 1
2 8 6 572.557 248.528 1
-2 8 6 853.197 245.849 1
-2 8 -6 428.817 169.894 1
-3 8 6 910.537 238.289 1
-3 -8 -6 1458.62 301.281 4
-3 8 -6 746.128 214.483 1
3 8 6 951.058 290.576 1
-4 -8 -6 47304 1751.23 4
4 -8 6 54427.9 1808.05 4
-4 8 6 43269.3 1730.35 1
-4 8 -6 50721.3 1763.14 1
5 8 6 146.808 136.356 2
-5 8 6 -17.0971 132.993 1
-5 -8 -6 711.174 210.146 4
-5 8 -6 458.022 162.717 1
5 -8 6 340.716 183.388 4
6 8 6 1208.63 315.937 2
-6 8 6 1251.77 273.509 1
-6 -8 -6 1071.94 247.836 4
-6 8 -6 1624.25 328.818 1
6 -8 6 1571.61 321.074 4
7 8 6 2879.53 459.152 2
-7 8 6 2948.55 412.845 1
-7 -8 -6 2748.46 413.17 4
-7 8 -6 3859.96 497.181 1
7 -8 6 3314.07 480.486 4
8 8 6 4875.32 592.757 2
-8 -8 -6 5208.31 571.396 4
8 -8 6 5560.57 640.194 4
-8 8 6 5521.67 581.003 1
-8 8 -6 6097.59 622.925 1
9 8 6 244.778 176.952 2
-9 -8 -6 290.569 164.639 4
-9 8 6 345.866 171.735 1
9 -8 6 220.462 190.488 4
0 9 6 -293.883 226.124 1
0 9 -6 36.6173 97.1657 1
1 9 6 137.235 184.758 1
-1 9 6 -83.8829 118.837 1
1 9 -6 -72.5063 110.546 1
2 9 6 1070.33 298.861 1
-2 9 6 1333.49 330.312 1
-2 9 -6 1385.44 274.364 1
3 9 6 706.524 272.115 1
-3 9 6 603.946 201.992 1
-3 9 -6 1050.62 246.718 1
-3 -9 -6 887.079 273.389 4
4 9 6 461.017 236.414 2
4 9 6 1182.67 345.44 1
-4 9 6 1039.66 281.672 1
-4 9 -6 691.35 191.396 1
-4 -9 -6 629.457 195.848 4
4 -9 6 921.522 247.962 4
5 9 6 1211.47 293.197 2
5 9 6 1898.81 391.02 1
-5 9 6 1899.57 359.991 1
-5 9 -6 2069.14 341.936 1
-5 -9 -6 2132 369.042 4
5 -9 6 2148 367.619 4
6 9 6 1550.71 327.887 2
6 9 6 1771.43 400.095 1
-6 9 6 2162.61 388.31 1
-6 9 -6 1742.84 331.955 1
-6 -9 -6 1868.34 352.879 4
6 -9 6 2780.44 416.576 4
7 9 6 68.1442 114.766 2
7 9 6 64.0813 143.019 1
-7 9 6 17.0947 129.752 1
-7 -9 -6 -259.236 171.033 4
7 -9 6 252.642 165.465 4
8 9 6 -122.522 201.999 2
8 9 6 37.1139 151.159 1
-8 -9 -6 237.068 189.921 4
-8 9 6 14.9693 135.645 1
8 -9 6 327.733 206.614 4
0 10 6 23903.2 1376.75 1
0 10 -6 29447.9 1335.31 1
1 10 6 182.636 158.253 1
-1 10 6 329.434 190.807 1
-1 10 -6 150.946 134.363 1
2 10 6 680.965 268.831 1
-2 10 -6 1206.1 287.579 1
3 10 6 -258.373 209.181 1
-3 10 -6 -78.3366 116.428 1
4 10 6 4848.25 642.731 1
-4 -10 -6 4564.56 553.211 4
-4 10 -6 5743.12 599.205 1
-5 -10 -6 244.122 143.995 4
5 -10 6 392.333 178.618 4
-6 -10 -6 -124.197 131.414 4
-1 11 -6 50.9714 143.312 1
0 0 -7 119.32 101.613 1
1 0 -7 2530.12 378.545 1
-1 0 -7 3787.99 490.13 1
2 0 -7 35.6566 96.571 1
-2 0 -7 6.78986 135.715 1
3 0 -7 19967 1013.05 1
-3 0 -7 20100.8 1210.88 1
4 0 -7 15954.2 900.505 1
-4 0 -7 13713.4 1009.24 1
5 0 -7 569.615 184.64 1
-5 0 -7 255.331 173.624 1
-6 0 -7 29.6686 156.366 1
-7 0 -7 2902.18 494.807 1
-8 0 7 14549.5 980.768 3
-8 0 -7 12018.3 1004.17 1
-9 0 -7 -17.3448 117.43 1
-9 0 7 259.649 161.963 3
10 0 7 576.597 214.571 2
-10 0 -7 762.119 271.832 1
-10 0 7 627.957 223.725 3
-11 0 7 8581.39 760.183 3
11 0 7 6619.98 657.202 2
-11 0 -7 7059.69 782.879 1
12 0 7 19854.9 1177.82 2
-12 0 -7 19142.5 1313.19 1
13 0 7 1084.99 306.869 2
-13 0 -7 774.728 281.944 1
0 -1 -7 -233.486 150.733 1
0 1 -7 -97.6609 156.671 1
-1 -1 -7 1566.99 283.248 1
-1 1 -7 1844.24 358.473 1
1 -1 -7 1562.17 282.988 1
1 1 -7 1177.74 289.865 1
-2 -1 -7 6094.1 594.36 1
2 -1 -7 5652 526.164 1
-2 1 -7 6112.55 664.493 1
2 1 -7 6489.29 608.759 1
3 1 -7 2.92715 123.245 1
3 -1 -7 -71.6475 104.998 1
-3 1 -7 -124.523 198.366 1
-3 -1 -7 221.514 155.381 1
4 1 -7 3389.32 404.138 1
4 -1 -7 3947.79 454.925 1
-4 1 -7 2853.4 495.625 1
-4 -1 -7 3979.81 503.889 1
-5 1 -7 44.9526 121.387 1
5 -1 -7 24.3817 108.105 1
5 1 -7 111.084 90.4441 1
-5 -1 -7 204.168 180.279 1
6 -1 -7 2520.16 382.211 1
-6 1 -7 3080.51 527.265 1
-6 -1 -7 1873.51 392.82 1
-7 1 -7 856.111 332.987 1
-7 -1 -7 626.252 251.829 1
-8 1 -7 -204.302 238.175 1
-8 -1 -7 193.144 163.785 1
-8 -1 7 33.8413 124.788 3
-8 1 7 -42.0188 145.032 3
-9 1 -7 315.905 216.093 1
-9 -1 -7 204.461 163.806 1
-9 -1 7 217.062 153.693 3
-9 1 7 -60.9881 138.819 3
10 -1 7 1501.54 302.607 2
10 1 7 2315.28 398.126 2
-10 1 -7 2877.74 509.557 1
-10 -1 -7 2362.09 444.591 1
-10 -1 7 2228.02 389.354 3
-10 1 7 1911.02 367.524 3
11 -1 7 536.394 214.027 2
11 1 7 322.447 173.852 2
-11 1 -7 268.646 195.294 1
-11 -1 7 747.639 234.319 3
-11 1 7 665.521 252.331 3
-11 -1 -7 116.453 154.676 1
12 -1 7 241.315 195.049 2
12 1 7 405.388 208.415 2
-12 1 -7 258.173 222.949 1
-12 -1 7 391.759 178.637 3
-12 1 7 516.354 213.182 3
-12 -1 -7 294.06 155.669 1
13 -1 7 390.568 222.416 2
13 1 7 459.247 200.311 2
-13 1 -7 319.766 205.168 1
-13 -1 -7 155.432 172.727 1
0 2 -7 264.059 183.496 1
0 -2 -7 184.016 136.715 1
1 -2 -7 2769.32 384.96 1
-1 2 -7 2929.98 456.269 1
1 2 -7 2673.99 451.011 1
-1 -2 -7 2328.62 352.566 1
-2 2 -7 3395.17 492.49 1
2 -2 -7 3369.33 411.967 1
-2 -2 -7 3622.77 436.96 1
2 2 -7 3820.26 481.464 1
-3 2 -7 1382.52 348.572 1
-3 -2 -7 1036.47 247.159 1
3 2 -7 1064.37 256.098 1
3 -2 -7 1673.91 315.7 1
4 2 -7 4270.51 476.03 1
-4 -2 -7 4151.44 488.851 1
4 -2 -7 4575.32 525.375 1
-4 2 -7 5081.47 618.446 1
-5 2 -7 351.695 232.895 1
-5 -2 -7 94.4079 101.666 1
-6 -2 -7 5480.75 581.996 1
-6 2 -7 6286.33 710.701 1
-7 -2 -7 14805.9 978.116 1
-7 2 -7 17114.2 1156.53 1
-8 -2 -7 21254.4 1221.29 1
-8 -2 7 23752.3 1269.77 3
-8 2 7 24447.1 1287.54 3
-8 2 -7 24602.9 1425.25 1
-9 -2 -7 2700.91 417.416 1
-9 2 -7 3210.06 523.606 1
-9 -2 7 3097.26 468.266 3
-9 2 7 3833.17 504.977 3
9 2 7 2534.02 411.434 2
-10 -2 -7 1328.91 309.308 1
10 2 7 1010.88 243.861 2
-10 2 -7 1470.4 360.793 1
-10 -2 7 1403.62 332.395 3
-10 2 7 2022.4 381.804 3
10 -2 7 1397.17 302.05 2
11 -2 7 486.25 190.586 2
-11 -2 -7 1228.72 293.56 1
11 2 7 1583.62 340.151 2
-11 2 -7 849.898 319.306 1
-11 -2 7 1058.09 268.665 3
-11 2 7 1536.7 350.423 3
-12 -2 -7 5373.87 619.388 1
-12 2 -7 5841.46 708.199 1
-12 -2 7 7713.31 730.569 3
-12 2 7 7058.67 702.062 3
12 2 7 5678.4 640.651 2
-13 -2 -7 2758.45 422.797 1
0 3 -7 -134.056 119.392 1
0 -3 -7 104.688 117.249 1
-1 3 -7 2050.61 374.242 1
1 -3 -7 2055.76 325.252 1
1 3 -7 1752.81 367.308 1
-1 -3 -7 1555.77 293.103 1
-2 -3 -7 4167.45 479.862 1
2 -3 -7 5043.17 548.35 1
-2 3 -7 5261.13 598.369 1
2 3 -7 4734.95 568.562 1
3 -3 -7 96.0196 137.305 1
3 3 -7 120.41 110.45 1
-3 -3 -7 332.155 178.019 1
-3 3 -7 152.137 156.134 1
4 3 -7 2819.24 422.17 1
-4 -3 -7 1903.11 327.49 1
-4 3 -7 2355.92 429.59 1
-5 -3 -7 26.1495 147.823 1
-5 3 -7 -135.998 194.234 1
-6 -3 -7 2520.58 384.94 1
-6 3 -7 3624.33 523.439 1
-7 -3 -7 753.216 244.086 1
-7 3 -7 1346.2 346.369 1
-8 -3 -7 -123.936 132.656 1
-8 -3 7 272.066 183.306 3
-8 3 7 -190.618 172.948 3
-8 3 -7 65.3275 142.189 1
9 3 7 174.339 170.888 2
-9 -3 -7 -110.762 176.254 1
-9 -3 7 -10.5287 181.03 3
-9 3 -7 -397.393 279.427 1
10 3 7 936.343 266.791 2
-10 -3 -7 1025.94 279.314 1
-10 -3 7 1148.3 286.069 3
-10 3 7 1240.18 298.692 3
-10 3 -7 733.696 285.608 1
11 3 7 233.523 158.618 2
-11 -3 -7 156.058 101.071 1
-11 -3 7 337.303 177.271 3
-11 3 7 464.245 230.014 3
-11 3 -7 258.195 208.347 1
-12 -3 -7 611.745 213.567 1
-12 3 -7 502.272 240.916 1
0 -4 -7 436.312 189.261 1
0 4 -7 68.6993 159.505 1
1 4 -7 2660.13 418.363 1
-1 -4 -7 2593.76 392.324 1
-1 4 -7 2455.67 395.828 1
2 4 -7 205.105 155.401 1
-2 4 -7 226.987 143.984 1
-2 -4 -7 317.467 167.104 1
-3 -4 -7 14586.6 926.019 1
-3 4 -7 16916.9 1078.31 1
3 4 -7 16517.7 1068.5 1
-4 -4 -7 10125.1 766.177 1
-4 4 -7 12902.7 932.899 1
-5 -4 -7 386.192 143.149 1
-5 4 -7 323.16 186.62 1
-6 -4 -7 28.9477 152.422 1
-6 4 -7 50.2378 173.761 1
-7 4 7 1929.65 332.772 1
-7 -4 -7 2331.27 370.284 1
-7 4 -7 2809.45 465.383 1
-8 -4 -7 9919.62 774.967 1
8 4 7 8052.95 716.748 2
9 4 7 124.461 134.626 2
-9 -4 -7 218.813 115.245 1
-9 -4 7 112.632 147.261 3
-9 4 7 -56.2716 161.998 3
-9 4 -7 318.43 192.091 1
10 4 7 430.978 168.948 2
-10 -4 -7 418.137 168.202 1
-10 -4 7 485.097 166.981 3
-10 4 7 628.415 234.077 3
-10 4 -7 517.648 224.456 1
-11 -4 -7 4983.49 563.09 1
-11 -4 7 6188.42 671.551 3
-11 4 7 7079.42 712.857 3
-11 4 -7 7013.84 771.986 1
0 5 -7 -260.108 196.4 1
-1 5 -7 329.394 149.069 1
1 5 -7 773.22 253.292 1
-2 -5 -7 4775.56 551.896 1
-2 5 -7 4933.77 569.255 1
2 5 -7 5354.61 588.024 1
-3 5 -7 114.046 158.122 1
-3 -5 -7 260.669 172.306 1
-4 -5 -7 2427.51 393.191 1
-4 5 -7 3165.38 457.055 1
-5 5 7 101.403 140.495 1
-5 5 -7 102.374 137.526 1
-5 -5 -7 -207.329 154.001 1
-6 5 7 496.705 193 1
-6 -5 -7 709.934 225.289 1
-7 -5 -7 -42.5655 121.714 4
-7 5 7 84.8665 107.013 1
-7 -5 -7 188.313 98.052 1
8 5 7 -146.222 155.559 2
-8 -5 -7 36.7408 146.62 1
-8 5 -7 -20.6321 140.305 1
9 5 7 81.1797 126.507 2
-9 5 -7 123.482 164.501 1
-9 -5 -7 -12.5655 121.024 1
10 5 7 1838.12 369.024 2
-10 -5 7 2432.78 428.292 3
-10 5 7 2769.46 448.161 3
-10 5 -7 2815.19 479.552 1
-10 -5 -7 1884.61 342.205 1
-11 -5 -7 484.522 206.047 1
-11 -5 7 89.8903 187.728 3
-11 5 7 286.931 186.637 3
0 6 -7 34.2361 122.99 1
-1 6 -7 1986.81 350.968 1
1 6 -7 2248.38 384.288 1
-2 6 -7 2017.17 351.78 1
2 6 -7 1689.01 327.982 1
-3 6 7 355.85 183.914 1
-3 6 -7 623.254 217.278 1
-4 6 7 2265.84 409.374 1
-4 6 -7 2870.21 415.85 1
-5 6 7 234.539 151.716 1
-5 6 -7 144.139 154.09 1
-6 6 7 3242.82 457.088 1
-6 6 -7 3911 522.142 1
-7 -6 -7 7010.95 595.47 4
-7 6 7 6855.81 645.927 1
7 6 7 6572.65 650.479 2
-7 6 -7 8689.59 770.216 1
-8 -6 -7 10627.8 759.022 4
8 6 7 9986.57 821.948 2
9 6 7 1099.3 299.221 2
-9 -6 -7 1718.93 352.648 1
-9 -6 -7 1079.62 261.908 4
-10 -6 -7 299.991 166.417 4
-10 -6 -7 412.555 163.703 1
-11 6 7 886.096 282.103 3
0 7 -7 329.261 162.701 1
-1 7 7 986.745 295.238 1
-1 7 -7 933.513 244.238 1
1 7 -7 1026.35 251.876 1
-2 7 7 1853.15 381.288 1
-2 7 -7 2423.81 395.2 1
-3 7 7 151.98 147.065 1
-3 7 -7 296.452 171.309 1
-4 7 7 622.249 228.148 1
-4 7 -7 659.49 193.3 1
-5 7 7 92.8836 129.758 1
-5 7 -7 -73.5291 143.331 1
6 7 7 1544.15 317.435 2
-6 7 7 2332.31 396.246 1
-6 7 -7 2735.37 426.771 1
7 7 7 369.633 191.68 2
-7 7 7 485.888 214.737 1
-7 -7 -7 499.558 185.292 4
-7 7 -7 633.932 227.428 1
-8 7 7 331.717 191.328 1
-8 -7 -7 -13.8469 102.048 4
-9 -7 -7 328.921 187.507 4
0 8 7 204.639 154.638 1
0 8 -7 67.7058 125.942 1
1 8 7 1316.57 329.804 1
-1 8 7 651.23 235.427 1
-1 8 -7 1362.25 302.205 1
-2 8 7 47.1308 149.572 1
2 8 7 287.108 198.955 1
-2 8 -7 -58.2053 127.229 1
-3 8 7 5396.56 636.264 1
-3 8 -7 6950.86 671.624 1
-4 8 7 4137.09 543.093 1
4 8 7 4157.48 492.523 2
-4 8 -7 5011.38 585.034 1
5 8 7 44.9065 115.711 2
-5 8 7 -133.253 155.621 1
-5 8 -7 256.076 196.225 1
6 8 7 12.3706 129.776 2
-6 8 7 -53.8111 149.164 1
-7 8 7 979.405 272.494 1
-8 -8 -7 3789.36 470.082 4
0 9 -7 479.002 218.851 1
-1 9 -7 48.8313 124.926 1
-2 9 -7 2312.25 398.838 1
-3 9 -7 175.386 136.96 1
4 9 7 1063.47 260.724 2
0 0 -8 24687.7 1230.12 1
-1 0 -8 20414.4 1138.39 1
1 0 -8 18546.5 1027.14 1
2 0 -8 -110.809 123.994 1
-2 0 -8 236.091 212.285 1
3 0 -8 3624.31 430.342 1
-3 0 -8 3494.61 509.451 1
4 0 -8 7144.08 608.96 1
-4 0 -8 5949.02 671.35 1
-5 0 -8 9183.56 850.049 1
-6 0 -8 574.908 243.61 1
-7 0 -8 3143.03 507.279 1
-8 0 -8 4781.96 643.404 1
-9 0 -8 7270.68 797.501 1
-10 0 -8 2013.56 443.132 1
10 0 8 1513.13 307.256 2
11 0 8 893.412 276.911 2
0 -1 -8 98.1765 99.5383 1
0 1 -8 294.092 182.204 1
-1 -1 -8 271.669 146.699 1
1 -1 -8 64.8027 101.172 1
1 1 -8 129.077 104.41 1
2 1 -8 1515.92 300.33 1
-2 -1 -8 2004.54 326.673 1
-2 1 -8 2035.21 403.142 1
2 -1 -8 1747.37 313.101 1
-3 -1 -8 -27.9452 125.015 1
3 1 -8 -18.7104 129.11 1
3 -1 -8 65.5803 106.049 1
-3 1 -8 130.46 136.815 1
-4 -1 -8 291.716 196.006 1
-4 1 -8 36.7279 111.4 1
4 1 -8 -141.095 129.3 1
4 -1 -8 301.323 159.192 1
5 -1 -8 381.626 175.546 1
-5 -1 -8 421.439 222.764 1
-6 1 -8 228.857 167.545 1
-6 -1 -8 93.335 127.383 1
-7 1 -8 -248.688 225.378 1
-7 -1 -8 100.193 135.772 1
-8 1 -8 864.047 313.696 1
-8 -1 -8 537.482 229.458 1
-9 1 -8 141.22 133.546 1
-9 -1 -8 -92.1157 163.852 1
10 1 8 1022.32 256.01 2
10 -1 8 967.544 251.06 2
-10 -1 -8 1538.4 364.115 1
11 -1 8 22.8159 141.007 2
0 -2 -8 702.566 210.153 1
0 2 -8 648.419 197.06 1
-1 -2 -8 9568.92 735.163 1
1 -2 -8 9967.86 724.32 1
-1 2 -8 9091.25 850.465 1
1 2 -8 11211.7 886.312 1
-2 2 -8 -22.5461 136.243 1
2 -2 -8 94.8476 99.055 1
-2 -2 -8 -38.0056 148.594 1
2 2 -8 343.133 191.141 1
3 2 -8 15307.7 979.958 1
-3 -2 -8 14648 928.065 1
3 -2 -8 14655.7 912.227 1
-3 2 -8 15780.6 1161.14 1
-4 -2 -8 4712.04 532.04 1
4 -2 -8 5832.19 588.524 1
-4 2 -8 5928.85 710.832 1
-5 -2 -8 16209.1 1012.35 1
-5 2 -8 18878.3 1324.63 1
-6 2 -8 517.058 223.895 1
-6 -2 -8 511.908 228.909 1
-7 -2 -8 277.771 122.936 1
-7 2 -8 402.172 233.83 1
-8 -2 -8 23.2997 117.767 1
-8 2 -8 301.979 212.605 1
-9 -2 -8 2795.45 416.415 1
-9 2 -8 3394.67 592.253 1
10 -2 8 -208.452 169.307 2
0 3 -8 344.978 220.968 1
0 -3 -8 95.4875 148.666 1
-1 3 -8 436.121 213.522 1
1 3 -8 266.143 157.482 1
1 -3 -8 436.303 168.612 1
-1 -3 -8 185.073 138.642 1
-2 3 -8 936.375 311.175 1
-2 -3 -8 586.304 187.479 1
2 -3 -8 763.258 230.926 1
2 3 -8 604.628 230.7 1
-3 -3 -8 -111.744 104.394 1
3 3 -8 88.9475 95.4838 1
-4 3 -8 326.495 226.262 1
-4 -3 -8 12.8474 97.0685 1
-5 3 -8 -59.7674 129.196 1
-5 -3 -8 268.396 168.676 1
-6 3 -8 393.528 274.471 1
-6 -3 -8 -94.5144 123.936 1
-7 3 -8 14.3697 150.765 1
-7 -3 -8 -178.481 154.021 1
-8 3 -8 1311.84 402.431 1
-8 -3 -8 630.767 216.741 1
-9 -3 -8 -306.044 215.656 1
0 -4 -8 20258.4 1129.64 1
0 4 -8 22067 1354.3 1
-1 -4 -8 16146.4 983.599 1
-1 4 -8 17155 1193.76 1
1 4 -8 16708.5 1179.84 1
-2 4 -8 266.385 230.354 1
2 4 -8 196.101 146.017 1
-2 -4 -8 34.5241 129.838 1
-3 4 -8 3035.58 517.603 1
-3 -4 -8 1998.61 347.414 1
-4 4 -8 4427.35 613.1 1
-4 -4 -8 4707.71 527.346 1
-5 -4 -8 6900.41 652.214 1
-5 4 -8 7585.85 804.697 1
-6 -4 -8 172.928 130.544 1
-6 4 -8 7.91838 166.919 1
-7 -4 -8 2255.02 373.525 1
-7 4 -8 2704.44 507.423 1
-8 -4 -8 2716.7 410.978 1
0 5 -8 243.072 191.212 1
1 5 -8 521.075 287.66 1
-1 5 -8 -107.514 165.994 1
-2 5 -8 2835.38 488.878 1
-3 -5 -8 186.342 145.827 1
-3 5 -8 113.277 212.792 1
-4 -5 -8 364.44 186.341 1
-4 5 -8 530.23 246.099 1
-5 -5 -8 64.4536 106.171 1
-5 5 8 6.26596 148.538 1
-5 5 -8 309.987 228.435 1
-6 5 8 -29.2887 139.953 1
-6 -5 -8 139.223 127.898 1
-6 5 -8 79.7619 118.476 1
-7 -5 -8 -143.428 158.319 1
0 6 -8 121.674 181.135 1
-1 6 -8 6784.17 729.347 1
1 6 -8 6934.63 739.648 1
-2 6 -8 61.1313 131.322 1
-3 6 -8 10328.4 914.522 1
-4 6 8 3071.95 470.085 1
-4 6 -8 3959.01 574.392 1
-5 6 8 8670.7 815.588 1
-5 6 -8 10537.4 918.166 1
-6 6 8 63.1198 176.33 1
0 7 -8 -55.6527 137.771 1
-1 7 -8 638.693 257.611 1
-2 7 -8 187.986 193.589 1
-3 7 -8 108.786 178.124 1
-1 8 -8 7712.74 781.625 1
0 0 -9 -166.538 156.693 1
-1 0 -9 559.446 187.182 1
1 0 -9 445.587 164.046 1
2 0 -9 3503.57 444.697 1
-2 0 -9 3353.07 471.489 1
-3 0 -9 729.564 229.477 1
3 0 -9 911.991 210.992 1
-4 0 -9 121.448 147.264 1
-5 0 -9 125.933 186.167 1
0 1 -9 463.924 188.424 1
0 -1 -9 936.681 248.98 1
1 1 -9 1966.1 344.182 1
-1 -1 -9 1581.4 305.35 1
-1 1 -9 1649.62 359.756 1
1 -1 -9 1842.4 343.436 1
2 -1 -9 145.528 155.811 1
2 1 -9 -100.281 123.338 1
-2 -1 -9 60.6473 133.436 1
-2 1 -9 -16.9454 134.431 1
-3 -1 -9 1206.14 277.06 1
3 -1 -9 1625.7 297.927 1
3 1 -9 1385.02 290.584 1
-3 1 -9 1731.49 380.952 1
-4 -1 -9 281.624 179.673 1
4 -1 -9 167.629 124.282 1
-5 -1 -9 636.123 235.582 1
-5 1 -9 355.208 212.308 1
0 -2 -9 -80.7129 118.612 1
0 2 -9 -129.38 164.675 1
-1 -2 -9 56.6548 103.989 1
1 -2 -9 262.09 129.223 1
1 2 -9 -0.26547 162.771 1
2 -2 -9 396.317 182.024 1
-2 2 -9 231.069 128.347 1
-2 -2 -9 489.26 190.55 1
2 2 -9 602.442 228.552 1
-3 -2 -9 7856.94 692.522 1
3 -2 -9 7970.8 677.546 1
-3 2 -9 7955.71 841.808 1
-4 2 -9 20.2495 168.16 1
-4 -2 -9 122.399 129.563 1
4 -2 -9 95.1903 129.301 1
0 -3 -9 349.584 154.913 1
0 3 -9 753.205 283.522 1
-1 3 -9 932.647 249.508 1
1 3 -9 1297.22 329.976 1
-1 -3 -9 1491.1 295.527 1
1 -3 -9 1584.02 306.799 1
-2 3 -9 130.466 185.038 1
-2 -3 -9 -73.3996 114.553 1
2 -3 -9 -40.1964 116.434 1
2 3 -9 164.817 153.369 1
-3 3 -9 1421.05 416.666 1
-3 -3 -9 1211.4 268.626 1
-4 3 -9 139.462 198.529 1
0 4 -9 251.946 239.471 1
0 -4 -9 134.234 117.285 1
-1 4 -9 564.253 247.158 1
1 4 -9 852.789 321.584 1
-1 -4 -9 548.469 188.526 1
-2 4 -9 2859.85 537.602 1
-3 4 -9 367.445 230.515 1
0 5 -9 379.973 179.244 1
-1 5 -9 1800.45 428.442 1
-2 5 -9 -527.547 324.776 1
0 6 -9 -388.413 251.729 1
