#------------------------------------------------------------------------------
#$Date: 2019-11-23 22:39:34 +0200 (Sat, 23 Nov 2019) $
#$Revision: 235391 $
#$URL: file:///home/coder/svn-repositories/cod/cif/7/23/63/7236311.cif $
#------------------------------------------------------------------------------
#
# This file is available in the Crystallography Open Database (COD),
# http://www.crystallography.net/
#
# All data on this site have been placed in the public domain by the
# contributors.
#
data_7236311
loop_
_publ_author_name
'Zhang, Jiaheng'
'Yin, Ping'
'Mitchell, Lauren A.'
'Parrish, Damon A.'
'Shreeve, Jean'ne M.'
_publ_section_title
;
 N-functionalized nitroxy/azido fused-ring azoles as high-performance
 energetic materials
;
_journal_issue                   19
_journal_name_full               'Journal of Materials Chemistry A'
_journal_page_first              7430
_journal_paper_doi               10.1039/C6TA02384C
_journal_volume                  4
_journal_year                    2016
_chemical_formula_moiety         'C6 H4 N8 O10'
_chemical_formula_sum            'C6 H4 N8 O10'
_chemical_formula_weight         348.17
_space_group_crystal_system      monoclinic
_space_group_IT_number           14
_space_group_name_Hall           '-P 2yn'
_space_group_name_H-M_alt        'P 1 21/n 1'
_atom_sites_solution_hydrogens   difmap
_atom_sites_solution_primary     direct
_audit_creation_date             2014-10-07
_audit_creation_method
;
Olex2 1.2
(compiled 2014.09.19 svn.r3010 for OlexSys, GUI svn.r4874)
;
_audit_update_record
;
2016-02-01 deposited with the CCDC.
2016-04-18 downloaded from the CCDC.
;
_cell_angle_alpha                90
_cell_angle_beta                 112.180(3)
_cell_angle_gamma                90
_cell_formula_units_Z            2
_cell_length_a                   7.6782(4)
_cell_length_b                   10.4292(6)
_cell_length_c                   8.3545(4)
_cell_measurement_reflns_used    7150
_cell_measurement_temperature    100
_cell_measurement_theta_max      74.584
_cell_measurement_theta_min      6.679
_cell_volume                     619.50(6)
_computing_cell_refinement       'SAINT v8.34A (Bruker, 2013)'
_computing_data_reduction        'SAINT v8.34A (Bruker, 2013)'
_computing_molecular_graphics    'Olex2 (Dolomanov et al., 2009)'
_computing_publication_material  'Olex2 (Dolomanov et al., 2009)'
_computing_structure_refinement  'ShelXL (Sheldrick, 2008)'
_computing_structure_solution    'ShelXT (Sheldrick, 2008)'
_diffrn_ambient_temperature      100
_diffrn_detector                 'Bruker Photon-100 area detector'
_diffrn_detector_area_resol_mean 10.5
_diffrn_detector_type            'CMOS area detector'
_diffrn_measured_fraction_theta_full 0.997
_diffrn_measured_fraction_theta_max 0.991
_diffrn_measurement_device       'Fixed Chi Three-Circle Diffractometer'
_diffrn_measurement_device_type  'Bruker D8 Venture'
_diffrn_measurement_method       '\f and \w scans'
_diffrn_radiation_monochromator  'Double Bounce Multilayer Mirror'
_diffrn_radiation_probe          x-ray
_diffrn_radiation_type           CuK\a
_diffrn_radiation_wavelength     1.54178
_diffrn_reflns_av_R_equivalents  0.0675
_diffrn_reflns_av_unetI/netI     0.0268
_diffrn_reflns_Laue_measured_fraction_full 0.997
_diffrn_reflns_Laue_measured_fraction_max 0.991
_diffrn_reflns_limit_h_max       9
_diffrn_reflns_limit_h_min       -9
_diffrn_reflns_limit_k_max       13
_diffrn_reflns_limit_k_min       -13
_diffrn_reflns_limit_l_max       10
_diffrn_reflns_limit_l_min       -10
_diffrn_reflns_number            17130
_diffrn_reflns_point_group_measured_fraction_full 0.997
_diffrn_reflns_point_group_measured_fraction_max 0.991
_diffrn_reflns_theta_full        67.679
_diffrn_reflns_theta_max         74.720
_diffrn_reflns_theta_min         6.679
_diffrn_source                   'microfocus sealed X-ray tube'
_diffrn_source_type              'Incoatec I\mus'
_diffrn_standards_number         0
_exptl_absorpt_coefficient_mu    1.603
_exptl_absorpt_correction_T_max  0.7538
_exptl_absorpt_correction_T_min  0.6368
_exptl_absorpt_correction_type   multi-scan
_exptl_absorpt_process_details
;
SADABS-2014/4 (Bruker,2014) was used for absorption correction.
wR2(int) was 0.1043 before and 0.0788 after correction.
The Ratio of minimum to maximum transmission is 0.8448.
The \l/2 correction factor is 0.00150.
;
_exptl_crystal_colour            colourless
_exptl_crystal_colour_primary    colourless
_exptl_crystal_density_diffrn    1.867
_exptl_crystal_description       irregular
_exptl_crystal_F_000             352
_exptl_crystal_size_max          0.15
_exptl_crystal_size_mid          0.15
_exptl_crystal_size_min          0.15
_refine_diff_density_max         0.296
_refine_diff_density_min         -0.242
_refine_diff_density_rms         0.056
_refine_ls_extinction_method     none
_refine_ls_goodness_of_fit_ref   1.100
_refine_ls_hydrogen_treatment    refall
_refine_ls_matrix_type           full
_refine_ls_number_parameters     117
_refine_ls_number_reflns         1266
_refine_ls_number_restraints     0
_refine_ls_restrained_S_all      1.100
_refine_ls_R_factor_all          0.0530
_refine_ls_R_factor_gt           0.0400
_refine_ls_shift/su_max          0.000
_refine_ls_shift/su_mean         0.000
_refine_ls_structure_factor_coef Fsqd
_refine_ls_weighting_details
'w=1/[\s^2^(Fo^2^)+(0.0343P)^2^+0.4910P] where P=(Fo^2^+2Fc^2^)/3'
_refine_ls_weighting_scheme      calc
_refine_ls_wR_factor_gt          0.0864
_refine_ls_wR_factor_ref         0.0924
_reflns_Friedel_coverage         0.000
_reflns_number_gt                1057
_reflns_number_total             1266
_reflns_threshold_expression     'I > 2\s(I)'
_cod_data_source_file            c6ta02384c2.cif
_cod_data_source_block           monomedabs
_cod_depositor_comments
;
The following automatic conversions were performed:

data item '_diffrn_radiation_probe' value 'X-ray' was changed to
'x-ray' in accordance with the
/home/saulius/struct/COD-crude-data/automatic-downloads/DataCite-retrospective/RSC/depositions/lib/dictionaries/cif_core.dic
dictionary named 'cif_core.dic' version 2.4.2 last updated on
2011-04-26.

Automatic conversion script
Id: cif_fix_values 6909 2019-04-08 15:41:33Z antanas 
;
_cod_database_code               7236311
_shelx_space_group_comment
;
The symmetry employed for this shelxl refinement is uniquely defined
by the following loop, which should always be used as a source of
symmetry information in preference to the above space-group names.
They are only intended as comments.
;
_shelx_estimated_absorpt_t_max   0.795
_shelx_estimated_absorpt_t_min   0.795
_olex2_refinement_description
;
;
_shelx_res_file
;
    monomedabs.res created by SHELXL-2014/7

TITL monomedabs_a.res in P2(1)/n
CELL 1.54178 7.6782 10.4292 8.3545 90 112.18 90
ZERR 2 0.0004 0.0006 0.0004 0 0.003 0
LATT 1
SYMM 0.5-X,0.5+Y,0.5-Z

SFAC C H N O
UNIT 12 8 16 20

L.S. 10
PLAN  20
SIZE 0.15 0.15 0.15
TEMP -173.15
REM Old TITL Monomedabs in P21/n #14
BOND $H
LIST 6
fmap 2
MORE -1
ACTA
CONF
REM <HKL>C:/Users/DAN/Desktop/JZ501_A/work%20(dd232975@umconnect.umt.edu)/Mono
REM medabs.hkl</HKL>

WGHT    0.034300    0.491000
FVAR       0.26311
O1    4    0.836912    0.547932    0.185613    11.00000    0.02835    0.02395 =
         0.02566    0.00166    0.00810   -0.00348
O2    4    0.683699    0.459470   -0.064076    11.00000    0.04745    0.04382 =
         0.01186    0.00508    0.00950    0.00619
O3    4    0.671191    0.366601    0.163834    11.00000    0.02249    0.02491 =
         0.01215   -0.00160    0.00611   -0.00250
O4    4    0.934059    0.714156    0.796280    11.00000    0.01694    0.03178 =
         0.02746   -0.01044    0.00416   -0.00356
O5    4    0.652548    0.758144    0.785188    11.00000    0.02340    0.02830 =
         0.02317   -0.00892    0.00996    0.00029
N1    3    0.738992    0.467907    0.090704    11.00000    0.02413    0.02594 =
         0.01634    0.00362    0.00746    0.00525
N2    3    0.672550    0.453518    0.429887    11.00000    0.01455    0.01920 =
         0.01232   -0.00185    0.00464   -0.00115
N3    3    0.784314    0.543340    0.536652    11.00000    0.01739    0.02021 =
         0.01230   -0.00129    0.00321   -0.00047
N4    3    0.763343    0.697624    0.739835    11.00000    0.01801    0.02165 =
         0.01472   -0.00135    0.00485   -0.00093
C1    1    0.755059    0.361903    0.349299    11.00000    0.01859    0.02061 =
         0.01175   -0.00094    0.00523    0.00125
H1A   2    0.883060    0.377480    0.387657    11.00000    0.01299
H1B   2    0.728390    0.275271    0.373643    11.00000    0.01472
C2    1    0.499815    0.452749    0.442335    11.00000    0.01616    0.01873 =
         0.00813    0.00199    0.00261    0.00126
C3    1    0.682602    0.599291    0.613105    11.00000    0.01698    0.02169 =
         0.00936    0.00030    0.00363    0.00045
HKLF 4

REM  monomedabs_a.res in P2(1)/n
REM R1 =  0.0400 for    1057 Fo > 4sig(Fo)  and  0.0530 for all    1266 data
REM    117 parameters refined using      0 restraints

END

WGHT      0.0342      0.5004

REM Highest difference peak  0.296,  deepest hole -0.242,  1-sigma level  0.056
Q1    1   0.5948  0.5714  0.6212  11.00000  0.05    0.30
Q2    1   0.5198  0.4724  0.5408  11.00000  0.05    0.28
Q3    1   0.7409  0.6212  0.7145  11.00000  0.05    0.22
Q4    1   0.4972  0.3720 -0.0850  11.00000  0.05    0.22
Q5    1   0.6841  0.5527 -0.0550  11.00000  0.05    0.21
Q6    1   0.6264  0.4587  0.1597  11.00000  0.05    0.20
Q7    1   0.5581  0.4616  0.4039  11.00000  0.05    0.20
Q8    1   0.9204  0.5245  0.5938  11.00000  0.05    0.20
Q9    1   0.9506  0.8061  0.7992  11.00000  0.05    0.19
Q10   1   0.9258  0.6169  0.7813  11.00000  0.05    0.19
Q11   1   0.6161  0.8751  0.7631  11.00000  0.05    0.17
Q12   1   0.9175  0.5367  0.8880  11.00000  0.05    0.16
Q13   1   0.7118  0.6025  0.5572  11.00000  0.05    0.16
Q14   1   0.6548  0.6706  0.7924  11.00000  0.05    0.15
Q15   1   0.8318  0.6595  0.1585  11.00000  0.05    0.15
Q16   1   0.5174  0.7225  0.7250  11.00000  0.05    0.15
Q17   1   0.6426  0.7978  0.9402  11.00000  0.05    0.14
Q18   1   0.9406  0.4942  0.0171  11.00000  0.05    0.14
Q19   1   0.7318  0.5753  0.0915  11.00000  0.05    0.14
Q20   1   0.5727  0.4983 -0.1455  11.00000  0.05    0.14
;
_shelx_res_checksum              4961
_shelx_hkl_file
;
   1   0   0   -1.41    0.09
   1   0   0   -1.51    0.05
   1   0   0   -1.46    0.05
  -1   0   0   -1.39    0.08
   1   0   0   -1.42    0.09
   1   0   0   -1.41    0.02
  -1   0   0   -1.49    0.07
  -1   0   0   -1.47    0.04
  -1   0   0   -1.39    0.06
  -1   0   0   -1.44    0.02
   2   0   0  976.29   47.23
  -2   0   0  951.43   47.34
  -2   0   0  953.68   47.48
   2   0   0  953.19   47.31
  -2   0   0 1000.00   47.51
  -2   0   0  951.71   47.40
  -3   0   0    0.62    0.24
  -3   0   0    0.63    0.21
   3   0   0    0.18    0.15
   3   0   0    0.59    0.16
   3   0   0    0.35    0.25
  -3   0   0    0.67    0.24
   3   0   0    0.54    0.20
  -4   0   0   17.29    1.06
   4   0   0   16.22    1.08
   4   0   0   18.51    1.16
  -4   0   0   16.69    1.13
  -4   0   0   16.78    1.08
   4   0   0   17.09    0.99
   4   0   0   17.73    0.96
   4   0   0   15.48    0.97
   5   0   0    0.24    0.36
   5   0   0    1.10    0.65
  -5   0   0    1.19    0.77
   5   0   0    0.81    0.41
  -5   0   0   -0.65    0.76
   5   0   0    0.52    0.32
   5   0   0   -0.33    0.63
  -5   0   0    1.24    0.56
  -5   0   0    0.08    0.44
  -5   0   0    0.24    0.46
   5   0   0    0.38    0.31
  -6   0   0   21.36    1.53
   6   0   0   22.94    1.39
  -6   0   0   21.04    1.78
   6   0   0   23.58    1.32
   6   0   0   23.59    1.36
  -6   0   0   20.49    2.11
  -6   0   0   21.68    1.93
  -6   0   0   22.37    1.98
  -6   0   0   22.46    2.14
  -6   0   0   23.16    1.94
  -6   0   0   19.95    1.70
   6   0   0   21.79    2.05
  -7   0   0    0.20    0.55
   7   0   0    1.64    0.64
  -7   0   0    0.40    0.77
  -7   0   0    1.34    0.81
   7   0   0    0.17    0.51
   7   0   0    2.25    0.84
   7   0   0    0.36    0.40
   7   0   0   -0.28    0.65
  -7   0   0    1.23    0.82
  -7   0   0    0.27    0.54
  -8   0   0    1.56    0.66
   8   0   0    0.68    0.77
  -8   0   0    2.00    0.67
  -8   0   0    1.68    0.54
  -8   0   0    1.59    0.71
  -8   0   0    1.51    0.47
   8   0   0    1.23    0.46
   8   0   0    2.00    0.64
   8   0   0    1.64    0.40
   0  -1   0   -0.23    0.04
   0  -1   0   -0.14    0.04
   0  -1   0   -0.28    0.03
   0   1   0   -0.24    0.04
   0   1   0   -0.27    0.03
   0   1   0   -0.23    0.04
   1  -1   0   69.59    3.28
   1  -1   0   71.20    3.29
  -1  -1   0   72.31    3.27
   1  -1   0   59.33    3.31
  -1  -1   0   67.26    3.29
  -1  -1   0   69.80    3.31
  -1  -1   0   64.95    3.30
   1  -1   0   68.78    3.30
  -1  -1   0   65.95    3.30
  -1   1   0   63.60    3.28
  -1   1   0   67.34    3.31
   1   1   0   68.51    3.29
   1   1   0   67.11    3.27
   1   1   0   64.16    3.32
  -1   1   0   63.12    3.29
   1   1   0   66.51    3.31
  -1   1   0   60.58    3.31
   1   1   0   64.84    3.31
  -1   1   0   67.98    3.31
  -1   1   0   64.78    3.30
  -2  -1   0   35.00    1.99
   2  -1   0   40.75    2.00
   2  -1   0   44.58    1.95
  -2  -1   0   37.63    1.99
  -2  -1   0   36.35    1.99
  -2  -1   0   37.94    2.01
   2  -1   0   38.80    1.99
   2  -1   0   39.03    1.95
   2   1   0   36.39    1.97
  -2   1   0   41.52    2.02
   2   1   0   37.48    1.95
  -2   1   0   40.28    1.95
  -2   1   0   40.23    1.97
  -3  -1   0   22.18    1.12
  -3  -1   0   21.58    1.12
   3  -1   0   18.15    1.04
   3  -1   0   19.39    1.02
   3  -1   0   18.52    1.10
  -3  -1   0   20.60    1.14
  -3  -1   0   20.64    1.09
   3  -1   0   19.48    1.12
   3   1   0   19.33    1.02
   3   1   0   17.95    1.12
  -3   1   0   17.59    1.09
   3   1   0   21.10    1.05
  -3   1   0   16.01    1.08
  -3   1   0   18.05    0.99
   4  -1   0    0.56    0.35
   4  -1   0    0.99    0.25
  -4  -1   0    1.00    0.34
  -4  -1   0    1.12    0.35
  -4  -1   0    1.18    0.47
   4  -1   0    0.86    0.24
   4  -1   0    0.21    0.46
   4  -1   0    0.60    0.25
   4   1   0    1.03    0.26
   4   1   0    1.27    0.29
   4   1   0    0.99    0.25
  -4   1   0    0.60    0.35
  -4   1   0    0.35    0.45
  -4   1   0    0.78    0.36
   4   1   0    1.44    0.48
  -5  -1   0   30.94    1.97
   5  -1   0   29.40    1.78
  -5  -1   0   31.00    2.23
   5  -1   0   31.18    2.01
  -5  -1   0   33.33    1.92
  -5  -1   0   32.60    1.92
  -5  -1   0   34.01    2.14
   5  -1   0   31.15    1.73
   5  -1   0   30.18    1.71
   5  -1   0   30.56    2.05
   5  -1   0   31.65    1.79
   5   1   0   30.50    2.00
   5   1   0   35.97    1.74
  -5   1   0   31.81    1.90
  -5   1   0   28.68    1.93
  -5   1   0   32.36    1.89
  -5   1   0   29.14    2.30
   5   1   0   32.45    1.99
  -5   1   0   32.09    2.08
   5   1   0   34.31    1.75
   5   1   0   33.43    1.80
   5   1   0   33.29    1.81
  -6  -1   0   16.06    1.99
   6  -1   0   17.52    1.67
  -6  -1   0   13.12    1.49
  -6  -1   0   16.93    1.73
   6  -1   0   15.23    1.06
  -6  -1   0   12.00    1.67
   6  -1   0   16.83    1.41
  -6  -1   0   16.22    1.46
  -6  -1   0   18.84    1.91
   6  -1   0   15.78    1.10
  -6  -1   0   16.00    1.78
   6  -1   0   16.10    1.03
   6   1   0   16.04    2.02
  -6   1   0   14.69    2.04
  -6   1   0   16.42    1.52
   6   1   0   16.66    1.14
   6   1   0   15.39    1.42
  -6   1   0   17.14    1.64
  -6   1   0   16.21    1.51
   6   1   0   15.96    1.42
  -6   1   0   13.41    1.76
  -6   1   0   16.43    1.29
   6   1   0   16.00    1.08
  -6   1   0   12.42    2.05
   6   1   0   15.83    1.04
  -6   1   0   15.57    1.69
  -6   1   0   13.91    1.64
  -7  -1   0    6.74    1.20
  -7  -1   0    7.00    0.98
   7  -1   0    5.68    0.72
   7  -1   0    5.76    0.73
  -7  -1   0    6.09    1.19
  -7  -1   0    5.53    1.01
  -7  -1   0    4.43    0.92
   7  -1   0    4.75    0.74
   7  -1   0    3.90    0.73
   7   1   0    6.34    1.16
  -7   1   0    5.06    0.78
  -7   1   0    4.99    1.03
  -7   1   0    5.57    0.92
   7   1   0    6.60    0.81
  -7   1   0    6.08    0.89
  -7   1   0    3.36    0.75
  -7   1   0    4.12    0.66
   8  -1   0    0.71    0.59
  -8  -1   0    1.75    1.15
  -8  -1   0    1.22    0.76
  -8  -1   0    0.88    0.67
  -8  -1   0    1.36    0.46
   8  -1   0    1.15    0.45
   8  -1   0    1.39    0.75
  -8  -1   0    1.49    0.49
  -8  -1   0    2.08    0.60
   8  -1   0    2.00    0.39
   8  -1   0    2.08    0.60
   8   1   0    2.35    0.43
  -8   1   0    1.71    0.52
   8   1   0    1.09    0.77
  -8   1   0    1.73    0.49
  -8   1   0    0.65    0.64
  -8   1   0    1.71    0.76
   8   1   0    0.86    0.90
   8   1   0    1.56    0.46
  -8   1   0    1.42    0.71
  -8   1   0    1.49    0.75
   0  -2   0  192.79    9.38
   0  -2   0  187.19    9.37
   0  -2   0  205.95    9.39
   0  -2   0  186.33    9.39
   0   2   0  187.15    9.39
   0   2   0  184.71    9.40
   0   2   0  190.30    9.37
   0   2   0  192.14    9.37
   0   2   0  189.05    9.39
  -1  -2   0   20.58    1.22
   1  -2   0   25.14    1.22
  -1  -2   0   23.27    1.24
   1  -2   0   24.44    1.25
  -1  -2   0   24.93    1.26
   1  -2   0   26.14    1.26
  -1  -2   0   22.56    1.23
  -1  -2   0   23.26    1.25
   1   2   0   24.23    1.22
  -1   2   0   24.98    1.25
   1   2   0   24.20    1.23
   1   2   0   23.97    1.25
  -1   2   0   26.95    1.24
  -1   2   0   23.99    1.24
   1   2   0   21.87    1.23
   2  -2   0  106.83    5.21
  -2  -2   0   96.90    5.13
   2  -2   0  103.23    5.15
  -2  -2   0  110.59    5.24
   2  -2   0  101.35    5.17
   2  -2   0  109.51    5.16
  -2  -2   0  108.98    5.21
  -2  -2   0  113.13    5.21
   2  -2   0  103.97    5.21
   2   2   0  101.22    5.16
   2   2   0  106.82    5.22
  -2   2   0  105.33    5.21
   2   2   0  104.34    5.14
   2   2   0  100.25    5.15
  -2   2   0   98.59    5.19
   2   2   0  107.02    5.17
  -2   2   0  102.15    5.22
  -2   2   0   99.53    5.17
  -3  -2   0    7.52    0.54
   3  -2   0    7.28    0.57
  -3  -2   0    7.88    0.56
   3  -2   0    6.93    0.49
   3  -2   0    7.15    0.56
   3  -2   0    7.09    0.64
  -3  -2   0    8.04    0.56
  -3  -2   0    7.81    0.58
   3   2   0    7.13    0.69
  -3   2   0    7.40    0.63
  -3   2   0    6.65    0.57
   3   2   0    8.52    0.63
  -3   2   0    7.15    0.50
  -3   2   0    6.57    0.61
  -3   2   0    6.74    0.57
   3   2   0    7.27    0.51
   4  -2   0   13.85    0.97
  -4  -2   0   13.55    0.99
   4  -2   0   13.26    0.82
   4  -2   0   11.74    1.00
   4  -2   0   14.24    0.84
  -4  -2   0   13.81    0.95
   4  -2   0   13.06    1.24
   4  -2   0   13.99    1.11
  -4  -2   0   15.09    0.97
   4   2   0   14.47    0.85
  -4   2   0   12.94    0.95
   4   2   0   14.80    0.85
   4   2   0   14.79    1.36
  -4   2   0   12.13    1.00
   5  -2   0    5.68    0.66
  -5  -2   0    6.56    1.09
  -5  -2   0    5.74    0.87
  -5  -2   0    5.30    0.90
   5  -2   0    5.65    0.71
   5  -2   0    5.99    0.54
   5  -2   0    4.60    0.80
  -5  -2   0    5.30    0.81
   5  -2   0    6.09    1.06
   5   2   0    5.92    0.57
   5   2   0    5.15    0.89
   5   2   0    6.74    0.98
  -5   2   0    4.18    1.07
   5   2   0    5.95    0.92
  -5   2   0    5.10    0.91
   5   2   0    5.19    0.72
   5   2   0    6.23    0.76
  -5   2   0    4.96    0.70
  -5   2   0    4.76    0.87
  -6  -2   0   26.90    2.01
  -6  -2   0   24.79    1.83
   6  -2   0   25.24    1.52
  -6  -2   0   25.11    2.00
  -6  -2   0   24.02    1.97
   6  -2   0   27.14    1.51
  -6  -2   0   27.61    1.99
   6  -2   0   26.37    1.49
   6  -2   0   25.92    1.70
   6  -2   0   25.42    1.96
  -6  -2   0   29.27    2.08
  -6  -2   0   24.09    1.80
  -6  -2   0   22.38    2.26
   6   2   0   26.26    1.52
  -6   2   0   25.03    1.91
   6   2   0   26.31    1.51
   6   2   0   26.60    2.16
  -6   2   0   25.62    1.70
  -6   2   0   25.28    1.88
  -6   2   0   23.67    2.31
  -6   2   0   25.31    1.90
   6   2   0   27.80    1.84
   6   2   0   27.19    2.17
  -6   2   0   26.87    2.15
   6   2   0   27.10    1.88
   6   2   0   25.25    1.60
  -6   2   0   24.25    2.05
  -6   2   0   24.69    1.99
  -7  -2   0   -0.42    0.69
  -7  -2   0    0.19    0.65
  -7  -2   0    0.08    0.52
   7  -2   0   -0.02    0.62
   7  -2   0   -0.07    0.40
  -7  -2   0   -0.04    0.56
  -7  -2   0    1.56    0.82
   7  -2   0   -0.92    0.63
   7  -2   0   -0.23    0.49
  -7  -2   0   -0.01    0.79
  -7   2   0   -0.15    0.57
  -7   2   0   -0.52    0.78
   7   2   0   -0.55    0.77
  -7   2   0    0.88    0.79
  -7   2   0   -0.03    0.60
   7   2   0    0.12    0.57
   7   2   0    0.23    0.78
   7   2   0   -0.70    0.62
   7   2   0   -0.21    0.47
  -7   2   0   -0.84    0.87
  -7   2   0   -0.31    0.83
  -7   2   0   -0.84    0.61
   8  -2   0   -0.14    0.53
   8  -2   0   -0.07    0.36
  -8  -2   0    0.97    0.83
   8  -2   0    0.63    0.48
   8  -2   0    2.97    1.17
   8  -2   0   -0.21    0.40
  -8  -2   0   -0.22    0.47
  -8  -2   0   -1.29    0.97
  -8  -2   0   -0.68    0.59
  -8  -2   0    0.52    0.48
  -8   2   0    0.18    0.66
  -8   2   0    0.77    0.66
  -8   2   0   -0.15    0.40
   8   2   0   -0.44    0.56
   8   2   0    0.50    0.80
  -8   2   0   -0.13    0.44
   8   2   0   -0.12    0.40
   0  -3   0    0.04    0.13
   0  -3   0    0.09    0.12
   0  -3   0    0.08    0.11
   0  -3   0   -0.06    0.12
   0   3   0   -0.05    0.15
   0   3   0    0.11    0.13
   0   3   0    0.16    0.15
   0   3   0   -0.04    0.10
   0   3   0   -0.07    0.17
  -1  -3   0   27.08    1.45
   1  -3   0   29.06    1.46
  -1  -3   0   26.09    1.44
   1  -3   0   26.67    1.52
  -1  -3   0   27.80    1.44
  -1  -3   0   26.94    1.42
  -1  -3   0   27.09    1.42
   1  -3   0   28.47    1.41
   1  -3   0   28.43    1.44
   1   3   0   27.99    1.45
   1   3   0   27.47    1.41
  -1   3   0   27.49    1.45
   1   3   0   28.95    1.43
   1   3   0   24.52    1.48
   1   3   0   27.81    1.44
  -1   3   0   27.39    1.43
   2  -3   0  141.46    7.36
  -2  -3   0  148.20    7.37
   2  -3   0  148.84    7.31
  -2  -3   0  146.34    7.34
   2  -3   0  151.24    7.32
  -2  -3   0  151.60    7.40
  -2  -3   0  145.06    7.36
   2  -3   0  145.47    7.37
  -2   3   0  147.58    7.36
   2   3   0  143.16    7.32
   2   3   0  150.97    7.32
  -2   3   0  155.64    7.35
   2   3   0  149.69    7.31
   2   3   0  156.31    7.39
  -2   3   0  140.22    7.38
  -2   3   0  149.89    7.37
   2   3   0  147.03    7.33
   3  -3   0   17.80    1.08
   3  -3   0   17.86    0.98
  -3  -3   0   17.53    1.05
   3  -3   0   17.56    0.96
  -3  -3   0   16.26    1.03
  -3  -3   0   16.99    1.08
  -3  -3   0   17.63    1.06
   3  -3   0   17.21    1.07
   3  -3   0   15.56    0.97
  -3   3   0   17.71    1.01
  -3   3   0   17.99    1.10
   3   3   0   17.94    1.11
   3   3   0   17.87    1.00
  -3   3   0   17.06    1.04
   3   3   0   17.29    0.97
  -3   3   0   17.32    1.10
   3   3   0   16.51    0.99
  -4  -3   0  145.16    7.51
   4  -3   0  149.71    7.34
   4  -3   0  150.28    7.43
   4  -3   0  144.69    7.45
  -4  -3   0  145.54    7.41
   4  -3   0  150.56    7.31
  -4   3   0  146.57    7.51
   4   3   0  151.79    7.47
   4   3   0  147.25    7.32
  -4   3   0  153.57    7.44
   4   3   0  148.32    7.36
   4   3   0  132.70    7.36
  -5  -3   0    0.52    0.56
  -5  -3   0   -1.71    1.03
   5  -3   0   -0.72    0.60
  -5  -3   0    0.95    1.04
   5  -3   0    1.31    0.87
   5  -3   0    0.24    0.43
   5  -3   0    0.07    0.31
  -5  -3   0   -0.73    0.75
  -5  -3   0    0.79    0.90
   5  -3   0    0.16    0.40
   5  -3   0    0.02    0.34
  -5  -3   0    0.05    0.62
  -5  -3   0    1.71    0.83
  -5   3   0   -0.96    1.35
   5   3   0   -0.09    0.42
   5   3   0    0.14    0.40
  -5   3   0    0.44    0.82
  -5   3   0   -0.01    0.58
  -5   3   0    0.29    1.09
   5   3   0    0.18    0.42
   5   3   0    0.60    0.70
  -5   3   0    0.04    1.12
  -5   3   0   -0.24    0.86
   5   3   0    2.19    0.83
  -5   3   0   -0.73    0.84
   5   3   0    0.19    0.52
  -5   3   0    0.24    0.57
  -5   3   0   -1.20    1.34
  -6  -3   0    0.25    1.04
   6  -3   0    1.00    1.08
  -6  -3   0   -0.02    1.03
   6  -3   0    0.79    0.41
   6  -3   0    0.53    0.39
  -6  -3   0    0.19    0.89
  -6  -3   0   -0.52    0.80
   6  -3   0    0.28    0.71
   6  -3   0    1.07    0.96
   6  -3   0    0.65    0.47
  -6  -3   0   -1.91    1.21
  -6  -3   0    1.34    0.72
  -6  -3   0   -0.20    1.05
  -6  -3   0    0.89    0.76
  -6  -3   0   -0.06    0.75
  -6   3   0    0.79    0.96
  -6   3   0    0.69    0.69
  -6   3   0    1.45    0.74
   6   3   0    0.98    0.61
   6   3   0    2.40    0.82
   6   3   0    0.30    0.56
  -6   3   0    1.25    0.88
  -6   3   0    0.70    0.55
  -6   3   0    1.25    0.80
   6   3   0    0.68    1.13
   6   3   0    1.19    0.43
   6   3   0    2.23    0.91
  -6   3   0    0.69    1.04
  -6   3   0    0.01    1.07
   6   3   0    1.78    0.85
   7  -3   0    0.89    0.40
  -7  -3   0    1.42    0.85
  -7  -3   0    0.91    0.66
  -7  -3   0    1.16    0.62
  -7  -3   0    1.47    0.86
   7  -3   0    0.76    0.60
   7  -3   0    0.84    0.53
   7  -3   0    0.95    0.68
  -7  -3   0    1.57    0.60
  -7  -3   0    0.73    0.59
  -7   3   0    1.38    0.60
   7   3   0    0.84    0.73
   7   3   0    1.58    0.99
  -7   3   0    0.01    0.68
   7   3   0    0.95    0.84
   7   3   0    0.06    0.58
  -7   3   0    0.59    0.80
  -7   3   0    1.73    0.65
   7   3   0    1.16    0.46
  -7   3   0    0.39    0.56
  -7   3   0    1.43    0.70
  -7   3   0    0.67    0.76
   8  -3   0    6.36    0.74
  -8  -3   0    5.45    0.80
  -8  -3   0    5.56    0.75
  -8  -3   0    4.73    0.82
   8  -3   0    6.45    1.18
   8  -3   0    6.19    0.78
   8  -3   0    8.29    0.73
  -8   3   0    7.74    1.42
   8   3   0    6.78    0.74
  -8   3   0    4.70    0.79
  -8   3   0    6.79    0.86
   8   3   0    6.56    0.74
   8   3   0    7.40    0.80
  -8   3   0    5.81    0.80
   0  -4   0  129.41    6.62
   0  -4   0  134.30    6.63
   0  -4   0  136.36    6.64
   0  -4   0  129.78    6.62
   0  -4   0  137.22    6.58
   0   4   0  129.32    6.61
   0   4   0  129.34    6.63
   0   4   0  130.29    6.60
   0   4   0  144.89    6.64
   0   4   0  130.79    6.59
   1  -4   0    8.05    0.58
  -1  -4   0    9.76    0.61
   1  -4   0    8.21    0.54
  -1  -4   0    9.21    0.59
  -1  -4   0    8.12    0.61
  -1  -4   0    9.53    0.58
   1  -4   0    8.04    0.57
   1  -4   0    8.34    0.60
   1  -4   0    8.41    0.55
   1   4   0    8.88    0.61
  -1   4   0    7.82    0.58
  -1   4   0    8.77    0.57
   1   4   0    8.75    0.59
   1   4   0    8.70    0.62
   1   4   0    8.35    0.60
   1   4   0    8.84    0.55
  -1   4   0    8.32    0.63
   2  -4   0   -0.33    0.23
  -2  -4   0    0.16    0.23
   2  -4   0   -0.26    0.25
  -2  -4   0    0.06    0.25
  -2  -4   0   -0.08    0.23
   2  -4   0    0.06    0.25
  -2  -4   0    0.07    0.20
   2  -4   0   -0.04    0.18
   2   4   0    0.35    0.23
   2   4   0   -0.47    0.33
   2   4   0   -0.04    0.22
  -2   4   0   -0.17    0.24
   2   4   0   -0.22    0.26
   2   4   0    0.29    0.34
  -2   4   0   -0.15    0.22
  -2   4   0   -0.32    0.25
   2   4   0   -0.04    0.21
  -3  -4   0   -0.11    0.33
  -3  -4   0   -0.03    0.40
   3  -4   0   -0.03    0.24
   3  -4   0    0.36    0.38
  -3  -4   0    0.11    0.29
   3  -4   0    0.59    0.38
   3  -4   0   -0.05    0.35
   3  -4   0   -0.19    0.26
  -3  -4   0    0.17    0.30
   3  -4   0   -0.10    0.23
   3   4   0    0.13    0.26
  -3   4   0   -0.30    0.40
  -3   4   0   -0.16    0.35
   3   4   0    0.05    0.33
   3   4   0   -0.08    0.29
  -3   4   0    0.24    0.33
   3   4   0    0.06    0.42
   4  -4   0    0.26    0.30
  -4  -4   0    0.74    0.53
   4  -4   0   -0.26    0.33
   4  -4   0    0.59    0.62
  -4  -4   0    0.48    0.49
   4  -4   0    0.15    0.56
  -4  -4   0   -0.59    0.83
   4  -4   0    0.23    0.45
   4  -4   0   -0.03    0.30
   4  -4   0    0.30    0.45
  -4  -4   0   -0.17    0.39
  -4  -4   0    0.56    0.66
  -4   4   0   -0.52    0.57
   4   4   0    0.24    0.36
  -4   4   0    0.85    0.84
   4   4   0    0.51    0.57
   4   4   0   -0.07    0.40
   4   4   0    0.33    1.22
   4   4   0    0.21    0.40
  -4   4   0    0.23    0.46
   4   4   0    0.04    0.42
   5  -4   0   17.87    1.29
   5  -4   0   16.52    1.11
  -5  -4   0   18.27    3.54
  -5  -4   0   15.11    2.66
  -5  -4   0   17.98    1.37
   5  -4   0   18.85    1.16
  -5  -4   0   14.52    1.76
  -5  -4   0   20.62    2.13
   5  -4   0   19.14    1.51
  -5  -4   0   20.94    1.82
  -5  -4   0   17.15    1.51
   5  -4   0   17.92    1.08
  -5  -4   0   16.53    1.71
   5   4   0   18.66    1.41
  -5   4   0   15.84    1.72
  -5   4   0   19.89    1.51
  -5   4   0   18.72    1.35
   5   4   0   16.22    1.91
  -5   4   0   13.60    2.33
  -5   4   0   16.10    2.09
   5   4   0   19.59    1.58
  -5   4   0   16.75    1.60
   5   4   0   17.74    1.19
   5   4   0   18.65    1.20
  -5   4   0   19.77    1.87
   5   4   0   18.33    1.22
  -5   4   0   17.95    1.89
  -6  -4   0    1.84    0.89
  -6  -4   0   -0.16    1.03
  -6  -4   0   -0.81    1.07
   6  -4   0    0.59    0.44
  -6  -4   0   -0.02    0.72
   6  -4   0    2.33    1.13
   6  -4   0    0.80    0.52
   6  -4   0   -0.06    0.84
   6  -4   0   -0.02    0.38
  -6  -4   0   -0.79    0.97
  -6  -4   0    0.20    0.69
  -6  -4   0   -0.40    0.78
  -6  -4   0   -0.08    0.76
  -6   4   0    0.16    0.90
  -6   4   0   -0.50    0.76
   6   4   0   -1.32    0.89
  -6   4   0   -0.94    0.83
  -6   4   0    0.06    0.56
   6   4   0    0.14    0.69
   6   4   0    0.32    0.67
   6   4   0    1.50    0.76
   6   4   0   -0.04    0.45
  -6   4   0   -0.19    0.62
  -6   4   0   -0.40    0.91
  -6   4   0   -0.24    0.68
   6   4   0   -0.14    1.32
  -6   4   0    0.61    0.93
  -7  -4   0    2.16    1.45
   7  -4   0    0.75    0.51
  -7  -4   0    1.04    0.94
   7  -4   0    1.04    0.38
  -7  -4   0    1.72    0.67
   7  -4   0    1.19    0.89
   7  -4   0    0.25    0.59
  -7  -4   0    0.53    0.65
  -7  -4   0    1.60    0.61
   7   4   0    1.11    0.94
  -7   4   0    1.27    0.77
  -7   4   0    0.57    0.77
  -7   4   0    1.08    0.67
  -7   4   0    1.40    0.59
   7   4   0    0.82    0.65
   7   4   0    1.41    0.47
  -7   4   0    1.50    0.55
  -7   4   0    0.50    0.69
  -7   4   0    0.65    0.57
   7   4   0    1.24    0.52
  -8  -4   0    0.07    0.55
  -8  -4   0   -0.18    0.50
   8  -4   0    0.62    0.37
   8  -4   0    0.44    0.34
   8  -4   0    0.62    0.49
  -8  -4   0    0.52    0.43
   8  -4   0    0.17    0.36
  -8   4   0   -0.41    0.66
   8   4   0    0.37    0.34
  -8   4   0   -0.64    0.65
   8   4   0   -0.23    0.40
  -8   4   0    0.07    0.48
  -8   4   0    1.30    0.75
  -8   4   0   -0.31    0.43
   0  -5   0    0.06    0.23
   0  -5   0    0.21    0.22
   0  -5   0    0.05    0.24
   0  -5   0   -0.43    0.25
   0  -5   0    0.12    0.25
   0  -5   0   -0.17    0.22
   0   5   0    0.04    0.26
   0   5   0   -0.58    0.58
   0   5   0   -0.13    0.22
   1  -5   0   36.02    1.92
  -1  -5   0   34.38    1.86
   1  -5   0   36.43    1.94
  -1  -5   0   35.27    1.92
   1  -5   0   37.74    1.87
  -1  -5   0   32.39    1.90
   1  -5   0   34.39    1.93
   1  -5   0   35.88    1.86
  -1  -5   0   35.17    1.91
  -1  -5   0   37.87    2.12
   1  -5   0   34.54    1.86
  -1   5   0   35.79    1.95
   1   5   0   35.45    1.92
  -1   5   0   37.15    1.89
   1   5   0   35.28    1.89
   1   5   0   34.06    1.91
   1   5   0   34.68    1.92
  -1   5   0   34.74    1.91
  -2  -5   0   32.90    1.84
   2  -5   0   34.61    1.73
  -2  -5   0   30.99    1.87
  -2  -5   0   33.27    1.83
   2  -5   0   35.51    1.77
  -2  -5   0   31.28    1.79
   2  -5   0   34.68    1.85
   2  -5   0   31.43    1.83
   2  -5   0   32.16    1.74
   2  -5   0   34.97    1.87
   2   5   0   33.46    1.81
  -2   5   0   33.68    1.87
  -2   5   0   34.19    1.82
   2   5   0   31.92    1.82
  -2   5   0   32.10    1.83
   2   5   0   31.54    1.78
   2   5   0   29.48    1.78
   2   5   0   34.23    1.86
   3  -5   0   12.02    1.03
   3  -5   0   11.98    0.79
  -3  -5   0   12.32    0.88
   3  -5   0   12.34    0.80
   3  -5   0   10.90    1.00
  -3  -5   0   12.05    1.09
  -3  -5   0   11.93    0.97
   3  -5   0   11.03    0.98
   3  -5   0   12.85    1.01
   3  -5   0   12.25    0.86
  -3   5   0   11.98    0.98
  -3   5   0   11.80    1.16
   3   5   0   13.91    1.02
   3   5   0   11.02    0.93
  -3   5   0   13.51    1.63
   3   5   0   12.41    0.86
  -3   5   0   11.24    1.04
   3   5   0   11.79    0.88
   3   5   0   11.99    0.96
   4  -5   0   12.25    1.02
  -4  -5   0   15.16    1.60
  -4  -5   0   11.50    1.94
   4  -5   0   12.77    0.96
   4  -5   0   11.08    1.37
   4  -5   0   12.57    0.84
  -4  -5   0   14.74    1.13
   4  -5   0   13.56    1.12
   4  -5   0   12.86    1.09
  -4  -5   0   13.98    1.36
   4   5   0   15.09    1.24
  -4   5   0   12.64    1.18
  -4   5   0   15.23    1.74
   4   5   0   12.70    1.00
   4   5   0   13.94    1.08
   4   5   0   11.81    1.14
  -4   5   0   13.37    1.17
   4   5   0   13.01    1.00
   5  -5   0    1.07    0.95
   5  -5   0    0.24    0.43
  -5  -5   0   -1.77    1.21
   5  -5   0    1.12    0.39
  -5  -5   0    2.50    0.93
   5  -5   0    3.56    1.08
  -5  -5   0    3.08    1.01
   5  -5   0    0.91    0.38
  -5  -5   0    1.85    0.93
  -5  -5   0    0.56    0.92
   5  -5   0    0.69    0.77
  -5   5   0    3.22    1.29
   5   5   0    0.22    0.48
   5   5   0    1.11    0.69
  -5   5   0    1.13    0.59
   5   5   0    1.53    1.18
  -5   5   0    0.70    0.72
   5   5   0    0.43    0.80
  -5   5   0    1.68    0.96
  -5   5   0    1.20    0.80
   5   5   0    1.45    1.00
  -5   5   0    2.24    0.93
  -5   5   0    0.12    1.02
  -5   5   0    1.06    1.04
   5   5   0    0.76    0.64
  -5   5   0    1.76    0.80
  -6  -5   0   16.63    2.49
   6  -5   0   14.41    0.98
  -6  -5   0   12.76    1.35
  -6  -5   0   14.14    1.71
   6  -5   0   14.61    1.04
  -6  -5   0   14.30    1.52
  -6  -5   0   15.60    2.03
   6  -5   0   11.98    1.39
  -6  -5   0   16.10    1.51
   6  -5   0   12.85    1.19
  -6   5   0   17.08    1.62
   6   5   0   15.55    1.06
  -6   5   0   13.79    1.35
   6   5   0   13.92    1.33
  -6   5   0   13.18    1.24
  -6   5   0   14.21    1.70
  -6   5   0   13.16    1.33
   6   5   0   12.32    2.14
  -6   5   0   13.62    1.61
   6   5   0   12.11    1.45
  -6   5   0   11.87    1.97
  -6   5   0   14.28    2.22
   6   5   0   14.10    1.36
   7  -5   0    1.35    0.57
  -7  -5   0    1.72    0.72
   7  -5   0    2.21    0.67
  -7  -5   0    2.04    0.94
  -7  -5   0    1.35    0.82
  -7  -5   0    2.78    0.71
   7  -5   0    2.21    0.41
  -7   5   0    2.51    0.73
  -7   5   0    1.23    0.70
  -7   5   0    2.12    0.67
   7   5   0    2.08    0.52
  -7   5   0    1.76    0.78
  -7   5   0    1.65    0.60
  -7   5   0    1.27    1.03
   7   5   0    2.65    0.66
   8  -5   0    2.67    0.52
  -8  -5   0    2.76    0.51
   8  -5   0    3.07    0.48
   8  -5   0    1.87    0.58
  -8   5   0    1.95    0.49
   8   5   0    1.81    0.41
  -8   5   0    1.04    0.63
  -8   5   0    2.35    0.57
  -8   5   0    3.52    0.79
   0  -6   0   15.45    1.13
   0  -6   0   17.97    1.15
   0  -6   0   17.61    1.15
   0  -6   0   18.14    1.10
   0  -6   0   18.63    1.17
   0  -6   0   17.07    1.14
   0   6   0   17.95    1.16
   0   6   0   17.90    1.15
  -1  -6   0   23.31    1.38
  -1  -6   0   24.27    1.46
   1  -6   0   23.86    1.46
   1  -6   0   24.42    1.32
   1  -6   0   23.48    1.34
   1  -6   0   23.18    1.36
  -1  -6   0   24.76    1.45
  -1  -6   0   23.90    1.39
  -1   6   0   21.98    1.39
   1   6   0   23.91    1.44
  -1   6   0   21.89    1.44
  -1   6   0   21.50    1.48
   1   6   0   21.55    1.48
   1   6   0   24.54    1.42
   2  -6   0    1.65    0.44
   2  -6   0    1.26    0.42
   2  -6   0    1.09    0.33
  -2  -6   0    1.52    0.68
  -2  -6   0    2.13    0.48
   2  -6   0    2.36    0.80
   2  -6   0    1.42    0.47
   2  -6   0    0.55    0.56
  -2  -6   0    2.20    0.64
   2  -6   0    1.14    0.44
   2   6   0    1.52    0.57
  -2   6   0    2.07    0.53
   2   6   0    2.18    0.60
   2   6   0    0.81    0.51
  -2   6   0    1.92    0.55
   3  -6   0    0.05    0.35
  -3  -6   0    0.14    0.96
  -3  -6   0    0.11    0.60
   3  -6   0    0.70    0.35
   3  -6   0    0.74    0.42
   3  -6   0    0.49    0.56
  -3  -6   0   -0.27    0.82
   3  -6   0    0.54    0.78
  -3  -6   0   -0.10    0.50
   3  -6   0    0.29    0.48
   3  -6   0    0.32    0.73
   3  -6   0    1.02    0.95
  -3   6   0   -0.43    0.55
   3   6   0   -0.75    0.65
   3   6   0    0.17    0.47
  -3   6   0    0.69    0.65
   3   6   0    0.23    0.56
  -3   6   0    0.11    0.65
   3   6   0    1.10    0.71
  -3   6   0    1.03    0.84
  -3   6   0    1.29    0.72
  -4  -6   0   15.12    1.82
  -4  -6   0   16.31    1.87
   4  -6   0   11.88    2.32
  -4  -6   0   13.61    1.90
   4  -6   0   12.83    1.25
   4  -6   0   15.31    1.06
   4  -6   0   15.79    0.99
   4  -6   0   14.38    1.03
  -4  -6   0   17.59    1.40
   4  -6   0   14.48    1.49
  -4   6   0   15.01    1.82
   4   6   0   16.81    1.55
   4   6   0   14.99    1.14
  -4   6   0   17.01    1.81
   4   6   0   15.99    1.53
  -4   6   0   15.96    1.82
  -4   6   0   15.30    1.34
  -4   6   0   16.06    1.87
  -4   6   0   18.31    2.52
   4   6   0   14.97    1.25
  -4   6   0   13.27    1.52
  -4   6   0   17.54    1.46
   5  -6   0    9.74    1.72
  -5  -6   0   12.19    1.63
  -5  -6   0   12.86    1.90
   5  -6   0   16.45    2.23
  -5  -6   0   10.94    2.15
   5  -6   0   11.93    0.89
   5  -6   0   12.47    0.90
   5  -6   0   12.50    1.06
  -5  -6   0   10.61    2.20
   5   6   0   15.37    1.82
  -5   6   0   12.50    1.63
   5   6   0    8.97    1.63
  -5   6   0   13.38    1.77
   5   6   0    9.65    1.27
  -5   6   0    8.02    1.27
  -5   6   0    9.50    1.95
  -5   6   0   12.30    1.21
  -5   6   0   13.81    2.14
  -5   6   0    7.10    1.88
   5   6   0   10.36    0.98
  -5   6   0   10.75    1.67
  -6  -6   0   10.87    1.42
  -6  -6   0   16.33    2.72
   6  -6   0    9.45    1.21
  -6  -6   0   13.59    1.30
  -6  -6   0   10.52    1.47
  -6  -6   0   14.87    1.29
   6  -6   0   11.58    0.88
   6  -6   0   11.90    1.00
   6  -6   0    7.51    1.34
  -6   6   0   12.29    1.25
  -6   6   0   12.25    1.33
  -6   6   0   12.73    1.35
  -6   6   0   10.12    1.53
  -6   6   0    9.87    1.16
  -6   6   0   10.38    1.54
   6   6   0   12.17    1.30
  -6   6   0    9.39    1.68
   6   6   0   12.16    1.12
   6   6   0   13.27    1.04
   7  -6   0    1.42    0.40
  -7  -6   0    1.99    0.60
  -7  -6   0    1.20    0.62
   7  -6   0    1.98    0.44
   7   6   0    1.96    0.61
  -7   6   0    3.03    0.62
  -7   6   0    2.13    0.74
  -7   6   0    1.85    0.66
   7   6   0    1.53    0.44
  -7   6   0    1.28    0.73
  -7   6   0    1.28    0.52
  -7   6   0    2.22    0.73
  -7   6   0    2.60    0.72
   0  -7   0    0.01    0.58
   0  -7   0   -0.73    0.60
   0  -7   0   -0.49    0.46
   0  -7   0   -0.26    0.86
   0  -7   0   -0.07    0.45
   0   7   0   -1.65    1.04
   0   7   0   -0.80    0.57
   0   7   0    0.59    0.48
   1  -7   0   10.23    0.86
   1  -7   0    9.24    1.11
  -1  -7   0    9.69    0.96
   1  -7   0    8.83    1.41
   1  -7   0   12.60    1.10
  -1  -7   0    8.48    1.81
   1  -7   0   10.98    0.87
   1  -7   0    8.09    1.04
   1  -7   0   10.37    0.90
   1  -7   0   11.20    0.89
  -1  -7   0   10.15    1.11
  -1   7   0    9.77    1.09
  -1   7   0   10.31    1.00
   1   7   0    8.98    1.34
   1   7   0   10.88    1.04
  -1   7   0    9.05    1.85
   1   7   0   11.23    1.10
  -2  -7   0   98.64    4.96
   2  -7   0  105.78    4.84
   2  -7   0   92.58    5.06
  -2  -7   0   92.37    5.04
   2  -7   0   95.57    4.90
   2  -7   0   95.14    5.11
   2  -7   0   98.90    4.82
   2  -7   0   99.83    4.99
   2  -7   0   84.29    5.06
  -2  -7   0   91.55    5.11
   2   7   0   93.35    4.99
   2   7   0   86.43    5.00
   2   7   0   96.56    4.99
  -2   7   0   98.72    4.96
  -2   7   0   95.58    5.06
  -2   7   0   91.33    5.06
  -2   7   0  103.29    5.05
  -2   7   0   89.56    5.21
   2   7   0  101.26    5.53
   3  -7   0    7.72    0.81
   3  -7   0    8.33    0.75
  -3  -7   0    8.29    1.57
  -3  -7   0   11.19    1.84
   3  -7   0    6.17    1.09
  -3  -7   0   11.54    2.49
  -3  -7   0    7.49    1.13
  -3  -7   0    7.92    1.98
  -3  -7   0    5.88    1.34
   3  -7   0    9.01    0.75
   3  -7   0    8.10    1.22
  -3   7   0    6.54    1.56
   3   7   0    9.33    1.71
  -3   7   0    9.52    1.73
  -3   7   0   10.11    1.73
  -3   7   0    9.21    1.39
  -3   7   0    6.96    1.13
   3   7   0    8.44    1.43
   3   7   0    7.10    1.32
  -3   7   0    8.43    1.64
  -4  -7   0   61.06    4.16
  -4  -7   0   64.01    3.77
  -4  -7   0   61.11    4.25
   4  -7   0   60.32    3.73
   4  -7   0   59.03    3.85
   4  -7   0   64.39    3.63
   4  -7   0   67.99    3.38
  -4  -7   0   59.89    3.76
   4  -7   0   66.79    3.68
   4  -7   0   65.96    3.44
  -4  -7   0   66.75    3.72
  -4  -7   0   67.56    4.18
   4   7   0   62.53    3.56
   4   7   0   63.53    3.41
  -4   7   0   66.16    3.97
   4   7   0   60.80    3.85
   4   7   0   59.91    3.81
  -4   7   0   65.63    3.79
  -4   7   0   73.96    3.88
  -4   7   0   65.79    3.73
  -4   7   0   73.93    3.78
  -4   7   0   70.62    3.60
  -4   7   0   68.62    3.85
  -4   7   0   66.74    3.66
  -5  -7   0   -0.45    0.76
  -5  -7   0   -0.29    0.81
  -5  -7   0    0.21    0.92
   5  -7   0   -0.09    0.62
   5  -7   0   -0.56    0.53
   5  -7   0   -0.04    0.38
  -5  -7   0    1.31    1.35
   5  -7   0   -2.31    1.86
   5  -7   0    1.35    0.73
  -5   7   0    0.67    1.00
   5   7   0    0.26    0.60
  -5   7   0    0.52    0.77
  -5   7   0    0.32    0.75
  -5   7   0   -0.06    0.82
  -5   7   0    1.12    0.69
  -5   7   0    0.79    0.79
  -5   7   0   -0.32    0.82
   5   7   0    1.42    0.92
   5   7   0    2.44    2.80
   6  -7   0    7.19    0.95
   6  -7   0    8.81    1.01
  -6  -7   0   10.53    1.85
   6  -7   0    7.42    0.71
  -6  -7   0    8.47    1.15
  -6   7   0    5.17    0.88
  -6   7   0    6.96    1.64
  -6   7   0    6.47    0.89
  -6   7   0    8.03    1.35
   6   7   0    8.33    1.13
  -6   7   0    7.77    1.47
  -6   7   0    6.60    0.94
  -6   7   0    6.36    0.95
   6   7   0    6.61    1.01
  -7  -7   0    0.11    0.68
  -7  -7   0    1.53    0.52
   7  -7   0    3.07    0.76
  -7   7   0   -0.02    0.67
   7   7   0    1.67    0.59
  -7   7   0    1.04    0.64
   7   7   0    0.80    0.56
  -7   7   0    1.62    0.44
  -7   7   0    2.04    0.62
  -7   7   0    1.04    0.76
  -7   7   0    1.86    0.79
   0  -8   0    7.04    1.34
   0  -8   0    5.93    1.80
   0  -8   0    6.63    1.07
   0  -8   0    2.09    1.72
   0  -8   0    5.25    1.47
   0  -8   0    8.71    0.91
   0  -8   0    4.09    1.04
   0   8   0    9.38    1.40
   0   8   0    6.01    1.10
   0   8   0    7.56    1.60
   0   8   0    6.25    1.88
   0   8   0    6.48    1.17
   0   8   0    3.94    2.23
  -1  -8   0   40.49    2.96
   1  -8   0   28.50    2.49
  -1  -8   0   37.84    2.14
   1  -8   0   28.40    2.68
   1  -8   0   32.01    1.99
   1  -8   0   36.16    2.19
  -1  -8   0   37.09    2.45
   1   8   0   36.14    2.27
   1   8   0   36.91    2.44
   1   8   0   36.19    4.80
   1   8   0   34.43    3.02
   1   8   0   32.38    3.68
  -1   8   0   34.85    4.27
  -1   8   0   37.02    3.32
   1   8   0   37.12    2.90
  -1   8   0   32.44    2.22
   2  -8   0    0.39    0.53
  -2  -8   0    0.13    1.76
  -2  -8   0    1.20    1.42
   2  -8   0    0.23    0.78
   2  -8   0   -0.06    0.82
  -2  -8   0    1.84    1.26
   2  -8   0   -0.57    0.66
   2  -8   0    1.07    0.42
  -2  -8   0    1.40    0.79
  -2   8   0    1.51    1.15
   2   8   0    0.76    1.35
  -2   8   0   -0.04    0.89
  -2   8   0    0.58    1.15
  -2   8   0    1.00    0.90
   2   8   0   -0.89    0.75
  -2   8   0   -0.25    1.36
  -2   8   0    1.40    1.40
   2   8   0   -0.32    1.33
  -3  -8   0    0.03    1.39
  -3  -8   0    0.52    0.97
   3  -8   0    0.70    1.00
   3  -8   0    3.54    0.78
  -3  -8   0    2.99    1.07
   3  -8   0    2.74    0.92
  -3  -8   0    2.24    1.22
   3  -8   0    2.67    0.46
   3  -8   0    3.04    0.75
   3  -8   0    4.59    1.43
   3  -8   0    2.61    0.87
  -3   8   0    1.64    1.02
  -3   8   0    2.54    1.23
   3   8   0    0.85    1.68
  -3   8   0    2.80    1.21
  -3   8   0    1.64    0.97
  -3   8   0    1.45    0.95
  -3   8   0    0.61    0.91
   3   8   0    2.68    1.29
  -4  -8   0    9.77    1.95
   4  -8   0    3.31    2.07
   4  -8   0    7.78    0.86
   4  -8   0    7.99    1.13
  -4  -8   0    7.61    1.08
   4  -8   0    4.40    1.22
   4  -8   0    5.35    1.18
  -4  -8   0    5.28    1.44
   4  -8   0   11.12    2.09
   4  -8   0    7.06    0.73
  -4   8   0   10.73    1.79
   4   8   0    7.36    1.16
   4   8   0    6.94    3.14
  -4   8   0    7.10    1.03
   4   8   0    8.54    2.09
   4   8   0    9.34    1.57
  -4   8   0    4.68    0.87
   4   8   0    7.04    1.37
  -4   8   0    8.35    1.71
  -4   8   0    8.11    1.42
  -4   8   0    6.19    1.08
  -4   8   0    7.39    1.32
  -5  -8   0    3.16    2.05
   5  -8   0    5.19    0.66
   5  -8   0    6.71    1.05
   5  -8   0    5.04    0.92
  -5  -8   0    3.58    0.75
  -5   8   0    6.12    0.95
   5   8   0    3.58    0.87
  -5   8   0    6.72    1.24
   5   8   0    4.15    0.63
  -5   8   0    4.96    0.87
  -5   8   0    6.22    1.08
  -5   8   0    7.32    1.21
   5   8   0    5.70    1.13
  -5   8   0    6.26    1.39
  -5   8   0    3.85    0.90
  -6  -8   0    0.81    0.54
   6  -8   0   -0.08    0.60
   6  -8   0    0.04    0.41
   6   8   0   -0.23    0.63
  -6   8   0    0.50    0.50
  -6   8   0    0.88    0.67
  -6   8   0    0.50    0.66
  -6   8   0   -0.70    0.74
  -6   8   0   -0.21    0.64
   6   8   0    0.69    0.82
  -7  -8   0    0.97    0.40
  -7   8   0   -0.35    0.55
   7   8   0    0.14    0.42
   0  -9   0    1.05    0.82
   0  -9   0    0.34    1.46
   0  -9   0    0.97    1.03
   0  -9   0    1.10    0.60
   0   9   0   -0.11    1.15
   0   9   0    0.89    1.04
   0   9   0   -1.39    1.24
   0   9   0    2.41    1.23
  -1  -9   0    8.73    1.91
  -1  -9   0    5.48    1.35
  -1  -9   0    5.35    1.15
   1  -9   0    8.93    1.53
   1  -9   0    8.13    1.10
   1  -9   0    9.92    1.99
  -1  -9   0   10.50    1.99
   1  -9   0    7.94    1.41
   1   9   0    5.78    1.27
  -1   9   0    7.23    1.16
   1   9   0    7.06    1.29
  -1   9   0    7.66    1.42
  -1   9   0    5.17    1.42
   1   9   0    7.73    1.47
   1   9   0    4.89    1.52
  -1   9   0    8.04    1.28
  -1   9   0    5.99    1.19
  -2  -9   0    4.37    1.52
  -2  -9   0    5.05    1.22
   2  -9   0    6.61    1.24
   2  -9   0    4.84    0.78
   2  -9   0    7.64    1.71
   2  -9   0    6.53    1.39
  -2   9   0    7.32    2.35
  -2   9   0    9.56    2.13
  -2   9   0    8.88    1.78
  -2   9   0    3.47    1.15
   2   9   0    6.52    1.78
   2   9   0    3.37    1.47
   3  -9   0    5.61    0.72
   3  -9   0    1.42    2.06
   3  -9   0    4.84    1.01
  -3  -9   0    4.06    1.06
   3  -9   0    6.33    1.01
  -3  -9   0    5.13    1.05
  -3   9   0    4.09    0.97
  -3   9   0    4.51    1.01
  -3   9   0    4.39    1.00
   3   9   0    2.44    1.10
  -3   9   0    3.39    1.73
  -3   9   0    4.53    0.94
   3   9   0    3.86    2.27
   4  -9   0   17.05    1.10
  -4  -9   0   14.19    2.03
   4  -9   0   14.12    2.43
   4  -9   0   17.32    1.22
  -4  -9   0   14.10    1.61
   4  -9   0   14.59    1.88
  -4   9   0   16.28    1.61
  -4   9   0   17.53    1.48
  -4   9   0   13.69    1.98
  -4   9   0   17.04    1.54
  -4   9   0   17.62    1.76
   5  -9   0    0.39    0.46
   5  -9   0   -0.12    0.46
  -5  -9   0   -1.00    1.19
  -5  -9   0    0.65    0.65
  -5   9   0    0.29    0.69
  -5   9   0    1.41    0.72
   5   9   0    0.15    0.74
  -5   9   0    0.73    0.67
  -5   9   0    0.47    0.62
   6  -9   0    1.99    0.55
  -6  -9   0    1.50    0.48
   6  -9   0    1.76    0.44
  -6   9   0    0.77    0.57
  -6   9   0    1.54    0.49
  -6   9   0    1.67    0.73
   6   9   0    0.93    0.47
   0 -10   0   51.59    3.09
   0 -10   0   50.32    3.50
   0 -10   0   46.85    3.80
   0 -10   0   48.60    3.06
   0  10   0   49.28    3.70
   0  10   0   45.67    3.41
   0  10   0   49.72    3.04
   1 -10   0   18.47    1.74
  -1 -10   0   13.60    2.21
   1 -10   0   17.74    1.80
   1 -10   0   15.95    1.30
  -1 -10   0   18.16    2.17
  -1 -10   0   21.43    2.20
   1 -10   0   19.04    3.22
  -1  10   0   16.22    2.09
   1  10   0   17.57    2.89
  -1  10   0   17.79    2.13
   1  10   0   22.93    4.13
   1  10   0   15.78    1.80
  -1  10   0   18.09    1.68
   1  10   0   22.68    2.27
  -1  10   0   14.47    1.94
   2 -10   0    9.31    2.02
  -2 -10   0    8.31    1.74
   2 -10   0    8.79    0.97
   2 -10   0   12.04    1.67
  -2  10   0    8.16    1.81
  -2  10   0    8.08    1.31
   2  10   0    5.44    1.43
  -2  10   0   10.06    1.26
   3 -10   0    8.42    0.85
   3 -10   0    9.10    1.76
  -3 -10   0    7.96    1.57
  -3 -10   0    6.08    1.16
   3 -10   0    7.67    1.46
  -3  10   0    8.89    1.42
   3  10   0    7.10    1.04
  -3  10   0    6.61    1.12
  -3  10   0    8.34    1.65
  -3  10   0    8.08    1.46
   4 -10   0   -0.62    1.18
  -4 -10   0    0.94    0.76
   4 -10   0    0.00    0.44
  -4 -10   0    1.28    0.91
   4 -10   0    1.00    1.03
  -4  10   0    0.17    0.64
  -4  10   0    0.64    0.74
  -4  10   0    0.51    0.69
   4  10   0    0.35    0.66
  -5 -10   0    0.82    0.58
  -5 -10   0    1.98    1.13
   5 -10   0    1.12    0.53
   5 -10   0    1.21    0.40
  -5  10   0    0.33    0.60
  -5  10   0    0.67    0.70
   5  10   0    0.17    0.50
  -5  10   0    0.67    0.62
   0 -11   0    0.44    1.00
   0 -11   0    0.50    0.84
   0 -11   0   -0.73    1.19
   0  11   0    1.45    1.33
   0  11   0    0.58    0.62
  -1 -11   0   -1.28    0.93
   1 -11   0    1.04    0.87
   1 -11   0    1.00    0.75
  -1 -11   0   -1.54    1.73
  -1 -11   0   -0.55    0.90
   1  11   0    0.41    1.38
   1  11   0    1.20    1.27
  -1  11   0   -0.08    0.66
   1  11   0    0.03    0.70
  -1  11   0   -0.45    0.96
  -1  11   0   -1.77    1.88
   2 -11   0    1.22    1.00
   2 -11   0    2.34    0.80
  -2  11   0    1.76    0.92
   2  11   0    2.88    0.95
  -2  11   0    2.95    0.91
  -2  11   0    3.25    1.01
  -3 -11   0    1.62    0.79
   3 -11   0    1.60    0.85
   3 -11   0   -0.16    0.65
   3  11   0    1.08    0.64
  -3  11   0    0.56    0.71
  -3  11   0    0.19    0.57
   4 -11   0   -0.49    0.82
   4 -11   0    0.23    0.54
  -4 -11   0    0.08    0.81
  -4 -11   0   -0.48    0.76
  -4  11   0   -0.15    0.64
   4  11   0    0.11    0.51
  -4  11   0    0.41    0.59
  -4  11   0    0.19    0.74
   0 -12   0   58.76    3.58
   0 -12   0   73.18    4.21
   0 -12   0   64.82    3.70
   0  12   0   65.69    3.51
  -1 -12   0    6.32    1.40
  -1 -12   0    7.87    1.43
   1 -12   0    8.43    1.62
   1 -12   0    5.47    1.03
  -1  12   0    4.71    0.89
   1  12   0    5.90    0.92
  -1  12   0    4.09    1.21
  -1  12   0    5.88    0.85
   2 -12   0    8.02    1.07
  -2 -12   0    9.72    1.22
   2 -12   0    8.56    0.97
  -2  12   0    7.15    1.20
   2  12   0    9.96    0.99
  -2  12   0    7.62    0.85
   3 -12   0    1.60    0.56
  -3 -12   0    2.17    1.14
  -3  12   0    1.27    0.51
   3  12   0    1.94    0.59
  -3  12   0    2.38    0.60
   0 -13   0   -0.58    0.69
   0  13   0   -0.10    0.35
   9   0  -1    6.86    0.61
  -9   0   1    6.56    0.76
  -9   0   1    7.04    0.72
   9   0  -1    8.34    1.09
  -8   0   1    0.83    0.62
   8   0  -1    0.14    0.67
  -8   0   1    2.06    0.84
   8   0  -1   -0.82    0.54
  -8   0   1   -0.03    0.81
  -8   0   1    0.23    0.50
  -8   0   1   -0.58    1.11
   8   0  -1    0.63    0.43
  -8   0   1    0.98    0.92
   8   0  -1   -0.10    0.40
   7   0  -1    6.88    1.09
  -7   0   1    6.31    1.00
   7   0  -1    6.47    1.11
   7   0  -1    6.98    0.88
  -7   0   1    9.08    1.25
  -7   0   1    8.84    1.53
  -7   0   1    7.69    1.02
  -7   0   1    8.63    1.09
  -7   0   1    8.70    1.58
   7   0  -1   10.41    1.53
   7   0  -1    7.90    1.27
   7   0  -1    7.60    0.76
  -6   0   1    0.04    0.63
   6   0  -1   -0.33    0.41
  -6   0   1    0.81    0.72
  -6   0   1    1.60    0.90
  -6   0   1   -0.88    0.87
  -6   0   1    0.42    0.56
   6   0  -1   -0.41    0.50
  -6   0   1   -0.89    1.21
  -6   0   1    0.83    1.10
  -6   0   1   -0.39    1.07
   6   0  -1    0.24    0.84
   6   0  -1    0.20    0.40
  -6   0   1   -0.04    0.93
   6   0  -1   -0.18    0.70
   6   0  -1   -0.04    1.00
  -5   0   1    9.44    0.96
   5   0  -1    9.00    0.98
  -5   0   1    8.97    0.80
  -5   0   1    8.23    0.83
   5   0  -1    8.46    0.66
  -5   0   1    8.31    0.98
   5   0  -1    7.56    0.73
   5   0  -1    8.16    0.94
   5   0  -1    9.94    0.82
   4   0  -1   -0.19    0.26
  -4   0   1    0.22    0.37
  -4   0   1    0.03    0.27
   4   0  -1    0.08    0.28
   4   0  -1    0.36    0.26
   4   0  -1   -0.26    0.37
  -4   0   1   -0.16    0.26
   4   0  -1    0.22    0.26
  -3   0   1  194.16    9.44
   3   0  -1  196.57    9.41
   3   0  -1  196.17    9.40
  -3   0   1  182.26    9.46
   3   0  -1  185.26    9.46
  -3   0   1  190.45    9.35
  -3   0   1  196.79    9.43
   3   0  -1  195.93    9.43
  -3   0   1  178.49    9.35
  -2   0   1    0.50    0.12
   2   0  -1    0.76    0.14
   2   0  -1    0.39    0.16
  -2   0   1    0.58    0.15
  -2   0   1    0.38    0.14
  -2   0   1    0.52    0.13
  -2   0   1    0.48    0.13
  -2   0   1    0.47    0.10
   2   0  -1    0.67    0.21
  -2   0   1    0.82    0.18
  -1   0   1   28.94    1.46
   1   0  -1   26.68    1.46
  -1   0   1   31.55    1.45
   1   0  -1   31.78    1.44
   1   0  -1   28.87    1.49
   1   0  -1   28.92    1.45
  -1   0   1   31.07    1.44
  -1   0   1   26.87    1.44
  -1   0   1   27.67    1.45
  -1   0   1   27.29    1.46
   0   0  -1   -0.06    0.03
   0   0   1    0.05    0.05
   0   0  -1    0.01    0.04
   0   0   1    0.01    0.04
   0   0  -1    0.03    0.05
   0   0  -1   -0.04    0.10
   0   0   1   -0.01    0.05
   0   0  -1   -0.01    0.08
  -1   0  -1   22.58    1.16
  -1   0  -1   19.48    1.14
   1   0   1   22.40    1.12
  -1   0  -1   22.09    1.14
  -1   0  -1   22.72    1.13
  -1   0  -1   21.70    1.16
  -1   0  -1   23.60    1.12
  -1   0  -1   22.09    1.15
  -2   0  -1    0.15    0.16
   2   0   1    0.05    0.10
  -2   0  -1    0.11    0.16
   2   0   1    0.20    0.29
  -2   0  -1    0.21    0.13
  -2   0  -1    0.17    0.16
   2   0   1    0.13    0.07
   2   0   1    0.15    0.08
   3   0   1    2.55    0.40
  -3   0  -1    2.23    0.35
  -3   0  -1    1.74    0.32
  -3   0  -1    2.23    0.39
   3   0   1    2.02    0.25
   4   0   1    0.41    0.24
   4   0   1   -0.08    0.21
  -4   0  -1    0.19    0.37
   4   0   1   -0.07    0.47
  -4   0  -1   -0.08    0.34
  -4   0  -1   -0.57    1.30
  -4   0  -1    0.15    0.55
   4   0   1    0.12    0.28
  -4   0  -1    0.58    1.07
   4   0   1   -0.52    0.47
  -5   0  -1   16.25    1.32
  -5   0  -1   17.65    2.20
   5   0   1   12.95    1.54
  -5   0  -1   18.58    1.80
  -5   0  -1   12.23    1.84
   5   0   1   16.35    1.01
   5   0   1   16.98    1.00
  -5   0  -1   12.41    2.02
   5   0   1   18.55    1.51
  -5   0  -1   16.75    1.33
  -5   0  -1   16.68    1.25
  -5   0  -1   14.97    2.67
  -5   0  -1   17.29    1.80
   5   0   1   15.31    1.18
   5   0   1   18.20    1.10
  -5   0  -1   14.96    1.66
  -6   0  -1    0.15    1.26
   6   0   1    0.52    0.43
  -6   0  -1    0.27    0.61
   6   0   1    0.68    0.45
  -6   0  -1   -0.39    0.86
  -6   0  -1    1.29    0.97
  -6   0  -1   -0.65    0.75
   6   0   1   -0.56    0.40
   6   0   1   -0.50    0.63
  -6   0  -1    0.70    1.28
   7   0   1   10.30    0.86
   7   0   1    8.15    1.32
  -7   0  -1    7.48    0.98
  -7   0  -1    9.31    1.38
  -7   0  -1    7.44    1.11
   7   0   1    9.75    0.84
   7   0   1   10.96    1.27
  -7   0  -1   11.57    1.02
   7   0   1   11.64    1.04
  -7   0  -1    8.40    1.34
  -7   0  -1    9.43    1.34
  -8   0  -1   -0.07    0.67
   8   0   1   -0.32    0.35
  -8   0  -1    0.11    0.76
  -8   0  -1   -0.14    0.42
  -8   0  -1   -0.10    0.76
  -8   0  -1    0.53    0.57
  -8   0  -1   -0.21    0.40
   8   0   1    1.76    0.74
   8   0   1   -0.42    0.40
   9  -1  -1    1.47    0.60
  -9  -1   1    0.38    0.32
   9  -1  -1   -0.17    0.60
  -9  -1   1    0.39    0.43
  -9   1   1    1.30    0.44
   9   1  -1    0.72    0.42
   8  -1  -1    1.56    0.69
   8  -1  -1    0.71    1.36
   8  -1  -1    2.15    0.44
  -8  -1   1    1.64    1.05
  -8  -1   1    1.40    0.78
   8  -1  -1    1.15    0.59
  -8  -1   1    3.09    0.77
  -8  -1   1    0.90    0.74
   8  -1  -1    1.54    0.70
   8   1  -1    2.27    0.64
  -8   1   1    2.08    0.79
  -8   1   1    2.70    0.63
   8   1  -1    1.43    0.66
   8   1  -1    1.92    0.47
  -8   1   1    0.71    0.74
  -8   1   1    0.87    0.80
   8   1  -1    1.75    0.56
  -8   1   1    1.94    0.59
  -7  -1   1   15.00    1.97
   7  -1  -1   17.02    1.13
  -7  -1   1   12.69    1.86
  -7  -1   1   15.87    1.58
  -7  -1   1   14.05    1.38
   7  -1  -1   16.25    1.38
   7  -1  -1   15.43    1.04
  -7  -1   1   14.80    1.54
  -7  -1   1   14.51    1.36
   7  -1  -1   14.67    1.39
  -7   1   1   15.61    1.34
  -7   1   1   16.37    1.44
  -7   1   1   14.35    1.79
   7   1  -1   14.97    1.54
  -7   1   1   14.06    1.73
  -7   1   1   15.35    1.41
   7   1  -1   15.93    1.40
   7   1  -1   17.05    1.36
   7   1  -1   15.47    1.07
   7   1  -1   14.55    2.29
  -7   1   1   15.11    1.63
   7   1  -1   15.01    1.19
  -7   1   1   12.41    1.80
  -7   1   1   17.23    1.98
   6  -1  -1    1.05    0.90
  -6  -1   1    1.10    1.31
   6  -1  -1    1.81    0.50
  -6  -1   1    1.50    0.87
   6  -1  -1    0.58    0.38
  -6  -1   1   -0.02    0.95
  -6  -1   1    0.08    0.87
   6  -1  -1    0.93    0.83
  -6  -1   1    0.60    0.68
  -6  -1   1    1.12    0.73
  -6  -1   1    0.77    0.75
   6  -1  -1    1.07    0.68
   6  -1  -1    1.19    0.36
  -6  -1   1    0.61    1.05
  -6   1   1    0.79    0.58
  -6   1   1    0.79    0.73
  -6   1   1    0.42    0.72
   6   1  -1    0.85    0.76
  -6   1   1   -0.04    0.89
   6   1  -1    0.21    0.44
   6   1  -1    0.52    0.95
  -6   1   1   -0.64    1.14
   6   1  -1   -0.74    0.85
  -6   1   1   -0.29    1.06
   6   1  -1    0.77    0.54
  -6   1   1    0.63    0.62
   6   1  -1    0.54    0.70
  -6   1   1    1.49    0.88
   6   1  -1    0.72    0.39
  -6   1   1   -0.48    1.17
   5  -1  -1   20.50    1.35
   5  -1  -1   19.35    1.21
   5  -1  -1   20.78    1.48
   5  -1  -1   21.15    1.22
   5  -1  -1   20.78    1.41
   5  -1  -1   20.91    1.17
  -5  -1   1   21.00    1.33
  -5  -1   1   18.19    1.41
  -5  -1   1   19.49    1.30
  -5  -1   1   18.82    1.38
   5  -1  -1   20.23    1.27
   5   1  -1   19.21    1.29
  -5   1   1   21.41    1.32
   5   1  -1   22.47    1.25
  -5   1   1   19.23    1.93
   5   1  -1   21.55    1.45
  -5   1   1   18.55    1.42
   5   1  -1   19.68    1.24
   5   1  -1   20.69    1.19
  -5   1   1   18.74    1.50
   5   1  -1   17.82    1.36
  -4  -1   1    2.99    0.48
   4  -1  -1    3.74    0.43
   4  -1  -1    3.22    0.48
  -4  -1   1    2.85    0.48
   4  -1  -1    3.46    0.64
  -4  -1   1    2.87    0.44
   4  -1  -1    2.77    0.39
   4  -1  -1    3.72    0.46
   4   1  -1    3.73    0.56
  -4   1   1    3.72    0.45
  -4   1   1    3.88    0.53
   4   1  -1    2.62    0.45
   4   1  -1    4.18    0.45
  -4   1   1    3.74    0.50
   4   1  -1    2.48    0.46
   4   1  -1    2.85    0.44
   3  -1  -1   83.73    4.05
   3  -1  -1   79.41    3.98
  -3  -1   1   81.72    4.02
   3  -1  -1   79.83    3.99
  -3  -1   1   75.21    4.01
  -3  -1   1   81.46    4.03
  -3  -1   1   77.34    4.05
   3  -1  -1   78.55    4.02
   3   1  -1   80.20    3.98
  -3   1   1   74.46    3.95
  -3   1   1   81.08    4.03
  -3   1   1   81.22    3.98
  -3   1   1   83.72    4.03
   3   1  -1   81.80    4.00
   3   1  -1   78.39    4.05
  -3   1   1   79.31    4.04
  -2  -1   1   22.93    1.25
  -2  -1   1   24.10    1.24
  -2  -1   1   23.77    1.27
  -2  -1   1   24.94    1.25
   2  -1  -1   22.91    1.25
   2  -1  -1   24.40    1.24
   2  -1  -1   23.75    1.25
  -2  -1   1   23.42    1.24
  -2  -1   1   24.06    1.22
   2  -1  -1   24.63    1.29
   2   1  -1   24.36    1.25
   2   1  -1   23.69    1.24
  -2   1   1   24.83    1.26
   2   1  -1   22.99    1.28
  -2   1   1   24.01    1.26
  -2   1   1   24.61    1.24
   2   1  -1   24.37    1.22
  -2   1   1   23.16    1.22
   1  -1  -1   -0.32    0.09
  -1  -1   1   -0.40    0.07
   1  -1  -1   -0.41    0.06
  -1  -1   1   -0.35    0.07
  -1  -1   1   -0.38    0.03
  -1  -1   1   -0.31    0.07
  -1  -1   1   -0.44    0.07
   1  -1  -1   -0.36    0.06
   1  -1  -1   -0.38    0.14
   1  -1  -1   -0.36    0.06
   1   1  -1   -0.37    0.09
   1   1  -1   -0.34    0.06
  -1   1   1   -0.36    0.05
  -1   1   1   -0.34    0.09
   1   1  -1   -0.42    0.13
  -1   1   1   -0.23    0.10
  -1   1   1   -0.28    0.06
  -1   1   1   -0.36    0.09
  -1   1   1   -0.36    0.07
   1   1  -1   -0.36    0.10
   0  -1  -1   24.75    1.27
   0  -1  -1   26.86    1.26
   0  -1  -1   23.52    1.29
   0  -1  -1   22.06    1.30
   0  -1   1   25.73    1.26
   0  -1   1   23.04    1.28
   0  -1   1   24.53    1.28
   0  -1  -1   23.87    1.28
   0  -1   1   24.50    1.30
   0   1   1   22.90    1.27
   0   1  -1   24.46    1.28
   0   1   1   24.06    1.27
   0   1  -1   22.71    1.28
   0   1   1   24.52    1.26
   0   1   1   24.88    1.25
   0   1  -1   23.38    1.29
  -1  -1  -1   10.31    0.59
  -1  -1  -1    9.17    0.58
   1  -1   1   10.90    0.58
  -1  -1  -1    9.97    0.57
  -1  -1  -1   10.43    0.61
   1  -1   1    9.08    0.58
  -1  -1  -1    9.82    0.59
  -1   1  -1   10.21    0.58
  -1   1  -1   11.19    0.57
   1   1   1   10.77    0.53
  -1   1  -1   10.39    0.59
  -1   1  -1   10.82    0.59
   1   1   1   10.81    0.54
   1   1   1   10.25    0.56
  -1   1  -1   10.67    0.60
  -1   1  -1   10.97    0.60
   1   1   1   10.31    0.57
   2  -1   1    2.52    0.18
  -2  -1  -1    2.26    0.29
   2  -1   1    2.03    0.23
  -2  -1  -1    2.18    0.29
   2  -1   1    2.11    0.27
  -2  -1  -1    2.37    0.27
   2  -1   1    2.12    0.31
   2   1   1    2.31    0.20
  -2   1  -1    2.54    0.29
  -2   1  -1    2.24    0.23
  -2   1  -1    2.26    0.32
   2   1   1    2.47    0.16
  -2   1  -1    2.45    0.29
  -2   1  -1    2.31    0.28
   2   1   1    2.31    0.19
   2   1   1    2.59    0.20
   2   1   1    2.23    0.30
  -3  -1  -1  165.37    8.19
  -3  -1  -1  158.07    8.13
   3  -1   1  168.06    8.04
   3  -1   1  160.84    8.10
   3  -1   1  165.61    8.15
  -3  -1  -1  163.09    8.16
  -3  -1  -1  164.23    8.11
  -3   1  -1  166.92    8.14
  -3   1  -1  165.02    8.13
  -3   1  -1  170.17    8.20
   3   1   1  150.59    8.02
   3   1   1  156.85    8.13
   3   1   1  164.54    8.05
   4  -1   1   16.52    1.21
   4  -1   1   17.91    0.99
   4  -1   1   17.83    1.01
  -4  -1  -1   19.50    1.33
  -4  -1  -1   18.21    1.15
  -4  -1  -1   18.60    1.16
   4  -1   1   16.92    1.27
   4  -1   1   16.21    1.00
   4   1   1   18.21    1.02
  -4   1  -1   16.75    1.16
  -4   1  -1   14.18    1.58
  -4   1  -1   18.77    1.36
   4   1   1   17.72    0.99
   4   1   1   17.30    1.19
   4   1   1   18.23    1.03
  -4   1  -1   17.22    1.15
  -5  -1  -1    4.48    0.74
  -5  -1  -1    3.50    1.07
  -5  -1  -1    2.46    0.59
   5  -1   1    3.97    0.50
  -5  -1  -1    1.87    1.26
   5  -1   1    3.40    0.43
  -5  -1  -1    5.47    1.49
  -5  -1  -1    3.25    1.00
   5  -1   1    3.86    0.61
  -5  -1  -1    3.88    0.71
   5  -1   1    3.65    0.58
  -5  -1  -1    4.96    1.10
  -5  -1  -1    3.40    0.96
  -5  -1  -1    3.95    1.79
   5  -1   1    6.93    1.46
  -5   1  -1    4.59    0.78
  -5   1  -1    5.10    0.79
   5   1   1    3.59    0.52
   5   1   1    3.85    0.64
   5   1   1    2.18    0.95
  -5   1  -1    0.78    1.16
  -5   1  -1    2.84    1.57
   5   1   1    3.90    0.52
   5   1   1    5.01    0.86
  -5   1  -1    4.79    1.29
   5   1   1    3.17    0.56
  -5   1  -1    3.48    1.19
  -5   1  -1    4.32    1.36
  -5   1  -1    2.73    0.90
  -6  -1  -1   10.41    1.69
   6  -1   1    5.18    1.17
   6  -1   1    6.49    0.77
   6  -1   1    6.28    1.00
   6  -1   1    6.33    0.69
  -6  -1  -1    7.78    1.18
   6  -1   1    5.50    0.73
  -6  -1  -1    6.33    1.17
  -6  -1  -1    5.93    0.89
  -6  -1  -1    4.21    1.23
  -6   1  -1    6.84    1.13
  -6   1  -1    6.63    1.03
   6   1   1    4.41    0.63
   6   1   1    9.48    1.61
   6   1   1    6.43    0.70
   6   1   1    7.32    1.00
   6   1   1    6.73    1.08
  -6   1  -1    6.92    1.00
  -6   1  -1    8.59    1.63
   6   1   1    6.93    0.73
  -7  -1  -1   26.44    1.77
   7  -1   1   26.88    1.54
   7  -1   1   23.28    1.62
   7  -1   1   28.08    1.87
  -7  -1  -1   24.10    1.68
  -7  -1  -1   26.62    1.91
   7  -1   1   26.69    1.53
   7  -1   1   25.24    1.77
  -7  -1  -1   25.39    1.81
  -7  -1  -1   28.59    2.00
  -7  -1  -1   26.89    1.74
  -7   1  -1   26.63    1.99
  -7   1  -1   26.32    1.84
  -7   1  -1   33.37    2.88
  -7   1  -1   26.99    1.70
   7   1   1   25.33    1.84
   7   1   1   26.92    1.55
  -7   1  -1   27.19    1.97
   7   1   1   27.82    1.57
   7   1   1   21.39    1.89
   7   1   1   22.83    1.69
  -7   1  -1   27.07    1.75
   8  -1   1   -0.16    0.39
  -8  -1  -1    0.77    0.60
  -8  -1  -1    0.39    0.73
   8  -1   1    0.21    0.37
  -8  -1  -1    0.93    0.51
  -8  -1  -1    0.32    0.41
  -8  -1  -1   -0.12    0.78
  -8  -1  -1    0.34    0.41
   8  -1   1   -0.08    0.64
  -8   1  -1    0.33    0.43
  -8   1  -1    0.26    0.53
  -8   1  -1    0.12    0.37
   8   1   1    0.57    0.36
  -8   1  -1    0.01    0.61
  -9  -2   1    7.06    0.64
   9  -2  -1    6.34    0.63
   9   2  -1    7.67    0.62
  -9   2   1    8.10    0.64
  -8  -2   1    0.67    0.73
   8  -2  -1    0.81    0.57
   8  -2  -1    1.05    0.42
  -8  -2   1    1.52    0.55
  -8  -2   1    1.51    0.73
   8  -2  -1    1.58    0.54
   8  -2  -1    0.98    0.54
  -8   2   1    1.68    0.74
  -8   2   1    1.29    0.76
  -8   2   1    0.81    0.50
   8   2  -1    2.15    0.60
  -8   2   1    1.44    0.63
  -8   2   1    1.12    0.87
   8   2  -1    1.17    0.73
   8   2  -1    1.32    0.49
   7  -2  -1   14.93    1.15
  -7  -2   1   13.08    2.79
   7  -2  -1   16.17    1.41
  -7  -2   1   19.82    1.54
  -7  -2   1   16.92    1.36
  -7  -2   1   14.29    2.19
   7  -2  -1   15.97    1.04
  -7  -2   1   17.67    1.39
   7  -2  -1   13.62    1.38
   7  -2  -1   10.71    2.19
  -7  -2   1   13.37    1.56
  -7   2   1   13.61    1.74
  -7   2   1   15.85    1.68
  -7   2   1   15.00    1.47
  -7   2   1   16.33    2.63
   7   2  -1   16.94    1.35
  -7   2   1   15.26    1.33
  -7   2   1   16.78    1.36
  -7   2   1   15.72    1.41
  -7   2   1   16.17    1.67
   7   2  -1   18.76    1.72
   7   2  -1   15.47    1.29
   7   2  -1   21.30    2.50
   7   2  -1   17.07    1.40
  -7   2   1   16.95    2.01
   7   2  -1   17.18    1.07
   6  -2  -1    5.70    1.00
  -6  -2   1    4.88    0.80
   6  -2  -1    4.52    0.62
  -6  -2   1    5.77    0.93
  -6  -2   1    5.08    1.22
  -6  -2   1    4.88    1.00
  -6  -2   1    3.51    0.90
   6  -2  -1    4.82    0.63
  -6  -2   1    5.24    0.96
   6  -2  -1    4.82    0.80
   6  -2  -1    3.44    0.77
  -6  -2   1    3.09    0.91
  -6   2   1    5.21    0.90
  -6   2   1    4.55    1.43
   6   2  -1    7.01    0.95
  -6   2   1    3.62    1.15
   6   2  -1    5.05    0.80
  -6   2   1    5.61    0.82
   6   2  -1    4.56    0.88
  -6   2   1    3.66    0.85
  -6   2   1    4.55    1.07
   6   2  -1    4.38    0.70
   6   2  -1    5.04    0.69
   6   2  -1    4.14    0.92
  -6   2   1    3.40    1.13
  -6   2   1    4.82    0.90
   6   2  -1    6.64    1.22
  -6   2   1    4.20    1.02
   6   2  -1    6.16    1.14
  -5  -2   1    0.15    0.46
  -5  -2   1   -0.11    1.10
   5  -2  -1    0.03    0.41
  -5  -2   1   -0.39    0.66
  -5  -2   1    0.03    0.45
   5  -2  -1    0.04    0.37
   5  -2  -1   -0.04    0.64
   5  -2  -1   -0.06    0.37
   5  -2  -1    0.10    0.54
   5  -2  -1   -0.44    0.30
  -5   2   1    0.03    0.56
  -5   2   1   -0.22    0.43
   5   2  -1    0.36    0.43
   5   2  -1    0.40    0.40
   5   2  -1   -0.38    0.72
  -5   2   1   -0.87    0.71
   5   2  -1    0.59    0.49
   5   2  -1    0.23    0.38
   5   2  -1    1.32    0.64
  -5   2   1    0.80    0.83
   5   2  -1   -0.50    0.58
   4  -2  -1   59.07    2.98
   4  -2  -1   58.45    3.09
  -4  -2   1   56.25    3.08
  -4  -2   1   56.06    3.02
   4  -2  -1   61.14    3.04
   4  -2  -1   60.47    2.96
  -4  -2   1   56.10    3.04
   4  -2  -1   60.13    3.06
   4  -2  -1   57.27    2.94
  -4  -2   1   55.18    3.00
   4   2  -1   58.60    3.00
   4   2  -1   60.15    3.10
  -4   2   1   59.26    3.09
   4   2  -1   56.07    2.96
   4   2  -1   55.82    2.96
  -4   2   1   57.94    3.03
   3  -2  -1    1.42    0.23
   3  -2  -1    1.07    0.23
  -3  -2   1    1.63    0.27
  -3  -2   1    1.67    0.25
  -3  -2   1    1.12    0.25
   3  -2  -1    1.62    0.27
   3  -2  -1    1.45    0.27
  -3  -2   1    1.03    0.22
   3   2  -1    1.78    0.27
   3   2  -1    1.48    0.25
   3   2  -1    1.49    0.32
  -3   2   1    1.90    0.23
  -3   2   1    1.70    0.33
  -3   2   1    1.75    0.28
  -3   2   1    1.59    0.32
  -2  -2   1  224.99   10.90
  -2  -2   1  219.36   10.84
   2  -2  -1  224.74   10.87
  -2  -2   1  224.05   10.85
   2  -2  -1  220.35   10.83
  -2  -2   1  216.21   10.83
   2  -2  -1  214.45   10.86
  -2  -2   1  216.66   10.84
   2  -2  -1  217.97   10.83
  -2   2   1  220.99   10.85
   2   2  -1  220.40   10.88
  -2   2   1  235.26   10.84
  -2   2   1  202.73   10.85
   2   2  -1  213.04   10.83
  -2   2   1  222.72   10.86
   2   2  -1  225.86   10.82
   2   2  -1  219.98   10.84
   1  -2  -1  171.04    8.06
   1  -2  -1  167.10    8.03
   1  -2  -1  170.13    8.05
  -1  -2   1  158.14    8.02
  -1  -2   1  158.04    8.03
   1  -2  -1  157.77    8.04
  -1  -2   1  153.03    8.02
  -1  -2   1  173.38    8.06
   1  -2  -1  151.73    8.02
   1  -2  -1  174.00    8.02
  -1  -2   1  155.81    8.01
   1   2  -1  157.51    8.04
  -1   2   1  167.39    8.03
   1   2  -1  154.41    8.02
   1   2  -1  160.61    8.03
   1   2  -1  162.08    8.05
  -1   2   1  174.03    8.05
  -1   2   1  168.58    8.03
  -1   2   1  158.74    8.02
   0  -2   1  371.01   17.91
   0  -2  -1  368.05   17.93
   0  -2   1  382.40   17.93
   0  -2  -1  343.99   17.93
   0  -2   1  370.65   17.91
   0  -2   1  368.68   17.89
   0  -2  -1  381.19   17.93
   0  -2  -1  347.46   17.90
   0   2  -1  368.94   17.93
   0   2  -1  393.02   17.92
   0   2   1  366.16   17.92
   0   2   1  368.56   17.91
   0   2   1  367.54   17.90
   0   2   1  374.82   17.91
   0   2  -1  316.08   17.91
   0   2  -1  355.74   17.92
  -1  -2  -1  315.53   16.16
   1  -2   1  341.65   16.15
  -1  -2  -1  323.53   16.11
  -1  -2  -1  324.65   16.18
  -1  -2  -1  330.57   16.16
   1  -2   1  338.32   16.15
   1  -2   1  322.01   16.10
   1   2   1  355.86   16.12
  -1   2  -1  335.39   16.14
   1   2   1  322.64   16.12
   1   2   1  325.45   16.10
  -1   2  -1  317.93   16.15
  -1   2  -1  318.67   16.17
   2  -2   1    1.74    0.34
  -2  -2  -1    2.28    0.27
   2  -2   1    1.62    0.20
   2  -2   1    1.56    0.20
  -2  -2  -1    1.79    0.29
   2  -2   1    2.07    0.29
  -2  -2  -1    2.10    0.32
  -2   2  -1    1.61    0.29
   2   2   1    1.66    0.21
  -2   2  -1    1.90    0.27
   2   2   1    2.09    0.25
  -2   2  -1    1.68    0.28
  -2   2  -1    1.89    0.31
  -2   2  -1    1.86    0.34
   2   2   1    1.99    0.20
   2   2   1    1.81    0.31
   2   2   1    1.76    0.31
   2   2   1    1.75    0.19
   3  -2   1   13.89    0.93
   3  -2   1   14.96    1.01
  -3  -2  -1   14.47    0.91
  -3  -2  -1   14.61    0.93
  -3  -2  -1   14.90    0.96
  -3  -2  -1   14.57    0.90
   3  -2   1   13.67    0.80
   3  -2   1   13.74    0.78
  -3   2  -1   14.04    0.93
   3   2   1   14.80    0.82
  -3   2  -1   13.84    1.01
   3   2   1   14.52    0.94
   3   2   1   13.99    0.79
  -3   2  -1   13.73    0.87
  -3   2  -1   13.97    0.92
   3   2   1   14.79    0.87
   4  -2   1    2.33    0.33
  -4  -2  -1    2.18    0.66
  -4  -2  -1    2.43    0.48
  -4  -2  -1    1.45    0.40
  -4  -2  -1    2.31    0.70
  -4  -2  -1    2.59    0.55
   4  -2   1    2.39    0.40
   4  -2   1    2.16    0.55
   4  -2   1    2.52    0.40
  -4   2  -1    2.69    0.73
   4   2   1    2.75    0.38
   4   2   1    2.46    0.42
   4   2   1    2.99    0.59
  -4   2  -1    0.84    0.82
  -4   2  -1    1.88    0.52
   4   2   1    2.84    0.45
  -4   2  -1    1.90    0.44
  -4   2  -1    1.24    0.44
   5  -2   1    0.33    0.72
  -5  -2  -1   -0.27    0.59
  -5  -2  -1    1.07    0.96
   5  -2   1    0.66    0.39
  -5  -2  -1    1.02    0.75
  -5  -2  -1   -0.65    0.67
  -5  -2  -1    0.74    1.43
  -5  -2  -1    0.18    0.89
   5  -2   1    0.42    0.34
   5  -2   1    0.22    0.33
  -5  -2  -1    0.74    1.02
   5  -2   1    0.18    0.50
  -5   2  -1   -0.15    0.56
  -5   2  -1   -0.03    0.76
   5   2   1   -0.10    0.48
   5   2   1    0.15    0.36
  -5   2  -1   -0.29    0.79
   5   2   1    1.68    0.93
  -5   2  -1   -0.48    1.11
  -5   2  -1    0.55    0.61
  -5   2  -1    0.96    0.98
   5   2   1    0.23    0.35
   5   2   1    0.17    0.43
   5   2   1    0.48    0.80
  -6  -2  -1    0.22    0.76
  -6  -2  -1    0.10    1.03
   6  -2   1    1.43    1.07
   6  -2   1    1.39    0.65
   6  -2   1    0.66    0.42
  -6  -2  -1    1.20    0.61
  -6  -2  -1    0.12    0.79
   6  -2   1    0.47    0.42
  -6  -2  -1    0.37    0.63
  -6  -2  -1    1.45    1.64
  -6  -2  -1    0.39    0.75
   6  -2   1    0.83    0.45
  -6  -2  -1    1.81    0.89
   6   2   1    1.13    1.41
  -6   2  -1   -0.91    0.96
  -6   2  -1   -0.33    0.81
   6   2   1    0.52    0.91
  -6   2  -1   -0.02    0.79
   6   2   1    0.80    0.46
  -6   2  -1    0.21    0.81
   6   2   1    2.87    0.80
  -6   2  -1    1.36    0.69
  -6   2  -1    1.14    0.60
  -6   2  -1    0.51    0.74
   6   2   1    0.85    0.49
   6   2   1   -0.10    0.43
  -6   2  -1    1.74    1.01
   6   2   1    3.22    1.40
  -7  -2  -1   16.70    1.58
  -7  -2  -1   19.99    1.75
  -7  -2  -1   17.13    1.38
  -7  -2  -1   14.71    1.30
  -7  -2  -1   17.19    1.38
   7  -2   1   17.05    1.14
  -7  -2  -1   16.04    1.30
   7  -2   1   17.35    1.13
   7  -2   1   14.55    1.60
  -7   2  -1   20.76    1.73
   7   2   1   16.99    1.66
  -7   2  -1   15.53    1.45
   7   2   1   18.76    1.42
  -7   2  -1   17.97    1.35
  -7   2  -1   15.42    1.37
   7   2   1   17.65    1.21
   7   2   1   16.49    1.46
  -7   2  -1   18.42    1.70
  -7   2  -1   16.65    1.44
   7   2   1   16.39    1.11
  -8  -2  -1    0.88    0.51
   8  -2   1    0.23    0.33
  -8  -2  -1    0.43    0.48
   8  -2   1    0.66    0.78
  -8  -2  -1    0.75    0.77
  -8  -2  -1    0.67    0.42
   8  -2   1    0.34    0.37
   8  -2   1   -0.53    0.58
  -8   2  -1   -0.15    0.38
  -8   2  -1   -0.31    0.52
  -8   2  -1   -0.59    0.60
   8   2   1    1.21    0.39
  -8   2  -1    1.19    0.69
   8   2   1    0.56    0.38
  -8   2  -1    0.79    0.45
   8   2   1    1.02    0.49
   8  -3  -1    0.01    0.38
   8  -3  -1    0.40    0.40
  -8  -3   1   -0.01    0.67
  -8  -3   1    0.44    0.53
   8  -3  -1   -0.18    0.45
  -8  -3   1    0.18    0.58
   8  -3  -1    0.84    0.54
  -8   3   1    0.36    0.56
   8   3  -1    0.06    0.72
   8   3  -1    0.26    0.41
  -8   3   1   -0.45    0.48
   8   3  -1    0.82    0.57
  -8   3   1    0.51    0.78
  -8   3   1    0.05    0.69
  -8   3   1    0.38    0.74
   7  -3  -1    5.89    0.80
  -7  -3   1    6.25    1.11
  -7  -3   1    6.92    1.08
   7  -3  -1    4.85    0.88
  -7  -3   1    6.42    0.83
   7  -3  -1    5.67    0.73
  -7  -3   1    4.28    0.86
   7  -3  -1    5.53    0.95
  -7   3   1    7.05    1.11
  -7   3   1    4.90    1.04
   7   3  -1    4.53    0.99
  -7   3   1    5.46    0.94
  -7   3   1    6.10    1.18
  -7   3   1    6.47    0.79
   7   3  -1    5.74    1.01
  -6  -3   1   11.23    1.96
   6  -3  -1   10.44    1.42
  -6  -3   1    8.35    1.41
  -6  -3   1   13.03    1.38
   6  -3  -1    8.66    1.45
   6  -3  -1   11.75    0.84
   6  -3  -1   11.54    1.44
  -6  -3   1   10.64    1.56
  -6  -3   1    9.37    1.39
   6  -3  -1   11.67    0.86
   6  -3  -1   11.73    1.01
   6   3  -1   11.16    1.02
  -6   3   1   10.74    1.61
  -6   3   1   10.99    1.37
   6   3  -1   12.93    1.57
  -6   3   1    7.85    1.38
   6   3  -1   11.41    1.35
  -6   3   1   10.99    1.35
  -6   3   1   10.59    1.45
  -6   3   1   11.18    1.87
  -6   3   1   12.64    1.15
  -6   3   1   10.73    1.58
   6   3  -1   11.58    0.92
   6   3  -1   12.35    1.22
   6   3  -1   10.90    1.31
   5  -3  -1    0.75    0.41
  -5  -3   1    1.86    0.87
   5  -3  -1    1.18    0.35
   5  -3  -1    1.37    0.51
   5  -3  -1    0.89    0.79
  -5  -3   1    1.31    0.56
  -5  -3   1    1.27    0.55
   5  -3  -1    0.62    0.62
  -5  -3   1    0.41    1.38
   5  -3  -1    1.07    0.36
   5   3  -1    1.83    0.64
   5   3  -1    1.39    0.48
   5   3  -1    1.49    0.42
   5   3  -1    1.26    0.69
   5   3  -1    1.82    0.75
  -5   3   1    1.19    0.54
  -5   3   1    0.62    0.61
  -5   3   1    0.51    0.82
   5   3  -1    1.47    0.57
  -5   3   1    0.62    0.83
   5   3  -1    0.65    0.51
  -4  -3   1    6.85    0.70
   4  -3  -1    6.20    0.77
  -4  -3   1    7.11    0.70
   4  -3  -1    7.27    0.66
   4  -3  -1    7.51    0.61
   4  -3  -1    7.37    0.54
   4   3  -1    6.89    0.78
   4   3  -1    6.77    0.70
   4   3  -1    7.57    0.65
   4   3  -1    7.70    0.66
   4   3  -1    7.70    1.05
  -4   3   1    6.62    0.78
  -3  -3   1    3.35    0.42
   3  -3  -1    3.94    0.63
   3  -3  -1    3.68    0.42
   3  -3  -1    3.98    0.45
   3  -3  -1    3.60    0.45
  -3  -3   1    3.16    0.41
  -3  -3   1    3.38    0.38
   3  -3  -1    3.97    0.40
  -3  -3   1    3.16    0.41
   3   3  -1    2.55    0.51
  -3   3   1    3.24    0.44
   3   3  -1    3.83    0.46
   3   3  -1    4.07    0.48
   3   3  -1    3.61    0.42
  -3   3   1    4.27    0.53
  -3   3   1    3.66    0.44
  -3   3   1    3.63    0.40
   2  -3  -1  216.92   10.77
   2  -3  -1  210.84   10.75
   2  -3  -1  227.16   10.80
  -2  -3   1  209.05   10.76
   2  -3  -1  212.05   10.73
  -2  -3   1  207.11   10.75
  -2  -3   1  224.38   10.81
  -2  -3   1  219.14   10.76
  -2  -3   1  208.66   10.74
   2  -3  -1  227.98   10.79
   2  -3  -1  219.91   10.75
   2   3  -1  217.54   10.80
   2   3  -1  218.56   10.74
   2   3  -1  218.50   10.76
  -2   3   1  216.51   10.76
   2   3  -1  209.44   10.76
  -2   3   1  229.64   10.76
  -2   3   1  233.25   10.79
   1  -3  -1    7.02    0.48
  -1  -3   1    7.20    0.46
  -1  -3   1    6.92    0.44
   1  -3  -1    7.43    0.44
   1  -3  -1    7.82    0.50
   1  -3  -1    7.10    0.50
   1  -3  -1    7.35    0.48
  -1  -3   1    6.86    0.45
  -1  -3   1    7.53    0.44
  -1  -3   1    7.97    0.49
  -1   3   1    6.89    0.46
   1   3  -1    7.43    0.52
  -1   3   1    7.37    0.50
  -1   3   1    6.92    0.45
  -1   3   1    6.70    0.47
   1   3  -1    7.11    0.46
   0  -3  -1    0.14    0.15
   0  -3   1    0.16    0.10
   0  -3  -1    0.11    0.16
   0  -3  -1    0.06    0.18
   0  -3  -1    0.07    0.12
   0  -3   1   -0.12    0.12
   0  -3   1    0.03    0.11
   0  -3   1    0.22    0.16
   0   3   1    0.43    0.13
   0   3   1   -0.04    0.14
   0   3  -1    0.12    0.16
   0   3   1    0.11    0.11
  -1  -3  -1  235.52   11.74
   1  -3   1  236.62   11.80
   1  -3   1  237.88   11.79
   1  -3   1  236.12   11.73
  -1  -3  -1  242.69   11.81
  -1  -3  -1  222.13   11.79
   1  -3   1  237.81   11.79
   1  -3   1  240.56   11.74
  -1  -3  -1  240.16   11.80
  -1  -3  -1  245.71   11.81
  -1   3  -1  250.41   11.79
   1   3   1  236.60   11.74
  -1   3  -1  232.43   11.78
   1   3   1  234.57   11.77
   1   3   1  241.25   11.75
  -1   3  -1  248.47   11.81
   1   3   1  244.04   11.75
  -2  -3  -1    3.85    0.42
   2  -3   1    4.86    0.33
   2  -3   1    4.28    0.33
   2  -3   1    4.98    0.49
   2  -3   1    4.43    0.43
  -2  -3  -1    3.90    0.41
  -2  -3  -1    3.70    0.40
   2   3   1    4.57    0.46
  -2   3  -1    4.61    0.42
   2   3   1    3.91    0.35
   2   3   1    4.09    0.46
  -2   3  -1    4.57    0.41
   2   3   1    4.27    0.35
   2   3   1    4.55    0.36
  -2   3  -1    4.24    0.48
   3  -3   1   14.02    0.94
  -3  -3  -1   17.09    1.06
  -3  -3  -1   15.49    1.02
  -3  -3  -1   16.20    1.03
   3  -3   1   16.58    0.90
   3  -3   1   16.52    1.04
   3  -3   1   16.05    1.06
   3  -3   1   15.64    0.90
  -3  -3  -1   16.47    1.07
   3   3   1   16.20    0.94
   3   3   1   16.76    0.90
   3   3   1   16.58    1.06
   3   3   1   15.42    0.93
  -3   3  -1   15.27    1.05
  -3   3  -1   16.57    1.01
  -3   3  -1   16.04    1.14
  -3   3  -1   14.96    1.09
  -4  -3  -1   -0.45    0.65
  -4  -3  -1   -0.36    0.55
  -4  -3  -1    0.00    0.42
   4  -3   1    0.48    0.29
   4  -3   1    0.42    0.27
   4  -3   1    0.56    0.59
  -4  -3  -1    0.60    0.50
   4  -3   1    0.94    0.48
  -4  -3  -1    0.42    0.69
   4   3   1    0.67    0.58
  -4   3  -1    0.03    0.75
   4   3   1    0.79    0.33
  -4   3  -1    1.07    0.85
   4   3   1    0.96    0.28
   4   3   1    0.37    0.32
  -4   3  -1    0.00    0.52
   4   3   1    0.32    0.48
  -4   3  -1    1.34    0.48
  -5  -3  -1    6.25    1.41
  -5  -3  -1    8.16    1.49
   5  -3   1    8.63    0.85
   5  -3   1    7.67    0.64
  -5  -3  -1    6.44    1.29
  -5  -3  -1   11.16    1.79
  -5  -3  -1    7.16    1.10
  -5  -3  -1    8.98    1.45
   5  -3   1    8.16    0.81
   5  -3   1    8.22    0.69
   5  -3   1    8.11    1.05
  -5  -3  -1    9.04    1.38
  -5  -3  -1   10.26    1.40
  -5  -3  -1    9.26    1.14
  -5   3  -1    5.77    0.86
   5   3   1    6.34    0.68
  -5   3  -1    6.16    0.96
   5   3   1    7.79    0.73
   5   3   1    8.89    0.91
  -5   3  -1    6.54    0.97
  -5   3  -1    9.96    1.33
   5   3   1    8.40    1.30
  -5   3  -1    4.97    1.05
   5   3   1    6.96    0.82
  -5   3  -1    8.06    1.14
  -5   3  -1    5.05    1.17
  -5   3  -1    7.54    0.86
  -6  -3  -1    2.60    0.89
  -6  -3  -1    1.37    0.79
   6  -3   1    2.92    0.49
  -6  -3  -1    2.69    0.75
   6  -3   1    2.57    0.51
   6  -3   1    2.59    0.47
  -6  -3  -1    1.82    1.25
  -6  -3  -1    1.63    0.76
  -6  -3  -1    1.59    1.18
   6  -3   1    2.51    0.78
   6  -3   1    2.64    1.49
  -6  -3  -1    1.67    0.61
  -6  -3  -1    3.33    0.67
  -6   3  -1    2.59    0.75
  -6   3  -1    4.25    0.93
  -6   3  -1    2.64    0.66
   6   3   1    2.93    0.58
   6   3   1    5.15    1.48
  -6   3  -1    2.44    0.89
   6   3   1    3.13    0.49
   6   3   1    2.75    0.65
   6   3   1    3.02    1.13
  -6   3  -1    2.07    0.76
  -6   3  -1    4.20    0.77
  -6   3  -1    2.48    1.13
   6   3   1    2.47    0.87
  -6   3  -1    1.67    0.90
  -7  -3  -1    0.87    0.57
   7  -3   1    1.14    0.63
  -7  -3  -1   -0.21    0.74
  -7  -3  -1    0.88    1.19
   7  -3   1    0.53    0.55
  -7  -3  -1    1.47    0.60
   7  -3   1    0.93    0.40
  -7  -3  -1    1.21    0.75
   7   3   1    0.60    0.41
   7   3   1    0.61    0.65
  -7   3  -1    1.66    1.04
  -7   3  -1    0.76    0.73
  -7   3  -1    1.49    0.76
  -7   3  -1    0.97    0.82
  -7   3  -1    0.31    0.54
  -7   3  -1    1.11    0.59
  -8  -3  -1    3.28    0.89
   8  -3   1    3.58    0.51
   8  -3   1    3.82    0.63
  -8  -3  -1    3.55    0.60
   8  -3   1    3.35    0.58
  -8  -3  -1    2.54    0.53
  -8  -3  -1    3.01    0.53
   8  -3   1    3.09    0.66
  -8   3  -1    3.54    0.72
  -8   3  -1    3.45    0.47
   8   3   1    2.85    0.60
  -8   3  -1    4.91    0.73
   8   3   1    2.79    0.46
   8  -4  -1   -0.33    0.42
  -8  -4   1   -0.42    0.58
  -8  -4   1    0.00    0.47
   8  -4  -1    0.29    0.44
   8  -4  -1    0.46    0.60
   8  -4  -1    0.04    0.36
  -8   4   1    0.04    0.65
  -8   4   1    0.78    0.70
   8   4  -1    0.69    0.38
   8   4  -1   -1.43    0.76
  -8   4   1    0.11    0.52
   8   4  -1    0.04    0.48
  -8   4   1   -0.28    0.51
  -8   4   1   -0.35    1.33
   7  -4  -1    2.82    0.68
  -7  -4   1    4.94    0.84
   7  -4  -1    2.42    0.46
  -7  -4   1    1.89    0.82
  -7  -4   1    2.86    0.80
   7  -4  -1    3.03    0.56
  -7  -4   1    3.27    0.67
  -7   4   1    2.03    0.82
  -7   4   1    2.80    1.01
   7   4  -1    2.34    0.57
   7   4  -1    3.75    0.84
  -7   4   1    2.36    0.71
  -7   4   1    2.86    0.70
   7   4  -1    2.78    0.58
  -7   4   1    3.00    0.72
  -7   4   1    3.14    0.78
   7   4  -1    3.59    0.81
  -7   4   1    2.77    0.67
   6  -4  -1    8.01    0.75
   6  -4  -1    6.39    1.18
  -6  -4   1    7.45    1.35
  -6  -4   1    8.80    1.21
   6  -4  -1    7.58    0.83
   6  -4  -1    7.43    1.24
  -6  -4   1    9.95    1.57
  -6  -4   1    8.89    1.53
   6  -4  -1    7.36    0.99
   6  -4  -1    7.26    1.27
  -6   4   1    7.88    1.29
  -6   4   1    8.25    1.46
  -6   4   1    9.18    1.09
  -6   4   1    6.14    1.15
  -6   4   1    9.93    1.81
   6   4  -1    5.80    1.22
   6   4  -1    9.56    0.85
  -6   4   1    7.05    1.19
   6   4  -1   10.26    1.22
  -6   4   1    7.23    1.36
  -6   4   1    7.24    1.48
   6   4  -1    8.10    1.33
   6   4  -1    8.24    1.33
  -5  -4   1    1.46    1.07
  -5  -4   1    2.11    0.68
  -5  -4   1    1.81    1.18
   5  -4  -1    2.57    0.48
   5  -4  -1    2.82    0.51
  -5  -4   1    3.26    1.27
   5  -4  -1    3.38    0.75
   5  -4  -1    1.89    0.63
  -5  -4   1    2.92    1.48
  -5  -4   1    3.45    1.22
   5  -4  -1    2.06    0.53
  -5  -4   1    3.40    0.69
   5   4  -1    2.72    0.51
  -5   4   1    3.25    0.69
   5   4  -1    2.56    0.78
  -5   4   1    2.79    1.16
   5   4  -1    3.53    0.76
   5   4  -1    2.81    0.80
  -5   4   1    3.02    1.18
   5   4  -1    1.98    0.61
   5   4  -1    2.38    1.00
  -5   4   1    3.25    1.45
  -5   4   1    3.01    1.31
  -5   4   1    2.55    1.02
  -5   4   1    2.14    0.69
   4  -4  -1    0.33    0.29
  -4  -4   1    0.85    0.53
  -4  -4   1    1.40    0.50
   4  -4  -1   -0.32    0.56
   4  -4  -1    0.64    0.70
  -4  -4   1    0.43    0.41
   4  -4  -1    1.67    0.48
   4  -4  -1    1.20    0.41
  -4  -4   1    1.31    0.47
   4  -4  -1    0.92    0.35
   4  -4  -1   -0.03    0.35
  -4   4   1    0.44    0.81
   4   4  -1    0.95    0.56
  -4   4   1    0.14    0.44
   4   4  -1    0.56    0.48
   4   4  -1    0.69    0.54
  -4   4   1    0.46    0.61
   4   4  -1    1.97    0.94
   4   4  -1    0.69    0.45
   4   4  -1    0.82    0.47
  -4   4   1    0.87    0.57
  -3  -4   1   14.13    1.01
   3  -4  -1   14.67    0.95
  -3  -4   1   13.99    0.92
   3  -4  -1   15.65    1.02
  -3  -4   1   14.57    0.95
  -3  -4   1   14.78    0.95
   3  -4  -1   14.84    0.98
   3  -4  -1   15.48    0.89
   3  -4  -1   15.66    0.94
   3  -4  -1   14.77    0.88
   3   4  -1   14.51    0.94
  -3   4   1   15.51    1.03
   3   4  -1   12.17    0.99
   3   4  -1   14.92    0.98
   3   4  -1   14.96    1.05
  -3   4   1   16.07    0.96
   3   4  -1   14.15    1.00
  -3   4   1   15.06    1.00
   2  -4  -1    5.73    0.48
   2  -4  -1    6.11    0.50
  -2  -4   1    5.73    0.47
  -2  -4   1    5.49    0.49
   2  -4  -1    6.15    0.50
   2  -4  -1    6.35    0.55
   2  -4  -1    5.86    0.49
  -2  -4   1    6.64    0.57
  -2  -4   1    5.52    0.53
  -2   4   1    6.56    0.50
   2   4  -1    5.44    0.48
  -2   4   1    6.13    0.56
   2   4  -1    5.72    0.59
   2   4  -1    6.06    0.59
  -2   4   1    5.67    0.53
   2   4  -1    5.04    0.74
   2   4  -1    6.82    0.57
  -1  -4   1  121.27    5.93
   1  -4  -1  124.94    5.99
   1  -4  -1  118.72    5.93
   1  -4  -1  121.76    5.94
   1  -4  -1  119.59    5.94
  -1  -4   1  118.02    5.91
  -1  -4   1  119.83    5.94
   1  -4  -1  123.64    6.00
  -1  -4   1  123.25    5.96
  -1  -4   1  126.12    6.00
  -1  -4   1  116.58    5.95
  -1   4   1  114.21    5.98
   1   4  -1  118.57    5.96
   1   4  -1  112.37    5.97
  -1   4   1  111.22    5.95
   1   4  -1  120.85    5.98
  -1   4   1  122.15    5.93
   0  -4   1   79.56    3.80
   0  -4   1   72.98    3.79
   0  -4  -1   70.33    3.73
   0  -4  -1   73.98    3.85
   0  -4  -1   74.84    3.81
   0  -4  -1   69.05    3.77
   0  -4   1   75.30    3.82
   0  -4   1   74.58    3.74
   0  -4  -1   75.85    3.82
   0  -4   1   77.31    3.75
   0   4  -1   78.37    3.79
   0   4  -1   77.69    3.80
   0   4   1   76.07    3.80
   0   4   1   75.51    3.75
   0   4   1   74.37    3.78
   0   4   1   76.22    3.77
   0   4  -1   76.45    3.82
  -1  -4  -1   48.03    2.44
  -1  -4  -1   48.71    2.44
   1  -4   1   44.80    2.35
   1  -4   1   47.81    2.36
  -1  -4  -1   48.96    2.45
   1  -4   1   45.93    2.43
   1  -4   1   45.57    2.43
   1  -4   1   47.22    2.43
  -1  -4  -1   46.65    2.37
   1   4   1   46.38    2.39
   1   4   1   46.68    2.36
   1   4   1   45.42    2.41
  -1   4  -1   44.96    2.45
  -1   4  -1   46.16    2.42
  -1   4  -1   46.76    2.42
   1   4   1   46.03    2.42
   1   4   1   46.77    2.38
   2  -4   1    4.84    0.53
   2  -4   1    5.02    0.54
  -2  -4  -1    5.19    0.57
   2  -4   1    4.35    0.39
  -2  -4  -1    4.35    0.54
   2  -4   1    5.01    0.49
  -2  -4  -1    4.51    0.51
  -2  -4  -1    4.77    0.49
   2  -4   1    4.61    0.39
  -2   4  -1    5.25    0.53
  -2   4  -1    5.09    0.62
  -2   4  -1    4.81    0.54
   2   4   1    4.91    0.49
   2   4   1    5.35    0.59
   2   4   1    5.12    0.44
   2   4   1    4.92    0.47
   2   4   1    5.01    0.41
   2   4   1    5.09    0.53
   3  -4   1    0.20    0.24
   3  -4   1    0.34    0.51
   3  -4   1   -0.04    0.32
  -3  -4  -1    0.39    0.37
  -3  -4  -1    0.36    0.45
   3  -4   1    0.54    0.24
  -3  -4  -1    2.00    0.87
   3  -4   1    0.42    0.38
   3  -4   1    0.50    0.46
  -3  -4  -1    0.29    0.45
   3   4   1    0.71    0.47
   3   4   1    0.41    0.29
  -3   4  -1    0.94    0.44
  -3   4  -1    2.21    0.91
  -3   4  -1   -0.01    0.49
  -3   4  -1    0.58    0.37
  -3   4  -1   -0.12    0.47
   3   4   1    0.63    0.32
   3   4   1    0.60    0.25
   4  -4   1    2.25    0.63
   4  -4   1    0.63    0.32
  -4  -4  -1    1.33    0.72
   4  -4   1    1.12    0.80
  -4  -4  -1    0.32    0.46
   4  -4   1    1.39    0.57
   4  -4   1    2.25    0.84
  -4  -4  -1    0.91    0.73
  -4  -4  -1   -0.25    0.88
   4  -4   1    0.95    0.35
   4   4   1    1.78    0.69
   4   4   1    0.36    0.40
  -4   4  -1    0.61    0.82
   4   4   1    1.14    0.40
  -4   4  -1    1.20    0.55
   4   4   1    1.25    0.42
  -4   4  -1    0.55    0.54
   5  -4   1    0.58    0.87
  -5  -4  -1    0.52    0.68
   5  -4   1    0.18    0.44
  -5  -4  -1    1.15    0.82
  -5  -4  -1   -1.62    1.10
  -5  -4  -1   -0.16    0.76
  -5  -4  -1    0.88    0.91
  -5  -4  -1    0.65    0.91
  -5  -4  -1    0.85    0.87
   5  -4   1    0.52    0.36
   5  -4   1    1.03    0.39
  -5  -4  -1    0.32    0.75
   5  -4   1    0.45    0.55
  -5   4  -1    0.22    0.81
   5   4   1    0.27    0.47
  -5   4  -1    0.81    0.70
   5   4   1    0.45    0.62
  -5   4  -1    0.35    0.95
   5   4   1    2.69    1.03
  -5   4  -1    0.57    1.20
  -5   4  -1   -1.31    1.16
  -5   4  -1    0.29    0.54
  -5   4  -1    0.39    0.71
   5   4   1    0.58    0.49
   5   4   1    0.44    0.43
  -5   4  -1   -1.00    1.05
  -5   4  -1    0.85    0.75
   5   4   1   -0.60    1.04
   6  -4   1    1.52    0.45
  -6  -4  -1    1.81    0.62
  -6  -4  -1    0.46    0.93
  -6  -4  -1    1.25    0.71
   6  -4   1    1.64    0.47
   6  -4   1    0.98    0.51
  -6  -4  -1    0.72    0.80
  -6  -4  -1    1.95    0.76
  -6   4  -1    1.16    0.62
  -6   4  -1    2.02    0.82
   6   4   1    2.14    0.45
  -6   4  -1    1.64    0.60
  -6   4  -1    1.60    0.67
  -6   4  -1    0.57    0.89
  -6   4  -1    1.47    0.89
   6   4   1    2.28    0.73
   6   4   1    1.70    0.67
   6   4   1    1.53    0.63
   6   4   1    3.88    2.41
  -6   4  -1    0.68    0.77
  -7  -4  -1    2.77    1.26
  -7  -4  -1    2.05    0.55
   7  -4   1    0.84    0.54
  -7  -4  -1    1.56    0.77
  -7  -4  -1    2.02    0.59
   7  -4   1    1.36    0.57
   7  -4   1    1.81    0.40
  -7  -4  -1    0.60    0.77
  -7  -4  -1    1.72    0.61
   7   4   1    1.28    0.43
  -7   4  -1    1.36    0.54
  -7   4  -1    0.26    0.67
  -7   4  -1    1.00    0.54
  -7   4  -1    1.60    0.70
  -7   4  -1    1.32    0.54
   7   4   1    0.77    0.76
   7   4   1    2.21    0.53
   7   4   1    1.20    0.64
  -7   4  -1    1.52    0.72
  -7   4  -1    1.76    0.68
  -8  -4  -1    0.62    0.77
  -8  -4  -1    1.30    0.43
  -8  -4  -1    0.28    0.36
   8  -4   1   -0.08    0.33
   8  -4   1    0.49    0.32
  -8   4  -1    1.39    0.61
  -8   4  -1   -0.73    0.80
   8   4   1    0.56    0.31
  -8   4  -1   -0.10    0.45
   8  -5  -1    2.01    0.40
  -8  -5   1    2.44    0.53
   8  -5  -1    1.86    0.36
   8  -5  -1    1.49    0.55
  -8  -5   1    3.22    0.78
  -8   5   1    2.56    0.75
  -8   5   1    0.89    0.74
  -8   5   1    2.33    0.55
  -8   5   1    2.07    0.73
   8   5  -1    3.53    0.62
   7  -5  -1   34.75    1.88
  -7  -5   1   31.66    2.05
   7  -5  -1   27.93    1.92
   7  -5  -1   38.19    2.92
   7  -5  -1   31.27    1.76
  -7  -5   1   28.55    2.03
  -7  -5   1   28.30    1.99
  -7   5   1   33.93    2.19
  -7   5   1   31.31    2.62
  -7   5   1   32.17    2.03
   7   5  -1   31.96    1.95
  -7   5   1   31.87    1.97
  -7   5   1   31.61    2.18
   7   5  -1   31.78    2.15
  -7   5   1   32.93    2.11
  -7   5   1   31.58    2.02
   7   5  -1   32.93    1.85
   6  -5  -1    2.06    0.42
   6  -5  -1    2.95    0.59
   6  -5  -1    1.88    0.74
  -6  -5   1    1.77    0.93
   6  -5  -1   -1.09    1.26
   6  -5  -1    0.25    0.79
  -6  -5   1    1.10    0.82
   6  -5  -1    2.62    0.66
  -6  -5   1    1.26    0.80
   6   5  -1    1.32    0.55
  -6   5   1    2.31    0.92
   6   5  -1    2.11    0.88
  -6   5   1    1.69    0.99
   6   5  -1    2.15    1.42
  -6   5   1    1.84    0.82
   6   5  -1    2.23    0.85
  -6   5   1    3.07    0.97
  -6   5   1    1.47    0.68
  -6   5   1    2.43    1.11
  -6   5   1    1.49    0.79
   6   5  -1    1.79    0.65
  -6   5   1    2.60    0.69
  -5  -5   1   17.30    1.89
   5  -5  -1   16.66    1.17
  -5  -5   1   17.07    1.91
   5  -5  -1   15.06    1.56
  -5  -5   1   15.56    1.54
   5  -5  -1   16.89    1.05
  -5  -5   1   16.34    1.81
   5  -5  -1   12.12    1.43
   5  -5  -1   12.81    1.51
   5  -5  -1   16.44    1.04
  -5   5   1   12.60    1.81
   5   5  -1   17.59    1.18
   5   5  -1   15.62    1.63
   5   5  -1   14.83    1.78
  -5   5   1   16.69    1.85
   5   5  -1   16.14    1.40
  -5   5   1   15.27    1.60
  -5   5   1   15.13    1.53
   5   5  -1   13.53    1.57
   5   5  -1   17.33    1.58
  -5   5   1   16.40    2.10
  -5   5   1   16.60    2.37
  -5   5   1   16.88    1.37
  -5   5   1   17.74    1.94
  -5   5   1   16.57    1.89
   4  -5  -1    1.49    0.80
  -4  -5   1    2.88    0.58
   4  -5  -1    1.76    0.39
   4  -5  -1    2.40    0.56
  -4  -5   1    3.37    0.63
   4  -5  -1    1.98    0.64
   4  -5  -1    2.12    0.38
   4  -5  -1    1.61    0.82
  -4  -5   1    4.05    0.91
   4  -5  -1    1.75    0.42
   4   5  -1    2.91    0.66
  -4   5   1    2.11    0.74
  -4   5   1    3.24    1.14
  -4   5   1    1.95    0.60
   4   5  -1    1.98    0.94
   4   5  -1    2.65    0.52
  -4   5   1    2.83    0.74
  -4   5   1    3.28    0.78
   4   5  -1    3.04    0.67
   3  -5  -1    4.83    0.57
  -3  -5   1    5.24    0.65
  -3  -5   1    5.75    0.65
   3  -5  -1    4.88    0.66
   3  -5  -1    6.12    0.68
  -3  -5   1    5.08    0.78
   3  -5  -1    4.85    0.71
   3  -5  -1    5.23    0.74
   3  -5  -1    4.81    0.53
  -3  -5   1    4.55    0.65
   3  -5  -1    4.65    0.66
   3   5  -1    4.90    0.78
  -3   5   1    4.69    0.75
  -3   5   1    7.95    1.47
  -3   5   1    5.34    0.76
  -2  -5   1    4.93    0.53
   2  -5  -1    4.92    0.55
   2  -5  -1    4.96    0.59
  -2  -5   1    4.56    0.59
   2  -5  -1    5.27    0.59
   2  -5  -1    4.52    0.52
  -2  -5   1    4.10    0.55
   2  -5  -1    3.85    0.59
  -2  -5   1    3.96    0.52
  -2  -5   1    3.26    0.80
   2  -5  -1    4.87    0.56
  -2   5   1    4.43    0.62
   2   5  -1    3.76    0.67
   2   5  -1    4.62    0.55
  -2   5   1    5.65    0.57
   2   5  -1    5.08    0.62
  -2   5   1    4.97    0.61
  -1  -5   1    0.20    0.29
  -1  -5   1    0.56    0.24
  -1  -5   1    0.39    0.27
   1  -5  -1    1.12    0.37
   1  -5  -1    0.45    0.30
  -1  -5   1    0.80    0.27
   1  -5  -1    1.20    0.34
   1  -5  -1    1.05    0.28
  -1  -5   1    0.39    0.24
   1  -5  -1    0.58    0.31
  -1  -5   1    0.32    0.29
  -1   5   1    0.39    0.27
  -1   5   1    0.97    0.33
  -1   5   1    0.49    0.23
   1   5  -1    0.32    0.30
   1   5  -1   -0.01    0.41
   1   5  -1    1.11    0.26
   0  -5  -1   16.03    0.96
   0  -5  -1   15.53    0.99
   0  -5   1   16.34    0.91
   0  -5   1   16.05    0.89
   0  -5   1   16.21    0.98
   0  -5  -1   15.52    0.98
   0  -5   1   16.65    0.98
   0  -5   1   15.73    0.97
   0   5  -1   16.04    0.97
   0   5   1   14.68    0.97
   0   5   1   14.95    0.95
   0   5   1   15.68    0.96
   0   5   1   14.31    0.98
   0   5   1   14.94    0.94
   0   5  -1   16.42    0.96
   0   5  -1   15.69    1.02
   1  -5   1   35.12    1.81
  -1  -5  -1   36.94    1.93
  -1  -5  -1   33.28    1.91
   1  -5   1   33.55    1.90
  -1  -5  -1   35.50    1.90
   1  -5   1   32.46    1.89
   1  -5   1   33.40    1.79
   1  -5   1   33.59    1.90
  -1   5  -1   34.00    1.89
   1   5   1   35.64    1.85
   1   5   1   35.89    1.85
   1   5   1   35.03    1.89
  -1   5  -1   32.81    1.92
   1   5   1   34.51    1.89
   1   5   1   35.31    1.85
  -1   5  -1   35.26    1.88
   1   5   1   34.82    1.81
   2  -5   1   27.24    1.48
   2  -5   1   26.58    1.64
   2  -5   1   30.20    1.65
  -2  -5  -1   22.77    1.62
  -2  -5  -1   26.72    1.62
   2  -5   1   28.21    1.46
   2  -5   1   26.25    1.63
   2   5   1   26.28    1.53
  -2   5  -1   28.15    1.62
   2   5   1   27.53    1.65
  -2   5  -1   29.19    1.66
   2   5   1   27.49    1.53
   2   5   1   27.76    1.51
   2   5   1   27.88    1.57
   2   5   1   26.64    1.61
   3  -5   1   72.66    3.86
   3  -5   1   66.49    3.84
  -3  -5  -1   74.33    3.91
  -3  -5  -1   73.29    3.84
  -3  -5  -1   72.78    3.77
   3  -5   1   74.11    3.79
  -3  -5  -1   69.56    4.03
   3  -5   1   74.70    3.62
   3  -5   1   69.80    3.62
   3  -5   1   71.10    3.65
  -3   5  -1   66.76    3.76
   3   5   1   73.78    3.70
   3   5   1   71.36    3.68
   3   5   1   70.02    3.64
  -3   5  -1   72.22    3.83
   3   5   1   74.42    3.67
  -3   5  -1   63.12    4.04
  -3   5  -1   67.36    3.82
   3   5   1   75.74    3.82
  -3   5  -1   74.34    3.77
   4  -5   1    0.13    0.35
   4  -5   1   -0.11    0.45
   4  -5   1    2.17    0.82
   4  -5   1    0.84    0.73
  -4  -5  -1    0.03    0.88
  -4  -5  -1    0.71    0.62
  -4  -5  -1    1.34    1.03
  -4  -5  -1   -1.48    1.58
   4  -5   1   -0.11    0.33
   4   5   1   -0.34    1.64
  -4   5  -1    0.99    1.35
   4   5   1   -0.29    0.41
   4   5   1   -0.07    0.53
  -4   5  -1   -0.34    0.77
  -4   5  -1   -0.15    1.21
   4   5   1   -0.10    0.39
   4   5   1    0.03    0.48
  -4   5  -1   -0.53    0.48
  -4   5  -1    1.92    1.54
   4   5   1    1.00    0.79
  -4   5  -1   -1.09    1.06
  -4   5  -1    0.63    0.63
  -4   5  -1   -0.54    0.87
   5  -5   1   30.13    1.77
  -5  -5  -1   34.07    2.74
   5  -5   1   28.06    1.96
   5  -5   1   32.42    2.29
   5  -5   1   33.62    1.74
  -5  -5  -1   31.61    2.32
  -5  -5  -1   36.34    2.69
  -5  -5  -1   26.85    2.81
  -5  -5  -1   29.36    2.25
   5  -5   1   29.53    1.74
  -5  -5  -1   33.28    2.83
  -5   5  -1   24.64    2.59
  -5   5  -1   30.69    2.39
   5   5   1   29.67    1.86
  -5   5  -1   32.34    1.95
  -5   5  -1   29.61    3.39
   5   5   1   27.62    2.86
   5   5   1   32.72    1.80
   5   5   1   32.32    1.85
  -5   5  -1   33.96    2.28
  -5   5  -1   32.08    2.63
   5   5   1   30.60    2.36
  -6  -5  -1   10.13    1.59
   6  -5   1    7.33    0.77
  -6  -5  -1    7.15    1.12
  -6  -5  -1    6.35    0.98
   6  -5   1    7.01    0.95
   6  -5   1    7.25    0.73
  -6  -5  -1    8.96    1.05
  -6  -5  -1    8.19    1.12
  -6  -5  -1    8.05    1.17
  -6   5  -1    5.60    1.03
   6   5   1    6.74    0.83
  -6   5  -1    8.78    1.10
  -6   5  -1    5.71    1.03
   6   5   1    7.99    1.02
  -6   5  -1    6.72    1.03
  -6   5  -1    8.91    1.52
   6   5   1    5.50    0.99
  -6   5  -1    6.54    1.08
   6   5   1    8.43    1.28
   6   5   1    7.47    1.16
  -6   5  -1    7.58    1.19
  -7  -5  -1    1.36    0.87
  -7  -5  -1    0.28    0.56
   7  -5   1    0.61    0.36
  -7  -5  -1    0.27    0.50
   7  -5   1    0.11    0.47
  -7  -5  -1    2.23    0.88
   7  -5   1   -0.57    0.60
  -7  -5  -1    0.51    0.50
  -7  -5  -1    1.31    0.67
  -7   5  -1    0.31    0.64
   7   5   1    0.91    0.55
  -7   5  -1   -0.06    0.46
   7   5   1   -0.41    0.60
  -7   5  -1    0.31    0.63
  -7   5  -1    0.08    0.79
  -7   5  -1    0.09    0.53
   7   5   1    0.29    0.42
  -7   5  -1    0.96    0.50
  -7   5  -1    0.71    0.70
  -8  -6   1    0.83    0.49
   8  -6  -1    0.29    0.37
  -8  -6   1    0.23    0.54
  -8   6   1    0.70    0.63
   8   6  -1    0.78    0.39
  -8   6   1   -0.67    0.39
  -7  -6   1   -0.12    0.61
   7  -6  -1    2.51    0.78
   7  -6  -1    0.01    0.44
   7  -6  -1    0.38    0.48
  -7  -6   1    0.10    0.63
  -7   6   1    0.51    0.71
  -7   6   1    1.54    0.72
  -7   6   1    0.74    0.65
   7   6  -1    1.14    0.54
   7   6  -1    0.66    0.50
  -7   6   1    0.98    0.72
  -7   6   1    0.47    0.70
  -7   6   1    1.28    0.93
  -7   6   1    0.09    0.62
   6  -6  -1   14.29    1.19
  -6  -6   1   14.80    1.56
  -6  -6   1   14.77    1.55
  -6  -6   1   12.75    1.53
   6  -6  -1   10.87    1.40
   6  -6  -1   15.13    1.24
  -6   6   1   12.15    1.59
  -6   6   1   15.49    1.61
  -6   6   1   11.83    1.60
   6   6  -1   13.34    1.23
  -6   6   1   13.39    2.57
  -6   6   1   14.41    1.87
  -6   6   1   14.06    1.31
   6   6  -1   13.55    1.38
   5  -6  -1   -0.58    0.65
   5  -6  -1    0.82    0.40
  -5  -6   1    1.59    1.09
  -5  -6   1    0.11    0.97
  -5  -6   1   -0.77    0.81
   5  -6  -1    0.23    1.07
   5  -6  -1    0.90    0.67
   5   6  -1   -0.44    0.61
   5   6  -1   -0.26    0.96
  -5   6   1   -0.17    0.84
  -5   6   1    0.91    0.99
  -5   6   1    0.27    0.90
  -5   6   1   -0.44    1.09
  -5   6   1    1.44    1.03
   5   6  -1    0.31    1.15
  -5   6   1   -0.09    0.97
  -5   6   1   -0.28    1.03
   5   6  -1    1.02    0.76
  -5   6   1   -0.31    0.74
  -5   6   1   -0.89    0.75
   5   6  -1   -0.81    0.69
   4  -6  -1    4.51    0.80
  -4  -6   1    8.42    2.04
   4  -6  -1    2.85    1.11
  -4  -6   1    5.48    1.65
   4  -6  -1    4.39    0.61
   4  -6  -1    2.81    0.77
   4  -6  -1    2.56    0.55
  -4  -6   1    1.47    0.76
   4  -6  -1    3.32    0.58
  -4  -6   1    2.67    2.27
   4   6  -1    2.27    1.05
  -4   6   1    4.09    1.51
  -4   6   1    0.59    1.17
   4   6  -1    2.29    0.61
  -4   6   1    4.24    1.59
   4   6  -1    4.39    1.83
  -4   6   1    5.31    1.08
  -4   6   1    3.44    0.99
  -4   6   1    1.83    1.43
  -4   6   1    3.89    0.85
  -4   6   1    3.25    1.28
   4   6  -1    1.52    0.97
  -4   6   1    3.51    0.81
   3  -6  -1   -0.33    0.65
   3  -6  -1    0.48    0.72
   3  -6  -1    0.34    0.41
   3  -6  -1    0.70    0.37
  -3  -6   1    0.83    0.57
   3  -6  -1    0.15    0.51
  -3  -6   1    0.15    0.73
  -3  -6   1    1.43    0.55
   3  -6  -1    0.60    0.56
   3  -6  -1    1.35    0.87
   3  -6  -1   -0.35    0.35
  -3  -6   1   -0.03    0.53
   3   6  -1    0.80    0.66
  -3   6   1    0.16    0.65
  -3   6   1    1.23    0.73
  -3   6   1    0.77    0.62
   3   6  -1   -1.72    1.64
  -3   6   1    0.68    0.61
   2  -6  -1   26.98    1.70
  -2  -6   1   27.21    1.63
   2  -6  -1   26.55    1.55
   2  -6  -1   22.98    1.63
   2  -6  -1   25.87    1.61
   2  -6  -1   26.46    1.62
   2  -6  -1   24.80    1.51
  -2  -6   1   27.31    1.60
  -2  -6   1   26.86    1.70
  -2  -6   1   28.34    1.59
   2   6  -1   28.49    1.64
  -2   6   1   28.34    1.66
  -2   6   1   28.20    1.65
  -2   6   1   31.42    1.67
   2   6  -1   23.77    1.70
   2   6  -1   28.95    1.71
  -1  -6   1   31.33    1.84
  -1  -6   1   34.44    1.91
  -1  -6   1   33.07    1.97
   1  -6  -1   33.10    1.90
  -1  -6   1   35.49    1.88
  -1  -6   1   33.68    1.92
  -1  -6   1   34.44    1.88
   1  -6  -1   34.22    2.03
  -1  -6   1   33.07    1.83
   1   6  -1   33.78    1.92
   1   6  -1   37.61    2.19
  -1   6   1   37.34    1.96
   0  -6  -1    0.59    0.41
   0  -6   1    1.56    0.33
   0  -6   1    1.04    0.36
   0  -6   1    0.77    0.41
   0  -6   1    1.00    0.38
   0  -6   1    1.34    0.28
   0  -6   1    1.55    0.45
   0  -6   1    0.88    0.41
   0  -6  -1    1.47    0.46
   0   6  -1    1.11    0.39
   0   6   1    1.74    1.02
   0   6   1    1.23    0.38
   1  -6   1    7.39    0.63
   1  -6   1    7.33    0.61
  -1  -6  -1    7.15    0.76
   1  -6   1   10.09    1.02
  -1  -6  -1    6.10    0.84
   1  -6   1    9.85    0.81
  -1  -6  -1    9.56    1.58
   1  -6   1    8.43    0.89
  -1  -6  -1    8.39    0.85
   1  -6   1    7.28    0.82
   1   6   1    8.93    0.81
  -1   6  -1    6.58    1.48
   1   6   1    8.22    0.74
  -1   6  -1    7.41    0.82
   1   6   1    7.21    0.79
   1   6   1    8.77    0.80
   1   6   1    7.13    0.76
   1   6   1    7.13    0.88
   1   6   1    9.01    0.84
  -1   6  -1    8.56    0.85
  -2  -6  -1    2.61    0.63
   2  -6   1    3.54    0.49
  -2  -6  -1    2.73    0.84
   2  -6   1    3.78    0.73
   2  -6   1    3.18    0.76
   2  -6   1    4.23    0.51
  -2  -6  -1    4.25    0.73
   2  -6   1    4.80    0.57
  -2  -6  -1    4.16    0.78
   2  -6   1    4.47    0.69
  -2   6  -1    4.93    0.73
   2   6   1    4.83    0.86
   2   6   1    3.11    0.64
  -2   6  -1    4.54    0.85
   2   6   1    4.32    0.64
  -2   6  -1    3.08    0.95
   2   6   1    3.96    0.73
   2   6   1    4.05    0.66
  -2   6  -1    3.29    0.67
   2   6   1    4.11    0.54
   3  -6   1    4.09    0.55
  -3  -6  -1    5.87    1.17
  -3  -6  -1    4.80    0.95
   3  -6   1    4.43    0.81
   3  -6   1    4.19    0.55
  -3  -6  -1    4.27    0.79
   3  -6   1    4.24    0.70
   3  -6   1    3.49    0.57
  -3  -6  -1    0.96    1.38
   3  -6   1    6.01    1.40
   3  -6   1    4.01    1.04
  -3  -6  -1    2.65    1.05
  -3  -6  -1    3.79    1.08
   3   6   1    3.01    0.51
  -3   6  -1    5.92    1.15
   3   6   1    5.16    0.90
  -3   6  -1    5.70    0.95
  -3   6  -1    4.97    0.70
  -3   6  -1    4.68    0.90
  -3   6  -1    2.54    1.06
  -3   6  -1    4.47    1.26
   3   6   1    4.25    0.81
   3   6   1    4.59    0.77
  -3   6  -1    4.54    0.95
   4  -6   1   43.39    2.89
   4  -6   1   48.59    2.46
   4  -6   1   48.22    2.45
  -4  -6  -1   44.98    2.86
   4  -6   1   49.03    2.43
  -4  -6  -1   47.42    2.99
   4  -6   1   45.13    2.64
  -4  -6  -1   43.88    3.12
  -4  -6  -1   37.47    3.79
  -4  -6  -1   51.41    3.01
  -4  -6  -1   40.97    2.89
  -4  -6  -1   47.17    3.05
  -4  -6  -1   38.73    3.17
  -4   6  -1   45.66    3.11
   4   6   1   48.22    2.94
  -4   6  -1   42.15    2.77
   4   6   1   43.27    2.80
   4   6   1   43.80    2.51
  -4   6  -1   45.25    2.92
   4   6   1   46.54    2.52
  -4   6  -1   48.48    3.29
  -4   6  -1   49.78    3.08
  -4   6  -1   43.61    2.70
  -4   6  -1   44.86    2.90
   4   6   1   48.20    2.49
  -4   6  -1   46.69    2.63
   5  -6   1    8.54    2.02
  -5  -6  -1    8.14    1.33
  -5  -6  -1    9.73    1.45
  -5  -6  -1    9.32    1.46
  -5  -6  -1    9.51    1.69
  -5  -6  -1    9.32    1.32
   5  -6   1    8.10    0.74
   5  -6   1    7.08    1.17
  -5  -6  -1    7.13    1.13
   5  -6   1    8.83    0.80
   5   6   1    8.83    1.55
  -5   6  -1    7.61    1.08
   5   6   1    7.90    0.86
  -5   6  -1    9.48    1.05
   5   6   1    6.32    1.08
  -5   6  -1   11.09    1.98
  -5   6  -1    8.07    1.36
   5   6   1    9.24    1.05
  -5   6  -1    8.42    1.74
  -5   6  -1    8.80    1.22
  -5   6  -1    4.88    1.87
   5   6   1    7.66    1.26
  -5   6  -1    7.51    1.12
   5   6   1    7.31    1.90
  -6  -6  -1   30.73    2.26
  -6  -6  -1   27.33    1.92
   6  -6   1   28.87    1.57
  -6  -6  -1   27.02    1.78
  -6  -6  -1   26.85    1.85
   6  -6   1   30.87    1.82
  -6  -6  -1   23.41    1.95
   6   6   1   26.66    1.61
   6   6   1   28.71    1.74
  -6   6  -1   30.21    2.09
   6   6   1   25.45    2.05
  -6   6  -1   28.02    1.75
  -6   6  -1   28.38    2.12
  -6   6  -1   28.79    2.08
  -6   6  -1   29.48    1.82
  -6   6  -1   28.81    1.80
  -6   6  -1   22.75    1.82
  -7  -6  -1    0.99    0.52
  -7  -6  -1    0.26    0.44
  -7  -6  -1    1.30    0.74
  -7  -6  -1    1.84    1.20
   7  -6   1    1.18    0.42
   7   6   1    1.00    0.36
  -7   6  -1    1.10    0.54
  -7   6  -1    0.49    0.61
  -7   6  -1    0.51    0.42
  -7   6  -1    0.74    0.61
  -7   6  -1    0.59    0.77
  -7   6  -1    0.96    0.49
   7  -7  -1    9.77    0.78
  -7  -7   1    9.01    1.09
   7  -7  -1    7.20    1.14
   7  -7  -1    9.73    1.09
  -7   7   1   11.40    1.31
   7   7  -1   10.10    0.95
  -7   7   1   10.44    1.04
  -7   7   1   11.19    1.92
  -7   7   1    9.00    0.94
   6  -7  -1    1.37    0.66
  -6  -7   1    0.57    0.71
   6  -7  -1    1.13    0.45
  -6  -7   1    1.71    0.88
   6  -7  -1    0.77    0.49
  -6   7   1   -0.45    0.84
  -6   7   1    1.41    0.78
   6   7  -1    0.99    0.68
   6   7  -1    1.02    1.02
  -6   7   1    1.80    0.68
   6   7  -1    1.52    0.65
  -6   7   1    0.22    0.91
  -6   7   1    0.36    0.81
  -6   7   1    1.19    0.71
   5  -7  -1   15.51    1.33
   5  -7  -1   17.86    1.33
   5  -7  -1   17.41    1.10
   5  -7  -1   11.65    2.08
  -5  -7   1   17.94    1.72
  -5  -7   1   16.52    2.80
  -5   7   1   18.57    1.57
  -5   7   1   16.66    2.15
   5   7  -1   19.39    1.69
  -5   7   1   17.01    1.94
  -5   7   1   16.60    1.92
   5   7  -1   15.53    1.41
  -5   7   1   15.10    1.71
   5   7  -1   20.41    2.83
  -5   7   1   16.99    1.77
  -5   7   1   18.18    1.79
   4  -7  -1    7.63    1.77
  -4  -7   1    4.82    1.38
   4  -7  -1    7.16    1.35
  -4  -7   1    7.40    1.57
   4  -7  -1    8.63    0.87
   4  -7  -1    6.26    1.06
   4  -7  -1   10.82    2.18
   4   7  -1   10.23    1.97
   4   7  -1    7.12    1.33
  -4   7   1    8.16    1.56
  -4   7   1   11.16    1.66
  -4   7   1    9.71    1.77
  -4   7   1    6.23    1.17
  -4   7   1    9.76    1.71
  -4   7   1    9.02    2.04
  -4   7   1    8.60    1.26
  -3  -7   1   36.86    3.15
   3  -7  -1   34.38    2.20
   3  -7  -1   40.57    4.05
   3  -7  -1   40.00    2.04
  -3   7   1   38.88    2.70
  -3   7   1   35.22    2.86
  -3   7   1   35.45    2.34
   3   7  -1   33.56    2.38
   3   7  -1   37.85    2.38
   3   7  -1   33.99    2.73
  -2  -7   1    1.26    0.61
   2  -7  -1    0.38    0.66
  -2  -7   1    2.77    1.13
   2  -7  -1    1.23    0.55
   2  -7  -1    1.62    0.53
   2  -7  -1    2.23    0.81
  -2  -7   1    1.00    0.59
  -2  -7   1    1.27    0.81
  -2  -7   1    1.25    0.75
   2  -7  -1    0.42    0.43
  -2   7   1    0.91    0.88
   2   7  -1    0.14    0.73
  -2   7   1    2.05    0.79
   2   7  -1    1.61    0.66
  -2   7   1    2.58    0.67
  -1  -7   1   12.59    0.99
   1  -7  -1   14.38    1.47
  -1  -7   1   11.73    1.14
  -1  -7   1   11.28    1.15
   1  -7  -1   12.26    1.02
  -1  -7   1   12.32    1.00
   1  -7  -1   11.70    1.13
   1  -7  -1    8.33    0.96
   1   7  -1   11.49    1.99
   1   7  -1   11.46    1.07
   1   7  -1    9.22    1.14
  -1   7   1    8.39    1.82
  -1   7   1   10.42    1.04
  -1   7   1    9.81    1.10
   0  -7  -1    8.72    1.55
   0  -7  -1    5.16    0.73
   0  -7   1    6.01    0.76
   0  -7   1    4.94    0.90
   0  -7  -1    5.22    0.99
   0  -7   1    6.70    0.70
   0  -7   1    6.58    0.82
   0  -7   1    6.05    0.67
   0  -7   1    6.56    0.69
   0  -7   1    6.19    0.97
   0   7   1    6.30    0.87
   0   7   1    5.07    0.74
   0   7  -1    5.77    0.85
   0   7  -1    4.42    0.74
   0   7  -1    4.48    0.99
   1  -7   1    3.67    0.82
  -1  -7  -1    3.91    0.81
  -1  -7  -1    2.47    0.88
   1  -7   1    2.41    0.79
   1  -7   1    2.77    0.64
   1  -7   1    3.11    0.51
   1  -7   1    3.98    0.58
  -1  -7  -1    5.19    0.73
   1  -7   1    4.13    0.67
   1   7   1    3.90    0.74
  -1   7  -1    2.63    0.60
  -1   7  -1    3.90    0.83
   1   7   1    2.98    0.50
  -1   7  -1    3.57    0.79
  -1   7  -1    3.38    0.97
   1   7   1    3.48    0.66
   1   7   1    3.26    1.28
  -1   7  -1    4.42    0.64
  -1   7  -1    2.50    1.07
  -2  -7  -1    0.04    0.94
  -2  -7  -1   -0.15    1.09
   2  -7   1    0.11    0.74
   2  -7   1    0.06    0.42
   2  -7   1    0.03    0.47
   2  -7   1    1.78    0.87
   2  -7   1    0.11    1.58
   2  -7   1    0.92    1.98
  -2  -7  -1   -0.69    1.40
   2  -7   1    0.57    0.44
  -2  -7  -1   -1.02    0.84
  -2  -7  -1    1.12    0.56
  -2   7  -1   -0.32    1.01
  -2   7  -1   -0.10    1.18
  -2   7  -1    1.07    0.90
   2   7   1   -0.04    0.66
   2   7   1    1.33    0.87
   2   7   1    0.79    0.82
  -2   7  -1    0.78    0.69
  -2   7  -1    0.00    1.00
   2   7   1    0.82    0.46
  -2   7  -1   -1.29    2.03
  -2   7  -1    0.14    0.70
   2   7   1    0.50    1.15
  -2   7  -1    0.77    0.61
  -3  -7  -1    1.36    1.28
  -3  -7  -1   -0.86    0.86
   3  -7   1    0.15    0.43
   3  -7   1    0.48    0.40
  -3  -7  -1    1.67    0.97
   3  -7   1   -0.68    0.92
  -3  -7  -1    1.19    0.83
   3  -7   1    1.17    0.94
  -3  -7  -1    1.06    1.17
   3  -7   1    0.75    0.45
  -3   7  -1   -0.01    0.93
  -3   7  -1    0.72    0.95
   3   7   1    0.66    0.72
  -3   7  -1    1.31    1.23
  -3   7  -1    0.08    0.76
  -3   7  -1    0.14    1.42
   3   7   1    1.02    0.67
  -3   7  -1    1.17    0.87
   3   7   1    0.78    0.49
  -3   7  -1    1.77    1.07
   3   7   1    1.75    1.07
  -3   7  -1    0.99    0.63
  -4  -7  -1    7.71    1.81
   4  -7   1    9.50    0.81
  -4  -7  -1    8.66    1.56
   4  -7   1    8.39    1.42
   4  -7   1    9.24    0.83
   4  -7   1    9.89    1.74
  -4  -7  -1   10.91    1.46
  -4  -7  -1    9.16    1.81
   4  -7   1    8.81    1.10
  -4  -7  -1    9.68    2.09
   4  -7   1   10.05    0.94
  -4  -7  -1   12.46    1.62
  -4  -7  -1    9.65    1.33
   4   7   1   10.00    1.90
   4   7   1    9.97    0.91
  -4   7  -1   10.44    1.87
   4   7   1    8.51    1.14
  -4   7  -1    7.86    1.42
  -4   7  -1    7.67    1.22
   4   7   1    8.79    1.28
  -4   7  -1    8.81    1.51
  -4   7  -1    7.98    1.84
  -4   7  -1    8.85    1.13
  -4   7  -1    8.35    1.38
  -5  -7  -1    7.63    1.59
  -5  -7  -1    4.69    0.80
  -5  -7  -1    5.53    0.87
  -5  -7  -1    3.96    0.85
   5  -7   1    5.01    0.68
   5  -7   1    4.62    0.74
   5  -7   1    5.59    0.72
  -5   7  -1    6.49    1.13
  -5   7  -1    6.24    1.05
   5   7   1    5.42    1.02
  -5   7  -1    4.20    0.82
  -5   7  -1    4.23    0.86
   5   7   1    4.40    0.81
  -5   7  -1    4.33    0.66
  -5   7  -1    4.99    0.91
  -5   7  -1    4.59    0.77
  -6  -7  -1   12.53    2.22
  -6  -7  -1    9.26    1.11
  -6  -7  -1    9.64    1.62
  -6  -7  -1    7.32    1.08
   6  -7   1    8.91    0.71
   6  -7   1    9.82    0.96
   6  -7   1    7.67    0.99
  -6   7  -1   11.28    1.51
   6   7   1    9.43    0.89
  -6   7  -1   10.46    0.95
  -6   7  -1    8.56    1.10
  -6   7  -1   12.18    1.40
   6   7   1    7.76    0.99
  -6   7  -1    8.14    1.06
  -6   7  -1    8.90    1.08
  -7  -7  -1    2.50    0.50
  -7  -7  -1    1.14    0.51
  -7   7  -1    3.32    0.49
   7   7   1    1.83    0.50
  -7   7  -1    2.29    0.43
  -7   7  -1    1.88    0.49
   7  -8  -1    0.35    0.54
  -7  -8   1    0.77    0.45
  -7   8   1    1.02    0.66
  -7   8   1    1.04    0.75
   7   8  -1   -0.16    0.48
   7   8  -1   -0.01    0.63
   6  -8  -1    2.03    0.44
   6  -8  -1    1.36    0.61
  -6  -8   1    1.65    0.62
  -6   8   1    1.36    0.66
  -6   8   1    0.97    0.62
  -6   8   1    0.93    0.90
  -6   8   1    1.33    0.67
  -6   8   1    1.80    1.25
   6   8  -1    1.00    0.62
   5  -8  -1   20.62    1.32
  -5  -8   1   24.69    2.41
  -5  -8   1   19.58    1.74
   5  -8  -1   20.69    1.44
  -5   8   1   19.45    2.44
  -5   8   1   21.22    1.99
   5   8  -1   21.10    1.58
  -5   8   1   18.61    1.63
   5   8  -1   18.43    1.95
  -5   8   1   22.11    1.94
  -5   8   1   22.13    1.77
   4  -8  -1    1.52    1.12
  -4  -8   1    1.61    1.15
   4  -8  -1    2.31    0.94
   4  -8  -1    1.62    1.84
  -4  -8   1    1.82    0.82
   4  -8  -1    0.67    0.47
   4  -8  -1    1.01    0.58
  -4   8   1   -0.43    0.90
  -4   8   1    1.27    0.86
   4   8  -1    0.81    0.83
  -4   8   1   -0.41    0.97
   4   8  -1    2.96    1.08
  -4   8   1    0.71    0.96
  -4   8   1    1.46    1.54
  -4   8   1    1.64    0.98
   3  -8  -1   10.18    0.91
   3  -8  -1   11.45    1.19
  -3  -8   1   10.53    1.81
  -3  -8   1   11.42    2.10
   3  -8  -1    8.05    1.28
   3  -8  -1    8.75    1.61
  -3   8   1   10.41    1.64
  -3   8   1   10.38    1.69
  -3   8   1   13.37    2.27
   3   8  -1   13.77    2.01
  -3   8   1    9.65    1.35
   3   8  -1   10.04    1.60
  -3   8   1   10.29    1.89
  -2  -8   1   -0.63    0.65
   2  -8  -1   -1.43    0.75
  -2  -8   1    0.24    1.36
  -2  -8   1   -0.52    1.16
   2  -8  -1    0.92    0.66
   2  -8  -1    0.60    0.52
   2  -8  -1   -0.57    0.81
  -2   8   1    0.13    1.28
  -2   8   1    1.96    1.21
  -2   8   1   -1.10    0.83
   2   8  -1    1.51    1.11
  -2   8   1    0.56    0.83
   2   8  -1    0.00    1.24
   2   8  -1   -0.49    2.24
  -2   8   1    2.90    1.21
   2   8  -1    1.04    0.98
  -1  -8   1   12.88    1.44
   1  -8  -1   11.00    2.20
   1  -8  -1   14.63    1.97
   1  -8  -1   14.53    1.37
  -1  -8   1   15.05    1.12
   1  -8  -1   18.40    3.29
  -1  -8   1   14.71    1.66
   1   8  -1   16.24    2.03
   1   8  -1   18.69    2.05
  -1   8   1   15.51    1.40
   1   8  -1   13.98    1.44
   0  -8   1    4.03    1.29
   0  -8   1    1.37    0.63
   0  -8  -1   -0.91    1.51
   0  -8  -1    2.04    0.68
   0  -8   1    2.30    2.41
   0  -8   1    2.04    0.72
   0  -8   1    2.37    0.80
   0  -8   1   -0.76    1.58
   0   8  -1    4.08    2.48
   0   8  -1    1.18    0.69
   0   8  -1    3.27    1.45
   0   8  -1    2.16    1.19
   0   8  -1    3.35    1.72
   0   8   1    3.09    0.81
   1  -8   1    0.25    0.79
  -1  -8  -1    0.11    0.69
  -1  -8  -1    3.47    1.34
  -1  -8  -1    2.67    1.27
   1  -8   1   -0.33    0.82
   1  -8   1    1.55    0.68
   1  -8   1    0.48    0.53
   1  -8   1    1.93    0.56
   1  -8   1    1.67    0.74
   1  -8   1    1.38    0.44
   1  -8   1    0.97    0.82
  -1  -8  -1    3.31    2.21
   1   8   1    0.18    0.73
  -1   8  -1   -0.90    1.76
   1   8   1    1.10    0.89
  -1   8  -1    0.17    1.00
  -1   8  -1    3.66    1.58
   1   8   1    1.30    1.53
  -1   8  -1   -0.90    1.47
  -1   8  -1    0.18    2.08
  -1   8  -1    0.84    1.00
  -1   8  -1   -0.12    1.21
   1   8   1   -0.54    1.05
  -1   8  -1    0.99    0.79
   2  -8   1    4.99    0.73
  -2  -8  -1    5.27    1.18
  -2  -8  -1    4.52    1.31
  -2  -8  -1    3.85    1.17
   2  -8   1    4.32    0.72
   2  -8   1    4.37    0.90
   2  -8   1    3.94    1.00
  -2  -8  -1    6.45    1.33
   2  -8   1    5.93    0.68
   2   8   1    6.34    1.32
  -2   8  -1    6.64    1.40
   2   8   1    2.95    0.61
  -2   8  -1    4.57    1.28
  -2   8  -1    7.35    1.23
   2   8   1    5.81    1.35
  -2   8  -1    2.94    0.90
  -2   8  -1    3.10    0.92
  -2   8  -1    4.63    1.11
  -2   8  -1    3.63    0.86
  -2   8  -1    3.61    0.97
  -2   8  -1    4.01    1.34
  -2   8  -1    6.56    1.09
   3  -8   1    4.94    0.76
  -3  -8  -1    5.35    1.83
  -3  -8  -1    4.52    1.62
   3  -8   1    5.33    1.01
   3  -8   1    8.02    1.52
   3  -8   1    5.48    0.89
   3  -8   1    4.09    1.20
  -3  -8  -1    5.13    1.19
   3  -8   1    6.67    0.68
  -3   8  -1    4.61    1.45
  -3   8  -1    3.10    1.30
  -3   8  -1    4.79    0.83
  -3   8  -1    5.05    1.28
   3   8   1    4.14    1.71
   3   8   1    4.66    0.63
   3   8   1    3.36    0.92
  -3   8  -1    4.95    1.06
  -3   8  -1    3.84    1.12
  -4  -8  -1    1.26    0.99
   4  -8   1    3.38    0.71
   4  -8   1    1.30    0.71
  -4  -8  -1    2.10    1.14
   4  -8   1    1.16    0.54
  -4   8  -1    2.83    0.70
  -4   8  -1    1.68    0.80
  -4   8  -1    0.54    0.73
   4   8   1    2.14    0.61
  -4   8  -1    1.20    0.97
   4   8   1    0.93    1.09
  -4   8  -1    1.87    0.67
   4   8   1    1.08    0.71
   5  -8   1    5.11    0.90
   5  -8   1    7.79    0.71
  -5  -8  -1    8.92    1.04
  -5  -8  -1    6.70    1.08
  -5   8  -1    6.82    1.08
  -5   8  -1   10.22    1.46
  -5   8  -1    7.00    1.27
  -5   8  -1    8.03    1.46
  -5   8  -1    8.05    1.16
   5   8   1    4.25    1.57
  -5   8  -1    7.24    1.08
  -5   8  -1    7.66    1.15
  -6  -8  -1    0.03    0.46
   6  -8   1   -0.23    0.70
   6  -8   1    0.30    0.44
  -6  -8  -1    0.29    0.84
   6  -8   1    0.15    0.36
   6   8   1   -0.12    0.47
  -6   8  -1   -0.39    0.57
  -6   8  -1    1.38    0.67
  -6   8  -1   -0.30    0.60
  -6   8  -1    0.62    0.44
  -6   8  -1   -0.97    0.64
  -6   8  -1    0.61    0.72
   6  -9  -1    0.09    0.52
  -6  -9   1    0.05    0.54
  -6   9   1   -0.95    0.78
  -6   9   1   -0.57    0.68
   6   9  -1   -0.21    0.50
  -6   9   1    0.84    0.59
   6   9  -1    0.88    0.78
  -5  -9   1    1.36    1.13
   5  -9  -1   -1.14    0.76
  -5   9   1    0.16    0.84
  -5   9   1    1.04    1.19
   5   9  -1   -0.02    0.67
  -5   9   1   -0.02    0.69
  -5   9   1    1.36    0.83
   4  -9  -1    2.06    0.57
   4  -9  -1    2.94    0.94
  -4  -9   1    2.23    0.85
  -4  -9   1    4.67    1.10
  -4   9   1    4.23    0.91
   4   9  -1    2.17    0.95
  -4   9   1    4.52    0.90
   4   9  -1    2.89    0.80
  -4   9   1    3.18    0.84
  -4   9   1    3.87    0.91
   3  -9  -1    3.25    1.33
   3  -9  -1    1.21    0.88
   3  -9  -1    1.71    0.55
  -3  -9   1    1.75    1.05
   3  -9  -1    1.75    1.19
  -3   9   1    1.81    0.95
  -3   9   1    2.75    0.96
  -3   9   1    1.75    0.96
   3   9  -1    1.99    1.02
  -3   9   1    1.21    1.93
   3   9  -1    1.02    0.90
  -3   9   1    3.31    0.86
   2  -9  -1   16.20    1.84
  -2  -9   1   20.94    2.20
   2  -9  -1   15.67    1.69
   2   9  -1   14.82    2.20
  -2   9   1   18.01    2.91
  -2   9   1   15.81    2.00
  -2   9   1   15.89    1.87
  -1  -9   1    2.71    1.28
  -1  -9   1    1.69    0.89
   1  -9  -1    2.38    1.70
   1  -9  -1    1.90    0.91
   1  -9  -1    1.50    1.06
  -1  -9   1    1.81    0.64
   1  -9  -1    4.36    1.15
   1   9  -1    1.40    1.03
  -1   9   1    3.17    1.24
   1   9  -1    2.47    1.20
   1   9  -1    3.17    1.07
  -1   9   1    2.74    1.08
   1   9  -1    3.14    1.54
  -1   9   1    2.51    1.02
  -1   9   1    1.87    1.08
   0  -9   1    0.96    1.14
   0  -9  -1    3.79    1.32
   0  -9  -1    1.64    0.95
   0  -9  -1    1.19    1.06
   0  -9   1    1.46    0.62
   0  -9   1    2.03    0.84
   0  -9   1    1.50    1.51
   0   9   1    2.15    1.18
   0   9  -1    4.08    1.09
   0   9  -1    1.11    1.34
   0   9   1    1.02    1.15
   0   9   1    1.85    1.20
   0   9  -1    1.56    1.34
   0   9  -1    2.50    0.96
   0   9  -1    1.29    1.00
   0   9   1    1.59    1.04
   0   9  -1    1.61    1.55
   1  -9   1   20.33    1.21
   1  -9   1   16.76    1.43
  -1  -9  -1   20.74    3.05
   1  -9   1   17.61    1.64
  -1  -9  -1   17.46    1.78
  -1  -9  -1   22.65    2.88
  -1  -9  -1   17.97    2.20
   1  -9   1   15.44    1.95
   1  -9   1   18.27    1.69
  -1   9  -1   17.58    2.37
  -1   9  -1   18.25    1.92
   1   9   1   21.49    2.33
  -1   9  -1   16.49    1.90
   1   9   1   14.44    2.97
  -1   9  -1   17.78    1.84
  -1   9  -1   15.68    2.70
   1   9   1   17.56    2.66
   2  -9   1    1.05    0.82
  -2  -9  -1    3.12    1.03
   2  -9   1    0.59    0.66
   2  -9   1   -0.17    1.31
  -2  -9  -1   -0.61    1.10
  -2  -9  -1    2.52    1.06
   2  -9   1    1.76    0.79
  -2  -9  -1    1.69    1.21
   2  -9   1    2.29    0.48
  -2   9  -1    1.53    1.11
  -2   9  -1    1.67    0.90
  -2   9  -1    1.87    1.11
  -2   9  -1    1.92    1.38
  -2   9  -1    2.17    0.95
   2   9   1    1.19    1.20
  -2   9  -1    2.06    0.93
   2   9   1    0.96    0.69
  -2   9  -1    0.74    0.89
  -2   9  -1    2.87    1.17
   2   9   1    0.37    1.39
  -3  -9  -1   11.19    1.69
  -3  -9  -1   11.52    1.96
   3  -9   1   13.08    1.30
  -3  -9  -1   17.47    2.01
   3  -9   1    9.80    1.16
   3  -9   1   13.66    1.12
  -3   9  -1   13.99    1.57
   3   9   1   13.25    1.24
  -3   9  -1   18.44    2.48
   3   9   1   10.62    1.75
   3   9   1   16.36    3.56
  -3   9  -1   14.58    1.85
  -3   9  -1   12.51    1.45
  -3   9  -1   12.33    1.37
  -3   9  -1   15.12    2.36
  -3   9  -1   13.27    1.41
   4  -9   1    1.06    0.40
  -4  -9  -1   -0.27    0.70
   4  -9   1    1.31    0.52
   4  -9   1    1.79    0.72
  -4  -9  -1    0.05    1.20
  -4   9  -1   -0.53    0.66
  -4   9  -1   -0.43    0.72
   4   9   1    2.92    1.50
   4   9   1    0.68    0.87
  -4   9  -1    0.20    0.78
  -4   9  -1    0.41    0.66
   4   9   1    0.50    0.72
  -4   9  -1    0.76    0.85
  -4   9  -1   -0.27    0.90
  -4   9  -1    0.29    1.08
  -5  -9  -1    3.20    0.62
   5  -9   1    3.15    0.58
   5  -9   1    4.48    0.76
  -5   9  -1    2.83    0.66
  -5   9  -1    5.16    0.80
  -5   9  -1    3.06    0.65
  -5   9  -1    4.17    0.82
  -5   9  -1    3.13    0.68
   5   9   1    2.20    0.64
   6  -9   1    0.36    0.31
  -6  -9  -1   -0.12    0.41
  -6   9  -1    0.90    0.62
  -6   9  -1    0.14    0.48
  -6   9  -1    0.13    0.34
   6   9   1    0.73    0.41
   6  10  -1    1.50    0.48
  -5 -10   1    5.01    1.01
   5 -10  -1    2.52    0.59
  -5 -10   1    3.13    0.96
   5  10  -1    2.84    0.63
  -5  10   1    4.83    0.97
  -5  10   1    2.86    0.84
  -5  10   1    2.70    0.73
   4 -10  -1    2.91    0.76
   4 -10  -1    1.35    0.85
  -4 -10   1    2.31    0.83
   4 -10  -1    2.11    1.00
   4  10  -1    1.80    0.76
  -4  10   1    2.67    0.80
   4  10  -1    0.68    1.20
  -4  10   1    3.34    1.14
  -4  10   1    2.17    0.77
  -3 -10   1   18.30    2.02
  -3 -10   1   17.81    1.77
   3 -10  -1   18.82    1.27
   3 -10  -1   17.29    1.59
   3 -10  -1   15.42    1.85
  -3  10   1   15.73    1.93
  -3  10   1   18.31    1.58
  -3  10   1   17.54    1.73
   3  10  -1   16.19    1.53
  -2 -10   1    2.53    1.29
   2 -10  -1    2.75    1.10
  -2 -10   1    2.38    1.00
   2  10  -1    3.63    0.88
  -2  10   1    2.29    0.90
  -2  10   1    4.25    0.98
   2  10  -1    0.91    0.93
   1 -10  -1   18.77    2.93
  -1 -10   1   16.18    1.28
   1 -10  -1   14.98    1.69
  -1 -10   1   16.79    2.26
   1 -10  -1   15.59    1.98
  -1 -10   1   15.94    1.94
   1  10  -1   14.68    2.65
   1  10  -1   13.65    1.65
  -1  10   1   17.72    1.72
  -1  10   1   12.40    2.13
   1  10  -1   17.02    1.70
  -1  10   1   16.05    1.97
   0 -10  -1    7.79    1.32
   0 -10  -1    7.19    1.41
   0 -10   1   10.45    1.39
   0 -10   1    7.29    1.49
   0 -10  -1    5.49    1.98
   0 -10  -1    9.07    1.60
   0  10  -1    6.91    1.12
   0  10   1   10.01    1.50
   0  10  -1   10.08    1.77
   0  10  -1    5.83    1.12
   0  10   1    8.86    1.64
   0  10   1    6.60    1.66
   0  10  -1    6.71    1.71
   1 -10   1   26.34    2.33
   1 -10   1   21.66    1.50
  -1 -10  -1   19.35    2.30
  -1 -10  -1   19.95    2.56
  -1  10  -1   23.15    2.61
  -1  10  -1   23.67    1.84
  -1  10  -1   25.89    1.90
   1  10   1   25.18    2.17
  -1  10  -1   21.79    2.07
   1  10   1   20.31    2.17
  -2 -10  -1    0.98    0.97
   2 -10   1    1.18    0.49
   2 -10   1   -0.19    0.50
   2 -10   1   -0.05    0.79
   2 -10   1    1.61    0.95
  -2  10  -1    1.70    1.04
   2  10   1    0.90    1.45
  -2  10  -1    0.45    0.84
   2  10   1    0.63    0.82
  -2  10  -1    0.64    0.80
   2  10   1    0.40    1.10
  -2  10  -1   -1.27    1.03
   3 -10   1    1.16    0.87
   3 -10   1    1.10    0.47
   3 -10   1    0.85    1.80
  -3 -10  -1    0.25    0.88
  -3 -10  -1    0.24    1.11
   3 -10   1    0.10    0.44
   3  10   1    1.94    1.51
  -3  10  -1    1.53    0.94
  -3  10  -1    1.09    0.62
  -3  10  -1   -2.44    1.69
  -3  10  -1    0.30    0.78
   3  10   1   -0.58    0.70
  -3  10  -1   -0.70    0.75
  -3  10  -1    0.60    0.82
   4 -10   1    0.45    0.41
  -4 -10  -1    1.68    0.98
  -4 -10  -1    0.81    0.65
   4 -10   1   -0.16    1.56
   4 -10   1    0.27    0.44
  -4  10  -1    0.13    0.53
  -4  10  -1    1.57    0.77
  -4  10  -1    0.55    0.62
  -4  10  -1    0.23    0.77
  -4  10  -1   -0.24    0.92
   4  10   1   -0.22    0.99
   4  10   1    0.56    0.62
  -4  10  -1   -0.18    0.63
   5 -10   1    0.62    0.38
   5 -10   1    0.63    0.59
  -5  10  -1    0.82    0.59
  -5  10  -1   -0.24    0.44
  -5  10  -1   -0.31    0.44
   5  10   1    0.25    0.48
   5  11  -1    0.15    0.42
  -5  11   1    0.75    0.45
   4 -11  -1    4.90    0.81
  -4 -11   1    7.18    1.24
   4 -11  -1    6.35    0.81
   4 -11  -1    6.74    1.32
  -4  11   1    4.59    0.98
   4  11  -1    4.59    0.72
  -4  11   1    4.01    0.86
  -3 -11   1    3.33    0.87
   3 -11  -1    2.68    0.82
   3 -11  -1    5.78    1.12
   3 -11  -1    3.79    0.80
   3  11  -1    2.19    0.76
  -3  11   1    3.57    0.83
  -3  11   1    3.91    0.77
  -3  11   1    3.12    0.77
   2 -11  -1    1.06    0.75
  -2 -11   1   -0.12    1.43
  -2 -11   1   -0.28    1.42
   2 -11  -1    2.86    1.31
  -2  11   1    0.82    0.72
   2  11  -1    1.07    0.65
  -2  11   1    0.09    0.83
  -1 -11   1   14.61    1.81
   1 -11  -1   13.73    2.51
   1 -11  -1   11.65    1.51
  -1 -11   1   14.81    1.78
   1 -11  -1   14.26    1.62
  -1  11   1   12.69    1.35
  -1  11   1   14.77    1.66
  -1  11   1   10.94    1.74
   0 -11  -1    0.65    1.15
   0 -11  -1    1.64    1.06
   0 -11   1   -0.04    0.82
   0  11  -1    0.18    0.62
   0  11   1    0.73    0.94
   0  11   1    1.31    0.76
   0  11   1    2.74    1.13
   1 -11   1    0.32    0.77
  -1 -11  -1    0.24    1.01
   1 -11   1    2.13    0.82
  -1 -11  -1    0.83    1.29
  -1 -11  -1   -1.10    0.95
  -1  11  -1   -0.63    1.11
   1  11   1   -0.15    1.19
  -1  11  -1   -0.32    0.67
   1  11   1    0.73    0.80
  -1  11  -1    2.00    1.09
   1  11   1   -1.06    1.30
   2 -11   1    4.20    0.76
   2 -11   1    4.97    0.93
   2 -11   1    6.69    1.20
  -2 -11  -1    5.83    1.35
   2  11   1    4.43    0.79
  -2  11  -1    7.12    1.26
   2  11   1    8.34    2.10
  -2  11  -1    5.35    1.01
  -2  11  -1    3.40    0.66
   2  11   1    2.19    0.99
  -3 -11  -1    0.29    0.75
   3 -11   1    1.28    0.47
   3 -11   1   -0.18    0.73
   3 -11   1   -0.71    0.75
   3  11   1    1.24    0.65
  -3  11  -1    0.66    0.53
  -3  11  -1    1.57    0.78
  -3  11  -1    1.72    0.96
  -3  11  -1    0.08    0.66
  -4 -11  -1    2.21    0.75
   4 -11   1    2.01    0.59
  -4 -11  -1    1.80    0.76
   4  11   1    0.85    0.50
  -4  11  -1    1.29    0.43
   3 -12  -1    2.53    0.64
   3 -12  -1    2.96    0.70
  -3 -12   1    3.42    0.72
  -3  12   1    1.84    0.74
  -3  12   1    2.28    1.03
  -3  12   1    3.51    0.66
   3  12  -1    1.58    0.49
  -2 -12   1    2.50    0.78
   2 -12  -1    1.85    0.68
   2 -12  -1    2.19    0.58
   2  12  -1    2.29    0.59
  -2  12   1    0.91    0.80
  -2  12   1    1.31    0.62
  -2  12   1    2.20    0.66
  -1 -12   1    0.47    0.92
  -1 -12   1   -0.89    0.90
  -1 -12   1    1.01    0.90
   1 -12  -1    2.10    0.72
   1 -12  -1    1.01    0.92
  -1  12   1    2.07    0.64
  -1  12   1   -0.74    0.76
  -1  12   1    0.97    0.85
   1  12  -1    0.65    0.54
   0 -12  -1    1.76    0.92
   0 -12   1   -0.48    1.09
   0 -12   1    0.86    1.20
   0 -12  -1    1.36    0.90
   0 -12   1    0.72    0.74
   0 -12  -1   -0.25    0.78
   0  12   1    0.98    0.84
   0  12   1   -0.70    0.88
   0  12   1    0.44    0.57
   0  12  -1    0.42    0.50
   1 -12   1    9.09    1.04
   1 -12   1    7.48    1.15
  -1 -12  -1    7.44    1.74
   1  12   1   10.48    1.11
   1  12   1    5.90    1.34
   1  12   1    6.72    1.21
  -1  12  -1    8.46    0.90
   2 -12   1    0.94    0.67
   2 -12   1   -0.06    0.58
  -2 -12  -1    1.36    0.70
  -2  12  -1    0.47    0.46
   2  12   1    0.58    0.60
   3 -12   1    0.77    0.90
  -3 -12  -1    1.68    0.60
  -3  12  -1    0.30    0.40
   3  12   1    0.65    0.44
   9   0  -2   -0.45    0.34
  -9   0   2    0.37    0.42
   9   0  -2    1.00    0.42
   9   0  -2   -0.22    0.47
  -9   0   2    0.01    0.42
   8   0  -2    1.85    0.45
   8   0  -2    0.84    0.59
  -8   0   2    1.32    0.51
  -8   0   2    2.14    0.63
   8   0  -2    1.67    0.58
   8   0  -2    1.59    0.54
   7   0  -2   -0.11    0.57
   7   0  -2    0.41    0.70
  -7   0   2    0.68    0.63
   7   0  -2   -1.30    1.72
  -7   0   2   -1.31    0.73
   7   0  -2    0.76    0.61
   7   0  -2    1.14    0.78
  -7   0   2   -0.96    0.85
  -7   0   2    0.82    0.85
   7   0  -2   -0.34    0.44
  -6   0   2   13.97    1.20
  -6   0   2   15.53    2.42
   6   0  -2   10.02    1.43
   6   0  -2   13.90    1.41
   6   0  -2   12.53    1.29
   6   0  -2   14.37    0.98
  -6   0   2   12.33    1.93
   6   0  -2   11.99    1.48
   6   0  -2   12.57    1.80
   6   0  -2   11.91    0.99
   5   0  -2   -0.23    0.58
  -5   0   2    0.38    0.54
  -5   0   2   -0.03    0.59
   5   0  -2   -0.09    0.47
  -5   0   2   -0.21    0.32
   5   0  -2    0.28    0.59
   5   0  -2    0.11    0.40
   5   0  -2   -0.11    0.50
   5   0  -2    0.42    0.53
   5   0  -2   -0.14    0.40
   4   0  -2  140.29    7.33
   4   0  -2  146.48    7.34
   4   0  -2  154.32    7.44
  -4   0   2  151.27    7.36
   4   0  -2  146.99    7.33
  -4   0   2  150.59    7.40
   4   0  -2  140.22    7.31
   4   0  -2  147.88    7.34
   3   0  -2    0.06    0.33
   3   0  -2    1.01    0.19
  -3   0   2    0.54    0.19
  -3   0   2    1.07    0.26
   3   0  -2    1.05    0.34
  -3   0   2    1.09    0.22
   3   0  -2    0.83    0.22
  -3   0   2    0.89    0.15
  -3   0   2    0.93    0.22
   3   0  -2    0.71    0.27
   2   0  -2    7.69    0.51
  -2   0   2    7.69    0.45
   2   0  -2    6.41    0.44
  -2   0   2    7.58    0.45
  -2   0   2    7.84    0.43
   2   0  -2    7.68    0.42
  -2   0   2    7.09    0.45
   2   0  -2    6.68    0.42
  -2   0   2    7.24    0.45
   1   0  -2    0.39    0.10
  -1   0   2    0.39    0.08
   1   0  -2    0.33    0.14
  -1   0   2    0.26    0.10
  -1   0   2    0.35    0.08
  -1   0   2    0.41    0.07
   1   0  -2    0.32    0.06
  -1   0   2    0.36    0.09
   1   0  -2    0.31    0.20
   0   0  -2   43.30    2.15
   0   0   2   40.20    2.16
   0   0  -2   38.95    2.19
   0   0  -2   43.08    2.14
   0   0  -2   43.22    2.18
   0   0  -2   43.54    2.16
   0   0  -2   45.01    2.15
   0   0  -2   44.70    2.16
  -1   0  -2    0.02    0.15
  -1   0  -2    0.06    0.13
  -1   0  -2   -0.09    0.15
  -1   0  -2   -0.18    0.14
  -2   0  -2    4.17    0.39
   2   0   2    3.59    0.22
   2   0   2    4.02    0.22
   2   0   2    4.02    0.31
  -2   0  -2    3.89    0.41
  -2   0  -2    3.55    0.41
  -2   0  -2    3.17    0.43
  -2   0  -2    3.51    0.38
  -2   0  -2    3.74    0.44
  -3   0  -2   -0.11    0.28
  -3   0  -2    0.25    0.31
   3   0   2    0.06    0.14
  -3   0  -2    0.60    0.45
   3   0   2   -0.01    0.34
   3   0   2   -0.05    0.13
  -4   0  -2    0.16    0.65
   4   0   2   -0.57    0.58
   4   0   2    0.10    0.24
   4   0   2    0.12    0.46
  -4   0  -2   -0.05    0.40
  -4   0  -2    0.45    0.81
   4   0   2   -0.26    0.63
   4   0   2    0.01    0.23
  -4   0  -2   -0.12    0.47
  -4   0  -2   -0.34    0.76
  -5   0  -2    0.55    1.01
  -5   0  -2    1.53    0.77
   5   0   2   -0.17    0.39
  -5   0  -2   -0.70    0.96
  -5   0  -2   -0.39    1.08
  -5   0  -2    0.04    1.08
  -5   0  -2   -0.24    0.78
  -5   0  -2    0.51    0.80
  -5   0  -2    0.56    0.65
  -6   0  -2    0.01    0.82
   6   0   2    0.62    0.49
   6   0   2    0.69    0.46
   6   0   2   -0.09    0.73
  -6   0  -2    0.54    0.90
  -6   0  -2    1.36    0.93
   6   0   2    0.26    0.43
  -6   0  -2   -0.03    0.63
  -6   0  -2    0.92    0.86
  -6   0  -2    0.09    0.69
  -6   0  -2    0.38    0.66
   7   0   2   -1.25    0.94
  -7   0  -2   -0.42    0.48
  -7   0  -2    0.58    0.81
   7   0   2    1.40    0.49
  -7   0  -2    0.11    0.61
  -7   0  -2    0.47    0.58
   7   0   2    0.21    0.37
   7   0   2    0.13    0.67
  -7   0  -2   -0.05    0.56
  -7   0  -2    0.04    0.55
  -8   0  -2    1.85    0.51
  -8   0  -2    1.95    0.62
  -8   0  -2    0.82    0.38
   8   0   2    1.28    0.40
   9  -1  -2    1.04    0.40
   9  -1  -2    0.55    0.44
  -9  -1   2    1.16    0.40
   9  -1  -2    1.41    0.47
  -9  -1   2    1.93    0.53
   9   1  -2    1.38    0.38
  -9   1   2    1.14    0.45
   9   1  -2    0.74    0.44
  -9   1   2    1.15    0.41
  -8  -1   2    7.14    0.96
   8  -1  -2    6.77    0.77
   8  -1  -2    5.72    0.87
   8  -1  -2    6.15    0.85
  -8  -1   2    7.00    0.98
  -8  -1   2    6.93    0.93
   8  -1  -2    5.35    0.73
   8   1  -2    7.08    1.02
  -8   1   2    7.26    1.16
   8   1  -2    6.26    0.98
  -8   1   2    4.68    0.92
   8   1  -2    6.05    0.83
   8   1  -2    5.91    0.92
  -8   1   2    7.86    0.93
   7  -1  -2    7.26    0.76
  -7  -1   2    6.88    0.99
  -7  -1   2    7.00    0.91
  -7  -1   2    7.55    1.15
   7  -1  -2    6.69    1.07
   7  -1  -2    7.02    1.01
  -7  -1   2    9.09    1.48
   7  -1  -2    6.03    1.09
  -7   1   2    5.07    1.01
   7   1  -2    7.07    1.18
   7   1  -2    5.70    1.03
   7   1  -2    7.39    1.08
  -7   1   2    6.26    1.23
  -7   1   2    8.95    1.46
   7   1  -2    9.52    1.31
  -7   1   2    9.63    1.16
   7   1  -2    7.11    0.78
  -7   1   2    7.12    1.27
  -7   1   2    6.82    1.06
   7   1  -2    8.85    1.68
  -6  -1   2   10.35    1.52
   6  -1  -2    9.68    1.36
   6  -1  -2    6.60    1.19
   6  -1  -2   10.36    0.82
   6  -1  -2    8.31    1.06
  -6  -1   2    9.18    1.08
   6  -1  -2    6.80    0.96
   6  -1  -2    8.59    0.83
  -6  -1   2   10.73    1.40
   6   1  -2    8.74    0.84
  -6   1   2    6.72    1.24
  -6   1   2    7.38    1.06
  -6   1   2    8.52    1.82
   6   1  -2    9.15    1.19
   6   1  -2   10.43    1.39
  -6   1   2    9.72    1.59
  -6   1   2    8.99    0.99
   6   1  -2   11.24    1.36
  -6   1   2   10.57    2.05
  -6   1   2   11.25    1.07
  -5  -1   2    5.93    0.83
   5  -1  -2    6.88    0.83
  -5  -1   2    5.08    0.93
   5  -1  -2    6.29    0.95
   5  -1  -2    7.34    0.78
   5  -1  -2    5.85    0.69
   5  -1  -2    6.17    0.80
  -5  -1   2    5.67    0.70
  -5   1   2    6.71    0.98
   5   1  -2    6.95    0.88
  -5   1   2    7.30    0.98
  -5   1   2    7.17    0.76
   5   1  -2    7.23    0.89
   5   1  -2    5.86    0.68
   5   1  -2    5.28    0.83
   5   1  -2    6.67    0.82
   5   1  -2    6.37    0.73
   5   1  -2    5.98    0.91
   4  -1  -2    0.42    0.36
   4  -1  -2    0.28    0.31
   4  -1  -2    0.21    0.32
  -4  -1   2    0.36    0.28
  -4  -1   2    0.29    0.26
   4  -1  -2    0.69    0.44
  -4  -1   2    0.32    0.33
   4  -1  -2    0.21    0.29
   4  -1  -2   -0.14    0.34
   4   1  -2    0.46    0.36
   4   1  -2    1.11    0.37
  -4   1   2    0.17    0.20
   4   1  -2    0.21    0.26
  -4   1   2    0.08    0.32
  -4   1   2    0.27    0.28
   4   1  -2   -0.17    0.37
   4   1  -2   -0.14    0.54
  -3  -1   2   50.23    2.74
  -3  -1   2   55.09    2.74
  -3  -1   2   51.38    2.69
   3  -1  -2   53.54    2.74
   3  -1  -2   54.37    2.74
  -3  -1   2   51.12    2.72
   3  -1  -2   54.80    2.75
  -3  -1   2   53.42    2.77
   3  -1  -2   53.75    2.81
  -3  -1   2   55.49    2.73
   3  -1  -2   55.68    2.74
   3   1  -2   50.07    2.75
  -3   1   2   52.93    2.74
   3   1  -2   54.08    2.71
  -3   1   2   49.55    2.70
   3   1  -2   57.20    2.83
  -3   1   2   58.90    2.84
   3   1  -2   53.62    2.74
  -3   1   2   58.17    2.76
   2  -1  -2   39.08    1.86
   2  -1  -2   35.89    1.86
   2  -1  -2   35.76    1.96
  -2  -1   2   35.38    1.84
  -2  -1   2   34.30    1.87
   2  -1  -2   39.85    1.86
  -2  -1   2   36.79    1.85
   2  -1  -2   35.85    1.87
  -2  -1   2   35.43    1.86
   2   1  -2   33.58    1.81
  -2   1   2   37.18    1.85
  -2   1   2   35.43    1.84
  -2   1   2   38.30    1.84
   2   1  -2   35.25    1.92
  -2   1   2   36.24    1.85
   2   1  -2   36.40    1.86
  -2   1   2   38.33    1.86
  -2   1   2   33.17    1.86
   2   1  -2   37.97    1.88
   2   1  -2   36.03    1.80
   1  -1  -2  273.62   13.50
  -1  -1   2  265.65   13.42
  -1  -1   2  255.01   13.44
  -1  -1   2  289.99   13.45
   1  -1  -2  291.54   13.48
   1  -1  -2  246.00   13.44
   1  -1  -2  271.94   13.45
   1   1  -2  280.37   13.50
   1   1  -2  267.93   13.47
  -1   1   2  260.31   13.42
   1   1  -2  279.01   13.46
  -1   1   2  284.85   13.45
  -1   1   2  293.54   13.48
   0  -1  -2    2.17    0.25
   0  -1  -2    2.43    0.20
   0  -1  -2    1.89    0.29
   0  -1   2    2.04    0.19
   0  -1  -2    1.93    0.17
   0  -1   2    1.76    0.21
   0   1  -2    1.87    0.22
   0   1   2    1.99    0.19
   0   1  -2    1.91    0.28
   0   1  -2    1.80    0.23
   0   1  -2    2.16    0.23
   0   1  -2    2.20    0.25
   0   1   2    1.96    0.21
  -1  -1  -2    2.31    0.28
  -1  -1  -2    2.90    0.30
  -1  -1  -2    2.72    0.29
  -1  -1  -2    2.67    0.33
  -1  -1  -2    3.01    0.28
  -1   1  -2    2.72    0.30
  -1   1  -2    2.82    0.29
  -1   1  -2    3.02    0.29
  -1   1  -2    2.80    0.33
   1   1   2    2.85    0.17
  -1   1  -2    2.78    0.32
   1   1   2    3.01    0.18
  -1   1  -2    2.72    0.32
  -2  -1  -2   16.61    1.01
   2  -1   2   17.58    0.99
  -2  -1  -2   16.83    1.00
  -2  -1  -2   16.36    0.99
  -2  -1  -2   15.90    0.99
  -2  -1  -2   15.73    0.95
   2  -1   2   16.67    0.83
   2   1   2   16.89    0.89
   2   1   2   15.83    0.92
   2   1   2   16.75    0.86
  -2   1  -2   17.75    1.04
  -2   1  -2   14.76    0.98
  -2   1  -2   16.49    0.94
  -2   1  -2   16.87    0.97
  -2   1  -2   17.52    1.01
  -3  -1  -2    0.50    0.34
   3  -1   2    0.01    0.41
   3  -1   2    0.18    0.16
  -3  -1  -2    0.26    0.43
   3  -1   2    0.05    0.15
   3  -1   2   -0.19    0.33
  -3  -1  -2   -0.06    0.32
  -3   1  -2   -0.37    0.42
  -3   1  -2   -0.19    0.31
   3   1   2    0.06    0.34
   3   1   2    0.07    0.14
   3   1   2    0.12    0.19
   4  -1   2   38.14    2.37
   4  -1   2   42.92    2.12
   4  -1   2   41.68    2.06
  -4  -1  -2   38.59    2.61
  -4  -1  -2   39.33    2.27
  -4  -1  -2   38.01    2.43
   4  -1   2   40.65    2.08
  -4  -1  -2   39.16    2.27
  -4  -1  -2   37.76    2.42
   4   1   2   40.93    2.10
  -4   1  -2   37.20    2.30
  -4   1  -2   38.00    2.50
  -4   1  -2   41.30    2.27
   4   1   2   38.74    2.30
  -4   1  -2   40.64    2.28
   4   1   2   40.42    2.09
  -4   1  -2   41.88    2.66
   4   1   2   38.03    2.05
   5  -1   2    7.27    0.69
  -5  -1  -2    8.24    1.27
  -5  -1  -2   11.01    1.61
  -5  -1  -2    6.98    1.35
  -5  -1  -2    8.03    1.47
  -5  -1  -2    9.62    1.56
   5  -1   2    7.06    1.20
  -5  -1  -2    9.30    1.80
  -5  -1  -2    8.37    1.12
  -5  -1  -2    7.64    1.21
  -5  -1  -2    5.74    0.94
   5   1   2    7.88    1.51
   5   1   2    8.96    0.70
  -5   1  -2    4.64    2.22
  -5   1  -2    9.65    1.54
  -5   1  -2    5.80    1.12
   5   1   2    8.44    0.69
  -5   1  -2   10.64    1.66
  -5   1  -2    6.29    1.49
  -5   1  -2    7.03    1.09
  -5   1  -2    7.19    1.32
  -5   1  -2    8.09    1.06
   6  -1   2    1.95    0.84
   6  -1   2    2.61    0.50
  -6  -1  -2    2.87    0.75
   6  -1   2    3.07    0.51
  -6  -1  -2    3.79    0.88
  -6  -1  -2    4.28    0.87
  -6  -1  -2    2.61    0.67
  -6  -1  -2    3.23    1.47
  -6  -1  -2    2.35    0.64
  -6  -1  -2    3.93    0.89
  -6   1  -2    2.18    0.67
  -6   1  -2    1.70    0.91
  -6   1  -2    2.96    0.72
   6   1   2    3.99    0.52
  -6   1  -2    2.62    0.91
  -6   1  -2    2.90    0.89
  -6   1  -2    2.34    0.77
  -6   1  -2    3.65    1.68
  -6   1  -2    2.80    0.84
   6   1   2    1.86    0.53
   7  -1   2    2.15    0.74
   7  -1   2    2.99    0.51
  -7  -1  -2    3.15    0.69
   7  -1   2    2.05    0.73
   7  -1   2    1.70    0.39
  -7  -1  -2    1.55    0.53
  -7  -1  -2    0.97    0.51
  -7  -1  -2    2.23    0.72
  -7  -1  -2    2.12    0.65
  -7  -1  -2    1.76    0.58
  -7   1  -2    2.04    0.57
  -7   1  -2    2.73    0.56
  -7   1  -2    1.50    0.62
   7   1   2    1.56    0.40
   7   1   2    0.99    0.65
   7   1   2    2.12    0.54
  -7   1  -2    2.78    0.66
  -7   1  -2    2.44    0.65
  -8  -1  -2   -0.13    0.45
  -8   1  -2   -0.79    0.55
  -9  -2   2    0.35    0.35
   9  -2  -2   -0.34    0.48
   9  -2  -2    0.43    0.36
   9  -2  -2   -0.68    0.39
   9   2  -2    0.15    0.34
  -9   2   2   -0.22    0.38
   9   2  -2   -0.21    0.48
   8  -2  -2    0.80    0.40
   8  -2  -2    0.78    0.50
   8  -2  -2    0.73    0.53
  -8  -2   2    1.10    0.54
  -8  -2   2    1.35    1.07
   8  -2  -2   -0.31    0.54
   8   2  -2    0.09    0.68
  -8   2   2    1.17    0.95
   8   2  -2    1.01    0.58
  -8   2   2    1.76    1.28
  -8   2   2    0.51    0.90
   8   2  -2    0.94    0.46
  -8   2   2   -0.21    0.92
  -7  -2   2    0.46    0.56
  -7  -2   2   -0.28    1.00
  -7  -2   2   -0.30    0.72
  -7  -2   2    1.15    1.04
   7  -2  -2   -0.03    0.69
   7  -2  -2    0.40    0.68
   7  -2  -2    0.39    0.42
  -7  -2   2   -0.12    0.75
   7  -2  -2    0.56    0.54
   7   2  -2   -0.44    0.60
   7   2  -2    0.06    0.73
  -7   2   2    0.16    0.94
  -7   2   2   -0.79    0.74
   7   2  -2    0.23    0.57
  -7   2   2   -0.27    1.03
  -7   2   2   -0.30    0.97
  -7   2   2    0.73    0.66
  -7   2   2    0.98    0.83
  -7   2   2    1.06    0.72
   7   2  -2   -0.28    1.41
   7   2  -2    0.85    0.50
   6  -2  -2    6.24    0.97
   6  -2  -2    5.12    0.68
  -6  -2   2    3.37    0.96
   6  -2  -2    4.16    0.76
   6  -2  -2    5.45    0.68
   6  -2  -2    3.74    0.95
  -6  -2   2    7.74    1.27
  -6  -2   2    3.33    0.77
  -6  -2   2    5.67    1.60
  -6  -2   2    2.25    1.32
   6   2  -2    4.56    0.77
   6   2  -2    4.65    0.81
   6   2  -2    5.97    1.10
  -6   2   2    2.62    0.94
  -6   2   2    4.90    0.98
  -6   2   2    6.17    0.84
   6   2  -2    4.55    0.74
   6   2  -2    5.91    1.02
   6   2  -2    2.85    0.88
  -6   2   2    3.75    0.83
  -6   2   2    5.52    0.78
  -6   2   2    4.28    0.98
  -6   2   2    5.93    1.35
   5  -2  -2    2.85    0.62
  -5  -2   2    1.66    0.45
   5  -2  -2    2.37    1.08
   5  -2  -2    1.24    0.54
  -5  -2   2    1.32    0.57
   5  -2  -2    2.11    0.37
   5  -2  -2    2.85    0.43
   5  -2  -2    2.13    0.57
   5  -2  -2    1.89    0.50
   5   2  -2    2.97    0.64
  -5   2   2    2.92    0.68
   5   2  -2    1.64    0.47
  -5   2   2    2.21    1.58
  -5   2   2    2.04    0.47
  -5   2   2    1.90    0.73
   5   2  -2    3.56    0.64
   5   2  -2    1.68    0.82
  -4  -2   2   46.57    2.46
   4  -2  -2   48.58    2.59
   4  -2  -2   45.84    2.49
  -4  -2   2   49.06    2.54
   4  -2  -2   49.15    2.44
  -4  -2   2   47.26    2.48
   4  -2  -2   48.06    2.50
   4  -2  -2   47.02    2.47
   4  -2  -2   46.19    2.42
   4   2  -2   40.14    2.49
  -4   2   2   49.44    2.52
   4   2  -2   49.54    2.49
   4   2  -2   44.03    2.47
   4   2  -2   46.57    2.58
  -4   2   2   47.30    2.48
   4   2  -2   44.29    2.43
  -4   2   2   46.48    2.49
  -4   2   2   47.30    2.42
   3  -2  -2   14.63    0.96
  -3  -2   2   18.13    0.98
  -3  -2   2   18.78    0.95
  -3  -2   2   17.52    0.93
   3  -2  -2   15.55    0.96
   3  -2  -2   16.37    1.04
  -3  -2   2   15.91    0.95
   3  -2  -2   15.01    0.94
   3  -2  -2   17.62    1.01
  -3   2   2   15.03    0.94
  -3   2   2   15.52    0.94
   3   2  -2   17.01    0.97
   3   2  -2   16.68    1.04
  -3   2   2   14.79    0.98
  -3   2   2   14.37    0.90
   3   2  -2   14.77    0.99
   3   2  -2   16.86    0.93
  -2  -2   2  268.91   12.54
   2  -2  -2  264.37   12.63
  -2  -2   2  246.48   12.56
   2  -2  -2  257.24   12.58
  -2  -2   2  267.99   12.62
   2  -2  -2  262.87   12.63
  -2  -2   2  256.90   12.59
   2  -2  -2  247.39   12.56
  -2  -2   2  239.23   12.55
   2   2  -2  243.87   12.54
  -2   2   2  261.68   12.58
  -2   2   2  264.83   12.58
  -2   2   2  259.58   12.60
   2   2  -2  230.79   12.63
  -2   2   2  243.85   12.56
   2   2  -2  263.67   12.59
  -2   2   2  259.36   12.56
  -2   2   2  262.03   12.58
   2   2  -2  255.90   12.65
  -1  -2   2   25.36    1.26
  -1  -2   2   23.31    1.21
   1  -2  -2   23.11    1.26
  -1  -2   2   24.23    1.24
   1  -2  -2   23.02    1.26
   1  -2  -2   22.58    1.30
  -1  -2   2   24.77    1.19
  -1  -2   2   23.01    1.21
  -1   2   2   24.61    1.22
  -1   2   2   23.28    1.25
   1   2  -2   24.91    1.26
   1   2  -2   24.41    1.31
   1   2  -2   22.85    1.31
  -1   2   2   24.31    1.27
   0  -2  -2  748.47   35.99
   0  -2  -2  735.25   35.97
   0  -2   2  838.08   35.99
   0  -2  -2  725.55   35.99
   0  -2  -2  702.75   35.97
   0  -2   2  673.44   35.92
   0  -2   2  738.61   36.00
   0  -2   2  722.22   35.93
   0   2   2  718.10   35.94
   0   2   2  703.12   35.95
   0   2  -2  766.69   35.98
   0   2  -2  742.80   35.95
   0   2  -2  756.65   35.96
   0   2   2  737.79   35.92
   0   2   2  693.55   35.91
   1  -2   2    1.62    0.23
  -1  -2  -2    1.35    0.24
  -1  -2  -2    1.66    0.32
   1  -2   2    1.75    0.25
  -1  -2  -2    2.05    0.26
  -1  -2  -2    1.76    0.28
  -1  -2  -2    1.91    0.27
   1   2   2    1.47    0.27
   1   2   2    1.59    0.23
   1   2   2    1.57    0.16
  -1   2  -2    1.55    0.27
  -1   2  -2    1.62    0.24
  -1   2  -2    1.80    0.32
  -1   2  -2    1.15    0.25
   1   2   2    1.66    0.17
  -1   2  -2    1.41    0.25
   2  -2   2    0.07    0.11
  -2  -2  -2    0.03    0.23
  -2  -2  -2   -0.09    0.24
  -2  -2  -2   -0.24    0.21
  -2  -2  -2   -0.18    0.26
   2  -2   2    0.07    0.26
   2  -2   2   -0.03    0.31
  -2  -2  -2    0.07    0.23
  -2   2  -2   -0.02    0.24
  -2   2  -2   -0.02    0.27
  -2   2  -2   -0.08    0.27
  -2   2  -2   -0.10    0.21
   2   2   2    0.21    0.27
   2   2   2   -0.01    0.12
  -2   2  -2   -0.24    0.30
   2   2   2    0.21    0.12
   2   2   2    0.39    0.18
  -3  -2  -2    1.90    0.88
   3  -2   2    3.53    0.74
   3  -2   2    2.02    0.34
  -3  -2  -2    1.64    0.35
  -3  -2  -2    2.03    0.43
  -3  -2  -2    2.22    0.48
   3  -2   2    2.26    0.30
  -3  -2  -2    2.65    0.56
   3   2   2    2.64    0.48
   3   2   2    2.09    0.33
   3   2   2    3.27    0.49
   3   2   2    2.41    0.28
  -3   2  -2    2.53    0.46
  -3   2  -2    2.76    0.51
  -4  -2  -2    3.27    0.67
  -4  -2  -2    2.82    0.58
  -4  -2  -2    1.53    0.75
  -4  -2  -2    2.78    0.95
   4  -2   2    2.05    0.33
   4  -2   2    2.10    0.39
  -4  -2  -2    1.72    0.62
   4  -2   2    2.03    0.35
   4  -2   2    2.24    0.81
   4   2   2    2.66    0.67
   4   2   2    2.53    0.37
  -4   2  -2    2.31    0.56
  -4   2  -2    1.22    0.83
  -4   2  -2    2.05    0.59
   4   2   2    2.86    0.49
  -4   2  -2    1.67    0.93
  -4   2  -2    2.23    0.56
  -5  -2  -2    0.06    0.78
   5  -2   2    0.33    0.94
  -5  -2  -2   -0.12    0.79
   5  -2   2    0.10    0.39
   5  -2   2    0.44    0.38
  -5  -2  -2   -0.35    0.78
  -5  -2  -2    0.09    0.68
   5  -2   2    0.81    0.44
  -5  -2  -2    0.01    0.72
  -5  -2  -2    0.00    0.97
  -5  -2  -2    0.15    0.84
  -5   2  -2    0.21    0.71
  -5   2  -2    0.24    0.58
  -5   2  -2    0.47    0.85
  -5   2  -2   -0.33    0.95
  -5   2  -2    0.40    1.09
   5   2   2    0.21    0.37
   5   2   2    0.30    0.41
   5   2   2    1.82    1.09
  -5   2  -2    0.84    0.86
   5   2   2    0.94    0.53
   5   2   2   -0.36    0.47
  -5   2  -2    1.08    0.85
  -5   2  -2   -0.12    0.82
   6  -2   2    0.22    0.56
  -6  -2  -2    1.68    0.78
  -6  -2  -2    1.26    0.62
  -6  -2  -2    0.92    0.64
   6  -2   2    0.72    0.46
   6  -2   2    0.88    0.46
  -6  -2  -2    1.61    0.78
  -6  -2  -2    1.36    0.73
  -6   2  -2    1.10    0.70
  -6   2  -2    0.39    0.80
   6   2   2    1.23    0.52
  -6   2  -2    2.71    0.73
  -6   2  -2    1.21    0.92
   6   2   2    1.31    0.49
  -6   2  -2    1.30    0.68
  -7  -2  -2   -0.26    0.50
  -7  -2  -2   -0.18    0.63
   7  -2   2   -0.06    0.67
  -7  -2  -2    0.56    0.59
   7  -2   2    0.18    0.35
   7  -2   2    0.24    0.47
  -7  -2  -2   -0.44    0.53
  -7  -2  -2   -0.11    0.54
  -7  -2  -2   -0.18    0.67
   7   2   2    0.44    0.36
  -7   2  -2   -0.78    0.60
  -7   2  -2    0.76    0.62
   7   2   2    1.16    0.59
  -7   2  -2   -0.52    0.46
  -7   2  -2    0.35    0.63
   7   2   2    0.05    0.58
   9  -3  -2    0.60    0.31
   9  -3  -2    0.44    0.61
   9   3  -2    0.94    0.39
  -9   3   2   -0.27    0.41
  -8  -3   2   20.70    1.94
   8  -3  -2   23.17    1.52
  -8  -3   2   20.82    2.18
   8  -3  -2   18.31    1.53
  -8   3   2   23.41    1.56
   8   3  -2   23.92    1.57
  -8   3   2   23.35    1.90
  -8   3   2   24.28    1.96
   8   3  -2   23.77    1.41
  -7  -3   2    0.15    0.73
  -7  -3   2    2.14    0.97
   7  -3  -2    0.88    0.43
   7  -3  -2    0.13    0.54
  -7  -3   2    0.93    0.84
  -7  -3   2    0.60    1.06
   7  -3  -2    1.78    0.69
  -7  -3   2    2.29    1.41
   7  -3  -2    1.47    0.83
  -7   3   2    0.69    0.67
   7   3  -2    1.00    0.77
  -7   3   2    0.83    0.95
   7   3  -2   -0.09    1.64
  -7   3   2    0.06    0.83
  -7   3   2    2.08    1.47
   7   3  -2    0.35    0.55
   7   3  -2    0.05    0.66
  -7   3   2    0.61    0.66
  -7   3   2    1.77    0.71
   7   3  -2   -0.20    0.61
  -7   3   2   -1.04    1.21
   6  -3  -2   62.95    3.85
   6  -3  -2   61.43    3.50
   6  -3  -2   68.98    3.74
  -6  -3   2   60.55    3.92
   6  -3  -2   65.72    3.43
  -6  -3   2   62.33    3.60
  -6  -3   2   64.43    3.72
  -6  -3   2   60.73    3.86
  -6  -3   2   54.91    3.85
   6  -3  -2   66.89    3.35
   6  -3  -2   68.45    3.33
  -6   3   2   70.06    4.10
   6   3  -2   67.06    3.55
  -6   3   2   61.81    3.68
  -6   3   2   65.47    3.50
   6   3  -2   61.46    3.62
  -6   3   2   61.50    3.67
  -6   3   2   70.50    4.11
   6   3  -2   63.99    3.53
  -6   3   2   64.68    4.07
  -6   3   2   66.63    3.64
  -6   3   2   64.34    3.78
   6   3  -2   61.30    3.34
   5  -3  -2   80.61    4.11
   5  -3  -2   76.14    4.08
   5  -3  -2   74.30    4.18
   5  -3  -2   79.36    3.96
   5  -3  -2   78.36    4.01
   5  -3  -2   75.64    3.96
  -5  -3   2   77.98    4.23
  -5  -3   2   78.47    4.08
   5   3  -2   78.56    4.17
   5   3  -2   79.21    4.20
   5   3  -2   80.12    4.04
  -5   3   2   77.89    4.20
  -5   3   2   78.35    4.10
  -5   3   2   76.78    4.16
  -5   3   2   74.47    4.43
   5   3  -2   78.73    3.99
   4  -3  -2    0.85    0.47
   4  -3  -2   -0.65    0.44
  -4  -3   2    0.12    0.36
   4  -3  -2   -0.30    0.37
   4  -3  -2   -0.28    0.33
   4  -3  -2    0.01    0.41
  -4  -3   2    0.49    0.41
   4  -3  -2    0.37    0.64
  -4   3   2    0.14    0.43
   4   3  -2    0.63    0.44
  -4   3   2    0.06    0.43
  -4   3   2    0.63    0.36
   4   3  -2   -0.07    0.91
  -4   3   2    0.13    0.37
   3  -3  -2   35.15    1.90
  -3  -3   2   36.20    1.90
   3  -3  -2   34.69    1.99
   3  -3  -2   36.21    1.94
  -3  -3   2   34.67    1.91
  -3  -3   2   33.50    1.90
  -3  -3   2   37.53    1.92
   3  -3  -2   37.05    1.96
  -3  -3   2   36.55    1.88
   3  -3  -2   38.45    1.97
  -3  -3   2   37.47    1.98
  -3   3   2   35.36    1.94
   3   3  -2   36.36    1.94
  -3   3   2   38.67    1.91
   3   3  -2   36.06    2.01
   3   3  -2   36.57    1.90
  -3   3   2   33.90    1.92
  -2  -3   2   13.21    0.66
  -2  -3   2   12.11    0.70
   2  -3  -2   11.83    0.68
  -2  -3   2   11.90    0.70
  -2  -3   2   12.04    0.69
  -2  -3   2   11.33    0.67
   2  -3  -2   11.92    0.78
   2  -3  -2   11.56    0.75
   2  -3  -2   11.43    0.80
   2  -3  -2   11.16    0.74
  -2  -3   2   13.04    0.74
  -2   3   2   12.84    0.77
  -2   3   2   10.68    0.72
  -2   3   2   11.75    0.72
   2   3  -2   12.70    0.74
  -2   3   2   10.46    0.72
   2   3  -2   12.22    0.72
   2   3  -2   11.27    0.80
   2   3  -2   12.19    0.76
  -2   3   2   11.63    0.72
  -1  -3   2   10.86    0.59
   1  -3  -2    9.10    0.59
   1  -3  -2   10.69    0.70
  -1  -3   2   11.11    0.63
  -1  -3   2   10.81    0.61
  -1  -3   2   11.02    0.64
   1  -3  -2   10.61    0.66
   1  -3  -2   10.20    0.65
   1  -3  -2   10.65    0.58
  -1  -3   2   11.37    0.59
  -1  -3   2   10.55    0.59
  -1   3   2   10.39    0.61
  -1   3   2   10.77    0.66
  -1   3   2   10.10    0.62
   1   3  -2   10.16    0.64
   1   3  -2    9.91    0.63
   1   3  -2   10.25    0.71
   1   3  -2   10.73    0.69
  -1   3   2   11.02    0.62
   0  -3  -2  278.88   14.15
   0  -3   2  279.32   14.11
   0  -3   2  297.05   14.20
   0  -3   2  288.46   14.12
   0  -3  -2  290.83   14.21
   0  -3  -2  286.08   14.20
   0  -3   2  302.85   14.16
   0  -3   2  281.44   14.16
   0  -3  -2  278.30   14.21
   0   3  -2  273.22   14.15
   0   3   2  292.60   14.14
   0   3   2  301.85   14.17
   0   3   2  292.45   14.18
   0   3   2  286.64   14.13
   0   3  -2  283.77   14.19
   0   3  -2  288.29   14.18
   0   3  -2  292.29   14.21
   1  -3   2    0.77    0.24
   1  -3   2    0.50    0.27
   1  -3   2    0.49    0.22
  -1  -3  -2    0.85    0.24
   1  -3   2    0.39    0.14
  -1  -3  -2    0.78    0.22
  -1  -3  -2    1.06    0.27
  -1  -3  -2    0.82    0.24
   1  -3   2    0.64    0.12
  -1   3  -2    0.71    0.25
  -1   3  -2    0.80    0.21
   1   3   2    0.73    0.15
   1   3   2    0.72    0.14
   1   3   2    0.47    0.17
  -1   3  -2    0.83    0.25
   1   3   2    0.83    0.23
  -2  -3  -2    2.99    0.44
  -2  -3  -2    3.28    0.45
   2  -3   2    3.09    0.28
  -2  -3  -2    3.06    0.45
   2  -3   2    3.35    0.49
   2  -3   2    3.83    0.50
   2  -3   2    3.82    0.44
  -2  -3  -2    2.47    0.49
   2   3   2    3.13    0.45
   2   3   2    2.43    0.55
  -2   3  -2    4.07    0.49
  -2   3  -2    3.34    0.55
  -2   3  -2    3.24    0.51
   2   3   2    3.07    0.29
   2   3   2    3.10    0.30
   3  -3   2    0.73    0.21
  -3  -3  -2    1.25    0.45
  -3  -3  -2    1.50    0.37
   3  -3   2    1.37    0.57
  -3  -3  -2    0.25    0.63
   3  -3   2    0.68    0.24
   3  -3   2    0.72    0.46
   3   3   2    1.05    0.25
   3   3   2    1.57    0.33
  -3   3  -2    1.09    0.55
   3   3   2    1.24    0.22
   3   3   2    1.50    0.45
  -3   3  -2    0.63    0.41
  -4  -3  -2    6.11    0.96
   4  -3   2    7.28    1.10
  -4  -3  -2    8.51    1.23
  -4  -3  -2    7.54    1.19
  -4  -3  -2    6.85    1.01
  -4  -3  -2    6.82    1.24
   4  -3   2    7.29    0.65
   4  -3   2    7.36    0.62
   4  -3   2    8.57    1.09
  -4  -3  -2    6.46    1.28
   4  -3   2    7.20    0.62
  -4   3  -2    8.32    1.13
   4   3   2    7.69    0.61
  -4   3  -2    8.04    1.00
  -4   3  -2    5.52    1.46
   4   3   2    7.81    1.09
  -4   3  -2    5.20    0.99
   4   3   2    8.15    0.71
  -4   3  -2    7.37    0.95
   4   3   2    7.92    0.95
  -4   3  -2    7.41    1.19
  -4   3  -2    7.60    1.37
   4   3   2    7.52    0.64
   5  -3   2    9.88    0.79
  -5  -3  -2    9.41    1.21
  -5  -3  -2    9.51    1.24
  -5  -3  -2    8.03    1.61
  -5  -3  -2   10.29    1.44
  -5  -3  -2   10.35    1.36
   5  -3   2    9.29    1.30
   5  -3   2    8.88    0.92
  -5  -3  -2    9.65    1.44
  -5  -3  -2    6.35    1.37
  -5  -3  -2   10.07    1.39
  -5   3  -2    9.88    1.65
   5   3   2   11.22    1.59
  -5   3  -2    8.96    1.71
  -5   3  -2    8.29    1.40
  -5   3  -2    7.65    1.23
  -5   3  -2   10.40    1.37
  -5   3  -2    8.78    1.28
   5   3   2   10.23    1.01
  -5   3  -2    8.50    1.05
   5   3   2    7.29    1.10
  -5   3  -2   10.44    1.38
   5   3   2    8.74    0.83
   5   3   2    9.77    0.87
   6  -3   2    0.96    0.43
  -6  -3  -2   -0.02    0.66
  -6  -3  -2   -0.01    0.67
  -6  -3  -2    0.31    0.73
  -6  -3  -2    0.66    0.52
   6  -3   2    0.13    0.47
  -6  -3  -2    0.09    0.67
   6  -3   2    0.15    0.47
  -6  -3  -2    0.17    0.67
  -6   3  -2    0.34    0.63
  -6   3  -2   -0.56    0.83
  -6   3  -2    0.27    0.64
  -6   3  -2    0.34    0.80
   6   3   2    0.11    0.43
   6   3   2    0.11    0.55
   6   3   2    0.00    0.55
  -6   3  -2    2.04    0.81
  -6   3  -2    0.07    0.63
  -6   3  -2   -0.67    0.80
   6   3   2   -0.96    0.85
  -7  -3  -2   39.24    2.12
  -7  -3  -2   37.66    2.13
  -7  -3  -2   42.09    2.29
   7  -3   2   40.36    2.24
   7  -3   2   32.55    1.97
   7  -3   2   31.53    1.99
  -7  -3  -2   34.74    2.11
   7   3   2   39.21    2.15
   7   3   2   33.88    2.05
   7   3   2   37.13    1.98
  -7   3  -2   35.85    2.38
  -7   3  -2   37.79    2.17
  -7   3  -2   41.18    2.37
  -7   3  -2   36.76    2.24
  -7   3  -2   35.20    2.13
  -7   3  -2   37.43    2.11
  -7   3  -2   33.79    2.12
   7   3   2   38.13    2.15
  -8  -4   2    2.85    0.58
  -8  -4   2    2.65    0.81
   8  -4  -2    1.99    0.50
   8  -4  -2    2.27    0.41
  -8  -4   2    3.00    0.71
   8  -4  -2    2.12    0.59
  -8   4   2    1.88    0.76
   8   4  -2    2.80    0.54
   8   4  -2    2.82    0.63
  -8   4   2    1.96    0.51
  -8   4   2    2.05    1.15
  -8   4   2    2.12    0.66
   7  -4  -2   20.51    1.40
  -7  -4   2   18.58    1.52
  -7  -4   2   21.76    1.87
   7  -4  -2   16.01    1.77
  -7  -4   2   18.97    1.69
  -7   4   2   18.81    1.61
  -7   4   2   21.10    1.60
  -7   4   2   18.04    2.16
   7   4  -2   19.52    1.55
  -7   4   2   20.62    1.66
   7   4  -2   20.09    1.38
  -6  -4   2    1.50    1.06
  -6  -4   2    1.65    1.00
  -6  -4   2   -0.75    0.82
   6  -4  -2   -0.21    0.42
   6  -4  -2    1.31    0.90
   6  -4  -2    0.30    0.63
   6  -4  -2    0.04    0.59
  -6  -4   2    0.65    0.85
   6  -4  -2    2.78    1.15
  -6   4   2    1.48    0.94
  -6   4   2    1.34    0.67
   6   4  -2    1.02    0.69
  -6   4   2    1.63    0.79
   6   4  -2    0.17    0.99
   6   4  -2    0.72    0.61
   6   4  -2   -0.59    0.68
  -6   4   2   -0.34    0.76
  -6   4   2    0.31    1.03
  -6   4   2    1.17    0.93
  -6   4   2    0.01    0.96
   6   4  -2    0.51    0.87
   5  -4  -2   16.30    1.05
   5  -4  -2   15.81    1.06
   5  -4  -2   16.27    1.26
  -5  -4   2   18.80    2.10
   5  -4  -2   16.85    1.40
   5  -4  -2   14.71    1.72
  -5  -4   2   16.47    1.26
  -5  -4   2   14.43    1.60
   5   4  -2   15.14    1.41
  -5   4   2   18.58    1.89
  -5   4   2   16.19    1.44
  -5   4   2   15.85    1.98
   5   4  -2   15.60    1.37
   5   4  -2   15.05    1.20
  -5   4   2   13.65    2.32
  -5   4   2   17.94    1.36
   5   4  -2   14.58    1.62
   4  -4  -2  174.08    8.76
   4  -4  -2  184.12    8.79
   4  -4  -2  174.23    8.74
   4  -4  -2  172.43    8.67
  -4  -4   2  184.10    8.86
   4  -4  -2  179.88    8.69
  -4  -4   2  186.72    8.75
   4  -4  -2  157.98    8.65
   4  -4  -2  166.53    8.81
  -4   4   2  174.93    8.86
  -4   4   2  159.12    8.72
   4   4  -2  175.25    8.85
  -4   4   2  180.57    8.78
   3  -4  -2    0.38    0.41
   3  -4  -2    0.18    0.34
   3  -4  -2   -0.34    0.37
  -3  -4   2    0.72    0.28
   3  -4  -2    0.09    0.42
  -3  -4   2    0.60    0.28
  -3  -4   2    0.13    0.40
  -3  -4   2    1.27    0.50
  -3  -4   2    0.54    0.39
   3  -4  -2    0.03    0.33
   3  -4  -2   -0.05    0.35
  -3  -4   2    0.52    0.38
   3   4  -2    0.30    0.40
   3   4  -2    0.80    0.35
   3   4  -2   -0.15    0.39
  -3   4   2    0.41    0.33
  -3   4   2    0.89    0.38
  -3   4   2    0.75    0.32
   2  -4  -2  193.30    9.57
   2  -4  -2  194.35    9.62
   2  -4  -2  205.71    9.66
  -2  -4   2  190.42    9.56
  -2  -4   2  200.74    9.56
   2  -4  -2  189.12    9.69
   2  -4  -2  197.16    9.64
  -2  -4   2  198.56    9.59
  -2  -4   2  192.73    9.54
  -2  -4   2  188.21    9.56
  -2  -4   2  199.79    9.65
  -2   4   2  178.70    9.59
   2   4  -2  178.54    9.64
  -2   4   2  184.81    9.64
  -2   4   2  176.29    9.55
   2   4  -2  200.43    9.60
  -2   4   2  221.64    9.65
  -2   4   2  192.14    9.61
   2   4  -2  195.75    9.62
   1  -4  -2   10.12    0.71
  -1  -4   2    9.14    0.58
  -1  -4   2    8.92    0.64
  -1  -4   2    8.66    0.60
   1  -4  -2   10.36    0.69
   1  -4  -2   10.00    0.68
  -1  -4   2    8.84    0.56
  -1  -4   2    9.26    0.61
   1  -4  -2    9.20    0.60
  -1   4   2   10.12    0.64
   1   4  -2    9.26    0.69
  -1   4   2    9.40    0.62
  -1   4   2   10.98    0.72
   1   4  -2    8.89    0.65
  -1   4   2   10.40    0.61
   0  -4  -2    0.07    0.26
   0  -4  -2    0.05    0.24
   0  -4   2    0.09    0.22
   0  -4   2    0.01    0.26
   0  -4  -2   -0.02    0.21
   0  -4  -2    0.29    0.24
   0  -4   2    0.07    0.21
   0  -4   2    0.27    0.13
   0   4  -2    0.11    0.22
   0   4  -2    0.10    0.21
   0   4  -2   -0.06    0.22
   0   4   2    0.11    0.25
   0   4   2   -0.06    0.19
   0   4   2    0.16    0.16
   1  -4   2    0.10    0.29
  -1  -4  -2   -0.20    0.26
   1  -4   2    0.09    0.16
   1  -4   2    0.10    0.30
  -1  -4  -2    0.14    0.27
   1  -4   2    0.65    0.33
  -1  -4  -2   -0.02    0.24
  -1  -4  -2   -0.15    0.29
   1  -4   2    0.06    0.14
   1   4   2   -0.44    0.27
   1   4   2    0.05    0.17
  -1   4  -2   -0.01    0.25
   1   4   2    0.23    0.27
   1   4   2    0.34    0.23
   1   4   2   -0.03    0.18
  -1   4  -2   -0.09    0.26
  -1   4  -2    0.22    0.26
   2  -4   2   24.93    1.30
  -2  -4  -2   23.56    1.65
   2  -4   2   21.59    1.26
   2  -4   2   22.98    1.24
  -2  -4  -2   23.73    1.45
   2  -4   2   24.50    1.44
   2  -4   2   23.37    1.44
  -2  -4  -2   23.93    1.46
   2  -4   2   23.72    1.54
  -2   4  -2   20.88    1.41
   2   4   2   23.53    1.25
  -2   4  -2   23.72    1.43
  -2   4  -2   22.39    1.47
   2   4   2   28.12    1.77
   2   4   2   23.96    1.30
   2   4   2   21.85    1.33
   3  -4   2    4.66    0.80
   3  -4   2    3.48    0.45
   3  -4   2    4.75    0.69
  -3  -4  -2    3.74    0.60
  -3  -4  -2    2.18    0.74
  -3  -4  -2    3.46    0.70
   3  -4   2    4.09    0.45
   3  -4   2    4.76    0.80
  -3   4  -2    4.26    0.71
   3   4   2    3.89    0.51
  -3   4  -2    3.73    1.02
   3   4   2    3.85    0.61
  -3   4  -2    3.59    0.58
   3   4   2    4.27    0.69
   3   4   2    4.03    0.52
   3   4   2    3.91    0.43
  -4  -4  -2   16.12    1.97
   4  -4   2   14.16    1.37
   4  -4   2   14.05    0.89
  -4  -4  -2   12.77    1.45
   4  -4   2   12.33    0.95
   4  -4   2   12.95    0.88
  -4  -4  -2   11.42    1.51
  -4  -4  -2   13.43    1.45
  -4  -4  -2   12.85    1.18
  -4  -4  -2   12.53    1.93
   4   4   2   12.32    0.89
   4   4   2   12.32    1.38
   4   4   2   12.62    1.02
  -4   4  -2   14.45    1.86
  -4   4  -2   14.97    1.60
  -4   4  -2   12.62    1.13
  -4   4  -2   12.18    2.59
   4   4   2   13.31    0.93
   4   4   2   13.12    1.04
  -4   4  -2   14.59    1.31
  -4   4  -2   15.97    1.51
  -4   4  -2   13.67    1.43
   5  -4   2   57.99    3.02
  -5  -4  -2   58.28    3.49
  -5  -4  -2   54.54    3.24
   5  -4   2   58.76    3.14
  -5  -4  -2   54.94    3.40
   5  -4   2   58.00    3.08
  -5  -4  -2   57.62    3.54
   5  -4   2   60.53    3.05
  -5  -4  -2   59.84    3.34
  -5  -4  -2   59.82    3.44
   5  -4   2   57.23    3.49
  -5  -4  -2   53.08    3.40
  -5  -4  -2   61.38    3.36
  -5   4  -2   60.30    3.69
  -5   4  -2   57.26    3.47
  -5   4  -2   56.68    3.21
   5   4   2   56.65    3.21
  -5   4  -2   60.54    3.28
   5   4   2   60.36    3.58
  -5   4  -2   57.32    3.51
  -5   4  -2   60.46    3.29
  -5   4  -2   58.73    3.38
   5   4   2   57.33    3.08
   5   4   2   58.43    3.08
  -5   4  -2   62.63    3.59
   5   4   2   56.80    3.08
  -6  -4  -2    0.90    0.66
   6  -4   2    1.12    0.46
   6  -4   2    0.88    0.51
  -6  -4  -2    1.02    0.60
  -6  -4  -2    0.22    0.71
  -6  -4  -2    0.85    0.60
  -6  -4  -2    1.49    0.63
  -6  -4  -2    1.41    0.78
   6  -4   2    1.70    0.47
  -6   4  -2    0.98    0.74
   6   4   2    0.57    0.59
  -6   4  -2    1.00    0.62
   6   4   2    1.23    0.67
   6   4   2    0.89    0.44
  -6   4  -2    1.94    0.77
  -6   4  -2    1.46    0.84
  -6   4  -2    0.85    0.56
   6   4   2    0.95    0.70
  -6   4  -2    0.41    0.84
  -6   4  -2    1.83    0.63
   7  -4   2   -0.38    0.37
  -7  -4  -2    0.64    0.53
  -7  -4  -2    0.43    0.49
  -7  -4  -2    0.18    0.78
  -7  -4  -2   -0.57    0.69
  -7  -4  -2    0.25    0.44
  -7   4  -2    0.51    0.77
   7   4   2    0.97    0.37
   7   4   2    1.16    0.53
  -7   4  -2    0.88    0.88
  -7   4  -2    0.88    0.66
  -7   4  -2    0.49    0.47
  -7   4  -2    0.17    0.56
  -7   4  -2    0.07    0.68
  -7   4  -2    0.86    0.51
   8  -5  -2    5.76    0.70
   8  -5  -2    5.55    0.64
  -8  -5   2    6.95    0.98
  -8  -5   2    7.58    0.81
   8   5  -2    6.87    0.79
  -8   5   2    5.32    0.91
  -8   5   2    6.18    0.74
  -8   5   2    6.14    0.91
   8   5  -2    7.92    1.21
  -7  -5   2   20.99    1.59
   7  -5  -2   15.77    1.21
  -7  -5   2   19.74    1.71
  -7  -5   2   20.19    1.52
   7  -5  -2   18.08    1.27
   7  -5  -2   15.10    1.60
  -7   5   2   14.36    1.73
   7   5  -2   19.56    1.35
   7   5  -2   19.09    1.55
  -7   5   2   17.44    1.50
  -7   5   2   18.72    1.72
   7   5  -2   17.90    1.31
  -7   5   2   17.38    1.43
   6  -5  -2   66.90    4.03
   6  -5  -2   71.30    3.92
  -6  -5   2   62.68    4.00
  -6  -5   2   73.02    3.98
  -6  -5   2   57.74    3.96
   6  -5  -2   74.40    3.74
   6  -5  -2   71.44    3.60
  -6  -5   2   69.66    3.89
   6   5  -2   71.67    3.73
  -6   5   2   75.09    3.96
  -6   5   2   64.99    4.10
   6   5  -2   72.63    3.83
  -6   5   2   72.61    3.86
   6   5  -2   71.63    3.88
  -6   5   2   71.38    3.88
  -6   5   2   74.96    4.04
   6   5  -2   66.96    4.12
  -6   5   2   67.91    4.04
  -5  -5   2    6.63    1.29
   5  -5  -2    6.04    0.72
  -5  -5   2    6.58    1.17
  -5  -5   2    5.58    1.03
   5  -5  -2    5.85    1.16
   5  -5  -2    5.33    0.83
   5  -5  -2    7.38    1.13
  -5   5   2    7.29    1.29
   5   5  -2    5.07    0.98
  -5   5   2    5.60    0.96
  -5   5   2    4.71    1.14
  -5   5   2    8.84    1.58
   5   5  -2    5.67    0.89
   5   5  -2    6.42    1.26
   5   5  -2    6.37    1.18
  -5   5   2    7.31    1.24
  -5   5   2    5.22    1.04
  -4  -5   2   85.50    4.95
  -4  -5   2   94.33    4.83
   4  -5  -2   96.16    4.88
   4  -5  -2   79.53    4.92
   4  -5  -2   88.21    5.06
   4  -5  -2  102.65    4.75
   4  -5  -2   96.72    4.73
   4   5  -2   94.99    4.92
  -4   5   2  103.36    5.11
  -4   5   2   94.15    4.90
  -4   5   2  101.36    4.86
  -4   5   2   89.15    4.87
   4   5  -2   88.87    4.94
   3  -5  -2   18.39    1.34
  -3  -5   2   19.34    1.22
   3  -5  -2   19.92    1.23
  -3  -5   2   20.44    1.37
   3  -5  -2   20.62    1.32
   3  -5  -2   18.45    1.23
  -3   5   2   18.51    1.31
   3   5  -2   19.85    1.36
   3   5  -2   16.98    2.09
  -3   5   2   22.22    1.42
  -3   5   2   22.72    1.34
   3   5  -2   19.73    1.34
  -2  -5   2   20.15    1.19
   2  -5  -2   20.18    1.27
   2  -5  -2   20.67    1.31
  -2  -5   2   20.93    1.19
  -2  -5   2   21.56    1.20
  -2  -5   2   21.55    1.28
  -2  -5   2   19.77    1.28
   2  -5  -2   17.08    1.19
  -2  -5   2   21.83    1.19
  -2  -5   2   21.04    1.15
  -2   5   2   22.66    1.27
   2   5  -2   18.26    1.33
   2   5  -2   21.68    1.30
  -2   5   2   21.59    1.30
   2   5  -2   20.08    1.26
  -1  -5   2    4.60    0.46
   1  -5  -2    5.08    0.62
  -1  -5   2    4.57    0.57
  -1  -5   2    5.13    0.51
   1  -5  -2    4.92    0.60
  -1  -5   2    5.07    0.52
   1  -5  -2    6.24    0.60
  -1  -5   2    5.16    0.42
  -1  -5   2    4.78    0.48
  -1  -5   2    5.10    0.47
   1  -5  -2    5.51    0.53
  -1   5   2    4.98    0.55
   1   5  -2    4.46    0.58
  -1   5   2    5.18    0.60
  -1   5   2    4.52    0.55
  -1   5   2    5.34    0.55
   1   5  -2    4.36    0.58
  -1   5   2    4.68    0.61
   0  -5   2   60.54    3.09
   0  -5   2   60.16    3.08
   0  -5   2   60.95    3.01
   0  -5   2   60.98    3.00
   0  -5  -2   58.41    3.12
   0  -5  -2   58.65    3.12
   0  -5   2   60.56    3.13
   0  -5  -2   58.60    3.14
   0  -5  -2   55.75    3.07
   0  -5   2   58.42    3.01
   0   5   2   61.04    3.02
   0   5  -2   61.20    3.09
   0   5  -2   60.48    3.11
   0   5   2   61.33    3.06
   0   5  -2   57.32    3.12
   0   5   2   55.78    3.04
   0   5   2   59.61    3.08
   0   5   2   60.88    3.11
  -1  -5  -2   36.19    2.09
   1  -5   2   38.74    1.95
   1  -5   2   37.37    2.09
   1  -5   2   38.04    1.96
   1  -5   2   36.65    2.08
  -1  -5  -2   40.75    2.16
  -1  -5  -2   38.91    2.11
   1  -5   2   35.31    2.09
   1   5   2   38.88    2.00
   1   5   2   38.53    2.08
   1   5   2   38.95    2.00
   1   5   2   37.90    1.96
   1   5   2   36.55    2.04
  -1   5  -2   35.99    2.10
  -2  -5  -2   33.59    2.07
  -2  -5  -2   33.34    2.31
   2  -5   2   35.43    2.09
   2  -5   2   32.06    2.07
   2  -5   2   35.06    1.84
   2  -5   2   35.99    1.82
  -2  -5  -2   35.90    1.99
   2  -5   2   36.63    1.99
  -2  -5  -2   35.66    2.08
   2   5   2   35.06    2.00
  -2   5  -2   37.27    2.00
   2   5   2   30.95    1.98
   2   5   2   35.26    1.89
  -2   5  -2   35.92    2.09
  -2   5  -2   32.36    3.69
   2   5   2   35.74    1.84
  -2   5  -2   33.90    2.07
   2   5   2   35.82    1.88
  -2   5  -2   34.11    2.00
   3  -5   2    0.60    0.93
   3  -5   2    0.25    0.62
  -3  -5  -2    1.15    1.66
   3  -5   2    1.56    1.48
  -3  -5  -2    0.60    0.63
   3  -5   2    1.34    0.30
  -3  -5  -2    1.99    0.54
  -3  -5  -2   -0.06    0.96
   3  -5   2    0.92    0.34
   3  -5   2    0.99    0.39
  -3   5  -2    0.36    0.95
  -3   5  -2    1.82    1.27
  -3   5  -2    2.73    1.07
  -3   5  -2    0.89    0.54
  -3   5  -2    1.27    0.81
  -3   5  -2    0.87    0.55
   3   5   2    0.97    0.39
   3   5   2    1.15    0.32
   3   5   2    1.36    0.43
   3   5   2    2.17    0.64
   4  -5   2    8.89    0.89
  -4  -5  -2    8.90    1.38
  -4  -5  -2    9.26    1.45
  -4  -5  -2    7.66    1.42
  -4  -5  -2    8.26    1.17
   4  -5   2    8.95    0.74
   4  -5   2    8.64    0.74
   4  -5   2    9.10    1.54
  -4  -5  -2    7.59    1.19
  -4  -5  -2    7.81    1.39
   4  -5   2   10.04    1.05
  -4  -5  -2    8.63    1.34
   4   5   2   10.04    0.83
  -4   5  -2    7.55    1.11
   4   5   2    6.43    1.01
   4   5   2    8.66    0.84
  -4   5  -2    9.35    1.30
   4   5   2    6.81    0.78
  -4   5  -2   11.19    2.33
  -4   5  -2    8.22    1.20
  -4   5  -2    7.90    1.28
  -4   5  -2    9.70    1.45
  -4   5  -2    8.56    1.02
  -4   5  -2   11.00    1.23
   4   5   2    9.99    1.39
  -5  -5  -2    2.18    0.73
  -5  -5  -2    2.29    0.69
   5  -5   2    0.78    0.48
   5  -5   2    1.53    1.00
   5  -5   2    1.21    0.60
  -5  -5  -2    3.10    0.78
   5  -5   2    2.46    0.47
   5  -5   2    4.40    1.92
  -5  -5  -2    0.54    0.89
  -5  -5  -2    3.61    0.78
  -5  -5  -2    1.55    0.85
   5   5   2    4.02    1.65
   5   5   2    0.52    0.85
  -5   5  -2    1.76    0.79
   5   5   2    1.71    0.49
  -5   5  -2    0.53    1.02
   5   5   2    1.80    0.94
  -5   5  -2    1.37    0.89
  -5   5  -2    2.09    0.69
  -5   5  -2    1.20    1.01
  -5   5  -2    1.95    0.59
  -5   5  -2    1.35    1.81
   5   5   2    1.01    0.61
  -5   5  -2    1.53    0.67
  -6  -5  -2   17.45    1.45
  -6  -5  -2   22.87    1.76
   6  -5   2   21.90    1.26
   6  -5   2   17.81    1.24
  -6  -5  -2   19.47    1.78
  -6  -5  -2   22.02    1.58
   6  -5   2   19.02    1.77
  -6   5  -2   21.07    2.24
  -6   5  -2   20.77    1.78
   6   5   2   18.94    1.26
  -6   5  -2   18.93    1.61
   6   5   2   19.54    1.37
  -6   5  -2   21.49    1.50
  -6   5  -2   23.68    1.82
  -6   5  -2   24.45    2.23
  -6   5  -2   18.18    1.63
  -7  -5  -2    4.46    0.85
  -7  -5  -2    3.20    0.61
   7  -5   2    2.96    0.52
  -7  -5  -2    3.36    0.54
  -7  -5  -2    3.79    0.96
  -7   5  -2    3.41    0.61
  -7   5  -2    2.76    0.56
  -7   5  -2    3.80    0.64
   7   5   2    2.59    0.45
  -7   5  -2    3.19    0.67
   7   5   2    4.39    0.68
  -7   5  -2    4.58    0.89
  -8  -6   2    0.46    0.67
   8  -6  -2    0.31    0.36
  -8  -6   2    0.84    0.68
  -8   6   2    0.17    0.84
   8   6  -2    0.65    0.37
  -8   6   2    0.55    0.43
   7  -6  -2    3.81    0.79
  -7  -6   2    5.44    0.85
  -7  -6   2    5.96    1.07
   7   6  -2    3.61    0.69
  -7   6   2    3.88    1.13
   7   6  -2    3.95    0.86
   7   6  -2    3.43    1.23
   6  -6  -2   -0.87    0.52
  -6  -6   2   -0.79    0.79
   6  -6  -2    0.67    0.69
  -6  -6   2    1.27    0.92
   6  -6  -2   -0.47    0.51
  -6   6   2   -0.82    0.82
   6   6  -2   -0.45    0.69
   6   6  -2    1.92    1.88
  -6   6   2    0.74    0.80
   6   6  -2   -0.30    0.72
  -6   6   2   -0.56    0.79
  -6   6   2   -0.29    0.82
   6   6  -2    0.00    1.08
   5  -6  -2    1.38    0.65
  -5  -6   2    3.38    2.21
  -5  -6   2    0.93    0.99
  -5  -6   2    1.49    1.12
   5  -6  -2    1.19    1.01
  -5  -6   2    2.49    0.97
   5  -6  -2    1.55    0.47
   5   6  -2    1.40    1.19
   5   6  -2    1.76    0.81
  -5   6   2    1.71    0.80
  -5   6   2   -0.65    1.04
  -5   6   2    1.63    1.09
  -5   6   2    1.12    0.91
  -5   6   2    2.42    1.03
   5   6  -2    1.78    0.76
   5   6  -2    1.71    0.83
   4  -6  -2   12.59    0.91
  -4  -6   2   11.40    1.14
   4  -6  -2   14.50    1.30
   4  -6  -2   12.78    1.68
   4   6  -2    9.86    1.71
  -4   6   2   10.05    1.44
  -4   6   2   16.15    2.26
   4   6  -2   10.14    1.40
   4   6  -2   11.34    1.37
  -4   6   2   12.41    1.44
   3  -6  -2    1.66    0.49
   3  -6  -2    1.13    0.74
   3  -6  -2    1.67    0.81
  -3  -6   2    1.05    0.76
  -3  -6   2    2.72    0.53
  -3  -6   2    0.89    0.48
   3  -6  -2    0.97    0.57
   3   6  -2    1.26    0.68
  -3   6   2    2.56    0.64
   3   6  -2    2.00    0.82
   3   6  -2    1.91    0.92
  -3   6   2    0.33    0.83
   3   6  -2    1.99    0.70
  -3   6   2    1.31    0.56
   2  -6  -2    2.14    0.48
  -2  -6   2    3.02    0.55
  -2  -6   2    3.17    0.47
  -2  -6   2    3.24    0.46
   2  -6  -2    3.66    0.66
  -2  -6   2    3.32    0.49
   2  -6  -2    2.60    0.91
  -2  -6   2    3.49    0.66
  -2   6   2    3.68    0.61
   2   6  -2    4.21    1.09
   2   6  -2    3.94    1.20
   2   6  -2    3.60    0.61
  -2   6   2    3.17    0.55
  -2   6   2    2.57    0.88
   2   6  -2    2.96    0.56
   2   6  -2    1.65    0.81
  -1  -6   2  200.67    9.25
  -1  -6   2  198.43    9.18
  -1  -6   2  177.98    9.25
  -1  -6   2  183.59    9.25
  -1  -6   2  185.52    9.19
   1  -6  -2  189.06    9.36
  -1  -6   2  182.13    9.22
   1   6  -2  192.38    9.33
  -1   6   2  195.49    9.32
   1   6  -2  170.63    9.49
  -1   6   2  161.16    9.21
  -1   6   2  189.00    9.30
  -1   6   2  176.95    9.21
   1   6  -2  194.60    9.32
   0  -6   2    2.51    0.58
   0  -6   2    1.98    0.49
   0  -6   2    1.99    0.53
   0  -6   2    2.23    0.51
   0  -6  -2    0.88    1.02
   0  -6  -2    2.20    0.44
   0  -6   2    1.60    0.35
   0  -6  -2    1.58    0.52
   0  -6   2    2.53    0.43
   0   6   2    3.22    0.44
   0   6   2    1.82    0.44
   0   6   2    1.86    0.45
   0   6  -2    1.22    0.54
   0   6  -2    2.79    0.73
   0   6   2    2.72    0.47
   0   6   2    1.82    0.45
   0   6  -2    2.25    0.47
   1  -6   2   16.60    0.97
  -1  -6  -2   18.55    1.16
   1  -6   2   14.84    1.20
   1  -6   2   13.02    1.30
  -1  -6  -2   17.39    1.30
   1  -6   2   17.08    1.00
   1  -6   2   12.30    1.70
  -1  -6  -2   17.83    2.46
   1  -6   2   15.27    1.21
  -1  -6  -2   14.25    1.69
   1   6   2   18.44    1.23
   1   6   2   17.07    1.22
  -1   6  -2   17.45    1.70
  -1   6  -2   13.99    1.35
   1   6   2   16.92    1.03
   1   6   2   18.26    1.07
   1   6   2   17.40    1.10
   1   6   2   16.82    1.20
  -1   6  -2   15.02    1.30
  -1   6  -2   18.35    2.42
  -1   6  -2   17.34    1.26
  -1   6  -2   16.54    1.14
   1   6   2   17.03    1.13
   2  -6   2    1.00    0.58
   2  -6   2   -0.32    0.38
   2  -6   2    0.59    0.33
  -2  -6  -2    0.27    0.54
   2  -6   2   -0.61    0.66
   2  -6   2    0.94    0.85
  -2  -6  -2    0.67    0.74
  -2  -6  -2    0.19    0.78
   2  -6   2    0.47    0.80
  -2   6  -2    0.30    0.90
  -2   6  -2    0.29    0.72
  -2   6  -2    1.21    1.03
   2   6   2   -0.02    0.41
  -2   6  -2   -1.27    0.76
   2   6   2    0.17    0.65
   2   6   2    0.25    0.41
   2   6   2   -0.27    0.43
  -2   6  -2   -0.18    0.50
   2   6   2   -0.02    0.35
  -2   6  -2    0.55    0.50
   3  -6   2   -0.72    0.89
  -3  -6  -2    0.36    0.68
  -3  -6  -2    0.75    0.96
   3  -6   2    0.25    0.33
   3  -6   2    0.72    0.46
  -3  -6  -2   -0.61    0.95
   3  -6   2   -0.55    0.44
  -3  -6  -2   -0.75    0.98
  -3  -6  -2    0.88    0.96
  -3  -6  -2    0.83    1.29
  -3  -6  -2    0.03    0.66
  -3  -6  -2    0.06    0.91
  -3   6  -2    0.45    0.69
  -3   6  -2   -0.37    0.97
   3   6   2   -0.36    0.43
  -3   6  -2   -0.71    0.53
  -3   6  -2    0.46    0.78
   3   6   2    0.84    0.41
   3   6   2    0.60    0.56
  -3   6  -2    2.67    1.34
   3   6   2   -0.65    0.87
  -3   6  -2   -0.09    0.61
   3   6   2    1.45    1.01
  -3   6  -2    1.02    1.03
  -3   6  -2    2.20    1.06
   3   6   2   -0.34    0.47
  -3   6  -2    0.37    0.86
  -4  -6  -2    2.54    1.39
   4  -6   2    2.50    0.53
  -4  -6  -2    3.66    1.04
   4  -6   2    1.53    0.49
   4  -6   2    0.27    1.17
  -4  -6  -2    1.40    1.41
   4  -6   2    2.77    0.70
   4  -6   2    1.66    0.44
  -4  -6  -2    0.64    1.41
   4   6   2    1.40    0.54
  -4   6  -2    2.64    1.18
   4   6   2    1.96    0.49
  -4   6  -2    1.89    1.04
  -4   6  -2    1.25    0.56
  -4   6  -2    0.88    0.88
   4   6   2    2.50    1.10
   4   6   2    1.29    0.83
   4   6   2    2.81    0.59
  -4   6  -2    1.99    1.28
  -4   6  -2    4.20    2.07
   4   6   2    4.08    1.26
  -4   6  -2    3.28    1.23
  -4   6  -2    2.60    1.00
   5  -6   2   -0.11    0.43
  -5  -6  -2   -0.23    0.68
  -5  -6  -2    0.31    0.71
   5  -6   2    0.86    0.44
   5  -6   2    0.23    0.52
  -5  -6  -2    0.22    0.76
  -5  -6  -2    0.97    0.72
  -5  -6  -2    0.91    0.65
  -5  -6  -2   -0.47    0.79
  -5   6  -2   -0.41    0.61
  -5   6  -2    0.01    0.54
  -5   6  -2    0.72    0.90
  -5   6  -2   -0.58    0.74
   5   6   2    0.40    0.45
   5   6   2   -0.32    0.77
   5   6   2    0.54    0.64
   5   6   2    0.05    0.60
  -5   6  -2   -0.95    0.83
  -5   6  -2   -1.51    0.96
  -5   6  -2    0.10    0.54
  -6  -6  -2    2.14    0.80
  -6  -6  -2    1.66    0.60
  -6  -6  -2    1.38    0.56
  -6  -6  -2    2.03    0.80
   6  -6   2    1.60    0.39
  -6  -6  -2    2.59    0.64
   6  -6   2    1.32    0.51
  -6  -6  -2    0.81    0.54
  -6   6  -2    1.91    0.82
   6   6   2    0.50    0.82
  -6   6  -2    1.48    0.52
   6   6   2    1.76    0.52
   6   6   2    1.99    0.43
  -6   6  -2    1.21    0.56
  -6   6  -2    1.59    0.65
  -6   6  -2    1.27    0.57
  -7  -6  -2    0.04    0.36
   7  -6   2    0.23    0.37
  -7   6  -2    0.16    0.41
  -7   6  -2   -0.15    0.41
  -7   6  -2    0.24    0.44
   7   6   2    0.29    0.47
   8   7  -2    3.42    0.51
   7  -7  -2    3.20    0.66
  -7  -7   2    2.63    0.79
  -7  -7   2    2.51    0.58
   7  -7  -2    3.68    0.66
  -7   7   2    2.12    0.70
  -7   7   2    2.13    0.65
  -7   7   2    2.76    0.80
   7   7  -2    2.77    0.58
   6  -7  -2   44.53    2.50
  -6  -7   2   39.98    2.53
   6  -7  -2   39.78    2.28
  -6   7   2   38.58    2.74
  -6   7   2   42.03    2.52
  -6   7   2   43.36    2.52
   6   7  -2   40.43    2.62
   6   7  -2   42.30    2.45
  -6   7   2   45.12    2.72
  -5  -7   2    3.93    0.85
   5  -7  -2    2.22    1.17
  -5  -7   2    3.77    1.40
   5  -7  -2    3.22    0.83
   5  -7  -2    5.67    0.99
  -5   7   2    4.24    1.04
   5   7  -2    5.73    1.63
   5   7  -2    4.23    0.86
   5   7  -2    1.46    0.89
   5   7  -2    2.34    1.24
  -5   7   2    3.26    0.99
   4  -7  -2   12.50    1.05
  -4  -7   2   16.06    1.93
   4  -7  -2   11.93    1.33
   4  -7  -2   11.86    1.28
   4  -7  -2   15.03    1.66
   4  -7  -2   13.53    2.89
  -4  -7   2   14.53    2.10
  -4   7   2   12.96    1.86
  -4   7   2    9.91    1.90
  -4   7   2   15.32    1.78
   4   7  -2   13.21    1.68
  -4   7   2   12.22    2.09
  -4   7   2   11.87    2.38
   4   7  -2   14.20    1.59
   4   7  -2   12.97    2.23
  -3  -7   2   21.16    1.51
   3  -7  -2   24.79    1.75
  -3  -7   2   15.30    3.03
  -3  -7   2   18.95    1.90
   3   7  -2   21.06    1.76
  -3   7   2   21.84    2.40
   3   7  -2   21.90    1.88
  -3   7   2   21.45    1.68
  -3   7   2   17.12    3.00
  -3   7   2   21.60    2.13
  -2  -7   2    1.00    0.44
  -2  -7   2   -0.40    0.62
   2  -7  -2    0.08    0.83
   2  -7  -2    0.12    0.60
  -2  -7   2    0.47    0.56
  -2  -7   2   -0.08    0.77
   2  -7  -2    0.08    0.79
  -2   7   2    0.13    0.61
   2   7  -2    0.35    0.68
   2   7  -2   -1.33    0.82
   2   7  -2    0.59    1.16
  -2   7   2    0.81    0.95
   2   7  -2    0.41    0.76
  -1  -7   2   19.51    1.28
  -1  -7   2   21.32    1.26
   1  -7  -2   20.92    1.58
  -1  -7   2   21.08    1.36
   1  -7  -2   22.07    1.48
  -1  -7   2   20.00    1.33
   1  -7  -2   18.20    1.90
  -1  -7   2   20.45    1.26
   1   7  -2   22.93    1.62
   1   7  -2   19.60    2.08
   1   7  -2   20.27    1.62
  -1   7   2   17.62    1.49
   1   7  -2   20.86    1.50
  -1   7   2   21.79    1.48
  -1   7   2   23.39    2.07
  -1   7   2   23.11    1.51
   0  -7   2   25.45    1.41
   0  -7   2   25.98    1.38
   0  -7   2   26.28    1.37
   0  -7  -2   21.47    2.17
   0  -7   2   23.65    1.73
   0  -7  -2   19.99    1.72
   0  -7   2   25.06    1.44
   0  -7   2   22.52    1.62
   0  -7   2   24.59    1.47
   0  -7  -2   23.85    1.56
   0   7  -2   26.83    1.66
   0   7   2   23.82    1.41
   0   7  -2   23.72    1.76
   0   7   2   24.99    1.69
   0   7  -2   19.78    1.70
   0   7   2   23.44    2.27
   0   7  -2   24.14    2.02
   0   7   2   20.40    1.53
   0   7   2   25.24    1.62
   1  -7   2   25.58    2.49
   1  -7   2   22.21    1.29
  -1  -7  -2   21.68    2.47
   1  -7   2   20.25    1.58
  -1  -7  -2   25.92    3.26
   1  -7   2   21.76    1.33
  -1  -7  -2   21.98    1.57
   1  -7   2   22.29    1.27
  -1  -7  -2   24.31    3.53
   1  -7   2   22.09    1.35
  -1  -7  -2   21.29    2.07
  -1  -7  -2   21.75    1.94
  -1   7  -2   22.13    2.91
  -1   7  -2   25.28    3.20
  -1   7  -2   23.20    2.53
   1   7   2   21.85    1.67
  -1   7  -2   21.12    1.55
  -1   7  -2   21.37    1.95
  -1   7  -2   21.28    2.11
   1   7   2   22.33    1.42
   1   7   2   22.89    1.43
  -1   7  -2   23.08    1.88
  -1   7  -2   20.37    1.46
   1   7   2   20.93    1.60
   1   7   2   17.17    1.72
  -1   7  -2   21.84    1.65
   1   7   2   25.62    2.44
   1   7   2   21.55    1.35
   1   7   2   18.82    2.09
  -2  -7  -2   -0.44    1.34
  -2  -7  -2   -1.08    1.04
  -2  -7  -2    0.86    0.99
   2  -7   2   -0.62    0.82
   2  -7   2    0.06    0.46
   2  -7   2    0.02    0.47
  -2  -7  -2    0.08    0.74
   2  -7   2    0.34    0.35
   2   7   2   -0.14    0.54
  -2   7  -2   -0.93    0.90
   2   7   2   -0.56    0.65
  -2   7  -2    0.33    0.89
  -2   7  -2    0.14    0.54
  -2   7  -2    0.67    0.66
  -2   7  -2    0.55    0.98
  -2   7  -2   -2.06    1.08
   2   7   2    0.44    0.80
  -2   7  -2    1.33    1.12
  -2   7  -2    1.30    1.46
   2   7   2    1.40    0.56
  -2   7  -2   -0.09    0.75
  -2   7  -2   -0.36    1.36
   2   7   2    0.44    0.45
  -2   7  -2    1.79    0.88
   2   7   2   -0.56    0.93
  -3  -7  -2    2.13    0.98
   3  -7   2    0.40    0.41
   3  -7   2    0.30    0.62
  -3  -7  -2   -0.46    0.93
   3  -7   2   -0.28    0.60
  -3  -7  -2   -0.70    0.78
  -3  -7  -2    0.78    0.93
  -3  -7  -2   -0.50    0.84
   3  -7   2    0.31    1.22
   3  -7   2    0.01    0.48
  -3  -7  -2    1.63    0.97
  -3  -7  -2    0.76    0.84
  -3  -7  -2   -0.72    1.16
   3  -7   2   -0.83    1.10
   3   7   2   -0.16    0.59
  -3   7  -2   -0.27    1.08
  -3   7  -2   -0.17    0.89
   3   7   2    0.56    0.94
  -3   7  -2   -0.21    0.82
  -3   7  -2    0.81    1.25
  -3   7  -2    0.79    0.65
  -3   7  -2    1.74    1.50
   3   7   2    0.46    1.15
  -3   7  -2   -1.13    0.81
  -3   7  -2   -0.24    0.56
   3   7   2    0.61    0.74
  -3   7  -2    0.24    0.78
   3   7   2    0.35    0.45
  -4  -7  -2   -0.31    1.37
  -4  -7  -2    1.97    0.79
   4  -7   2    1.19    0.44
  -4  -7  -2    0.59    1.72
  -4  -7  -2    0.68    0.74
  -4  -7  -2    0.88    0.81
   4  -7   2    1.25    0.52
  -4  -7  -2    0.73    0.91
   4  -7   2    0.40    0.47
   4  -7   2   -0.17    0.99
  -4  -7  -2    0.28    0.81
   4   7   2    0.40    0.68
  -4   7  -2    0.86    1.05
   4   7   2   -0.68    0.78
   4   7   2   -0.03    0.65
  -4   7  -2    0.47    0.71
   4   7   2    2.10    2.32
  -4   7  -2    0.18    0.59
  -4   7  -2    1.34    0.59
  -4   7  -2   -1.17    1.19
  -4   7  -2    1.89    1.09
   4   7   2    0.00    0.44
  -4   7  -2   -0.24    0.57
  -4   7  -2    0.93    0.77
   5  -7   2   -0.11    0.65
  -5  -7  -2    0.18    0.61
  -5  -7  -2    0.02    0.72
   5  -7   2   -0.22    0.39
   5  -7   2   -1.24    0.70
  -5  -7  -2    0.33    0.72
  -5  -7  -2    0.86    0.80
  -5  -7  -2    0.40    0.61
  -5   7  -2   -1.64    1.04
  -5   7  -2    0.11    0.47
  -5   7  -2   -0.05    0.58
   5   7   2    0.49    0.53
   5   7   2    0.20    0.45
  -5   7  -2   -1.36    1.08
  -5   7  -2    0.88    0.84
  -5   7  -2   -0.06    0.64
  -5   7  -2    0.27    0.58
   6  -7   2    1.64    0.38
  -6  -7  -2    3.70    0.94
   6  -7   2    1.62    0.99
  -6  -7  -2    1.71    0.54
   6  -7   2    2.02    0.54
  -6  -7  -2    3.75    0.97
  -6  -7  -2    2.85    0.62
  -6   7  -2    1.74    0.69
   6   7   2    1.98    0.41
  -6   7  -2    2.39    0.47
   6   7   2    2.47    0.52
  -6   7  -2    2.79    0.87
  -6   7  -2    1.44    0.57
  -6   7  -2    2.45    0.55
   6   7   2    3.21    0.75
  -6   7  -2    1.95    0.62
   7  -8  -2    9.12    0.86
   7  -8  -2    7.59    0.75
  -7  -8   2    8.10    0.83
  -7   8   2    7.98    0.94
   7   8  -2    8.82    0.77
  -7   8   2    8.25    1.36
  -6  -8   2    2.26    0.92
   6  -8  -2    3.22    0.97
  -6   8   2    2.52    0.79
  -6   8   2    3.21    0.82
   6   8  -2    1.00    0.76
  -6   8   2    2.21    0.67
  -6   8   2    2.34    1.05
   6   8  -2    2.18    0.62
   5  -8  -2   12.58    2.75
  -5  -8   2   16.76    2.26
   5  -8  -2   18.31    1.48
   5  -8  -2   15.95    3.04
  -5  -8   2   17.93    1.62
   5  -8  -2   17.41    1.25
  -5   8   2   16.43    1.78
  -5   8   2   16.50    1.72
   5   8  -2   18.16    1.46
  -5   8   2   18.50    1.83
  -4  -8   2    6.66    1.24
   4  -8  -2    9.17    1.09
  -4  -8   2    7.03    1.09
   4  -8  -2    8.86    1.58
   4  -8  -2   10.01    1.58
   4   8  -2    7.89    1.18
  -4   8   2   11.43    1.91
   4   8  -2    9.02    1.38
  -4   8   2    7.79    1.26
   4   8  -2    9.62    1.33
  -4   8   2    7.41    1.57
  -4   8   2   10.14    1.63
   3  -8  -2    3.42    0.72
  -3  -8   2    6.27    1.33
   3  -8  -2    5.31    0.95
   3  -8  -2    6.73    1.46
  -3  -8   2    4.65    0.72
  -3  -8   2    4.78    1.16
  -3  -8   2    3.92    1.09
   3   8  -2    3.45    0.96
   3   8  -2    4.98    1.46
  -3   8   2    7.61    2.76
  -3   8   2    4.87    1.10
   3   8  -2    5.49    1.01
  -3   8   2    5.23    0.96
  -3   8   2    4.16    1.20
  -3   8   2    5.60    1.31
  -3   8   2    6.24    1.27
  -2  -8   2   10.74    1.40
  -2  -8   2   13.14    1.91
   2  -8  -2   13.33    1.49
   2  -8  -2   13.79    2.01
   2  -8  -2   14.12    1.58
  -2  -8   2   14.49    1.30
  -2   8   2   14.75    1.49
   2   8  -2   15.75    1.49
  -2   8   2   17.40    2.36
   2   8  -2   14.13    2.24
   2   8  -2   10.51    2.06
   2   8  -2   14.05    1.64
  -2   8   2   14.54    1.85
  -2   8   2   14.93    2.51
   2   8  -2   10.10    1.69
   1  -8  -2    0.32    0.84
  -1  -8   2    0.88    0.61
  -1  -8   2    0.68    0.41
   1  -8  -2    1.49    1.21
   1  -8  -2    1.69    1.71
  -1  -8   2   -0.63    0.67
  -1  -8   2    0.62    0.70
   1  -8  -2   -0.24    0.76
  -1  -8   2    1.40    0.61
  -1   8   2    0.13    1.81
   1   8  -2   -0.66    0.96
  -1   8   2    0.23    0.80
   1   8  -2   -0.39    1.00
   1   8  -2   -0.84    1.40
  -1   8   2    0.23    0.88
   1   8  -2    2.35    1.53
   1   8  -2    0.87    0.89
  -1   8   2    0.69    1.10
  -1   8   2    0.36    0.79
   0  -8  -2   13.06    1.84
   0  -8  -2   10.03    1.39
   0  -8   2   11.44    1.22
   0  -8   2   12.07    0.92
   0  -8   2   14.28    1.20
   0  -8  -2    9.01    1.65
   0  -8   2   16.01    2.34
   0  -8   2   11.95    0.97
   0  -8   2   13.03    0.94
   0   8  -2   10.27    1.39
   0   8   2   13.32    1.45
   0   8  -2   12.62    1.82
   0   8  -2   14.40    2.43
   0   8  -2   13.32    1.51
   0   8   2   11.47    1.94
   0   8   2    9.12    1.45
   0   8  -2   11.42    1.67
   0   8  -2   13.64    1.80
   0   8   2   16.42    2.11
   1  -8   2    4.06    0.56
  -1  -8  -2    3.07    1.15
  -1  -8  -2    1.36    1.02
   1  -8   2    1.32    1.05
  -1  -8  -2    0.99    1.34
  -1  -8  -2    3.33    1.90
   1  -8   2    3.24    0.60
   1  -8   2    4.40    1.05
   1  -8   2    3.37    0.81
   1  -8   2    4.40    1.24
   1   8   2    3.37    0.53
  -1   8  -2    2.03    0.84
  -1   8  -2    3.72    0.98
  -1   8  -2    5.51    1.09
  -1   8  -2    6.47    1.38
   1   8   2    4.05    1.10
  -1   8  -2    1.72    0.97
   1   8   2    4.20    0.74
   1   8   2    3.51    1.59
  -1   8  -2    4.56    1.40
  -1   8  -2    4.78    0.81
  -1   8  -2    3.00    1.36
  -1   8  -2    1.54    1.00
   2  -8   2    7.93    1.10
   2  -8   2    6.89    0.80
  -2  -8  -2    6.26    1.17
   2  -8   2    6.26    1.12
   2  -8   2    4.71    0.81
  -2  -8  -2    6.27    1.22
  -2  -8  -2    4.16    1.02
   2  -8   2    8.01    0.76
  -2  -8  -2    6.16    1.38
   2  -8   2    5.57    1.33
   2  -8   2    6.96    1.50
   2   8   2    6.46    0.80
   2   8   2    7.57    1.19
  -2   8  -2    6.96    1.11
  -2   8  -2    6.87    1.37
  -2   8  -2    7.66    1.00
   2   8   2   11.84    2.26
  -2   8  -2    8.58    1.12
   2   8   2    6.94    1.59
  -2   8  -2    7.93    1.10
  -2   8  -2    3.32    1.27
  -2   8  -2    7.88    1.49
  -2   8  -2    4.57    1.34
  -2   8  -2    4.99    1.36
  -3  -8  -2    5.78    1.07
   3  -8   2    5.91    0.74
   3  -8   2    6.06    1.14
   3  -8   2    0.67    2.98
  -3  -8  -2    4.30    0.93
  -3  -8  -2    2.54    1.06
  -3  -8  -2    3.60    0.88
   3  -8   2    5.06    1.11
   3   8   2    3.00    1.23
  -3   8  -2    1.48    2.84
  -3   8  -2    4.56    1.21
  -3   8  -2    5.13    0.82
  -3   8  -2    4.13    0.85
   3   8   2    4.50    0.78
  -3   8  -2    1.14    1.75
  -3   8  -2    4.96    1.30
   3   8   2    5.62    2.30
  -3   8  -2    3.80    0.67
  -3   8  -2    4.36    1.27
   3   8   2    3.91    0.98
   3   8   2    5.37    1.11
  -3   8  -2    7.30    1.09
  -4  -8  -2   15.69    1.45
   4  -8   2   13.49    1.29
   4  -8   2   18.40    1.61
  -4  -8  -2   14.73    1.49
   4  -8   2   17.02    1.13
  -4  -8  -2   12.47    2.31
  -4  -8  -2   17.20    1.78
  -4  -8  -2   19.39    1.77
   4  -8   2   17.60    1.08
  -4   8  -2   16.76    1.45
  -4   8  -2   17.16    1.51
  -4   8  -2   16.58    1.29
   4   8   2   17.15    1.17
  -4   8  -2   17.63    2.12
   4   8   2   16.11    1.29
  -4   8  -2   18.30    1.34
   4   8   2   15.85    1.83
  -4   8  -2   17.07    1.38
  -4   8  -2   17.01    2.05
   5  -8   2    5.08    0.72
   5  -8   2    6.30    0.67
  -5  -8  -2    9.07    1.37
  -5  -8  -2    8.63    1.02
  -5  -8  -2    6.49    0.83
   5  -8   2    5.40    0.92
  -5   8  -2    6.60    0.96
   5   8   2    6.63    0.82
   5   8   2    7.33    1.22
   5   8   2    6.55    0.89
  -5   8  -2    8.42    1.67
  -5   8  -2    5.16    0.82
  -5   8  -2    6.76    0.83
   5   8   2    5.23    1.81
  -5   8  -2    9.80    1.40
  -5   8  -2    8.00    1.01
  -5   8  -2    7.88    1.04
  -6  -8  -2    6.88    0.79
   6  -8   2   10.31    0.78
  -6   8  -2    7.93    0.83
  -6   8  -2    8.08    0.98
  -6   8  -2    8.10    0.74
  -6   8  -2    8.90    0.71
   6   8   2    8.37    0.91
   6  -9  -2    1.93    0.60
  -6  -9   2    1.04    0.58
   6   9  -2    1.13    0.50
  -6   9   2    0.90    0.63
  -6   9   2    0.20    0.71
   6   9  -2    0.03    0.62
  -5  -9   2   10.83    1.76
   5  -9  -2   14.14    1.35
   5  -9  -2   14.64    2.23
  -5  -9   2   11.94    1.71
  -5   9   2   13.95    1.40
  -5   9   2   11.50    1.54
  -5   9   2   10.84    1.73
   5   9  -2    9.99    1.94
   4  -9  -2   -0.96    0.76
   4  -9  -2    0.11    0.83
   4  -9  -2   -0.60    1.10
  -4  -9   2    1.80    1.01
  -4  -9   2    2.03    0.91
   4   9  -2    0.70    0.72
   4   9  -2   -0.49    0.88
  -4   9   2   -1.09    0.76
  -4   9   2    0.49    0.83
   3  -9  -2    1.09    1.20
   3  -9  -2   -0.07    0.79
   3  -9  -2   -1.40    2.06
   3  -9  -2   -1.51    0.94
  -3  -9   2    1.41    1.16
  -3  -9   2    0.91    1.00
  -3   9   2    0.44    0.90
  -3   9   2    0.65    0.83
   3   9  -2   -1.40    1.01
  -3   9   2    0.24    1.76
   3   9  -2   -0.65    0.80
  -3   9   2   -0.64    1.08
   2  -9  -2   10.04    1.75
   2  -9  -2   14.16    1.59
  -2  -9   2   10.28    1.95
  -2  -9   2   12.62    1.22
  -2  -9   2   11.18    2.52
   2  -9  -2   12.52    2.01
   2   9  -2   12.71    2.31
   2   9  -2   14.46    2.10
   2   9  -2   14.89    2.04
  -2   9   2   14.70    2.22
  -2   9   2   11.48    1.87
  -2   9   2   11.12    1.73
   2   9  -2   12.64    1.67
  -2   9   2   17.22    2.95
   1  -9  -2   -0.46    1.87
  -1  -9   2    0.57    0.84
   1  -9  -2    2.10    0.86
  -1  -9   2   -0.24    0.93
   1  -9  -2    0.39    2.05
  -1  -9   2   -0.21    0.49
   1  -9  -2    0.93    1.12
   1   9  -2    0.21    1.96
  -1   9   2    2.06    1.51
   1   9  -2   -0.43    1.17
  -1   9   2   -1.31    0.92
  -1   9   2    0.35    1.07
   1   9  -2    1.45    1.02
   1   9  -2   -0.30    1.26
   0  -9  -2    1.04    2.13
   0  -9  -2    0.85    1.14
   0  -9   2   -0.24    0.44
   0  -9   2    0.85    0.79
   0  -9   2    0.73    0.73
   0  -9  -2   -0.04    0.92
   0  -9   2    0.95    0.96
   0  -9   2   -1.07    1.08
   0   9  -2    0.13    1.45
   0   9  -2    0.64    1.33
   0   9  -2    1.20    0.82
   0   9   2   -0.66    1.08
   0   9  -2   -0.03    1.50
   0   9   2    0.47    1.20
   0   9  -2    0.52    1.94
   0   9  -2    0.89    1.13
   1  -9   2    1.61    0.66
  -1  -9  -2    4.28    1.22
   1  -9   2    3.07    1.26
   1  -9   2    2.53    0.71
  -1  -9  -2    2.02    1.15
   1  -9   2    1.48    0.78
   1  -9   2    1.13    0.64
  -1  -9  -2    0.21    1.63
   1  -9   2    1.65    1.10
  -1  -9  -2    3.79    1.07
   1  -9   2    1.80    0.47
  -1   9  -2    1.76    0.82
  -1   9  -2    0.87    1.19
  -1   9  -2    0.85    0.86
  -1   9  -2    0.74    0.78
   1   9   2    1.49    1.10
  -1   9  -2    2.90    0.81
  -1   9  -2    1.04    0.83
  -1   9  -2    1.21    1.32
   1   9   2    2.72    1.84
   1   9   2    2.33    1.41
   2  -9   2    2.10    0.85
  -2  -9  -2    2.59    0.92
   2  -9   2    1.46    0.67
  -2  -9  -2    1.70    1.83
   2  -9   2    0.85    0.60
   2  -9   2   -0.14    0.62
  -2  -9  -2    0.99    0.95
  -2  -9  -2    1.40    1.03
  -2   9  -2    2.14    1.33
  -2   9  -2    0.64    0.78
  -2   9  -2    0.68    0.82
   2   9   2    0.80    1.25
  -2   9  -2    1.70    1.03
   2   9   2   -0.42    0.57
  -2   9  -2    0.95    0.75
  -2   9  -2    0.35    0.70
   2   9   2    0.95    1.05
  -2   9  -2    2.04    2.34
  -2   9  -2    0.52    0.67
  -3  -9  -2    1.02    0.75
  -3  -9  -2    1.63    0.98
   3  -9   2   -0.31    0.98
   3  -9   2    0.58    0.42
   3  -9   2    0.13    0.76
   3  -9   2    1.71    0.64
   3  -9   2    0.85    0.60
  -3  -9  -2    1.19    0.88
  -3   9  -2    1.17    0.69
   3   9   2    0.95    0.85
  -3   9  -2    0.13    0.62
  -3   9  -2    1.01    0.73
   3   9   2    1.67    0.53
  -3   9  -2    1.82    0.76
  -3   9  -2    0.59    1.14
   3   9   2    1.58    1.31
  -3   9  -2   -0.01    0.57
  -3   9  -2    0.53    1.06
   4  -9   2    7.17    0.87
   4  -9   2    6.00    0.66
  -4  -9  -2    8.53    1.10
  -4  -9  -2    5.72    0.96
  -4  -9  -2    6.94    1.23
   4   9   2    6.03    1.22
  -4   9  -2    5.16    1.00
  -4   9  -2    5.99    0.82
  -4   9  -2    7.38    1.59
  -4   9  -2    7.49    1.11
   4   9   2    5.96    0.79
  -4   9  -2    6.35    0.85
  -4   9  -2    4.83    0.76
   5  -9   2    0.58    0.34
  -5  -9  -2   -0.36    0.46
   5  -9   2    0.52    0.41
  -5   9  -2    0.78    0.71
  -5   9  -2    1.40    0.69
   5   9   2    0.23    0.54
  -5   9  -2    0.30    0.60
  -5   9  -2   -0.66    0.50
  -5   9  -2    0.60    0.39
   6 -10  -2    4.13    0.58
   5 -10  -2    1.22    0.59
  -5 -10   2    1.13    0.86
  -5 -10   2   -0.94    0.68
   5  10  -2    0.49    0.55
   5  10  -2   -0.09    0.59
  -5  10   2   -0.91    0.54
   4 -10  -2   37.81    2.38
   4 -10  -2   35.86    2.29
   4 -10  -2   38.46    2.55
  -4 -10   2   38.11    2.47
   4  10  -2   40.50    2.24
  -4  10   2   37.35    2.48
   4  10  -2   35.13    2.84
   3 -10  -2    4.22    0.86
   3 -10  -2    3.81    0.84
   3 -10  -2    3.26    0.99
  -3  10   2    2.70    0.77
  -3  10   2    4.25    0.83
  -3  10   2    5.35    1.25
   3  10  -2    1.72    0.84
   3  10  -2    5.22    0.76
   2 -10  -2   18.12    2.32
  -2 -10   2   16.92    2.01
   2 -10  -2   19.61    1.96
  -2 -10   2   14.46    1.97
  -2  10   2   18.11    1.96
  -2  10   2   17.37    2.16
   2  10  -2   16.05    1.72
   2  10  -2   22.20    1.58
  -2  10   2   17.88    1.90
   1 -10  -2    0.74    1.11
  -1 -10   2   -1.04    1.11
   1 -10  -2    0.56    1.37
  -1  10   2    0.37    0.99
   1  10  -2    1.43    0.75
   1  10  -2   -0.59    1.12
  -1  10   2    1.31    0.93
   1  10  -2    0.73    0.86
   0 -10  -2    7.76    1.40
   0 -10   2    6.05    0.91
   0 -10  -2   11.07    1.68
   0 -10   2    6.24    1.10
   0 -10  -2    8.77    1.97
   0 -10   2   11.82    2.73
   0  10   2   10.35    1.90
   0  10  -2    8.90    1.66
   0  10  -2    6.70    0.93
   0  10  -2    8.35    1.77
   0  10  -2    9.11    1.35
   0  10   2    8.12    1.19
  -1 -10  -2    0.14    1.44
   1 -10   2   -0.04    0.71
  -1 -10  -2    0.93    0.93
   1 -10   2    0.39    0.87
  -1 -10  -2   -0.19    1.07
  -1  10  -2    0.12    0.77
  -1  10  -2    1.95    0.72
  -1  10  -2    1.03    0.85
  -1  10  -2    1.88    0.95
  -1  10  -2    0.51    0.97
   1  10   2    0.48    0.87
   1  10   2    0.26    1.18
   1  10   2    0.75    1.07
   2 -10   2    6.72    0.98
   2 -10   2    7.29    1.13
   2 -10   2    9.21    0.80
  -2 -10  -2    9.85    1.53
   2 -10   2    9.10    1.00
  -2  10  -2    7.39    1.12
   2  10   2    8.28    1.49
  -2  10  -2    7.20    1.16
  -2  10  -2    9.60    1.49
   2  10   2   11.39    1.63
  -2  10  -2   10.34    1.27
  -3 -10  -2   -0.80    0.73
   3 -10   2    0.95    1.13
   3 -10   2    0.53    0.47
   3 -10   2   -1.85    1.14
  -3 -10  -2    0.46    0.87
   3 -10   2    0.59    0.39
  -3  10  -2   -0.72    1.05
   3  10   2    0.34    0.93
  -3  10  -2    0.42    0.97
  -3  10  -2    0.54    0.64
   3  10   2    0.63    1.14
  -3  10  -2   -0.08    0.60
   3  10   2    1.09    0.81
  -3  10  -2    0.55    0.58
  -3  10  -2   -0.22    0.57
  -4 -10  -2    1.85    1.28
   4 -10   2    0.51    0.38
   4 -10   2    0.81    0.39
  -4 -10  -2    0.28    0.62
  -4  10  -2   -0.05    0.54
  -4  10  -2    0.52    0.48
  -4  10  -2    0.69    0.73
  -4  10  -2    0.95    0.48
   4  10   2    2.93    1.34
  -4  10  -2    1.90    0.78
  -4  10  -2    1.67    1.18
   4  10   2    0.85    0.57
  -5 -11   2    0.07    0.76
   5 -11  -2    0.30    0.41
   5  11  -2    0.01    0.46
  -4 -11   2   -0.54    0.73
   4 -11  -2    0.13    0.66
   4 -11  -2    2.00    0.82
  -4  11   2   -0.21    0.72
  -4  11   2    0.41    0.54
   4  11  -2    0.00    0.91
   4  11  -2    0.87    0.60
   3 -11  -2   -0.58    0.72
  -3 -11   2   -0.06    0.78
   3 -11  -2   -0.16    0.64
  -3  11   2   -0.84    0.73
  -3  11   2    0.06    0.60
   3  11  -2    0.11    0.65
   3  11  -2   -0.12    0.69
  -2 -11   2   -0.56    1.18
   2 -11  -2    3.49    0.74
  -2 -11   2    3.90    1.12
   2  11  -2    1.75    0.72
  -2  11   2    4.13    1.02
  -2  11   2    2.09    0.78
  -2  11   2    2.76    0.91
   2  11  -2   -0.39    1.22
   1 -11  -2    3.74    0.84
  -1 -11   2    2.22    1.00
   1 -11  -2    6.98    1.47
  -1  11   2    4.70    1.14
   1  11  -2    4.98    0.82
  -1  11   2    3.40    0.95
  -1  11   2    5.20    0.98
   0 -11  -2   -0.48    0.84
   0 -11   2   -0.27    0.75
   0 -11   2   -0.35    1.47
   0 -11   2    2.19    1.10
   0 -11  -2   -0.14    1.57
   0  11   2    1.35    0.94
   0  11  -2   -1.14    0.68
   0  11   2   -0.45    0.93
   0  11  -2   -0.76    0.65
   1 -11   2    6.69    0.77
   1 -11   2    6.80    1.26
  -1 -11  -2    8.30    1.64
  -1 -11  -2    5.15    1.56
   1 -11   2    5.64    0.94
  -1  11  -2    8.17    1.29
  -1  11  -2    5.77    0.99
   1  11   2    7.84    1.34
   1  11   2   10.67    2.01
  -2 -11  -2    1.03    0.76
   2 -11   2    1.41    0.76
   2 -11   2    2.02    1.14
   2 -11   2    0.64    0.41
  -2  11  -2    1.56    0.68
  -2  11  -2    1.40    0.65
   2  11   2    4.05    1.23
   2  11   2    1.52    0.80
   2  11   2    2.03    0.80
   3 -11   2   -0.66    0.93
   3 -11   2   -0.11    0.34
  -3 -11  -2   -0.38    1.14
  -3 -11  -2    0.33    0.70
   3  11   2    0.85    0.69
  -3  11  -2   -0.13    0.65
  -3  11  -2   -0.24    0.55
  -3  11  -2   -0.01    0.36
   3 -12  -2    6.45    0.99
  -3  12   2    7.69    1.11
  -3  12   2    5.87    1.28
  -2 -12   2    0.01    1.09
   2 -12  -2    2.21    0.69
   2 -12  -2    0.66    0.60
  -2 -12   2    1.30    0.70
   2  12  -2   -0.12    0.50
  -2  12   2   -0.72    0.77
  -2  12   2    0.97    0.58
   1 -12  -2    1.05    0.78
   1 -12  -2    2.41    0.79
  -1 -12   2    3.57    0.98
  -1 -12   2    3.30    0.95
  -1  12   2    1.84    0.86
   1  12  -2    2.72    0.63
  -1  12   2    2.68    0.69
   0 -12   2    0.69    0.70
   0 -12  -2    2.13    0.90
   0 -12  -2    0.71    0.99
   0 -12  -2    2.45    0.95
   0 -12   2    1.87    0.86
   0  12   2   -0.27    0.92
   0  12   2    1.77    0.76
   0  12  -2    0.78    0.53
   0  12   2    1.21    0.73
   1 -12   2    1.08    0.58
   1 -12   2    1.38    0.70
  -1 -12  -2    1.74    0.72
   1  12   2    0.79    1.06
  -1  12  -2    1.20    0.46
   1  12   2    1.03    0.61
   1  12   2    1.68    0.85
  -2 -12  -2    0.55    0.70
   2 -12   2   -0.59    0.52
  -2  12  -2    0.30    0.42
   2  12   2   -0.53    0.52
   2  12   2    2.65    1.48
  -9   0   3    7.03    0.79
   9   0  -3    7.03    0.78
   9   0  -3    7.28    0.87
   9   0  -3    5.30    0.63
  -9   0   3    7.08    0.85
   8   0  -3    0.26    0.51
  -8   0   3   -0.29    0.59
   8   0  -3    0.15    0.55
   8   0  -3    0.65    0.48
  -8   0   3   -0.28    0.58
  -8   0   3    0.26    0.54
   7   0  -3   55.07    3.01
  -7   0   3   58.18    3.30
  -7   0   3   52.84    3.30
   7   0  -3   49.18    3.20
   7   0  -3   50.93    3.54
  -7   0   3   51.80    3.15
  -7   0   3   50.30    3.53
   7   0  -3   56.49    3.10
  -6   0   3    1.94    1.38
   6   0  -3    0.06    0.94
   6   0  -3   -0.24    0.53
   6   0  -3    0.12    0.71
   6   0  -3   -0.13    0.86
   6   0  -3    0.67    0.95
  -6   0   3    0.90    1.64
  -6   0   3    1.50    0.63
  -6   0   3    1.26    1.02
  -5   0   3   18.28    1.40
   5   0  -3   16.10    1.27
   5   0  -3   16.58    1.46
  -5   0   3   18.56    1.19
   5   0  -3   18.84    1.36
   4   0  -3    0.02    0.39
  -4   0   3   -0.20    0.26
  -4   0   3   -0.29    0.73
  -4   0   3   -0.09    0.32
   4   0  -3   -0.42    0.29
  -4   0   3    0.46    0.30
  -3   0   3    1.31    0.25
  -3   0   3    1.57    0.25
   3   0  -3    2.58    0.46
   3   0  -3    2.17    0.27
  -3   0   3    1.58    0.26
   3   0  -3    2.45    0.35
  -3   0   3    1.46    0.27
  -2   0   3    0.10    0.13
  -2   0   3    0.11    0.11
   2   0  -3    0.18    0.21
   2   0  -3    0.64    0.28
   2   0  -3    0.18    0.25
   2   0  -3    0.44    0.09
  -2   0   3    0.23    0.14
  -2   0   3    0.39    0.17
  -2   0   3    0.35    0.15
  -1   0   3  101.04    4.83
   1   0  -3   96.13    4.85
  -1   0   3   99.61    4.84
  -1   0   3  100.51    4.88
  -1   0   3   94.56    4.85
   1   0  -3   99.06    4.95
  -1   0   3   94.23    4.85
  -1   0   3   96.72    4.81
   1   0  -3   99.88    4.84
  -1   0   3   97.64    4.85
   1   0  -3   97.20    4.91
   0   0  -3    0.04    0.22
   0   0   3   -0.04    0.12
   0   0   3   -0.01    0.12
   0   0  -3   -0.17    0.15
   0   0  -3   -0.16    0.16
   0   0  -3    0.11    0.21
   0   0  -3   -0.08    0.11
  -1   0  -3   27.61    1.49
   1   0   3   28.30    1.47
  -1   0  -3   26.21    1.54
  -1   0  -3   29.06    1.53
  -1   0  -3   28.25    1.53
  -1   0  -3   27.76    1.52
  -2   0  -3    0.09    0.37
  -2   0  -3   -0.62    0.30
  -2   0  -3   -0.36    0.33
   2   0   3    0.11    0.23
  -2   0  -3    0.34    0.30
  -2   0  -3   -0.16    0.33
  -2   0  -3   -0.67    0.38
   3   0   3    0.63    0.61
   3   0   3    0.30    0.18
  -3   0  -3   -1.27    0.70
  -3   0  -3    0.67    0.87
  -3   0  -3    0.53    0.44
   3   0   3   -0.38    0.46
  -3   0  -3   -0.16    0.76
   3   0   3   -0.01    0.16
  -3   0  -3    0.00    0.42
  -4   0  -3   -0.70    0.74
  -4   0  -3   -0.34    0.74
  -4   0  -3   -1.03    1.06
   4   0   3   -0.08    0.29
   4   0   3    0.39    0.26
  -4   0  -3   -0.52    0.62
  -4   0  -3   -0.71    0.80
  -4   0  -3    0.59    0.98
  -4   0  -3    0.51    1.10
   4   0   3   -1.26    0.88
  -5   0  -3   12.70    1.54
  -5   0  -3   14.45    1.85
  -5   0  -3   11.88    1.62
  -5   0  -3   14.40    1.52
   5   0   3   13.20    1.05
  -5   0  -3   10.64    1.41
  -5   0  -3   14.49    1.46
   5   0   3   12.56    0.91
  -5   0  -3    9.66    1.76
   5   0   3   12.96    0.97
  -5   0  -3   13.72    1.45
  -6   0  -3   -0.43    0.67
  -6   0  -3    0.25    0.56
  -6   0  -3   -0.16    0.69
  -6   0  -3    0.55    0.58
   6   0   3   -0.20    0.47
   6   0   3    0.11    0.42
   6   0   3    0.70    0.52
  -6   0  -3    0.46    0.63
   7   0   3    0.47    0.65
  -7   0  -3   -0.43    0.56
   7   0   3    0.16    0.34
  -7   0  -3    1.21    0.50
  -7   0  -3   -0.42    0.57
  -7   0  -3   -0.61    0.76
  -7   0  -3    0.82    0.48
  -9  -1   3    1.71    0.62
  -9  -1   3    0.71    0.35
   9  -1  -3    0.65    0.51
   9  -1  -3    0.50    0.49
   9  -1  -3    0.02    0.34
   9   1  -3    0.24    0.42
  -9   1   3    0.00    0.46
   9   1  -3    0.46    0.41
   9   1  -3    0.66    0.37
  -9   1   3    0.41    0.45
  -8  -1   3    1.17    0.63
   8  -1  -3    1.01    0.56
   8  -1  -3    0.99    0.46
  -8  -1   3    0.10    0.48
   8  -1  -3    0.81    0.46
   8   1  -3    1.65    0.49
   8   1  -3    1.73    0.60
  -8   1   3    0.95    0.69
  -8   1   3    1.03    0.58
   8   1  -3    1.48    0.51
  -8   1   3    1.62    0.60
   7  -1  -3    2.39    0.66
  -7  -1   3    2.45    0.82
   7  -1  -3    2.88    0.60
   7  -1  -3    4.03    0.74
  -7  -1   3    3.02    0.93
   7  -1  -3    2.80    0.68
  -7  -1   3    2.20    0.83
  -7  -1   3    3.25    0.71
  -7   1   3    3.14    0.86
   7   1  -3    2.78    0.63
   7   1  -3    2.25    0.71
   7   1  -3    3.69    0.75
  -7   1   3    3.41    0.80
  -7   1   3    3.09    0.95
  -7   1   3    2.65    0.83
   7   1  -3    1.86    1.38
  -6  -1   3   14.49    1.68
  -6  -1   3   14.14    2.10
  -6  -1   3   15.21    1.58
   6  -1  -3   14.05    1.63
   6  -1  -3   14.96    1.27
  -6  -1   3   16.47    1.30
   6  -1  -3   11.63    1.41
   6  -1  -3   11.76    1.26
  -6  -1   3   20.22    2.59
  -6   1   3   16.54    2.13
   6   1  -3   15.48    1.18
   6   1  -3   14.71    1.60
  -6   1   3   15.29    2.09
   6   1  -3   13.56    1.49
   6   1  -3   15.61    1.41
   6   1  -3   15.80    1.24
  -6   1   3   12.41    1.28
  -6   1   3   12.82    1.84
  -5  -1   3    3.12    0.50
  -5  -1   3    3.58    0.69
   5  -1  -3    3.13    0.73
   5  -1  -3    3.13    0.70
   5  -1  -3    4.44    0.73
  -5   1   3    2.52    0.68
   5   1  -3    3.67    0.69
   5   1  -3    3.47    0.66
   5   1  -3    3.64    0.66
  -5   1   3    4.10    0.57
   4  -1  -3    0.02    0.48
   4  -1  -3    0.26    0.40
  -4  -1   3   -0.02    0.43
  -4  -1   3   -0.04    0.28
   4  -1  -3   -0.30    0.31
  -4  -1   3    0.93    0.53
  -4  -1   3    0.13    0.58
  -4  -1   3    0.17    0.33
  -4  -1   3    0.20    0.21
  -4  -1   3    0.46    0.27
  -4   1   3    0.38    0.22
  -4   1   3   -0.13    0.30
  -4   1   3    0.28    0.34
  -4   1   3    0.37    0.32
   4   1  -3   -0.35    0.44
  -3  -1   3    1.25    0.25
  -3  -1   3    1.41    0.26
  -3  -1   3    1.67    0.26
   3  -1  -3    1.25    0.33
  -3  -1   3    0.81    0.30
  -3  -1   3    1.39    0.25
   3  -1  -3    2.14    0.33
  -3  -1   3    1.42    0.24
   3  -1  -3    2.12    0.46
  -3   1   3    1.69    0.23
   3   1  -3    1.99    0.33
  -3   1   3    1.55    0.26
   3   1  -3    1.68    0.42
  -3   1   3    1.31    0.24
  -3   1   3    1.88    0.28
  -3   1   3    1.56    0.27
   2  -1  -3    2.62    0.25
   2  -1  -3    2.50    0.44
  -2  -1   3    2.17    0.24
  -2  -1   3    2.18    0.23
  -2  -1   3    2.06    0.27
   2  -1  -3    2.60    0.32
  -2  -1   3    1.91    0.28
   2   1  -3    2.85    0.45
  -2   1   3    2.36    0.27
   2   1  -3    2.23    0.34
   2   1  -3    2.19    0.37
  -2   1   3    2.81    0.26
  -2   1   3    1.92    0.31
  -2   1   3    2.27    0.26
  -2   1   3    2.50    0.31
   1  -1  -3    4.36    0.40
  -1  -1   3    4.58    0.28
  -1  -1   3    4.66    0.33
  -1  -1   3    4.58    0.28
  -1  -1   3    4.84    0.35
   1  -1  -3    5.07    0.42
  -1  -1   3    4.62    0.27
   1  -1  -3    4.60    0.47
   1  -1  -3    4.80    0.34
  -1   1   3    4.69    0.35
  -1   1   3    4.79    0.31
  -1   1   3    4.63    0.34
   1   1  -3    4.66    0.43
   1   1  -3    4.28    0.39
   1   1  -3    4.72    0.47
   0  -1  -3  105.78    5.29
   0  -1  -3  108.02    5.34
   0  -1  -3  111.22    5.30
   0  -1  -3  108.22    5.31
   0   1  -3  108.56    5.31
   0   1  -3   99.13    5.27
   0   1   3  109.43    5.27
   0   1  -3  106.85    5.32
   0   1   3  100.07    5.20
   0   1  -3  105.19    5.29
   0   1  -3  101.92    5.26
  -1  -1  -3   33.16    1.80
  -1  -1  -3   33.69    1.76
  -1  -1  -3   33.24    1.78
  -1  -1  -3   31.35    1.72
  -1  -1  -3   34.17    1.78
  -1   1  -3   31.47    1.75
  -1   1  -3   31.64    1.77
   1   1   3   34.15    1.63
  -1   1  -3   31.50    1.77
  -1   1  -3   32.71    1.78
  -1   1  -3   33.54    1.76
   1   1   3   34.34    1.71
  -2  -1  -3    0.54    0.31
   2  -1   3    0.97    0.35
  -2  -1  -3    0.43    0.36
  -2  -1  -3    0.37    0.28
  -2  -1  -3    0.99    0.39
  -2  -1  -3    0.62    0.33
  -2   1  -3    0.76    0.31
   2   1   3    0.79    0.13
   2   1   3    0.81    0.25
  -2   1  -3    0.70    0.38
  -2   1  -3    0.28    0.37
  -2   1  -3    0.53    0.36
  -2   1  -3    0.81    0.33
  -3  -1  -3   16.41    1.35
   3  -1   3   16.03    0.83
   3  -1   3   14.84    0.79
  -3  -1  -3   15.36    1.12
  -3  -1  -3   13.93    1.22
   3  -1   3   15.07    1.23
   3  -1   3   12.56    1.33
  -3  -1  -3   11.67    1.47
   3   1   3   14.71    1.10
  -3   1  -3   14.51    1.08
   3   1   3   16.16    0.85
  -3   1  -3   12.18    1.37
  -3   1  -3   14.83    1.15
   3   1   3   15.01    0.81
  -3   1  -3   15.85    1.35
  -4  -1  -3    3.22    0.71
  -4  -1  -3    5.14    1.13
   4  -1   3    3.79    0.47
  -4  -1  -3    6.15    1.11
  -4  -1  -3    4.66    1.07
  -4  -1  -3    3.48    0.71
  -4  -1  -3    5.07    0.91
   4  -1   3    5.11    0.54
  -4   1  -3    3.50    0.96
  -4   1  -3    3.02    1.21
   4   1   3    5.78    0.99
  -4   1  -3    3.56    0.97
  -4   1  -3    3.30    0.83
  -4   1  -3    4.89    1.12
  -4   1  -3    3.04    0.73
   4   1   3    3.37    0.53
  -4   1  -3    4.23    1.22
  -4   1  -3    3.58    0.78
   4   1   3    3.80    0.47
   4   1   3    5.42    0.65
   5  -1   3    9.29    0.78
  -5  -1  -3   10.70    1.41
  -5  -1  -3    6.86    1.30
  -5  -1  -3    7.76    1.36
  -5  -1  -3    8.10    1.62
  -5  -1  -3    7.43    1.20
   5  -1   3    7.31    0.90
  -5  -1  -3    6.75    1.06
   5  -1   3    8.25    0.74
  -5  -1  -3   10.52    1.32
   5   1   3    6.96    0.73
  -5   1  -3    8.75    1.31
  -5   1  -3    6.53    1.48
  -5   1  -3    8.27    1.22
  -5   1  -3    9.14    1.20
  -5   1  -3   10.77    1.89
  -5   1  -3    7.75    1.42
  -5   1  -3    6.41    1.15
  -5   1  -3    7.43    1.38
   5   1   3    7.60    0.93
   5   1   3    8.26    0.78
  -6  -1  -3   10.17    1.22
  -6  -1  -3    9.09    1.21
  -6  -1  -3    7.83    0.96
   6  -1   3    6.95    0.92
   6  -1   3    8.44    1.07
  -6  -1  -3    7.35    1.21
  -6  -1  -3    6.82    1.23
  -6  -1  -3    6.98    1.00
   6  -1   3    6.52    0.77
   6   1   3    9.20    0.76
  -6   1  -3    7.43    1.19
  -6   1  -3    8.12    0.99
  -6   1  -3    8.06    1.10
  -6   1  -3    5.98    1.02
   6   1   3    8.78    0.85
  -6   1  -3    5.86    0.91
   6   1   3    7.78    1.06
   7  -1   3    9.10    1.22
  -7  -1  -3    7.52    0.90
  -7  -1  -3    8.86    1.02
  -7  -1  -3    9.66    0.94
  -7  -1  -3    9.17    0.87
   7  -1   3    8.65    0.70
  -7  -1  -3    7.01    1.06
  -7   1  -3   10.07    1.10
   7   1   3    7.52    0.70
   7   1   3    9.55    1.20
  -7   1  -3    9.73    0.86
  -7   1  -3    6.63    0.83
  -7   1  -3    8.26    0.85
   9  -2  -3   -0.09    0.30
   9  -2  -3    0.67    0.50
  -9  -2   3   -0.29    0.37
  -9   2   3    0.19    0.43
   9   2  -3    0.15    0.42
   9   2  -3   -0.04    0.32
   9   2  -3    1.13    0.46
  -9   2   3   -0.81    0.49
   8  -2  -3    0.52    0.57
   8  -2  -3    1.23    0.46
   8  -2  -3    1.01    0.49
  -8  -2   3   -0.21    0.51
  -8   2   3    0.91    0.60
   8   2  -3    0.21    0.55
   8   2  -3    0.36    0.60
  -8   2   3    0.01    0.83
   8   2  -3    1.77    0.52
  -7  -2   3    1.62    1.07
   7  -2  -3   -0.10    0.66
   7  -2  -3    0.01    0.75
  -7  -2   3    0.32    0.92
  -7  -2   3    0.60    0.72
   7  -2  -3   -0.14    0.52
   7  -2  -3    1.01    0.63
   7   2  -3   -0.11    0.68
  -7   2   3   -0.47    0.66
   7   2  -3    0.09    1.31
   7   2  -3    0.35    0.59
   7   2  -3    0.75    0.57
  -7   2   3    1.28    0.94
  -7   2   3    1.89    0.92
  -7   2   3    0.88    0.82
   6  -2  -3   25.28    1.55
   6  -2  -3   24.21    1.75
   6  -2  -3   27.42    1.78
   6  -2  -3   21.49    2.20
  -6  -2   3   28.30    1.76
   6  -2  -3   23.29    2.16
  -6  -2   3   27.68    2.50
  -6  -2   3   25.93    2.01
  -6  -2   3   27.66    1.99
  -6   2   3   23.42    2.06
   6   2  -3   25.73    1.90
  -6   2   3   28.25    2.08
  -6   2   3   26.90    1.79
   6   2  -3   27.35    1.77
   6   2  -3   24.49    1.82
   6   2  -3   26.46    1.96
  -6   2   3   24.31    2.31
   5  -2  -3   16.44    1.34
   5  -2  -3   15.86    1.19
  -5  -2   3   18.96    1.20
   5  -2  -3   17.45    1.36
  -5  -2   3   19.70    1.37
   5  -2  -3   17.39    1.42
   5   2  -3   15.23    1.43
  -5   2   3   17.70    1.24
  -5   2   3   17.13    1.53
   5   2  -3   17.62    1.37
   4  -2  -3   38.50    1.98
   4  -2  -3   36.48    1.96
  -4  -2   3   33.62    1.98
   4  -2  -3   36.01    2.07
  -4  -2   3   31.64    1.84
  -4   2   3   34.17    1.90
  -4   2   3   37.50    1.95
   4   2  -3   36.67    2.11
  -4   2   3   36.81    1.95
  -4   2   3   33.25    1.94
  -3  -2   3  170.65    7.98
  -3  -2   3  163.19    7.94
   3  -2  -3  164.01    7.95
  -3  -2   3  150.30    7.91
   3  -2  -3  158.84    8.02
  -3  -2   3  148.79    7.90
  -3  -2   3  162.66    7.89
   3  -2  -3  177.75    7.97
  -3   2   3  160.35    7.92
  -3   2   3  157.43    7.89
  -3   2   3  163.70    7.94
  -3   2   3  160.34    7.92
   3   2  -3  155.24    8.03
  -3   2   3  157.27    7.92
   3   2  -3  158.99    7.95
  -3   2   3  160.23    7.90
  -3   2   3  147.95    7.92
   3   2  -3  155.79    7.93
  -2  -2   3   58.69    3.03
  -2  -2   3   59.27    3.05
  -2  -2   3   58.33    3.09
   2  -2  -3   65.13    3.11
   2  -2  -3   59.32    3.17
  -2  -2   3   60.09    3.08
  -2   2   3   59.07    3.06
  -2   2   3   58.55    3.10
  -2   2   3   61.21    3.07
   2   2  -3   63.07    3.19
   2   2  -3   62.20    3.13
  -2   2   3   63.68    3.09
   2   2  -3   63.01    3.11
  -1  -2   3   92.13    4.70
  -1  -2   3   92.16    4.72
   1  -2  -3   98.26    4.85
  -1  -2   3   96.16    4.78
   1  -2  -3  105.07    4.80
  -1  -2   3   93.40    4.76
   1  -2  -3   99.51    4.80
   1   2  -3   93.88    4.79
   1   2  -3   91.57    4.81
  -1   2   3   96.56    4.79
   1   2  -3   92.23    4.83
  -1   2   3   95.55    4.74
  -1   2   3   95.53    4.77
   0  -2   3   46.59    2.38
   0  -2  -3   48.92    2.55
   0  -2  -3   47.11    2.51
   0  -2  -3   46.07    2.51
   0  -2  -3   49.50    2.42
   0  -2   3   48.46    2.49
   0  -2   3   46.14    2.39
   0  -2   3   49.18    2.45
   0   2   3   50.02    2.47
   0   2  -3   47.30    2.48
   0   2   3   49.08    2.42
   0   2  -3   48.47    2.52
   0   2   3   49.52    2.49
   0   2  -3   49.65    2.53
   0   2  -3   48.67    2.50
  -1  -2  -3   87.27    4.48
  -1  -2  -3   88.08    4.46
   1  -2   3   91.90    4.43
   1  -2   3   90.65    4.45
  -1  -2  -3   84.10    4.46
  -1  -2  -3   88.06    4.42
  -1   2  -3   79.42    4.44
   1   2   3   93.51    4.34
   1   2   3   87.39    4.38
  -1   2  -3   85.18    4.43
  -1   2  -3   88.23    4.43
   1   2   3   84.91    4.40
  -1   2  -3   86.61    4.42
   1   2   3   88.22    4.31
  -1   2  -3   89.27    4.44
  -2  -2  -3  104.68    5.31
   2  -2   3  104.22    5.11
  -2  -2  -3  106.83    5.34
   2  -2   3  112.00    5.32
   2   2   3  100.21    5.13
  -2   2  -3  102.93    5.29
  -2   2  -3  101.61    5.26
  -2   2  -3  106.02    5.30
  -2   2  -3   96.76    5.27
  -3  -2  -3   47.57    2.74
  -3  -2  -3   41.32    2.63
   3  -2   3   49.26    2.35
   3  -2   3   44.84    2.32
   3  -2   3   49.66    2.69
  -3  -2  -3   42.44    2.78
  -3  -2  -3   44.71    2.55
  -3   2  -3   48.57    2.59
   3   2   3   46.60    2.34
  -3   2  -3   40.18    3.03
   3   2   3   49.61    2.58
  -3   2  -3   45.60    2.63
  -3   2  -3   47.38    2.57
   3   2   3   45.99    2.38
  -3   2  -3   46.54    2.71
  -4  -2  -3   17.92    1.79
   4  -2   3   16.96    1.06
  -4  -2  -3   16.98    1.65
  -4  -2  -3   17.95    1.60
  -4  -2  -3   20.72    2.06
   4  -2   3   17.94    1.11
  -4  -2  -3   18.19    1.48
   4  -2   3   19.71    1.51
  -4  -2  -3   17.38    1.71
  -4  -2  -3   14.20    2.33
  -4   2  -3   18.27    1.43
  -4   2  -3   13.76    2.32
   4   2   3   18.77    1.15
  -4   2  -3   21.04    1.97
  -4   2  -3   21.66    2.04
   4   2   3   18.98    1.06
  -4   2  -3   19.85    1.54
  -4   2  -3   16.34    1.70
  -4   2  -3   16.89    1.88
   4   2   3   18.14    1.58
   4   2   3   18.67    1.12
  -4   2  -3   17.90    1.39
  -5  -2  -3    4.35    1.17
   5  -2   3    4.32    0.66
  -5  -2  -3    3.66    0.84
  -5  -2  -3    4.03    0.82
  -5  -2  -3    4.87    0.95
   5  -2   3    3.77    0.55
  -5  -2  -3    5.16    0.77
  -5  -2  -3    4.48    0.90
   5  -2   3    3.32    0.63
   5  -2   3    7.80    1.44
  -5  -2  -3    3.02    0.83
   5   2   3    4.36    0.66
   5   2   3    3.89    0.66
  -5   2  -3    4.75    0.95
   5   2   3    4.10    0.66
  -5   2  -3    5.43    0.80
  -5   2  -3    2.31    0.91
   5   2   3    2.73    0.66
  -5   2  -3    5.19    0.97
  -5   2  -3    1.06    2.07
  -5   2  -3    5.90    1.09
  -5   2  -3    4.78    0.91
  -5   2  -3    4.68    0.81
  -6  -2  -3   -0.03    0.62
  -6  -2  -3    1.17    0.62
  -6  -2  -3    0.71    0.66
  -6  -2  -3    1.70    0.56
  -6  -2  -3    0.13    0.59
  -6  -2  -3    0.23    0.70
   6  -2   3    0.94    0.50
   6  -2   3    0.28    0.55
   6  -2   3    1.22    0.52
  -6   2  -3   -0.53    0.67
   6   2   3   -0.74    0.64
  -6   2  -3    1.34    0.71
  -6   2  -3    1.37    0.59
  -6   2  -3    1.21    0.76
  -6   2  -3    1.04    0.72
  -6   2  -3    0.74    1.11
   6   2   3    0.75    0.43
  -7  -2  -3    1.61    0.69
   7  -2   3    1.49    0.64
  -7  -2  -3    1.36    0.51
  -7  -2  -3    1.35    0.44
   7  -2   3    0.98    0.35
  -7  -2  -3    0.85    0.47
  -7  -2  -3    2.53    0.67
  -7   2  -3    2.45    0.67
  -7   2  -3    0.86    0.52
  -7   2  -3    1.16    0.58
  -7   2  -3    0.60    0.43
   7   2   3    1.30    0.35
  -9  -3   3    3.24    0.57
   9  -3  -3    2.34    0.69
   9  -3  -3    2.53    0.46
   9   3  -3    3.28    0.57
  -9   3   3    3.21    0.59
   9   3  -3    5.00    0.77
  -8  -3   3   10.58    1.41
   8  -3  -3   11.52    1.08
  -8  -3   3   12.02    1.10
   8  -3  -3   12.82    1.01
   8  -3  -3   10.10    1.15
   8   3  -3   13.45    1.10
  -8   3   3   12.82    1.14
   8   3  -3   13.02    1.17
   8   3  -3   11.79    1.13
  -8   3   3   10.35    1.29
  -8   3   3   15.86    1.53
  -7  -3   3   30.32    2.96
   7  -3  -3   34.09    1.96
  -7  -3   3   32.46    2.39
   7  -3  -3   34.21    2.10
   7  -3  -3   32.40    2.21
  -7  -3   3   32.13    2.19
   7   3  -3   33.67    2.06
   7   3  -3   33.38    2.18
   7   3  -3   35.48    2.10
  -7   3   3   24.80    3.20
  -7   3   3   35.87    2.45
   7   3  -3   33.93    2.01
  -7   3   3   31.33    2.91
  -7   3   3   36.29    2.24
  -6  -3   3   11.99    1.99
   6  -3  -3    9.13    0.93
   6  -3  -3   10.36    1.22
   6  -3  -3    6.99    1.17
   6  -3  -3   10.46    1.25
  -6  -3   3   10.44    1.58
   6  -3  -3    7.48    1.25
  -6  -3   3   13.91    1.80
   6   3  -3    9.38    1.17
  -6   3   3   10.65    1.60
   6   3  -3   10.97    1.36
   6   3  -3   10.96    1.66
  -6   3   3   10.07    1.93
   6   3  -3    8.71    1.34
  -6   3   3    8.90    1.53
  -6   3   3   11.09    2.16
  -6   3   3   12.88    1.49
   5  -3  -3    0.07    0.67
   5  -3  -3    0.25    0.49
   5  -3  -3    1.76    0.77
  -5  -3   3    0.12    0.68
   5  -3  -3    0.46    0.89
  -5  -3   3    0.01    0.42
  -5   3   3    0.75    0.57
   5   3  -3   -0.11    0.57
  -5   3   3    1.86    1.01
  -5   3   3    1.10    0.87
   5   3  -3    1.08    0.72
   4  -3  -3   33.42    2.07
   4  -3  -3   41.01    2.13
  -4  -3   3   34.99    2.02
  -4  -3   3   38.14    2.03
  -4  -3   3   41.36    2.34
   4  -3  -3   37.35    2.21
   4   3  -3   38.26    2.18
  -4   3   3   35.44    2.08
  -4   3   3   37.58    2.04
   4   3  -3   32.31    2.20
  -4   3   3   38.17    2.08
  -3  -3   3    9.34    0.66
   3  -3  -3   10.08    0.78
  -3  -3   3    8.53    0.66
  -3  -3   3   10.49    0.69
  -3  -3   3    8.96    0.72
   3  -3  -3   10.16    0.87
   3  -3  -3   10.60    0.75
  -3  -3   3    8.62    0.62
   3   3  -3    9.28    0.86
  -3   3   3    9.03    0.76
  -3   3   3   10.31    0.75
  -3   3   3    9.56    0.78
  -3   3   3    8.60    0.69
   3   3  -3    8.91    0.79
  -3   3   3    8.96    0.73
  -3   3   3    9.34    0.69
   3   3  -3    9.27    0.76
   2  -3  -3  109.06    5.21
  -2  -3   3   96.74    5.15
  -2  -3   3   94.86    5.11
  -2  -3   3  103.66    5.20
  -2  -3   3   96.91    5.10
   2  -3  -3  105.31    5.24
  -2   3   3  103.00    5.14
  -2   3   3  108.54    5.18
   2   3  -3  102.03    5.18
   2   3  -3  100.82    5.25
  -2   3   3  106.07    5.12
  -2   3   3  107.81    5.19
   2   3  -3  104.06    5.21
   1  -3  -3    5.67    0.56
   1  -3  -3    6.03    0.52
  -1  -3   3    7.21    0.40
  -1  -3   3    6.91    0.47
   1  -3  -3    6.08    0.58
  -1  -3   3    6.71    0.40
  -1  -3   3    6.65    0.41
  -1  -3   3    6.81    0.50
  -1   3   3    6.23    0.44
  -1   3   3    5.83    0.49
   1   3  -3    6.62    0.61
   1   3  -3    6.15    0.58
   1   3  -3    7.00    0.55
  -1   3   3    6.01    0.54
  -1   3   3    6.05    0.54
   0  -3   3   10.12    0.66
   0  -3   3    9.92    0.67
   0  -3   3   10.24    0.56
   0  -3  -3   10.52    0.72
   0  -3  -3   10.73    0.72
   0  -3  -3   10.38    0.73
   0  -3   3    9.61    0.55
   0  -3  -3    9.99    0.60
   0   3  -3   11.06    0.73
   0   3  -3    9.78    0.67
   0   3  -3   10.35    0.76
   0   3   3   10.08    0.70
   0   3   3   10.61    0.60
   0   3  -3    8.95    0.75
   0   3   3   10.81    0.67
   0   3   3   10.35    0.58
   1  -3   3    2.21    0.42
   1  -3   3    2.13    0.40
   1  -3   3    2.59    0.40
  -1  -3  -3    1.64    0.36
  -1  -3  -3    2.07    0.35
  -1  -3  -3    1.62    0.34
   1  -3   3    2.01    0.22
   1   3   3    2.17    0.24
  -1   3  -3    1.85    0.42
   1   3   3    2.48    0.42
   1   3   3    2.08    0.25
   1   3   3    2.81    0.48
  -1   3  -3    2.39    0.36
  -1   3  -3    2.55    0.40
  -2  -3  -3    0.23    0.43
   2  -3   3   -0.37    0.51
   2  -3   3   -0.07    0.18
  -2  -3  -3   -0.73    0.95
   2  -3   3   -0.03    0.16
  -2  -3  -3    0.26    0.33
  -2  -3  -3    0.03    0.46
   2  -3   3   -0.43    0.48
  -2  -3  -3    0.05    0.32
   2   3   3   -0.10    0.17
  -2   3  -3    0.13    0.47
  -2   3  -3    0.22    0.48
   2   3   3   -0.20    0.17
  -2   3  -3    0.44    0.55
   2   3   3   -0.19    0.33
  -2   3  -3    0.01    0.36
   3  -3   3   25.18    1.32
   3  -3   3   23.59    1.80
   3  -3   3   24.38    1.77
  -3  -3  -3   25.17    1.76
  -3  -3  -3   20.97    1.83
   3  -3   3   25.18    1.67
  -3  -3  -3   25.73    1.57
  -3  -3  -3   24.19    1.87
   3  -3   3   24.91    1.33
  -3   3  -3   22.38    2.35
  -3   3  -3   25.49    1.63
  -3   3  -3   22.86    1.63
   3   3   3   23.85    1.37
   3   3   3   25.88    1.38
   3   3   3   26.20    1.60
  -4  -3  -3    1.66    0.65
   4  -3   3    1.62    0.47
   4  -3   3    2.33    1.42
  -4  -3  -3    2.55    0.92
  -4  -3  -3    3.49    0.89
  -4  -3  -3    2.61    0.98
  -4  -3  -3    2.54    0.88
   4  -3   3    1.45    0.49
  -4  -3  -3    1.87    0.69
  -4  -3  -3    1.70    1.16
   4  -3   3    1.43    0.36
  -4   3  -3    2.12    0.85
   4   3   3    2.06    0.46
  -4   3  -3    1.51    0.57
  -4   3  -3    1.67    1.36
   4   3   3    2.08    0.34
  -4   3  -3    1.22    1.26
  -4   3  -3    0.13    1.11
  -4   3  -3    1.53    0.72
   4   3   3    1.17    1.50
   4   3   3    1.59    0.47
  -4   3  -3    1.09    0.83
  -5  -3  -3   10.69    1.44
  -5  -3  -3    7.73    1.79
   5  -3   3    8.93    0.82
   5  -3   3   10.07    0.94
  -5  -3  -3   10.60    1.33
  -5  -3  -3   11.94    1.32
  -5  -3  -3   10.14    1.14
   5  -3   3    8.41    1.21
  -5  -3  -3   11.74    1.68
  -5  -3  -3    9.46    1.36
   5  -3   3    9.80    1.91
  -5   3  -3   10.53    1.22
  -5   3  -3   10.51    1.23
  -5   3  -3    9.79    1.70
  -5   3  -3   10.89    1.68
   5   3   3   15.37    2.36
  -5   3  -3   10.72    1.43
   5   3   3   10.24    1.30
  -5   3  -3    9.63    1.13
  -5   3  -3   12.41    1.73
  -5   3  -3    7.07    1.14
   5   3   3   11.57    0.96
   5   3   3    9.49    0.87
   6  -3   3    0.42    0.46
  -6  -3  -3   -0.05    0.74
  -6  -3  -3    1.07    0.56
   6  -3   3    0.09    0.50
  -6   3  -3    0.05    0.63
  -6   3  -3    1.44    0.76
  -6   3  -3    1.15    0.63
  -6   3  -3    0.76    1.09
   6   3   3    1.31    0.43
   6   3   3    0.93    0.56
  -6   3  -3    0.78    0.86
  -6   3  -3    0.97    1.08
  -7  -3  -3   -0.62    0.77
   7  -3   3    0.40    0.41
  -7  -3  -3    0.40    0.44
  -7  -3  -3    0.64    0.62
  -7  -3  -3    0.79    0.44
   7  -3   3    0.89    0.58
  -7  -3  -3    1.24    0.51
  -7   3  -3    0.34    0.74
  -7   3  -3    2.02    0.74
   7   3   3    1.10    0.35
   7   3   3    1.25    0.52
  -7   3  -3    1.10    0.54
  -7   3  -3    0.64    0.43
  -9  -4   3    0.15    0.38
   9  -4  -3   -0.03    0.28
  -9   4   3    0.41    0.38
   9   4  -3   -0.61    0.31
   8  -4  -3   -0.49    0.91
   8  -4  -3   -0.28    0.60
  -8  -4   3    0.76    0.62
   8  -4  -3   -0.19    0.44
  -8  -4   3   -0.13    0.53
   8   4  -3   -0.09    0.46
   8   4  -3    1.08    0.53
  -8   4   3    0.44    0.53
   7  -4  -3    0.70    0.69
   7  -4  -3    0.48    0.48
  -7  -4   3    2.04    0.80
  -7  -4   3    0.66    0.71
  -7   4   3   -1.21    0.96
   7   4  -3    0.09    0.69
  -7   4   3    1.44    1.05
  -7   4   3    1.96    0.66
   7   4  -3    0.03    0.62
  -6  -4   3    1.77    0.92
   6  -4  -3   -0.43    0.57
  -6  -4   3   -0.29    0.90
  -6  -4   3    1.09    0.85
   6  -4  -3   -0.34    0.58
   6  -4  -3   -1.31    0.85
   6  -4  -3   -0.11    1.15
   6   4  -3   -0.54    0.74
   6   4  -3   -1.22    1.10
  -6   4   3   -0.06    0.93
  -6   4   3   -0.31    0.90
   6   4  -3   -0.22    0.74
   6   4  -3   -0.59    0.64
  -6   4   3   -1.48    1.20
  -6   4   3    0.29    0.85
  -6   4   3   -1.30    1.04
   6   4  -3   -0.23    0.80
  -6   4   3    1.42    0.90
   5  -4  -3    1.70    1.23
  -5  -4   3   -1.30    1.10
   5  -4  -3    1.84    0.54
  -5  -4   3   -0.06    0.50
   5  -4  -3   -0.46    0.73
  -5  -4   3    1.16    0.94
  -5   4   3    2.02    1.33
  -5   4   3    0.58    1.25
   5   4  -3    0.32    1.00
   5   4  -3    0.60    0.83
  -5   4   3    1.15    0.72
  -5   4   3    1.88    0.96
  -5   4   3    1.50    0.88
   5   4  -3    0.32    0.70
  -4  -4   3    0.07    0.35
  -4  -4   3    0.82    0.58
   4  -4  -3    0.67    0.53
   4  -4  -3    1.33    1.62
  -4  -4   3    0.25    0.49
   4  -4  -3   -0.35    0.55
  -4   4   3    0.28    0.59
   4   4  -3    0.34    0.58
  -4   4   3    0.63    0.47
  -4   4   3    0.69    0.52
   4   4  -3    0.74    0.57
  -3  -4   3    6.31    0.63
   3  -4  -3    6.42    0.82
   3  -4  -3    6.88    0.74
  -3  -4   3    6.08    0.59
   3  -4  -3    4.61    0.70
  -3  -4   3    7.48    0.63
  -3  -4   3    6.07    0.63
  -3  -4   3    6.40    0.56
  -3   4   3    5.37    0.94
   3   4  -3    6.82    0.84
   3   4  -3    6.19    0.78
  -3   4   3    4.78    0.72
   3   4  -3    6.52    0.76
  -3   4   3    5.90    0.66
   2  -4  -3    4.41    0.55
   2  -4  -3    5.23    0.60
  -2  -4   3    4.05    0.38
  -2  -4   3    3.99    0.43
   2  -4  -3    4.08    0.64
  -2  -4   3    3.96    0.48
  -2  -4   3    3.99    0.42
  -2  -4   3    4.01    0.44
   2   4  -3    4.10    0.61
  -2   4   3    4.64    0.53
   2   4  -3    5.68    0.62
   2   4  -3    3.79    0.69
  -2   4   3    4.51    0.53
  -2   4   3    4.89    0.46
  -2   4   3    4.61    0.59
  -2   4   3    4.67    0.51
   1  -4  -3   66.63    3.30
  -1  -4   3   62.14    3.26
  -1  -4   3   59.07    3.17
  -1  -4   3   58.87    3.20
  -1  -4   3   60.97    3.15
  -1  -4   3   61.33    3.16
   1  -4  -3   68.25    3.29
   1  -4  -3   69.97    3.32
  -1   4   3   63.35    3.20
  -1   4   3   66.68    3.27
  -1   4   3   65.55    3.17
   1   4  -3   55.30    3.27
   1   4  -3   61.07    3.27
  -1   4   3   62.38    3.24
   1   4  -3   61.67    3.29
  -1   4   3   64.14    3.21
   0  -4  -3  184.05    8.84
   0  -4   3  162.03    8.72
   0  -4  -3  185.29    8.82
   0  -4  -3  181.09    8.82
   0  -4   3  172.26    8.73
   0  -4   3  177.69    8.81
   0  -4   3  172.91    8.68
   0  -4   3  174.60    8.66
   0  -4   3  165.06    8.73
   0   4  -3  175.79    8.82
   0   4   3  179.69    8.78
   0   4   3  180.83    8.71
   0   4  -3  177.59    8.80
   0   4   3  180.46    8.76
   0   4   3  175.46    8.69
   0   4  -3  170.91    8.76
   0   4   3  176.76    8.71
   1  -4   3    4.10    0.36
   1  -4   3    4.43    0.61
   1  -4   3    3.87    0.58
  -1  -4  -3    5.04    0.61
   1  -4   3    4.21    0.35
   1  -4   3    5.00    0.66
   1   4   3    4.44    0.37
   1   4   3    4.42    0.68
  -1   4  -3    2.94    0.49
  -1   4  -3    4.56    0.77
   1   4   3    4.05    0.60
   1   4   3    4.65    0.40
   1   4   3    4.09    0.49
  -1   4  -3    3.42    0.55
   2  -4   3   21.68    1.20
   2  -4   3   22.47    1.48
   2  -4   3   20.94    1.54
  -2  -4  -3   21.32    1.72
   2  -4   3   21.57    1.19
  -2  -4  -3   23.28    1.42
  -2  -4  -3   22.25    1.53
   2  -4   3   20.92    1.54
  -2   4  -3   22.56    1.57
   2   4   3   22.69    1.21
  -2   4  -3   20.37    1.43
  -2   4  -3   22.39    1.42
  -2   4  -3   21.15    1.58
   2   4   3   23.25    1.25
   2   4   3   24.18    1.43
   2   4   3   23.72    1.27
   3  -4   3    6.27    1.25
   3  -4   3    7.41    1.16
   3  -4   3    7.25    0.63
  -3  -4  -3    8.46    1.02
   3  -4   3    6.66    0.59
   3   4   3    6.92    0.57
   3   4   3    7.06    0.99
   3   4   3    6.77    0.68
   3   4   3    7.29    0.99
  -3   4  -3    7.96    1.21
   3   4   3    7.34    0.67
  -3   4  -3    7.67    1.04
  -4  -4  -3   55.24    3.19
  -4  -4  -3   51.55    3.22
  -4  -4  -3   58.85    3.45
  -4  -4  -3   59.09    3.31
   4  -4   3   54.55    3.36
  -4  -4  -3   53.12    3.30
   4  -4   3   58.50    2.90
  -4  -4  -3   56.85    3.24
  -4  -4  -3   57.59    3.42
   4  -4   3   58.52    2.96
  -4   4  -3   55.63    3.20
  -4   4  -3   50.52    3.60
  -4   4  -3   58.76    3.31
  -4   4  -3   51.96    3.74
   4   4   3   58.32    3.35
   4   4   3   54.90    2.98
  -4   4  -3   56.51    4.08
  -4   4  -3   54.73    3.17
   4   4   3   56.39    2.91
  -4   4  -3   54.52    3.31
   4   4   3   54.93    3.01
  -4   4  -3   57.11    3.13
  -5  -4  -3    0.36    0.84
  -5  -4  -3    1.23    0.63
  -5  -4  -3    0.62    0.72
  -5  -4  -3    0.36    0.72
   5  -4   3    1.37    0.46
  -5  -4  -3    1.55    0.58
   5  -4   3    0.39    0.46
   5   4   3    0.32    0.49
  -5   4  -3    1.05    0.77
   5   4   3    1.68    0.53
   5   4   3    1.12    0.54
  -5   4  -3    0.82    0.63
  -5   4  -3    0.24    0.57
  -5   4  -3    0.77    1.00
  -5   4  -3    0.97    1.07
  -6  -4  -3    0.33    0.47
   6  -4   3    0.50    0.48
  -6  -4  -3    1.77    0.83
   6  -4   3   -0.53    0.44
  -6  -4  -3   -0.20    0.62
  -6  -4  -3   -0.12    0.44
  -6  -4  -3   -0.32    0.56
  -6  -4  -3   -0.03    0.57
   6   4   3   -0.32    0.55
  -6   4  -3    0.58    0.56
  -6   4  -3   -0.23    0.60
  -6   4  -3    0.98    0.69
   6   4   3    0.05    0.38
  -6   4  -3    0.43    0.79
  -6   4  -3    0.77    0.78
   6   4   3    0.58    0.67
  -6   4  -3   -0.33    0.52
  -7  -4  -3    2.19    0.48
  -7  -4  -3    4.21    0.72
  -7  -4  -3    2.76    0.54
  -7  -4  -3    3.03    0.53
  -7   4  -3    2.81    0.42
  -7   4  -3    2.36    0.52
   7   4   3    4.06    0.70
  -7   4  -3    2.41    0.59
  -8  -5   3    1.56    0.51
  -8  -5   3    1.88    0.59
   8  -5  -3    1.06    1.04
   8  -5  -3    1.25    0.43
   8  -5  -3    1.44    0.67
   8   5  -3    1.67    0.88
  -8   5   3    0.59    0.45
  -8   5   3    1.52    1.03
   7  -5  -3   13.41    1.03
   7  -5  -3   12.35    1.31
  -7  -5   3   11.49    1.35
  -7  -5   3   13.22    1.36
   7  -5  -3   12.36    1.43
  -7   5   3    9.44    1.76
   7   5  -3   11.57    1.18
   7   5  -3   12.60    1.26
  -7   5   3   16.13    1.78
   6  -5  -3    1.64    1.22
  -6  -5   3    2.44    0.90
  -6  -5   3    1.15    0.87
   6  -5  -3    1.38    0.55
  -6  -5   3    1.53    1.03
   6  -5  -3    2.23    0.82
   6   5  -3    2.79    0.84
   6   5  -3    2.05    0.66
   6   5  -3    1.85    0.64
  -6   5   3    0.48    0.90
   6   5  -3   -0.06    1.21
  -6   5   3    3.08    0.84
  -6   5   3    3.19    1.03
  -6   5   3    1.77    0.92
   5  -5  -3   19.81    1.66
  -5  -5   3   22.81    1.98
   5  -5  -3   19.84    1.57
   5  -5  -3   23.01    1.98
  -5  -5   3   16.47    2.38
  -5  -5   3   21.41    1.57
  -5   5   3   19.75    1.98
  -5   5   3   21.05    2.09
  -5   5   3   23.42    2.71
   5   5  -3   20.90    1.53
   5   5  -3   20.67    1.78
  -5   5   3   25.10    2.15
   5   5  -3   23.25    1.77
   4  -5  -3    9.26    1.62
  -4  -5   3    7.82    0.91
   4  -5  -3    7.72    0.90
  -4  -5   3   10.44    1.17
  -4  -5   3    9.24    0.89
   4  -5  -3    6.86    1.20
  -4   5   3   10.16    1.65
  -4   5   3    7.20    1.24
  -4   5   3    8.25    1.07
   4   5  -3    7.30    1.05
   4   5  -3    7.91    1.11
  -3  -5   3   19.61    1.21
   3  -5  -3   17.86    1.79
  -3  -5   3   19.50    1.21
   3  -5  -3   15.55    1.33
   3  -5  -3   19.99    1.31
  -3  -5   3   19.87    1.36
  -3  -5   3   19.32    1.17
   3   5  -3   18.92    1.50
  -3   5   3   21.74    2.46
  -3   5   3   20.49    1.32
   3   5  -3   18.04    1.40
  -3   5   3   20.07    1.36
  -3   5   3   18.09    1.30
   3   5  -3   21.04    1.37
   2  -5  -3    4.60    0.78
  -2  -5   3    4.37    0.78
  -2  -5   3    5.04    0.52
  -2  -5   3    5.40    0.65
   2  -5  -3    4.44    0.89
  -2  -5   3    4.74    0.50
  -2  -5   3    4.57    0.47
   2  -5  -3    6.04    0.70
   2   5  -3    4.59    0.82
  -2   5   3    6.53    0.71
   2   5  -3    4.31    0.76
  -2   5   3    5.44    0.72
  -2   5   3    4.40    0.62
  -2   5   3    3.93    0.65
  -2   5   3    4.41    0.63
  -2   5   3    5.35    0.63
  -1  -5   3   53.36    2.73
  -1  -5   3   52.01    2.76
   1  -5  -3   54.78    2.86
  -1  -5   3   53.24    2.72
  -1  -5   3   54.06    2.69
   1  -5  -3   50.72    2.89
   1  -5  -3   52.42    3.13
   1   5  -3   54.62    2.88
  -1   5   3   53.77    2.77
  -1   5   3   57.71    2.95
  -1   5   3   50.45    2.75
  -1   5   3   50.53    2.84
  -1   5   3   52.98    2.73
   0  -5   3    5.52    0.48
   0  -5  -3    4.39    0.63
   0  -5   3    5.23    0.43
   0  -5   3    5.56    0.94
   0  -5   3    5.18    0.43
   0  -5   3    5.78    0.64
   0  -5  -3    4.83    0.75
   0  -5   3    4.07    0.76
   0   5   3    4.99    0.47
   0   5  -3    5.68    0.83
   0   5   3    4.77    0.67
   0   5  -3    5.51    0.70
   0   5  -3    5.45    0.69
   0   5   3    5.18    0.55
   0   5  -3    5.33    0.58
   0   5   3    5.05    0.54
   1  -5   3   67.14    3.56
  -1  -5  -3   67.65    3.52
  -1  -5  -3   66.74    3.50
  -1  -5  -3   67.07    3.59
   1  -5   3   60.67    3.50
   1  -5   3   67.08    3.31
   1  -5   3   64.30    3.33
   1  -5   3   70.77    3.33
  -1  -5  -3   59.75    3.69
   1  -5   3   58.81    3.59
  -1   5  -3   61.47    3.51
   1   5   3   61.94    3.49
   1   5   3   66.84    3.34
  -1   5  -3   59.49    3.72
  -1   5  -3   66.27    3.47
   1   5   3   68.60    3.49
  -1   5  -3   68.66    3.57
  -1   5  -3   67.22    3.56
   1   5   3   76.45    3.39
   1   5   3   67.86    3.38
   2  -5   3    0.36    0.31
  -2  -5  -3    0.68    0.55
   2  -5   3    0.20    0.29
   2  -5   3    1.03    0.70
   2  -5   3    0.41    1.01
  -2  -5  -3    0.97    0.64
  -2  -5  -3    0.14    0.82
  -2   5  -3    1.02    0.80
   2   5   3    0.27    0.28
   2   5   3    0.27    0.33
  -2   5  -3    0.74    1.16
  -2   5  -3    0.56    0.53
   2   5   3    0.70    0.56
  -2   5  -3    0.57    0.74
  -2   5  -3    0.89    0.93
   2   5   3   -0.16    0.37
   2   5   3    0.08    0.50
  -2   5  -3   -0.46    0.46
  -3  -5  -3   22.50    2.16
   3  -5   3   25.59    1.96
  -3  -5  -3   24.29    1.93
   3  -5   3   24.74    1.48
  -3  -5  -3   22.70    1.84
  -3  -5  -3   26.90    1.96
  -3  -5  -3   18.64    3.05
  -3  -5  -3   26.38    1.81
  -3  -5  -3   26.16    2.11
   3  -5   3   27.05    1.41
   3  -5   3   27.16    1.45
  -3  -5  -3   24.40    2.15
   3   5   3   24.55    1.48
   3   5   3   25.39    1.51
   3   5   3   25.24    1.55
  -3   5  -3   22.82    1.88
  -3   5  -3   19.21    2.98
  -3   5  -3   25.28    2.09
  -3   5  -3   25.42    1.75
   3   5   3   27.10    1.43
   3   5   3   22.69    1.93
  -3   5  -3   24.56    2.59
  -3   5  -3   27.36    1.68
  -4  -5  -3    0.49    0.81
   4  -5   3   -0.31    0.58
  -4  -5  -3   -0.18    0.63
  -4  -5  -3    0.45    0.62
  -4  -5  -3    1.15    0.78
  -4  -5  -3   -0.16    0.99
   4  -5   3    3.33    1.35
   4  -5   3    0.95    0.46
   4  -5   3    0.07    0.39
  -4  -5  -3    0.95    0.80
  -4  -5  -3    0.50    0.64
   4   5   3    0.91    0.52
   4   5   3    0.33    0.48
  -4   5  -3    0.52    1.01
   4   5   3   -1.25    1.27
  -4   5  -3   -1.20    1.20
  -4   5  -3    0.28    0.66
  -4   5  -3   -0.94    0.87
  -4   5  -3    0.51    0.95
   4   5   3   -0.63    0.70
  -4   5  -3    0.93    0.79
  -4   5  -3   -0.19    0.53
  -4   5  -3    1.58    0.68
   4   5   3    0.17    0.42
  -5  -5  -3    8.39    1.29
   5  -5   3    9.23    0.90
   5  -5   3    8.98    0.77
  -5  -5  -3    9.17    1.29
   5  -5   3    8.24    0.90
  -5  -5  -3    8.84    1.06
  -5  -5  -3   10.96    1.08
  -5  -5  -3   10.27    1.17
  -5  -5  -3   10.03    1.42
  -5   5  -3    9.00    1.14
   5   5   3    6.33    0.98
   5   5   3    8.57    0.89
  -5   5  -3    8.44    1.36
   5   5   3    7.92    1.37
  -5   5  -3   11.07    1.76
   5   5   3    8.40    0.88
  -5   5  -3    7.73    1.07
  -5   5  -3    9.80    1.84
  -5   5  -3   10.16    1.10
  -6  -5  -3    2.09    0.56
   6  -5   3    1.35    0.53
  -6  -5  -3    2.10    0.51
  -6  -5  -3    1.92    0.51
  -6  -5  -3    2.17    0.89
   6  -5   3    1.30    0.43
  -6  -5  -3    3.23    0.72
  -6  -5  -3    2.60    0.71
  -6   5  -3    1.99    0.79
  -6   5  -3    3.09    0.86
  -6   5  -3    1.64    0.53
   6   5   3    2.06    0.57
  -6   5  -3    0.82    0.80
   6   5   3    1.11    0.76
   6   5   3    2.17    0.52
  -6   5  -3    2.29    0.67
  -6   5  -3    1.59    0.52
   8  -6  -3    1.33    0.41
  -8  -6   3    0.83    0.49
  -8  -6   3    0.21    0.47
   8  -6  -3    1.28    0.72
  -8   6   3    0.48    0.41
  -8   6   3    1.69    1.07
   8   6  -3    0.64    0.38
   8   6  -3    0.76    0.77
   7  -6  -3   -0.23    0.80
  -7  -6   3    0.26    0.61
   7  -6  -3   -0.12    0.79
  -7  -6   3   -1.48    0.80
  -7   6   3    0.63    0.59
  -7   6   3    0.81    0.80
   7   6  -3    0.44    0.48
   7   6  -3   -0.81    0.65
  -7   6   3   -0.16    0.77
  -6  -6   3   12.52    1.46
   6  -6  -3    9.44    1.07
   6  -6  -3   11.89    1.46
  -6  -6   3   12.96    1.77
  -6   6   3   12.06    1.54
   6   6  -3    8.50    1.30
  -6   6   3   10.81    1.83
   6   6  -3   12.98    1.30
  -6   6   3   13.09    1.67
   6   6  -3   14.83    3.24
  -6   6   3   14.80    1.47
  -5  -6   3    0.39    0.87
   5  -6  -3    0.29    0.58
   5  -6  -3    1.37    0.83
   5  -6  -3    1.31    1.23
  -5  -6   3    2.23    1.23
  -5  -6   3    2.48    0.98
   5  -6  -3    0.67    0.94
  -5   6   3    1.61    0.86
  -5   6   3    1.84    1.06
   5   6  -3    1.75    1.86
  -5   6   3    2.78    1.20
   5   6  -3    0.50    0.75
  -5   6   3    1.54    0.96
   5   6  -3   -0.33    1.14
   5   6  -3    1.33    0.70
  -4  -6   3    5.52    1.10
  -4  -6   3    8.00    1.05
   4  -6  -3    4.48    1.14
   4  -6  -3    1.50    3.00
   4  -6  -3    3.77    0.83
   4  -6  -3    4.03    0.80
  -4  -6   3    9.73    1.79
   4   6  -3    7.64    2.06
  -4   6   3    6.12    0.95
  -4   6   3    8.23    1.57
  -4   6   3    6.79    1.36
   4   6  -3    6.60    1.17
   4   6  -3   11.67    3.23
  -4   6   3    8.68    1.23
  -3  -6   3    5.59    1.10
  -3  -6   3    6.06    0.81
   3  -6  -3    4.66    0.89
  -3  -6   3    5.92    0.73
  -3  -6   3    7.09    0.88
   3  -6  -3    6.05    1.33
  -3  -6   3    5.66    0.69
   3   6  -3    5.00    0.96
   3   6  -3    6.36    1.11
  -3   6   3    4.65    0.88
  -3   6   3    4.47    0.87
   3   6  -3    6.27    1.14
  -3   6   3    5.94    0.94
   3   6  -3    3.28    0.88
   2  -6  -3    1.76    0.51
  -2  -6   3    2.59    0.48
  -2  -6   3    2.09    0.67
   2  -6  -3    1.70    0.77
   2  -6  -3    2.40    0.69
  -2  -6   3    2.82    0.39
  -2  -6   3    2.89    0.48
  -2  -6   3    2.79    0.44
  -2  -6   3    2.13    0.41
   2   6  -3    2.15    0.63
   2   6  -3    2.19    0.96
  -2   6   3    2.49    0.57
  -2   6   3    1.63    0.58
   2   6  -3    2.82    0.72
  -2   6   3    2.90    0.53
  -2   6   3    1.65    0.84
  -2   6   3    1.33    0.49
   2   6  -3    1.81    0.79
  -1  -6   3    0.97    0.33
   1  -6  -3    0.84    0.46
  -1  -6   3    1.26    0.28
   1  -6  -3    1.19    0.73
  -1  -6   3    1.24    0.48
  -1  -6   3    1.26    0.36
  -1  -6   3    1.37    0.62
   1  -6  -3    1.43    0.67
   1  -6  -3    1.20    0.83
  -1  -6   3    1.18    0.33
  -1   6   3    0.61    0.44
  -1   6   3    1.13    0.41
   1   6  -3    0.56    0.50
  -1   6   3    1.10    0.45
   1   6  -3    1.29    0.84
  -1   6   3    0.98    0.43
  -1   6   3    0.27    0.51
  -1   6   3    0.91    0.42
  -1   6   3    0.11    0.90
   1   6  -3    0.55    0.69
   1   6  -3    2.22    0.65
   0  -6   3    2.92    0.46
   0  -6  -3    3.63    0.78
   0  -6  -3    4.51    1.03
   0  -6  -3    2.66    0.77
   0  -6   3    3.85    0.45
   0  -6  -3    3.74    0.67
   0  -6  -3    4.63    0.72
   0  -6   3    3.29    0.43
   0  -6   3    2.23    0.60
   0   6  -3    3.73    0.86
   0   6  -3    2.69    0.76
   0   6   3    2.32    0.59
   0   6   3    3.57    0.51
   0   6  -3    2.81    0.64
   0   6  -3    3.69    0.70
   0   6   3    3.26    0.49
   1  -6   3    1.29    0.31
   1  -6   3    0.05    0.74
  -1  -6  -3    1.37    0.91
   1  -6   3    1.03    0.93
   1  -6   3    1.59    0.33
  -1  -6  -3    0.61    0.71
  -1  -6  -3    1.89    1.77
   1  -6   3    1.68    0.34
  -1  -6  -3    1.65    0.60
  -1   6  -3    2.23    0.83
  -1   6  -3    0.71    0.51
   1   6   3    0.75    0.40
   1   6   3    1.49    0.77
  -1   6  -3   -0.26    0.88
  -1   6  -3    0.81    0.67
   1   6   3    1.66    0.64
   1   6   3    2.16    0.44
  -1   6  -3    1.07    0.48
   1   6   3    0.87    0.67
   1   6   3    2.25    0.44
  -2  -6  -3    2.75    1.23
  -2  -6  -3    1.61    1.02
  -2  -6  -3    1.82    0.92
   2  -6   3    1.94    0.47
  -2  -6  -3    1.95    0.66
   2  -6   3    1.81    0.96
  -2  -6  -3    1.54    0.75
  -2  -6  -3    1.86    0.88
  -2  -6  -3    0.51    0.85
   2  -6   3    3.31    0.49
   2  -6   3    2.79    0.45
  -2  -6  -3    2.86    1.07
   2   6   3    1.34    0.50
  -2   6  -3    2.26    0.74
  -2   6  -3    2.50    0.67
   2   6   3    3.40    0.88
  -2   6  -3    1.99    1.21
   2   6   3    3.02    0.52
  -2   6  -3    3.36    0.95
  -2   6  -3    1.86    1.04
  -2   6  -3    2.76    0.60
   2   6   3    1.89    0.47
  -2   6  -3    2.58    0.81
  -2   6  -3    0.07    1.32
  -2   6  -3    1.83    1.60
   2   6   3    2.70    0.41
  -3  -6  -3   10.39    1.34
   3  -6   3    8.90    1.14
  -3  -6  -3    8.28    1.48
  -3  -6  -3    8.87    1.29
   3  -6   3    7.68    0.91
  -3  -6  -3    8.35    1.45
   3  -6   3    4.71    1.38
  -3  -6  -3    8.14    1.29
  -3  -6  -3    7.85    1.57
   3  -6   3    7.96    0.76
  -3  -6  -3    8.14    1.39
  -3   6  -3    8.36    1.47
  -3   6  -3    9.27    1.11
   3   6   3    7.70    0.83
   3   6   3    9.09    0.83
   3   6   3    7.21    1.17
   3   6   3    6.89    1.09
  -3   6  -3    7.92    1.23
  -3   6  -3    8.96    1.04
   3   6   3    9.48    1.32
   3   6   3    6.96    0.86
  -3   6  -3   10.20    1.39
  -3   6  -3    7.45    1.43
  -3   6  -3    7.35    1.66
   4  -6   3    0.17    0.47
  -4  -6  -3    0.17    0.80
  -4  -6  -3    0.37    0.62
  -4  -6  -3    0.60    0.76
  -4  -6  -3   -0.33    0.64
  -4  -6  -3    0.93    0.72
   4  -6   3    0.13    0.47
  -4   6  -3    0.06    0.77
   4   6   3    0.19    0.77
   4   6   3   -0.37    0.46
  -4   6  -3    0.38    0.62
   4   6   3    1.21    0.56
  -4   6  -3   -0.03    0.59
   4   6   3   -0.16    0.52
  -4   6  -3    0.02    0.74
  -4   6  -3    1.35    0.81
   5  -6   3    4.64    0.72
  -5  -6  -3    4.02    0.95
  -5  -6  -3    4.16    0.75
  -5  -6  -3    5.36    1.23
  -5  -6  -3    5.54    0.84
   5  -6   3    3.83    0.63
  -5   6  -3    4.75    0.79
  -5   6  -3    4.60    0.97
  -5   6  -3    4.81    1.22
   5   6   3    3.57    0.65
   5   6   3    4.02    0.71
   5   6   3    4.46    0.65
  -5   6  -3    2.73    0.71
  -5   6  -3    3.25    0.63
  -5   6  -3    2.95    0.77
   6  -6   3    3.19    0.64
  -6  -6  -3    2.74    0.50
  -6  -6  -3    2.95    0.76
  -6  -6  -3    3.96    0.76
  -6  -6  -3    3.55    0.77
  -6   6  -3    2.78    0.49
  -6   6  -3    3.60    0.94
   6   6   3    2.95    0.48
  -6   6  -3    1.31    0.87
  -6   6  -3    3.13    0.62
  -6   6  -3    3.38    0.50
  -8  -7   3   -0.03    0.40
   8  -7  -3   -0.62    0.57
   8   7  -3    0.44    0.30
   7  -7  -3    0.95    0.51
   7  -7  -3    1.02    0.57
  -7  -7   3   -0.05    0.53
  -7   7   3    0.88    0.66
   7   7  -3    0.17    0.46
  -7   7   3    0.28    0.56
  -7   7   3    0.35    1.16
   7   7  -3   -0.05    0.88
  -6  -7   3    3.91    0.78
   6  -7  -3    2.80    0.74
  -6   7   3    3.86    0.82
   6   7  -3    4.35    0.87
  -6   7   3    6.30    1.31
   6   7  -3    4.14    0.69
  -6   7   3    4.14    0.86
   5  -7  -3   -0.13    1.08
   5  -7  -3   -0.66    1.26
  -5  -7   3    1.70    0.86
   5  -7  -3    1.63    0.62
   5  -7  -3    2.30    0.81
  -5  -7   3    1.16    1.42
   5  -7  -3    4.26    1.47
  -5  -7   3    0.66    1.18
   5   7  -3   -1.41    2.50
  -5   7   3    1.10    0.92
  -5   7   3    1.56    0.84
   5   7  -3    2.56    1.32
   5   7  -3    1.20    0.73
  -5   7   3    2.43    0.85
   5   7  -3    1.44    0.82
   4  -7  -3    5.28    1.06
  -4  -7   3    8.86    1.27
  -4  -7   3   11.30    1.82
   4  -7  -3    5.86    1.06
  -4  -7   3    7.12    1.15
   4  -7  -3    9.55    1.55
   4  -7  -3   10.27    1.53
   4   7  -3    8.90    1.24
   4   7  -3    4.94    1.59
  -4   7   3    8.08    1.22
  -4   7   3   10.74    1.61
  -4   7   3    6.98    1.19
  -4   7   3   10.06    1.58
   4   7  -3    7.59    1.39
  -3  -7   3    4.86    0.80
   3  -7  -3    4.64    1.37
   3  -7  -3    7.10    1.12
  -3  -7   3    5.08    1.01
   3  -7  -3    7.14    1.40
   3  -7  -3    4.03    1.17
  -3  -7   3    5.52    1.10
  -3   7   3    4.06    0.90
  -3   7   3    6.39    1.22
   3   7  -3    5.56    1.69
   3   7  -3    4.64    0.82
   3   7  -3    8.85    1.55
   3   7  -3    6.17    0.99
   3   7  -3    5.53    1.58
  -3   7   3    4.78    0.94
   3   7  -3    2.11    1.73
  -2  -7   3    6.24    0.92
  -2  -7   3    5.90    0.73
  -2  -7   3    5.38    0.82
   2  -7  -3    6.50    1.23
   2  -7  -3    4.33    0.83
  -2  -7   3    4.41    0.98
   2   7  -3    4.17    1.13
   2   7  -3    4.91    1.92
   2   7  -3    4.82    0.89
  -2   7   3    3.12    0.72
   2   7  -3    2.91    0.81
   2   7  -3    5.71    1.22
   2   7  -3    4.43    1.66
   1  -7  -3    3.15    1.48
  -1  -7   3    3.66    0.55
  -1  -7   3    3.88    0.52
  -1  -7   3    2.80    0.98
   1  -7  -3    3.26    0.73
  -1  -7   3    3.69    0.54
   1  -7  -3    2.53    0.91
  -1  -7   3    3.23    0.56
   1  -7  -3    2.30    1.00
   1  -7  -3    3.93    2.61
  -1   7   3    1.56    0.86
  -1   7   3    2.11    0.97
  -1   7   3    4.21    0.75
   1   7  -3    3.91    1.71
  -1   7   3    3.25    0.88
   1   7  -3    3.26    0.97
  -1   7   3    3.55    0.76
   1   7  -3    0.92    1.49
   1   7  -3    2.73    1.06
   1   7  -3    4.00    0.76
   1   7  -3    3.19    0.79
   1   7  -3    2.54    0.95
  -1   7   3    2.86    0.60
   1   7  -3    0.67    2.30
   0  -7   3    4.43    0.59
   0  -7   3    5.74    0.68
   0  -7  -3    3.91    1.00
   0  -7  -3    5.67    1.15
   0  -7   3    5.80    0.70
   0  -7  -3    3.76    2.05
   0  -7   3    5.22    0.53
   0  -7  -3    3.61    0.80
   0   7  -3    2.94    0.77
   0   7   3    6.14    0.80
   0   7  -3    1.72    3.01
   0   7  -3    5.07    1.04
   0   7   3    3.38    0.76
   0   7   3    3.01    0.94
   0   7   3    3.85    0.91
   0   7   3    4.84    0.80
   0   7   3    2.16    0.92
   1  -7   3   18.20    1.11
  -1  -7  -3   15.50    1.81
   1  -7   3   18.59    1.16
  -1  -7  -3   18.23    2.28
  -1  -7  -3   16.94    1.71
  -1  -7  -3   17.21    2.03
  -1  -7  -3   15.99    1.94
  -1  -7  -3   12.59    2.36
  -1  -7  -3   19.70    1.55
   1  -7   3   18.59    1.21
   1  -7   3   17.53    1.07
  -1   7  -3   18.01    1.72
   1   7   3   16.93    1.21
  -1   7  -3   17.72    1.51
  -1   7  -3   17.24    1.85
  -1   7  -3   18.72    1.41
  -1   7  -3   13.56    1.75
   1   7   3   16.32    1.67
  -1   7  -3   19.85    1.76
   1   7   3   17.87    1.19
  -1   7  -3   16.18    2.23
   1   7   3   15.78    1.63
  -1   7  -3   18.97    1.37
   1   7   3   17.77    1.18
   1   7   3   16.08    1.70
   1   7   3   16.76    1.39
  -1   7  -3   16.97    2.02
  -2  -7  -3    0.32    1.16
   2  -7   3   -0.06    0.50
   2  -7   3    0.54    0.54
  -2  -7  -3    0.96    0.82
  -2  -7  -3    0.53    0.85
  -2  -7  -3    1.34    0.99
   2  -7   3    0.77    0.38
  -2  -7  -3    1.30    0.84
  -2  -7  -3    0.65    0.89
  -2   7  -3    0.40    0.55
  -2   7  -3    0.02    0.92
  -2   7  -3    2.10    1.26
   2   7   3   -0.08    0.51
  -2   7  -3    0.32    0.72
   2   7   3   -0.41    0.81
   2   7   3    0.43    0.75
   2   7   3    0.24    0.46
  -2   7  -3   -0.47    1.01
   2   7   3    1.87    1.15
  -2   7  -3    0.93    1.28
  -2   7  -3    0.04    0.73
  -2   7  -3   -0.28    0.60
  -2   7  -3   -0.86    0.77
   3  -7   3   -0.96    0.78
  -3  -7  -3   -1.26    1.14
  -3  -7  -3    1.35    0.80
  -3  -7  -3    0.08    0.69
  -3  -7  -3    0.37    1.39
   3  -7   3    0.15    0.50
  -3  -7  -3    0.68    0.85
   3  -7   3    0.01    0.49
  -3  -7  -3   -0.24    0.77
  -3  -7  -3   -0.81    0.73
   3  -7   3    0.77    1.28
   3  -7   3    0.72    0.51
  -3   7  -3   -0.16    0.59
  -3   7  -3    0.22    1.25
   3   7   3   -1.25    1.67
   3   7   3    2.20    1.70
  -3   7  -3    0.39    0.59
   3   7   3    1.11    0.45
  -3   7  -3    0.17    0.72
   3   7   3    1.16    0.73
  -3   7  -3    1.26    1.23
  -3   7  -3   -2.84    2.62
   3   7   3    0.74    0.95
  -3   7  -3    0.29    0.54
  -3   7  -3   -0.92    0.93
  -3   7  -3   -1.13    1.44
   3   7   3   -0.15    0.58
   4  -7   3    0.40    0.49
  -4  -7  -3    1.23    0.70
  -4  -7  -3   -0.13    0.59
  -4  -7  -3    0.45    0.60
  -4  -7  -3    1.23    0.75
  -4  -7  -3    0.15    0.65
  -4  -7  -3   -1.23    2.29
   4  -7   3    0.22    0.51
   4  -7   3    0.43    0.47
  -4   7  -3    1.21    0.71
  -4   7  -3   -0.49    1.21
  -4   7  -3    0.88    0.48
  -4   7  -3    0.40    0.68
   4   7   3    1.04    0.61
   4   7   3   -0.18    0.43
  -4   7  -3    0.33    0.52
   4   7   3   -0.34    0.93
   4   7   3   -0.35    0.63
  -4   7  -3    1.99    1.08
  -4   7  -3    1.35    0.53
   5  -7   3   -0.69    0.67
  -5  -7  -3    0.53    0.67
  -5  -7  -3    0.59    0.55
   5  -7   3   -0.13    0.49
  -5  -7  -3   -0.22    0.51
  -5  -7  -3    1.31    0.71
  -5  -7  -3   -0.32    0.55
   5  -7   3    0.56    0.40
  -5   7  -3    0.56    0.94
  -5   7  -3    0.06    0.45
   5   7   3    0.28    0.40
  -5   7  -3    0.04    1.01
  -5   7  -3    0.38    0.50
  -5   7  -3    0.90    0.53
  -5   7  -3   -0.37    0.74
   5   7   3    0.66    0.48
  -5   7  -3    0.90    0.64
   5   7   3    1.06    0.73
  -6  -7  -3    7.30    1.12
   6  -7   3    6.18    0.84
  -6  -7  -3    4.23    0.67
  -6   7  -3    4.75    0.74
  -6   7  -3    5.54    0.62
  -6   7  -3    4.25    0.57
  -7  -8   3    0.71    0.44
  -7   8   3    1.23    0.75
  -7   8   3    1.93    0.91
  -7   8   3    0.59    0.60
   7   8  -3    0.37    0.39
  -6  -8   3    3.53    2.22
   6  -8  -3    5.84    1.22
  -6  -8   3    2.86    0.82
   6   8  -3    4.38    0.91
   6   8  -3    3.70    0.80
  -6   8   3    3.82    0.71
  -6   8   3    3.89    0.71
  -6   8   3    6.12    1.07
   6   8  -3    3.00    0.92
   5  -8  -3    6.81    1.28
  -5  -8   3    8.40    1.98
   5  -8  -3    6.70    1.26
  -5  -8   3    6.80    1.34
   5  -8  -3    9.01    1.79
  -5   8   3    5.93    0.92
   5   8  -3    7.94    1.46
   5   8  -3    5.33    1.17
  -5   8   3    7.76    1.58
   5   8  -3    6.26    1.14
  -5   8   3    6.77    1.03
  -4  -8   3    2.44    1.06
   4  -8  -3    0.81    1.19
  -4  -8   3   -0.64    0.84
   4  -8  -3    1.70    0.89
  -4  -8   3    1.45    1.01
   4  -8  -3    0.66    0.86
   4  -8  -3    0.84    1.21
  -4   8   3    0.73    1.50
   4   8  -3    0.32    0.73
   4   8  -3    0.78    0.84
   4   8  -3    0.58    1.24
  -4   8   3    1.38    0.97
  -4   8   3   -0.88    0.86
  -4   8   3    1.53    0.81
   3  -8  -3   31.77    3.25
   3  -8  -3   28.65    2.42
  -3  -8   3   32.04    2.77
  -3  -8   3   27.03    2.19
   3  -8  -3   30.46    2.32
   3  -8  -3   33.14    2.28
  -3  -8   3   31.44    1.99
   3   8  -3   33.85    2.26
   3   8  -3   32.78    3.34
   3   8  -3   33.96    2.69
   3   8  -3   31.63    2.77
  -3   8   3   33.26    2.42
  -3   8   3   32.74    3.04
   3   8  -3   32.17    2.81
   3   8  -3   32.74    2.10
  -3   8   3   32.02    2.35
  -3   8   3   30.25    2.47
  -2  -8   3    0.75    0.86
   2  -8  -3   -0.13    1.07
   2  -8  -3    0.13    1.17
  -2  -8   3    0.67    0.42
   2  -8  -3   -0.92    1.74
   2  -8  -3   -1.30    0.90
   2  -8  -3    0.71    0.80
  -2  -8   3    0.25    0.62
  -2  -8   3   -1.16    0.68
   2   8  -3   -0.85    1.31
   2   8  -3   -0.27    1.07
   2   8  -3    0.11    1.03
  -2   8   3    0.22    0.72
   2   8  -3   -1.02    0.90
   2   8  -3    2.52    1.49
  -2   8   3   -0.79    0.90
  -2   8   3   -0.41    0.85
   2   8  -3    0.85    1.43
  -2   8   3   -0.44    1.03
   2   8  -3    0.36    0.73
   2   8  -3    0.79    0.84
   1  -8  -3    4.20    0.95
   1  -8  -3    2.96    1.39
   1  -8  -3    4.71    1.44
   1  -8  -3    3.71    1.03
  -1  -8   3    4.62    0.84
   1  -8  -3    4.59    1.11
  -1  -8   3    3.45    0.57
  -1  -8   3    5.04    0.76
  -1   8   3    1.96    0.99
   1   8  -3    5.09    1.72
   1   8  -3    3.67    1.36
   1   8  -3    5.40    1.36
  -1   8   3    3.39    0.76
   1   8  -3    3.98    1.02
  -1   8   3    3.67    1.04
   1   8  -3    3.42    1.00
   1   8  -3    4.70    1.18
  -1   8   3    3.39    0.65
  -1   8   3    2.63    0.95
   1   8  -3    5.88    0.94
   1   8  -3    3.16    0.93
   1   8  -3    3.86    0.80
   0  -8  -3   17.09    1.97
   0  -8   3   19.12    1.86
   0  -8  -3   18.28    1.95
   0  -8  -3   17.38    2.34
   0  -8   3   18.02    1.33
   0  -8   3   16.67    1.13
   0  -8   3   16.57    1.38
   0  -8   3   17.14    1.13
   0  -8  -3   12.07    2.48
   0  -8  -3   18.69    1.74
   0  -8   3   18.24    1.13
   0  -8  -3   14.16    1.87
   0   8  -3   17.78    1.46
   0   8   3   15.68    2.10
   0   8  -3   19.50    1.70
   0   8  -3   17.63    2.01
   0   8   3   16.68    1.16
   0   8  -3   14.39    3.46
   0   8  -3   16.21    1.95
   0   8   3   16.78    1.49
   0   8  -3   16.60    1.74
   0   8   3   15.19    1.75
   0   8  -3   18.38    1.83
   0   8  -3   20.41    2.20
  -1  -8  -3    5.66    1.44
   1  -8   3    6.98    0.99
   1  -8   3    6.41    0.76
  -1  -8  -3    8.68    1.53
  -1  -8  -3    6.25    1.22
   1  -8   3    6.22    0.79
   1  -8   3    6.64    0.76
  -1  -8  -3    7.85    1.48
  -1   8  -3    7.08    1.55
   1   8   3    6.55    0.80
  -1   8  -3    7.21    1.46
   1   8   3    8.35    1.55
   1   8   3    8.11    1.11
   1   8   3    7.26    1.24
  -1   8  -3    5.43    1.35
  -1   8  -3    7.67    1.14
   1   8   3    7.14    2.09
  -1   8  -3    4.01    1.19
  -1   8  -3    6.29    1.08
  -1   8  -3    8.12    1.05
  -2  -8  -3    0.05    0.80
  -2  -8  -3    0.25    0.90
   2  -8   3    1.20    0.55
   2  -8   3    1.23    0.46
   2  -8   3   -0.05    1.05
   2  -8   3    0.71    0.55
  -2  -8  -3    1.94    1.25
  -2  -8  -3    0.45    0.90
  -2  -8  -3    0.73    0.76
  -2  -8  -3    0.83    1.07
   2  -8   3    2.00    0.86
  -2   8  -3   -0.07    0.69
   2   8   3    1.30    0.75
  -2   8  -3    0.44    0.98
  -2   8  -3    0.55    0.74
   2   8   3    0.57    0.44
   2   8   3   -2.10    2.01
  -2   8  -3    0.20    1.12
   2   8   3    4.47    1.57
   2   8   3    2.43    1.14
  -2   8  -3    0.39    0.59
   2   8   3    1.08    0.63
  -2   8  -3    1.33    0.60
  -2   8  -3    5.23    2.87
  -3  -8  -3    8.35    1.18
  -3  -8  -3    7.43    1.45
  -3  -8  -3    9.74    1.38
  -3  -8  -3    8.56    1.89
   3  -8   3    8.15    0.86
   3  -8   3    6.25    0.91
   3  -8   3    9.03    0.83
  -3  -8  -3    7.31    1.26
   3  -8   3    7.79    1.36
  -3   8  -3    8.03    1.11
  -3   8  -3    6.90    1.39
  -3   8  -3    9.22    0.98
  -3   8  -3    7.67    1.20
  -3   8  -3    8.78    1.27
  -3   8  -3    5.44    1.32
   3   8   3    8.69    1.14
  -3   8  -3    8.66    1.14
   3   8   3    9.05    0.85
   3   8   3    9.49    1.11
   4  -8   3   26.04    1.40
  -4  -8  -3   24.85    1.66
   4  -8   3   20.81    1.40
  -4  -8  -3   21.73    1.64
  -4  -8  -3   27.80    1.86
  -4  -8  -3   25.85    1.89
  -4  -8  -3   25.35    1.87
   4  -8   3   22.28    1.83
  -4   8  -3   26.06    2.68
  -4   8  -3   26.49    1.64
  -4   8  -3   24.72    1.75
  -4   8  -3   30.12    2.31
   4   8   3   21.44    1.42
   4   8   3   20.51    2.30
   4   8   3   20.56    1.59
   4   8   3   20.34    1.99
  -4   8  -3   26.60    1.69
  -4   8  -3   24.69    1.60
  -4   8  -3   25.36    1.57
  -5  -8  -3   -0.33    0.57
   5  -8   3   -0.01    0.32
  -5  -8  -3    0.10    0.44
  -5   8  -3   -0.49    0.51
   5   8   3   -0.15    0.34
  -5   8  -3    0.37    0.77
  -5   8  -3    0.70    0.42
   5   8   3   -1.10    0.56
  -5   8  -3   -0.21    0.51
  -5   8  -3   -0.02    0.38
   6  -9  -3    0.81    0.54
  -6  -9   3    0.50    0.57
  -6   9   3    0.21    0.70
   6   9  -3    0.74    0.48
   6   9  -3    1.47    0.70
  -6   9   3    1.16    0.61
  -6   9   3    1.42    0.72
   5  -9  -3    2.99    1.05
  -5  -9   3    0.73    1.34
  -5  -9   3    0.70    0.93
   5  -9  -3    2.94    0.98
   5   9  -3    0.21    0.90
  -5   9   3    1.37    0.66
  -5   9   3    2.75    0.84
   4  -9  -3    7.00    1.55
   4  -9  -3    5.63    0.96
   4  -9  -3    4.81    0.91
  -4  -9   3    6.76    1.03
  -4  -9   3    7.43    1.63
   4   9  -3    3.81    1.00
  -4   9   3    3.89    0.81
   4   9  -3    6.00    1.12
   4   9  -3    3.17    1.00
  -4   9   3    3.51    0.95
  -4   9   3    5.86    0.90
  -3  -9   3   24.16    2.15
   3  -9  -3   22.24    2.16
  -3  -9   3   23.91    1.58
   3  -9  -3   26.09    1.97
   3  -9  -3   22.30    1.99
   3   9  -3   23.43    2.02
   3   9  -3   25.77    1.72
   3   9  -3   23.19    2.52
  -3   9   3   17.99    2.63
   3   9  -3   21.26    2.94
  -3   9   3   28.08    2.02
  -3   9   3   24.39    1.97
  -3   9   3   21.72    2.16
   2  -9  -3   31.04    2.46
  -2  -9   3   29.26    2.43
   2  -9  -3   29.48    2.45
   2  -9  -3   33.36    2.26
   2  -9  -3   23.29    3.44
  -2  -9   3   30.89    1.91
  -2   9   3   32.96    2.52
  -2   9   3   34.35    2.65
   2   9  -3   29.11    2.87
   2   9  -3   30.08    2.29
  -2   9   3   32.64    2.27
   2   9  -3   27.44    2.87
   2   9  -3   33.28    2.12
   2   9  -3   30.79    2.52
  -2   9   3   30.15    2.46
   2   9  -3   31.07    2.10
   1  -9  -3    9.73    1.79
  -1  -9   3   14.42    2.16
   1  -9  -3   12.36    1.85
   1  -9  -3   10.75    2.43
  -1  -9   3   13.58    1.25
   1  -9  -3   13.21    1.60
  -1  -9   3   10.88    1.66
  -1  -9   3   12.17    1.19
   1  -9  -3   12.30    1.88
  -1   9   3   13.69    1.37
   1   9  -3   11.38    1.40
   1   9  -3   12.93    1.44
  -1   9   3   14.03    1.93
  -1   9   3    9.05    2.05
   1   9  -3   14.12    1.83
   1   9  -3   11.40    1.51
  -1   9   3   10.72    2.09
   1   9  -3   10.20    1.66
   1   9  -3   12.05    2.08
   1   9  -3   11.30    1.65
   0  -9   3    7.95    1.29
   0  -9  -3    5.59    1.29
   0  -9   3    7.23    1.26
   0  -9   3    7.39    1.49
   0  -9  -3    8.49    1.94
   0  -9  -3    5.98    1.42
   0  -9  -3    4.31    1.11
   0   9   3    6.63    1.11
   0   9  -3    4.40    1.04
   0   9   3    5.09    1.55
   0   9   3    6.11    0.77
   0   9   3    5.88    1.11
   0   9   3    5.83    1.58
   0   9  -3    3.97    0.98
   0   9  -3    5.96    0.87
   0   9  -3    5.19    1.46
   0   9  -3    5.02    0.84
   0   9  -3    4.06    1.21
   0   9  -3    8.12    1.15
   0   9  -3    4.36    0.96
  -1  -9  -3   -0.05    0.95
   1  -9   3    1.52    0.64
   1  -9   3    1.18    0.59
   1  -9   3    1.76    0.46
  -1  -9  -3    3.51    1.02
   1  -9   3    0.58    0.64
  -1  -9  -3    1.55    0.91
  -1  -9  -3    0.82    1.52
  -1  -9  -3    1.77    1.07
  -1   9  -3    2.83    0.70
  -1   9  -3    2.02    0.84
  -1   9  -3    1.58    1.08
  -1   9  -3    1.75    2.74
   1   9   3    0.50    1.05
  -1   9  -3    1.30    0.73
  -1   9  -3    2.85    0.99
   1   9   3    1.52    1.42
   1   9   3    1.64    0.61
  -1   9  -3    2.58    0.69
   2  -9   3    1.30    0.46
  -2  -9  -3    1.37    0.92
   2  -9   3    1.17    0.60
  -2  -9  -3    1.11    0.97
   2  -9   3    0.62    0.62
  -2  -9  -3    1.47    0.83
   2  -9   3    2.34    0.93
   2  -9   3    1.86    0.57
  -2   9  -3    2.00    0.75
   2   9   3    1.01    0.55
  -2   9  -3    2.33    0.60
   2   9   3    2.21    1.11
  -2   9  -3    1.11    0.68
   2   9   3    1.66    1.09
  -2   9  -3    1.82    0.69
  -2   9  -3    0.70    0.55
  -2   9  -3    0.99    0.96
   2   9   3    1.41    0.52
  -3  -9  -3   -0.85    0.99
   3  -9   3   -0.07    0.39
  -3  -9  -3   -0.84    1.15
  -3  -9  -3    0.47    1.42
   3  -9   3   -1.24    1.12
   3  -9   3   -0.77    0.64
   3  -9   3    0.23    0.54
   3   9   3    1.56    1.03
  -3   9  -3   -0.23    0.67
  -3   9  -3    0.22    0.89
   3   9   3   -0.66    0.86
  -3   9  -3    0.71    0.64
   4  -9   3    1.36    0.36
  -4  -9  -3    0.63    0.55
  -4  -9  -3    1.15    0.77
  -4  -9  -3    1.95    1.55
  -4   9  -3    1.14    0.55
  -4   9  -3    0.78    0.57
   4   9   3    1.69    0.99
   4   9   3    0.29    0.73
  -4   9  -3    2.29    0.61
   4   9   3    1.73    0.42
  -4   9  -3    2.03    0.51
  -4   9  -3    1.72    0.62
   6 -10  -3    0.19    0.32
  -6 -10   3    0.74    0.56
   6  10  -3   -0.14    0.40
  -6  10   3    0.68    0.57
   5 -10  -3    7.10    0.84
   5 -10  -3    7.39    1.27
  -5 -10   3    6.33    1.02
  -5 -10   3    6.54    1.11
   5  10  -3    6.30    0.82
  -5  10   3    5.27    0.97
  -5  10   3    4.47    0.83
   4 -10  -3    1.06    0.81
   4 -10  -3   -0.41    0.73
   4 -10  -3    0.98    0.76
  -4 -10   3   -0.20    0.89
  -4  10   3   -0.57    0.64
   4  10  -3   -0.18    0.76
  -4  10   3   -0.54    0.71
   4  10  -3    0.38    0.52
   3 -10  -3    0.06    0.82
   3 -10  -3    0.45    0.77
  -3 -10   3   -0.44    0.82
   3 -10  -3    1.80    1.06
  -3  10   3   -0.03    0.70
   3  10  -3    1.29    0.62
   3  10  -3   -0.19    0.77
  -3  10   3   -0.68    0.71
   2 -10  -3   -0.02    0.80
  -2 -10   3    0.30    0.92
  -2 -10   3    0.67    0.92
   2 -10  -3    0.41    0.88
   2 -10  -3   -2.61    2.09
   2  10  -3    0.38    0.62
   2  10  -3   -0.45    0.82
   2  10  -3    1.39    0.96
  -2  10   3   -0.14    0.77
   2  10  -3    0.52    1.06
  -2  10   3    0.99    0.85
   1 -10  -3    1.59    0.89
   1 -10  -3    2.90    1.06
  -1 -10   3    2.72    0.53
  -1 -10   3    1.90    0.55
  -1 -10   3    1.46    1.18
   1 -10  -3    0.43    1.24
  -1 -10   3    1.46    0.82
   1  10  -3    2.01    0.68
  -1  10   3    2.70    0.87
  -1  10   3    2.53    0.95
   1  10  -3    0.92    0.77
   1  10  -3    2.51    0.91
   0 -10  -3    3.26    1.04
   0 -10   3    4.48    0.56
   0 -10   3    4.85    1.08
   0 -10  -3    2.77    1.07
   0 -10   3    4.17    0.82
   0 -10   3    2.62    1.61
   0 -10  -3    4.53    1.27
   0 -10   3    3.22    0.57
   0  10  -3    3.25    0.86
   0  10  -3    1.83    1.00
   0  10  -3    1.98    0.85
   0  10   3    2.51    0.85
   0  10  -3    3.96    0.83
   0  10   3    6.38    1.30
   0  10   3    3.81    1.05
   0  10  -3    3.38    0.69
   1 -10   3    1.66    0.54
   1 -10   3    2.77    0.77
   1 -10   3    2.30    0.47
  -1 -10  -3    1.25    0.91
   1 -10   3    2.21    0.80
   1  10   3    3.42    1.07
  -1  10  -3    2.19    0.61
  -1  10  -3    2.09    0.72
   1  10   3    0.94    0.78
  -1  10  -3    1.63    1.15
  -1  10  -3    1.86    0.89
  -1  10  -3    1.15    0.69
  -2 -10  -3   17.72    1.77
   2 -10   3   14.14    1.24
   2 -10   3   15.59    1.03
  -2 -10  -3   14.03    1.57
   2 -10   3   13.99    1.57
   2  10   3   13.71    1.59
   2  10   3   15.44    1.81
   2  10   3   20.35    2.03
  -2  10  -3   16.38    1.24
  -2  10  -3   15.42    1.41
  -2  10  -3   17.96    1.27
  -2  10  -3   16.10    1.41
  -2  10  -3   14.72    1.26
   2  10   3   16.82    1.15
   3 -10   3    1.23    0.51
   3 -10   3    1.37    0.36
  -3 -10  -3    2.24    0.73
   3 -10   3   -0.36    1.49
  -3 -10  -3    1.63    0.92
  -3  10  -3    0.81    0.69
  -3  10  -3    1.25    0.49
   3  10   3    2.29    0.97
  -3  10  -3    1.47    0.62
   3  10   3    1.08    0.73
  -3  10  -3    0.65    0.55
  -3  10  -3    0.08    0.53
   3  10   3    0.09    0.73
  -4 -10  -3    1.88    0.49
   4 -10   3    1.79    0.39
  -4  10  -3    1.14    0.40
  -4  10  -3    2.08    0.43
   4  10   3    1.37    0.50
  -4  10  -3    1.46    0.49
  -5 -11   3    0.86    0.65
  -5  11   3    0.90    0.46
  -4 -11   3    2.31    0.70
   4 -11  -3    1.86    0.85
   4 -11  -3    2.62    0.67
   4 -11  -3    2.32    0.69
   4  11  -3    1.70    0.52
  -4  11   3    1.87    0.50
  -4  11   3    1.01    0.71
   3 -11  -3    3.82    0.77
  -3 -11   3    6.18    1.20
   3 -11  -3    4.11    0.84
   3  11  -3    4.13    0.63
  -3  11   3    3.12    0.62
  -3  11   3    3.76    0.78
   3  11  -3    2.99    0.66
   2 -11  -3    2.64    0.78
  -2 -11   3   -0.10    0.92
  -2 -11   3    1.63    1.29
   2 -11  -3    1.72    0.73
  -2 -11   3    1.43    0.90
  -2  11   3    2.23    0.65
   2  11  -3    1.21    0.71
  -2  11   3    1.19    0.80
  -1 -11   3    4.26    1.15
  -1 -11   3    2.99    0.86
   1 -11  -3    6.34    1.32
   1 -11  -3    4.77    1.16
   1 -11  -3    3.93    0.99
   1  11  -3    1.95    0.67
  -1  11   3    3.26    0.72
   1  11  -3    5.46    0.94
   0 -11  -3   15.30    1.68
   0 -11   3   10.95    1.39
   0 -11  -3   12.87    1.56
   0  11   3   10.08    1.51
   0  11  -3   12.45    1.17
   0  11  -3   12.27    1.42
   0  11   3   14.91    1.86
   1 -11   3   -0.52    0.37
  -1 -11  -3    0.57    0.76
   1 -11   3   -0.57    0.62
   1 -11   3   -1.48    0.90
   1  11   3   -0.92    0.64
  -1  11  -3    0.38    0.68
   1  11   3    1.42    1.44
   1  11   3   -0.19    1.02
  -1  11  -3    0.99    0.53
  -1  11  -3   -0.61    0.52
  -2 -11  -3   -0.02    0.66
   2 -11   3    0.11    0.36
   2 -11   3   -0.96    0.77
   2 -11   3    0.60    0.51
   2 -11   3    0.62    0.79
  -2  11  -3    0.41    0.56
  -2  11  -3    0.61    0.48
  -2  11  -3    1.22    0.56
   2  11   3    0.60    0.66
   2  11   3    0.22    0.90
  -2  11  -3    0.25    0.54
   3 -12  -3    2.76    0.52
  -3 -12   3    3.72    0.85
   3  12  -3    1.16    0.54
  -3  12   3    1.68    0.51
  -2 -12   3   -0.29    1.20
   2 -12  -3    1.05    0.64
   2 -12  -3    0.54    0.80
  -2 -12   3    0.02    0.80
  -2  12   3    0.49    0.52
  -2  12   3    0.08    0.74
   2  12  -3   -0.38    0.56
   2  12  -3    0.61    0.94
   1 -12  -3    3.89    0.91
  -1 -12   3    2.38    0.92
  -1 -12   3    3.32    0.89
   1 -12  -3    2.30    1.02
   1 -12  -3    3.40    0.89
  -1  12   3    2.91    0.53
   1  12  -3    3.15    0.61
   0 -12   3    1.97    0.81
   0 -12  -3    0.57    1.40
   0 -12   3   -0.27    0.57
   0 -12  -3    1.63    0.92
   0  12  -3    0.05    0.46
   0  12   3   -1.34    0.87
   0  12   3    0.48    0.69
  -1 -12  -3    1.60    0.70
   1 -12   3    0.12    0.53
  -1  12  -3    0.59    0.43
   1  12   3    0.84    0.55
   9   0  -4    0.14    0.33
  -9   0   4   -0.79    0.68
   9   0  -4    0.56    0.67
   9   0  -4    0.42    0.43
  -9   0   4    0.34    0.42
  -8   0   4    4.01    0.68
  -8   0   4    4.82    0.73
   8   0  -4    5.64    0.80
   8   0  -4    4.93    0.77
   8   0  -4    3.00    0.65
   7   0  -4    2.27    0.68
  -7   0   4    1.41    0.74
   7   0  -4    1.60    0.62
  -7   0   4    1.71    0.97
   7   0  -4    2.45    1.45
  -7   0   4    0.13    0.80
   6   0  -4   46.10    2.85
   6   0  -4   45.72    2.72
   6   0  -4   45.63    2.65
  -6   0   4   46.02    3.46
  -6   0   4   47.80    2.65
  -6   0   4   40.57    2.88
   5   0  -4   -0.18    0.66
   5   0  -4   -0.41    0.68
  -5   0   4   -0.19    0.54
  -5   0   4    0.46    0.41
  -4   0   4    3.48    0.57
  -4   0   4    3.56    0.54
  -4   0   4    2.60    0.40
   4   0  -4    4.22    0.71
  -4   0   4    3.73    0.60
  -4   0   4    3.97    0.55
  -4   0   4    4.22    0.64
  -4   0   4    3.26    0.48
   3   0  -4    1.08    0.44
  -3   0   4    0.19    0.25
   3   0  -4    0.95    0.34
  -3   0   4    0.59    0.22
  -3   0   4    0.62    0.29
  -3   0   4    0.23    0.35
  -3   0   4    0.72    0.22
   2   0  -4    3.24    0.50
  -2   0   4    2.25    0.30
  -2   0   4    2.79    0.29
  -2   0   4    3.43    0.38
  -2   0   4    2.76    0.28
   2   0  -4    3.31    0.48
  -2   0   4    2.83    0.34
  -1   0   4    0.03    0.18
  -1   0   4    0.32    0.11
   1   0  -4    0.08    0.16
  -1   0   4    0.06    0.20
  -1   0   4    0.05    0.16
  -1   0   4    0.13    0.12
   1   0  -4    0.26    0.28
   1   0  -4   -0.02    0.24
   0   0  -4    2.14    0.36
   0   0  -4    2.80    0.47
   0   0   4    2.27    0.36
   0   0  -4    2.28    0.40
   0   0  -4    2.36    0.41
   0   0   4    2.98    0.54
  -1   0  -4    0.32    0.40
  -1   0  -4    0.17    0.32
  -1   0  -4    0.73    0.38
   1   0   4    0.70    0.28
  -1   0  -4    1.08    0.35
  -1   0  -4    0.68    0.39
  -2   0  -4   46.80    2.73
  -2   0  -4   52.31    2.76
  -2   0  -4   57.57    2.97
  -2   0  -4   44.05    2.74
  -3   0  -4    0.93    0.67
  -3   0  -4    1.10    2.04
  -3   0  -4    1.06    1.18
  -3   0  -4    1.51    1.32
  -3   0  -4   -0.10    1.51
   3   0   4   -0.56    1.57
   3   0   4    0.78    0.70
  -4   0  -4    0.97    1.03
   4   0   4    0.12    0.32
  -4   0  -4    3.20    1.52
  -4   0  -4   -0.23    1.50
  -4   0  -4    1.46    1.26
  -4   0  -4    1.17    1.15
  -4   0  -4    1.12    0.69
  -4   0  -4    0.78    1.13
   4   0   4    0.68    0.42
  -5   0  -4    0.84    0.84
  -5   0  -4   -0.34    0.72
  -5   0  -4    1.42    0.89
  -5   0  -4    1.16    0.71
  -5   0  -4    1.14    0.80
   5   0   4   -0.36    0.48
  -5   0  -4    0.20    0.65
   5   0   4   -0.55    0.45
   6   0   4    2.46    0.51
  -6   0  -4    1.85    0.80
  -6   0  -4    2.80    0.69
   6   0   4    2.43    0.54
  -6   0  -4    1.21    0.65
  -6   0  -4    2.42    0.65
  -6   0  -4    2.86    0.63
   9  -1  -4    2.38    0.51
   9  -1  -4    2.29    0.39
  -9  -1   4    1.53    0.43
   9   1  -4    2.92    0.51
  -9   1   4    1.96    0.55
   9   1  -4    1.43    0.46
  -9   1   4    0.93    0.44
   8  -1  -4   29.08    1.82
   8  -1  -4   29.56    1.69
  -8  -1   4   27.00    1.81
  -8   1   4   28.90    1.87
  -8   1   4   29.43    1.84
   8   1  -4   27.06    1.77
   8   1  -4   27.92    1.68
   8   1  -4   25.70    1.76
  -7  -1   4   20.23    1.58
   7  -1  -4   14.40    2.50
  -7  -1   4   17.07    1.79
   7  -1  -4   19.34    1.43
   7  -1  -4   19.35    1.74
   7  -1  -4   18.10    1.46
   7   1  -4   15.82    2.14
  -7   1   4   18.41    1.57
   7   1  -4   17.24    1.70
   7   1  -4   17.15    1.40
  -7   1   4   20.00    1.84
   7   1  -4   17.83    1.43
  -7   1   4   17.65    1.66
   6  -1  -4   39.23    2.42
  -6  -1   4   40.75    2.39
   6  -1  -4   41.90    2.48
  -6  -1   4   40.80    2.62
   6  -1  -4   40.43    2.64
   6  -1  -4   33.36    2.63
   6  -1  -4   41.95    2.40
  -6   1   4   43.78    2.44
  -6   1   4   35.93    2.71
  -6   1   4   36.82    2.64
   6   1  -4   41.44    2.38
   6   1  -4   39.90    2.45
   6   1  -4   40.74    2.62
  -5  -1   4   41.82    2.24
   5  -1  -4   36.60    2.38
  -5  -1   4   37.96    2.23
   5  -1  -4   41.97    2.41
   5   1  -4   38.70    2.34
  -5   1   4   41.05    2.26
   5   1  -4   40.74    2.40
  -5   1   4   37.94    2.43
  -4  -1   4    4.93    0.64
   4  -1  -4    5.86    0.79
  -4  -1   4    4.60    0.73
  -4  -1   4    5.76    0.57
  -4  -1   4    6.02    0.63
  -4  -1   4    6.22    0.60
  -4  -1   4    6.22    0.69
  -4   1   4    6.21    0.77
  -4   1   4    5.60    0.62
   4   1  -4    5.11    0.77
  -4   1   4    6.28    0.68
  -4   1   4    5.04    0.64
  -4   1   4    6.63    0.68
  -4   1   4    6.18    0.59
  -4   1   4    5.66    0.60
  -3  -1   4   11.40    0.71
  -3  -1   4   12.26    0.75
  -3  -1   4   10.41    0.72
  -3  -1   4   11.02    0.73
  -3  -1   4   10.81    0.67
  -3  -1   4   11.35    0.70
   3  -1  -4   10.52    0.90
   3   1  -4   10.99    0.83
  -3   1   4   11.02    0.70
   3   1  -4   12.08    0.94
  -3   1   4    9.64    0.75
  -3   1   4    9.81    0.75
  -3   1   4   10.06    0.72
  -3   1   4   11.32    0.72
  -3   1   4   10.28    0.69
  -2  -1   4    0.15    0.15
  -2  -1   4    0.43    0.21
   2  -1  -4    0.59    0.31
  -2  -1   4    0.58    0.18
  -2  -1   4    0.50    0.29
  -2  -1   4    0.21    0.24
   2  -1  -4    0.81    0.31
   2  -1  -4    0.68    0.20
  -2  -1   4    0.35    0.15
  -2   1   4    0.44    0.26
  -2   1   4    0.35    0.19
   2   1  -4    0.19    0.36
  -2   1   4    0.85    0.39
   2   1  -4    0.17    0.24
  -2   1   4    0.38    0.17
   1  -1  -4   84.97    4.27
   1  -1  -4   82.42    4.21
  -1  -1   4   83.09    4.14
   1  -1  -4   81.07    4.16
   1  -1  -4   83.94    4.16
  -1  -1   4   79.48    4.06
  -1  -1   4   81.98    4.08
   1   1  -4   81.12    4.21
  -1   1   4   83.10    4.16
   1   1  -4   83.54    4.26
   0  -1   4  117.30    5.55
   0  -1  -4  110.61    5.58
   0  -1  -4  113.36    5.61
   0  -1   4  117.78    5.56
   0  -1  -4  102.22    5.63
   0  -1  -4  110.22    5.58
   0   1   4  111.53    5.55
   0   1  -4  112.68    5.55
   0   1  -4  103.16    5.60
   0   1   4  106.75    5.61
   0   1  -4  109.98    5.55
   0   1  -4  113.28    5.63
   1  -1   4    7.85    0.64
  -1  -1  -4    6.88    0.91
   1  -1   4    7.54    0.67
  -1  -1  -4    8.15    0.70
  -1  -1  -4    8.01    0.76
   1  -1   4    7.34    0.71
  -1  -1  -4    6.91    0.72
   1   1   4    7.40    0.42
   1   1   4    7.01    0.69
   1   1   4    7.33    0.64
  -1   1  -4    5.61    0.77
  -1   1  -4    7.43    0.73
  -1   1  -4    7.02    0.76
  -1   1  -4    8.12    0.68
  -2  -1  -4    4.11    0.65
   2  -1   4    4.26    0.80
  -2  -1  -4    3.97    0.85
  -2  -1  -4    2.57    0.52
  -2  -1  -4    4.44    0.70
  -2  -1  -4    4.61    1.15
   2  -1   4    5.15    0.76
  -2   1  -4    4.51    1.67
   2   1   4    3.73    0.30
  -2   1  -4    2.94    0.57
  -2   1  -4    4.54    0.75
  -2   1  -4    3.35    0.93
  -2   1  -4    2.71    0.52
   3  -1   4   35.11    1.89
  -3  -1  -4   41.01    2.29
  -3  -1  -4   32.43    2.98
  -3  -1  -4   34.51    3.85
  -3  -1  -4   33.75    2.62
  -3   1  -4   33.79    2.31
  -3   1  -4   39.62    2.31
   3   1   4   38.17    1.88
  -3   1  -4   37.50    2.28
  -3   1  -4   38.00    2.69
   3   1   4   39.04    2.23
   3   1   4   37.50    1.92
  -3   1  -4   33.30    2.88
  -4  -1  -4   12.51    2.37
   4  -1   4   11.27    0.88
   4  -1   4   12.02    0.80
  -4  -1  -4    9.97    1.61
  -4  -1  -4   10.34    1.50
  -4   1  -4   12.35    1.66
   4   1   4   11.55    0.87
   4   1   4    9.82    0.96
   4   1   4   10.28    0.78
  -4   1  -4   10.77    1.45
  -4   1  -4   14.87    1.68
  -5  -1  -4   72.95    3.95
   5  -1   4   69.28    3.61
  -5  -1  -4   73.05    3.97
  -5  -1  -4   67.80    3.79
  -5  -1  -4   72.10    3.97
   5  -1   4   64.16    3.61
  -5  -1  -4   70.89    3.85
   5   1   4   70.41    3.61
  -5   1  -4   69.22    3.92
  -5   1  -4   76.03    3.86
  -5   1  -4   72.62    4.03
   5   1   4   71.19    3.62
  -5   1  -4   68.19    4.06
  -5   1  -4   66.35    3.80
  -6  -1  -4    0.77    0.58
  -6  -1  -4    0.29    0.51
  -6  -1  -4   -0.49    0.74
  -6  -1  -4    0.35    0.58
   6  -1   4    0.50    0.48
   6  -1   4    1.19    0.50
  -6  -1  -4    0.24    0.64
  -6   1  -4    0.17    0.67
   6   1   4    0.49    0.55
  -6   1  -4    0.55    0.62
  -6   1  -4    0.09    0.66
   6   1   4   -0.23    0.44
  -6   1  -4    3.04    1.31
  -6   1  -4   -0.21    0.55
   9  -2  -4    9.68    0.99
  -9  -2   4   10.63    0.83
   9  -2  -4    9.74    0.73
   9   2  -4   10.40    0.89
   9   2  -4   12.55    0.83
   9   2  -4    9.30    0.84
  -9   2   4   12.41    0.88
   8  -2  -4    0.59    0.45
  -8  -2   4   -0.05    0.48
   8  -2  -4    0.14    0.61
  -8   2   4    0.52    0.58
   8   2  -4    0.31    0.45
  -8   2   4    0.89    0.67
   8   2  -4    1.76    0.47
   8   2  -4    0.76    0.53
  -7  -2   4   30.27    2.23
   7  -2  -4   27.72    1.82
  -7  -2   4   28.58    1.97
   7  -2  -4   27.68    1.88
   7  -2  -4   23.59    1.93
  -7  -2   4   26.36    2.15
   7   2  -4   25.80    1.95
   7   2  -4   28.29    1.78
   7   2  -4   25.37    2.47
  -7   2   4   27.95    2.07
  -7   2   4   32.38    2.78
  -7   2   4   27.22    1.89
   7   2  -4   29.24    1.82
  -6  -2   4    0.80    0.80
   6  -2  -4    1.06    0.80
   6  -2  -4    0.96    1.17
   6  -2  -4    1.47    0.74
   6  -2  -4    0.19    0.69
  -6  -2   4    0.24    0.92
  -6  -2   4    1.13    1.18
   6  -2  -4    1.48    0.84
  -6   2   4   -0.57    0.98
   6   2  -4    0.57    0.60
   6   2  -4   -0.03    1.02
  -6   2   4    1.11    0.73
   6   2  -4    0.98    1.28
  -6   2   4   -0.97    1.11
   6   2  -4    1.41    0.68
  -5  -2   4    5.43    1.06
  -5  -2   4    2.76    0.53
   5  -2  -4    3.55    0.88
  -5  -2   4    3.58    0.61
   5  -2  -4    2.88    0.82
   5   2  -4    2.83    0.71
  -5   2   4    2.70    0.62
   5   2  -4    3.42    0.73
  -4  -2   4   64.43    3.33
  -4  -2   4   61.62    3.44
  -4  -2   4   63.78    3.35
  -4  -2   4   67.62    3.39
  -4  -2   4   66.70    3.39
  -4  -2   4   68.17    3.35
   4  -2  -4   69.56    3.55
  -4   2   4   66.21    3.40
  -4   2   4   55.75    3.60
   4   2  -4   66.77    3.55
  -4   2   4   63.00    3.35
  -4   2   4   66.50    3.36
   4   2  -4   66.37    3.47
  -4   2   4   66.13    3.39
  -4   2   4   65.29    3.40
  -3  -2   4   12.04    0.74
   3  -2  -4   11.77    0.97
  -3  -2   4   11.80    0.81
  -3  -2   4   11.77    0.70
   3  -2  -4   10.93    0.78
  -3  -2   4   10.66    0.74
  -3  -2   4   12.44    0.78
   3  -2  -4   11.58    0.88
  -3   2   4   10.53    0.84
  -3   2   4   11.84    0.84
   3   2  -4   11.35    0.99
  -3   2   4   11.32    0.77
  -3   2   4   11.74    0.73
  -3   2   4   11.95    0.79
   3   2  -4   11.10    0.88
  -3   2   4   10.92    0.76
   2  -2  -4    0.13    0.24
  -2  -2   4   -0.04    0.25
  -2  -2   4    0.06    0.16
  -2  -2   4   -0.31    0.27
  -2  -2   4   -0.11    0.20
   2  -2  -4    0.48    0.34
   2  -2  -4    0.05    0.32
  -2  -2   4   -0.11    0.14
   2   2  -4   -0.26    0.25
  -2   2   4    0.07    0.26
  -2   2   4    0.08    0.27
  -2   2   4    0.14    0.23
   2   2  -4    0.41    0.41
  -2   2   4   -0.08    0.17
   2   2  -4   -0.02    0.30
  -1  -2   4    5.53    0.47
   1  -2  -4    3.33    0.56
  -1  -2   4    5.26    0.33
   1  -2  -4    4.33    0.47
   1  -2  -4    4.23    0.58
  -1  -2   4    5.39    0.44
  -1   2   4    5.59    0.70
  -1   2   4    4.38    0.36
  -1   2   4    4.65    0.46
   1   2  -4    5.12    0.58
  -1   2   4    4.48    0.36
   1   2  -4    5.01    0.61
   1   2  -4    5.03    0.55
   0  -2  -4   51.77    2.79
   0  -2   4   53.79    2.74
   0  -2  -4   50.16    2.84
   0  -2  -4   54.52    2.82
   0  -2   4   54.05    2.64
   0  -2   4   57.75    2.80
   0   2   4   55.64    2.76
   0   2   4   53.54    2.78
   0   2  -4   51.96    2.83
   0   2  -4   54.42    2.83
   0   2  -4   52.81    2.83
   0   2   4   53.33    2.68
   0   2  -4   49.13    2.76
  -1  -2  -4   98.20    4.92
  -1  -2  -4   93.55    4.90
   1  -2   4   99.58    4.88
   1  -2   4   94.89    4.85
  -1   2  -4   90.77    4.84
  -1   2  -4   91.16    4.86
   1   2   4   93.74    4.71
  -1   2  -4   96.25    4.90
  -1   2  -4   92.93    4.87
   1   2   4   94.89    4.83
   1   2   4   98.22    4.69
   1   2   4   94.25    4.80
  -2  -2  -4   23.19    1.42
   2  -2   4   21.65    1.08
   2  -2   4   22.11    1.62
  -2  -2  -4   21.33    1.39
   2  -2   4   19.19    1.49
  -2  -2  -4   22.02    1.52
   2   2   4   20.88    1.13
  -2   2  -4   20.90    1.53
  -2   2  -4   19.48    1.40
   2   2   4   20.09    1.10
  -2   2  -4   18.75    1.34
  -3  -2  -4   55.44    3.47
  -3  -2  -4   60.02    3.26
  -3  -2  -4   51.46    3.23
  -3  -2  -4   59.54    3.64
   3  -2   4   60.81    2.89
  -3  -2  -4   56.48    3.34
   3  -2   4   58.93    2.91
  -3  -2  -4   57.06    3.48
  -3  -2  -4   55.75    3.36
  -3   2  -4   51.01    3.22
   3   2   4   60.21    2.91
  -3   2  -4   59.23    3.68
  -3   2  -4   56.97    3.23
  -3   2  -4   53.84    3.60
   3   2   4   62.05    3.24
  -3   2  -4   56.47    4.06
  -3   2  -4   59.17    3.26
   3   2   4   61.31    2.96
  -3   2  -4   53.39    3.36
   4  -2   4   17.47    2.03
  -4  -2  -4   19.86    1.74
   4  -2   4   20.11    1.16
   4  -2   4   18.34    1.22
  -4  -2  -4   19.62    1.68
  -4  -2  -4   16.26    2.15
  -4  -2  -4   19.32    1.86
  -4  -2  -4   20.98    1.68
  -4  -2  -4   18.16    1.85
  -4  -2  -4   20.54    1.55
  -4   2  -4   18.70    1.64
  -4   2  -4   18.99    2.18
   4   2   4   19.05    1.27
  -4   2  -4   18.51    1.58
   4   2   4   18.11    2.02
  -4   2  -4   16.22    2.08
  -4   2  -4   19.76    2.00
  -4   2  -4   21.29    1.85
   4   2   4   20.23    1.15
   4   2   4   21.05    1.25
  -4   2  -4   16.80    2.02
   5  -2   4   27.91    1.68
  -5  -2  -4   29.58    1.97
  -5  -2  -4   30.83    2.12
  -5  -2  -4   29.77    1.89
   5  -2   4   27.28    1.67
  -5  -2  -4   29.74    1.99
  -5  -2  -4   34.25    2.17
  -5   2  -4   31.12    2.00
  -5   2  -4   28.11    2.07
   5   2   4   29.07    1.70
  -5   2  -4   31.97    2.32
   5   2   4   27.66    1.68
   5   2   4   30.66    1.83
  -5   2  -4   28.70    2.27
  -5   2  -4   30.13    1.92
  -5   2  -4   27.81    2.07
  -6  -2  -4    0.60    0.47
  -6  -2  -4    0.38    0.49
   6  -2   4    0.49    0.49
  -6  -2  -4    1.30    0.58
  -6  -2  -4    1.12    0.60
  -6  -2  -4    0.46    0.79
   6   2   4    1.52    0.59
  -6   2  -4    0.06    0.50
   6   2   4    0.89    0.41
  -6   2  -4    2.11    0.86
  -6   2  -4    0.12    0.77
  -6   2  -4    0.83    0.65
  -6   2  -4    0.67    0.72
   9  -3  -4   -0.19    0.29
  -9  -3   4    0.06    0.31
   9   3  -4   -0.46    0.38
  -9   3   4    0.65    0.39
   9   3  -4    0.32    0.42
   8  -3  -4    0.32    0.55
  -8  -3   4    1.00    0.69
   8  -3  -4    0.49    0.66
  -8  -3   4    0.20    0.60
  -8   3   4    0.44    0.75
   8   3  -4    0.29    0.49
   8   3  -4    1.25    0.67
  -8   3   4   -0.01    0.84
   7  -3  -4    2.67    0.68
  -7  -3   4    4.70    1.45
   7  -3  -4    3.40    0.91
  -7  -3   4    3.11    0.72
   7  -3  -4    2.27    0.70
  -7  -3   4    4.71    0.94
   7   3  -4    3.44    0.63
  -7   3   4    1.94    0.71
   7   3  -4    3.20    0.67
   7   3  -4    2.89    0.67
  -7   3   4    2.41    0.97
   7   3  -4    2.50    1.49
   6  -3  -4   11.21    1.91
   6  -3  -4   11.68    1.38
  -6  -3   4   11.51    1.27
   6  -3  -4   12.66    1.44
   6  -3  -4    9.43    1.46
  -6  -3   4   10.54    1.54
   6   3  -4   12.20    1.21
  -6   3   4   10.53    1.60
   6   3  -4   11.93    1.24
   6   3  -4    9.66    1.53
  -6   3   4   10.64    1.51
   6   3  -4    9.31    1.51
  -5  -3   4    5.00    0.79
  -5  -3   4    6.71    1.22
   5  -3  -4    5.10    1.21
  -5  -3   4    4.94    0.66
   5  -3  -4    5.46    1.02
  -5  -3   4    8.17    1.32
   5   3  -4    6.02    0.81
   5   3  -4    5.52    1.06
   5   3  -4    3.07    0.80
  -5   3   4    7.37    1.30
  -5   3   4    4.50    0.80
  -5   3   4    3.83    0.79
   5   3  -4    4.65    1.22
  -4  -3   4    0.81    0.55
   4  -3  -4   -0.15    0.62
  -4  -3   4    0.02    0.35
   4  -3  -4    0.25    0.59
  -4  -3   4    0.48    0.43
  -4  -3   4    0.14    0.40
  -4  -3   4    0.28    0.34
  -4  -3   4   -0.08    0.43
   4  -3  -4    0.27    0.57
  -4   3   4   -0.37    0.46
  -4   3   4    1.16    0.53
  -4   3   4   -0.34    0.44
   4   3  -4    0.12    0.56
   4   3  -4    0.01    0.53
  -3  -3   4   23.40    1.33
   3  -3  -4   24.30    1.56
  -3  -3   4   24.34    1.44
  -3  -3   4   26.21    1.39
  -3  -3   4   23.25    1.37
   3  -3  -4   22.50    1.43
   3  -3  -4   25.45    1.47
  -3  -3   4   23.98    1.30
  -3   3   4   23.06    1.62
  -3   3   4   24.79    1.33
  -3   3   4   23.97    1.36
  -3   3   4   24.20    1.38
   3   3  -4   23.93    1.50
  -3   3   4   20.77    1.48
  -3   3   4   24.16    1.43
   3   3  -4   25.42    1.49
  -2  -3   4   -0.25    0.24
  -2  -3   4    0.14    0.18
  -2  -3   4    0.15    0.17
   2  -3  -4    0.15    0.39
   2  -3  -4   -0.05    0.41
   2  -3  -4    0.36    0.31
  -2  -3   4    0.10    0.31
  -2  -3   4   -0.09    0.22
  -2   3   4    0.04    0.20
  -2   3   4    0.10    0.31
  -2   3   4    0.20    0.29
   2   3  -4    0.41    0.41
  -2   3   4   -0.06    0.30
   2   3  -4   -0.13    0.34
  -2   3   4   -0.07    0.20
   2   3  -4   -0.08    0.45
   1  -3  -4   -0.20    0.36
  -1  -3   4    0.34    0.22
  -1  -3   4    0.21    0.16
  -1  -3   4    0.12    0.14
  -1  -3   4   -0.35    0.54
   1  -3  -4   -0.08    0.28
   1  -3  -4    0.14    0.37
  -1  -3   4    0.26    0.30
   1   3  -4   -0.20    0.42
   1   3  -4    0.18    0.37
  -1   3   4   -0.10    0.16
   1   3  -4    0.06    0.30
  -1   3   4    0.29    0.30
  -1   3   4    0.16    0.28
  -1   3   4   -0.04    0.29
  -1   3   4    0.08    0.17
   0  -3  -4    3.27    0.57
   0  -3   4    3.68    0.57
   0  -3   4    3.40    0.29
   0  -3  -4    3.34    0.62
   0  -3   4    3.18    0.30
   0  -3  -4    3.04    0.58
   0   3  -4    3.82    0.65
   0   3   4    3.64    0.33
   0   3   4    3.18    0.55
   0   3   4    3.05    0.41
   0   3  -4    3.05    0.50
   0   3  -4    4.25    0.67
   0   3   4    3.63    0.48
   0   3   4    3.57    0.32
  -1  -3  -4    8.89    0.91
  -1  -3  -4    8.97    0.87
   1  -3   4    8.03    0.95
   1  -3   4    9.16    0.54
   1  -3   4    9.60    1.07
  -1  -3  -4    8.24    0.83
   1  -3   4    9.32    0.92
  -1   3  -4   10.77    1.03
   1   3   4    7.94    0.71
  -1   3  -4    8.99    0.94
  -1   3  -4    8.72    0.79
   1   3   4    9.10    0.85
   1   3   4    9.42    0.56
   1   3   4   10.22    0.90
  -1   3  -4    9.29    1.44
   1   3   4    9.68    0.59
   2  -3   4    7.27    1.18
   2  -3   4    8.44    1.14
  -2  -3  -4    8.15    0.88
   2  -3   4    7.89    1.34
  -2  -3  -4    7.70    1.30
   2  -3   4    8.17    0.54
  -2  -3  -4    8.03    0.88
  -2  -3  -4    8.68    1.14
  -2   3  -4    7.03    1.03
  -2   3  -4   10.82    2.17
  -2   3  -4    7.73    1.26
   2   3   4    9.22    0.71
   2   3   4    7.76    0.59
  -2   3  -4    6.83    0.90
  -3  -3  -4    2.34    0.66
  -3  -3  -4    3.38    0.97
   3  -3   4    3.14    0.51
  -3  -3  -4    2.85    0.77
   3  -3   4    2.89    1.06
  -3  -3  -4    3.38    1.07
   3  -3   4    1.78    0.38
  -3  -3  -4    3.38    0.93
  -3  -3  -4    2.96    0.78
   3   3   4    2.86    0.41
   3   3   4    3.33    0.59
  -3   3  -4    1.56    0.63
  -3   3  -4    0.22    1.27
   3   3   4    5.09    1.08
  -3   3  -4    1.91    0.77
  -3   3  -4    1.26    0.91
  -3   3  -4    0.98    1.01
  -3   3  -4    1.04    1.50
  -3   3  -4    3.89    0.85
  -4  -3  -4   14.38    1.82
  -4  -3  -4   11.27    1.50
  -4  -3  -4   15.74    1.80
   4  -3   4   11.30    2.09
   4  -3   4   13.53    0.95
  -4  -3  -4   15.88    1.42
  -4  -3  -4   14.71    1.47
   4  -3   4   13.70    1.04
  -4  -3  -4   14.64    1.64
  -4  -3  -4   11.90    1.27
   4   3   4   11.58    1.11
   4   3   4    9.67    1.91
  -4   3  -4   14.52    2.07
  -4   3  -4   13.55    1.96
  -4   3  -4   14.57    1.29
  -4   3  -4   13.45    1.40
  -4   3  -4   11.94    1.45
  -4   3  -4   14.63    1.67
  -4   3  -4   10.72    1.82
   4   3   4   13.94    1.02
   4   3   4   12.84    0.92
  -5  -3  -4    0.48    0.59
  -5  -3  -4    0.42    0.66
  -5  -3  -4    1.64    0.60
   5  -3   4    0.91    0.56
  -5  -3  -4    0.31    0.53
  -5  -3  -4   -0.33    0.65
  -5  -3  -4    1.25    1.09
   5   3   4   -0.18    0.51
  -5   3  -4   -0.31    0.80
  -5   3  -4    0.92    0.71
   5   3   4    0.05    0.57
  -5   3  -4    0.54    0.59
  -5   3  -4    0.31    0.89
   5   3   4   -0.08    0.53
  -5   3  -4    1.49    0.97
  -6  -3  -4    6.44    0.79
  -6  -3  -4    7.36    0.84
  -6  -3  -4    6.64    1.19
  -6  -3  -4    5.30    0.88
  -6  -3  -4    8.30    1.08
   6  -3   4    6.36    0.83
   6   3   4    6.49    0.72
  -6   3  -4    6.44    0.97
  -6   3  -4    5.69    1.18
  -6   3  -4    6.27    1.15
  -6   3  -4    7.98    0.84
   6   3   4   10.03    1.43
  -9  -4   4    7.71    0.67
   9   4  -4    6.56    0.61
  -9   4   4    7.17    0.59
  -8  -4   4    0.21    0.56
   8  -4  -4   -0.12    0.60
  -8  -4   4    0.94    0.53
   8  -4  -4    1.11    0.45
  -8   4   4    1.59    0.54
   8   4  -4    0.59    0.47
   8   4  -4    1.13    0.52
   7  -4  -4    4.94    0.70
   7  -4  -4    7.14    1.10
   7  -4  -4    3.59    1.13
  -7  -4   4    6.53    1.25
  -7   4   4    6.44    1.10
  -7   4   4    5.73    0.85
   7   4  -4    5.57    0.77
   7   4  -4    5.20    0.75
   6  -4  -4    0.45    0.90
  -6  -4   4    0.85    0.81
   6  -4  -4    0.87    0.89
  -6  -4   4    0.37    0.97
  -6  -4   4   -0.11    0.91
  -6   4   4   -2.18    1.33
   6   4  -4   -0.23    0.61
   6   4  -4   -0.53    1.23
   6   4  -4    1.35    0.84
  -6   4   4   -0.08    1.10
   6   4  -4   -1.15    0.72
  -5  -4   4   13.17    1.15
  -5  -4   4   13.53    1.39
  -5  -4   4   15.12    1.13
   5  -4  -4   17.16    1.81
   5  -4  -4    9.73    1.75
   5  -4  -4    9.27    1.94
  -5   4   4   13.40    1.49
  -5   4   4   14.40    1.66
   5   4  -4   13.00    1.44
   5   4  -4   10.00    1.40
   5   4  -4   15.00    1.29
  -4  -4   4   17.86    1.25
  -4  -4   4   15.67    1.13
   4  -4  -4   14.74    1.37
   4  -4  -4   13.74    1.86
  -4  -4   4   16.67    1.12
  -4  -4   4   17.54    1.12
  -4  -4   4   14.68    1.32
  -4  -4   4   16.46    1.05
   4  -4  -4   16.61    1.42
  -4   4   4   14.63    1.16
   4   4  -4   18.08    1.41
   4   4  -4   15.13    1.34
   4   4  -4   16.66    1.36
  -4   4   4   15.81    1.36
  -4   4   4   15.75    1.26
  -3  -4   4   15.17    1.13
  -3  -4   4   15.69    0.99
   3  -4  -4   13.87    1.65
   3  -4  -4   14.76    1.23
  -3  -4   4   15.23    0.93
  -3  -4   4   14.42    0.94
   3  -4  -4   15.99    1.21
  -3  -4   4   16.32    1.01
   3  -4  -4   16.29    1.19
  -3  -4   4   15.21    1.09
  -3   4   4   16.37    0.99
  -3   4   4   11.82    1.22
   3   4  -4   12.79    1.20
  -3   4   4   15.72    1.05
   3   4  -4   16.45    1.18
   3   4  -4   15.57    1.25
   3   4  -4   15.45    1.23
  -3   4   4   14.88    1.16
  -3   4   4   16.53    1.13
   3   4  -4   16.58    1.80
  -3   4   4   15.02    1.09
  -2  -4   4    2.62    0.39
  -2  -4   4    3.13    0.39
  -2  -4   4    2.43    0.42
   2  -4  -4    3.25    0.55
  -2  -4   4    2.49    0.35
   2  -4  -4    3.50    1.15
  -2  -4   4    2.12    0.48
   2   4  -4    2.68    0.88
  -2   4   4    2.91    0.42
   2   4  -4    2.74    0.54
   2   4  -4    3.11    0.64
  -2   4   4    3.59    0.51
  -2   4   4    3.24    0.49
   2   4  -4    2.79    0.63
  -2   4   4    3.96    0.69
   2   4  -4    2.22    0.44
  -2   4   4    3.05    0.49
   1  -4  -4   83.94    4.85
   1  -4  -4   97.68    4.88
  -1  -4   4   89.79    4.70
  -1  -4   4   96.27    4.68
  -1  -4   4   96.65    4.70
  -1  -4   4   96.07    4.84
   1  -4  -4   91.13    5.14
  -1  -4   4   97.69    4.78
   1   4  -4   97.13    4.87
  -1   4   4   96.17    4.71
  -1   4   4   97.65    4.74
   1   4  -4   92.08    5.08
  -1   4   4   95.57    4.83
  -1   4   4   89.21    4.74
   1   4  -4   97.92    4.87
   1   4  -4   88.69    4.89
  -1   4   4   96.18    4.82
   0  -4  -4   71.67    3.63
   0  -4  -4   63.43    4.05
   0  -4   4   69.02    3.41
   0  -4  -4   57.61    4.07
   0  -4  -4   71.55    3.64
   0  -4   4   66.62    3.43
   0  -4   4   68.74    3.62
   0  -4  -4   74.56    3.70
   0   4   4   68.80    3.48
   0   4  -4   69.73    3.56
   0   4   4   68.60    3.44
   0   4  -4   63.37    3.70
   0   4   4   70.08    3.58
   0   4   4   69.92    3.58
   0   4  -4   72.44    4.59
   0   4  -4   67.30    3.66
   0   4  -4   69.53    3.65
  -1  -4  -4   31.93    1.82
  -1  -4  -4   29.33    1.90
  -1  -4  -4   28.83    2.10
   1  -4   4   28.73    1.52
   1  -4   4   30.21    1.88
   1  -4   4   29.21    1.54
  -1  -4  -4   29.25    1.77
   1   4   4   29.48    1.55
  -1   4  -4   27.55    1.82
   1   4   4   31.77    1.62
   1   4   4   30.06    1.59
  -1   4  -4   23.92    2.19
  -1   4  -4   30.30    1.75
   1   4   4   27.37    1.82
  -1   4  -4   30.05    1.89
   1   4   4   30.36    1.80
  -1   4  -4   28.11    1.97
  -2  -4  -4   10.45    2.13
   2  -4   4   15.74    1.58
   2  -4   4   15.21    0.93
  -2  -4  -4   15.15    1.34
   2  -4   4   17.19    0.92
   2  -4   4   12.25    2.42
   2   4   4   15.81    0.93
  -2   4  -4   15.24    1.63
  -2   4  -4   15.59    1.28
   2   4   4   16.70    1.02
  -2   4  -4   15.86    2.34
   2   4   4   15.50    0.99
  -2   4  -4   16.22    2.02
   2   4   4   15.70    1.28
   3  -4   4    2.55    0.45
  -3  -4  -4    1.89    0.83
  -3  -4  -4    2.34    0.64
  -3  -4  -4    3.53    0.82
   3  -4   4    3.83    0.55
   3  -4   4   -0.18    1.21
  -3  -4  -4    2.73    0.96
  -3  -4  -4    3.11    1.06
  -3  -4  -4    3.40    0.74
  -3  -4  -4    2.29    0.86
  -3   4  -4    3.55    1.18
  -3   4  -4    3.83    0.78
  -3   4  -4    3.23    0.67
   3   4   4    3.71    0.92
  -3   4  -4    1.54    0.74
   3   4   4    3.84    0.67
  -3   4  -4    0.97    1.22
   3   4   4    2.31    0.49
  -3   4  -4    1.78    1.54
  -3   4  -4    0.57    1.04
  -3   4  -4    2.49    0.88
   3   4   4    3.17    0.47
  -4  -4  -4    3.09    0.81
   4  -4   4    3.08    0.48
  -4  -4  -4    2.37    0.70
  -4  -4  -4    1.34    0.85
  -4  -4  -4    2.65    0.69
  -4  -4  -4    2.82    2.02
  -4  -4  -4    2.53    0.74
   4  -4   4    2.00    0.55
   4  -4   4    1.45    0.94
  -4   4  -4    2.83    1.23
   4   4   4    1.57    0.43
  -4   4  -4    3.44    1.02
   4   4   4    0.80    1.83
   4   4   4    3.03    0.58
   4   4   4    1.31    0.90
  -4   4  -4    2.24    0.64
  -4   4  -4    1.13    1.85
  -4   4  -4    2.65    0.70
  -4   4  -4    1.45    0.67
   5  -4   4   -0.92    0.48
  -5  -4  -4    0.96    0.76
  -5  -4  -4    0.36    0.80
  -5  -4  -4    0.32    0.75
  -5  -4  -4    0.03    0.62
  -5  -4  -4   -0.32    0.52
  -5  -4  -4   -0.18    0.63
  -5   4  -4    0.39    0.62
   5   4   4    0.59    0.52
  -5   4  -4    0.59    0.60
   5   4   4    0.57    0.45
  -5   4  -4    0.17    1.04
  -5   4  -4   -0.04    0.95
  -6  -4  -4    5.70    0.66
  -6  -4  -4    7.12    1.29
  -6  -4  -4    4.78    0.67
   6   4   4    5.39    0.59
   6   4   4    6.97    1.10
  -6   4  -4    5.53    0.79
  -6   4  -4    4.23    0.72
   8  -5  -4    0.14    0.44
   8  -5  -4   -0.61    0.57
  -8  -5   4    0.23    0.47
  -8  -5   4   -0.33    0.46
   8   5  -4   -0.92    0.72
  -8   5   4   -0.12    0.42
   8   5  -4   -0.07    0.41
  -7  -5   4    2.26    0.65
   7  -5  -4    1.49    0.58
  -7  -5   4    2.25    0.74
   7  -5  -4    2.97    0.66
   7   5  -4    2.56    0.59
  -7   5   4    1.07    0.67
   7   5  -4    2.25    0.69
   7   5  -4    2.26    0.58
  -6  -5   4    5.49    1.07
  -6  -5   4    4.38    1.05
   6  -5  -4    5.06    0.89
   6  -5  -4    6.11    0.92
  -6  -5   4    8.65    1.33
  -6   5   4    6.17    1.43
   6   5  -4    2.68    1.37
   6   5  -4    6.46    1.20
   6   5  -4    6.94    1.06
   6   5  -4    6.44    1.09
  -6   5   4    5.96    0.92
   5  -5  -4    7.53    1.21
  -5  -5   4    5.00    1.02
  -5  -5   4    6.31    0.88
   5  -5  -4    4.64    1.02
  -5  -5   4    7.70    1.09
   5  -5  -4    3.05    2.52
   5   5  -4    6.68    1.17
  -5   5   4    6.22    1.33
   5   5  -4    8.77    1.39
  -5   5   4    5.68    1.70
  -5   5   4    7.76    1.47
   5   5  -4    5.08    0.79
  -5   5   4    6.10    1.06
   5   5  -4    2.41    1.93
   5   5  -4    4.99    1.40
  -4  -5   4    6.98    0.83
   4  -5  -4    6.03    1.07
  -4  -5   4    6.02    0.76
  -4  -5   4    6.57    0.83
   4  -5  -4    5.90    1.08
   4  -5  -4    9.73    2.01
  -4  -5   4    4.17    0.99
  -4  -5   4    5.69    1.11
   4   5  -4    5.70    1.67
  -4   5   4    8.15    1.41
   4   5  -4    8.05    1.26
   4   5  -4    5.25    2.11
  -4   5   4    5.96    1.41
  -4   5   4    7.24    1.07
   4   5  -4    5.39    1.00
   3  -5  -4    1.36    0.60
  -3  -5   4    1.31    0.37
  -3  -5   4    1.46    0.42
  -3  -5   4    1.23    0.44
  -3  -5   4    1.05    0.37
   3  -5  -4    2.27    0.71
  -3  -5   4    1.01    0.46
  -3  -5   4    0.81    0.67
   3  -5  -4    0.53    0.66
   3  -5  -4    1.22    0.83
   3   5  -4   -0.18    0.72
  -3   5   4    0.19    0.46
  -3   5   4    0.17    0.97
   3   5  -4    0.40    0.98
  -3   5   4    0.32    0.55
   3   5  -4    1.07    0.59
  -3   5   4    1.26    0.59
   3   5  -4    1.41    0.82
   3   5  -4    1.57    0.66
  -3   5   4    1.87    0.43
   2  -5  -4   -0.25    0.54
  -2  -5   4    0.17    0.30
  -2  -5   4    0.27    0.52
   2  -5  -4    0.25    0.56
   2  -5  -4    0.61    0.85
  -2  -5   4    0.12    0.25
  -2  -5   4   -0.86    0.51
  -2  -5   4    0.67    0.30
   2  -5  -4    0.10    0.54
  -2  -5   4    0.27    0.30
   2   5  -4    0.64    0.47
  -2   5   4    0.66    0.37
  -2   5   4   -0.50    0.54
  -2   5   4   -0.24    0.39
  -2   5   4    0.08    0.47
   2   5  -4   -0.52    0.86
  -2   5   4    0.54    0.40
   2   5  -4   -0.68    0.65
  -2   5   4    1.02    1.00
  -2   5   4    0.32    0.36
   2   5  -4    0.10    0.63
  -1  -5   4   -0.10    0.23
  -1  -5   4   -0.08    0.27
   1  -5  -4    1.06    0.64
   1  -5  -4   -0.73    0.44
   1  -5  -4   -0.16    0.52
  -1  -5   4   -0.49    0.55
   1  -5  -4    0.04    0.90
  -1  -5   4    0.45    0.22
  -1  -5   4    0.08    0.28
  -1   5   4    1.21    0.99
  -1   5   4    0.09    0.32
   1   5  -4    0.08    0.54
  -1   5   4    0.11    0.35
  -1   5   4   -0.23    0.44
  -1   5   4    0.09    0.40
   1   5  -4   -0.45    0.65
  -1   5   4    0.16    0.27
   1   5  -4    0.24    0.45
  -1   5   4   -0.40    0.46
   0  -5   4   45.48    2.25
   0  -5  -4   41.45    2.59
   0  -5   4   42.82    2.54
   0  -5   4   44.02    2.26
   0  -5  -4   46.87    2.52
   0  -5   4   43.07    2.27
   0  -5  -4   47.84    2.52
   0  -5  -4   38.30    2.78
   0  -5   4   45.42    2.38
   0  -5  -4   39.50    3.25
   0   5  -4   41.48    2.59
   0   5   4   44.13    2.47
   0   5  -4   44.45    2.54
   0   5   4   44.35    2.28
   0   5   4   45.66    2.32
   0   5   4   46.31    2.39
   0   5  -4   41.57    2.52
   0   5   4   45.01    2.33
   0   5   4   42.49    2.47
   0   5  -4   42.86    2.75
  -1  -5  -4    1.09    0.78
   1  -5   4    0.55    0.35
  -1  -5  -4   -1.03    1.27
  -1  -5  -4    0.23    0.55
   1  -5   4    0.83    0.28
  -1  -5  -4   -0.51    0.90
   1  -5   4    0.65    0.27
  -1  -5  -4    0.94    1.03
   1  -5   4    0.27    1.54
  -1  -5  -4    0.63    0.59
  -1  -5  -4    0.53    0.74
  -1  -5  -4    1.19    0.80
   1   5   4    0.03    0.39
   1   5   4   -0.42    0.51
   1   5   4    0.41    0.33
   1   5   4    0.66    0.27
  -1   5  -4    0.92    0.50
  -1   5  -4    0.08    0.79
  -1   5  -4    0.80    0.83
  -1   5  -4   -0.07    0.76
  -1   5  -4    1.02    0.91
  -1   5  -4    0.83    0.53
   1   5   4    0.28    0.67
  -1   5  -4    0.78    0.90
  -2  -5  -4    0.85    0.94
  -2  -5  -4    0.38    0.75
  -2  -5  -4   -0.94    0.74
  -2  -5  -4    0.20    0.73
  -2  -5  -4   -0.78    1.35
  -2  -5  -4    0.61    0.77
   2  -5   4    0.06    0.38
  -2  -5  -4    0.36    0.69
   2  -5   4   -0.59    0.40
   2  -5   4    0.29    0.31
  -2   5  -4    1.05    1.04
  -2   5  -4   -0.33    0.69
  -2   5  -4    0.85    1.58
   2   5   4    0.80    0.96
  -2   5  -4   -1.37    1.31
   2   5   4   -0.22    0.42
  -2   5  -4    0.57    0.88
  -2   5  -4    0.26    0.55
   2   5   4    0.65    0.52
  -2   5  -4   -0.54    0.78
   2   5   4   -0.05    0.28
   2   5   4    0.13    0.51
  -2   5  -4    0.84    1.15
  -2   5  -4    0.32    0.81
  -3  -5  -4    9.65    1.31
  -3  -5  -4    6.76    2.60
  -3  -5  -4    7.25    1.49
   3  -5   4    7.45    0.71
  -3  -5  -4    7.80    1.10
  -3  -5  -4    8.46    1.50
  -3  -5  -4    7.47    1.14
  -3  -5  -4    6.67    1.30
   3  -5   4    7.07    0.83
  -3  -5  -4    7.65    1.24
  -3   5  -4   12.05    2.38
  -3   5  -4    3.39    1.74
  -3   5  -4    7.49    1.03
  -3   5  -4    6.41    1.14
   3   5   4    7.35    0.79
   3   5   4    6.53    0.94
  -3   5  -4    9.28    1.27
  -3   5  -4    4.91    1.03
   3   5   4    8.09    0.91
   3   5   4    8.20    1.54
  -3   5  -4    8.45    1.08
   3   5   4    6.76    0.70
  -3   5  -4    7.77    1.08
  -4  -5  -4    2.19    0.70
  -4  -5  -4    2.53    0.65
   4  -5   4    1.65    0.51
  -4  -5  -4    0.99    0.60
  -4  -5  -4    1.49    0.77
   4  -5   4    1.49    0.49
  -4  -5  -4    1.88    0.76
  -4  -5  -4    1.68    0.59
  -4   5  -4    1.32    0.57
  -4   5  -4    1.85    1.25
   4   5   4    2.43    0.54
  -4   5  -4    1.22    0.57
  -4   5  -4    1.68    1.00
   4   5   4    0.96    0.51
  -4   5  -4    1.84    0.59
  -4   5  -4    1.90    0.82
  -4   5  -4    1.86    1.16
   5  -5   4    0.32    0.53
  -5  -5  -4    0.12    0.47
  -5  -5  -4    0.15    0.64
  -5  -5  -4    0.45    0.58
  -5  -5  -4    0.21    0.66
  -5  -5  -4   -0.09    0.49
  -5  -5  -4   -0.26    0.56
  -5   5  -4   -1.34    1.00
  -5   5  -4    0.97    0.53
  -5   5  -4    1.06    0.60
  -5   5  -4   -0.26    0.67
  -5   5  -4    1.08    1.18
   5   5   4    0.46    0.68
   5   5   4    0.24    0.53
  -5   5  -4    1.08    0.59
   5   5   4    0.35    0.40
  -6  -5  -4   -0.15    0.73
  -6  -5  -4    0.06    0.36
   6   5   4    0.68    0.39
   6   5   4    2.16    0.76
  -6   5  -4    0.12    0.42
  -8  -6   4    5.00    0.70
   8  -6  -4    4.19    0.76
   8  -6  -4    3.45    0.66
  -8   6   4    4.43    0.62
   8   6  -4    2.50    0.64
   8   6  -4    3.69    0.60
  -7  -6   4   21.04    1.94
  -7  -6   4   23.44    2.05
   7  -6  -4   21.49    1.90
   7  -6  -4   19.07    1.39
   7   6  -4   20.98    1.50
   7   6  -4   20.70    1.60
  -7   6   4   20.59    1.93
   6  -6  -4    0.25    0.69
  -6  -6   4    1.40    0.71
   6  -6  -4   -0.02    0.71
   6   6  -4   -0.07    0.66
  -6   6   4    0.74    0.83
  -6   6   4    0.21    0.71
  -6   6   4    0.54    0.98
   6   6  -4    1.23    0.71
   5  -6  -4   -1.06    1.09
   5  -6  -4    0.02    1.07
  -5  -6   4    2.35    1.42
   5  -6  -4   -0.42    1.08
  -5  -6   4   -0.65    0.80
   5   6  -4   -0.86    1.45
   5   6  -4   -0.08    0.63
   5   6  -4    0.67    1.39
  -5   6   4    1.49    1.08
  -5   6   4    0.83    1.33
  -5   6   4    0.98    0.88
   4  -6  -4    7.42    1.37
   4  -6  -4    6.99    1.59
   4  -6  -4   13.30    2.38
  -4  -6   4    5.99    1.17
  -4  -6   4    9.12    1.16
   4  -6  -4    7.24    1.19
  -4  -6   4    8.55    0.86
  -4  -6   4   11.94    1.60
   4   6  -4    9.00    1.18
  -4   6   4   11.06    1.51
  -4   6   4    8.82    1.37
  -4   6   4    8.91    1.26
  -4   6   4    9.88    1.62
   4   6  -4   11.31    1.41
   4   6  -4    8.87    1.34
  -4   6   4    6.43    1.26
   4   6  -4    8.07    1.68
  -3  -6   4    0.94    0.42
  -3  -6   4    1.44    0.47
   3  -6  -4   -0.70    1.84
   3  -6  -4    1.78    0.74
   3  -6  -4    3.20    1.59
  -3  -6   4    0.97    0.41
   3  -6  -4    2.19    1.23
   3  -6  -4    1.00    1.22
   3  -6  -4    2.92    1.30
  -3  -6   4    1.88    0.63
  -3  -6   4    0.06    0.51
   3   6  -4    1.14    2.08
  -3   6   4    1.60    0.77
  -3   6   4    4.99    1.90
   3   6  -4    1.53    0.79
  -3   6   4    0.53    1.27
   3   6  -4    1.08    0.95
   3   6  -4    1.55    1.04
   3   6  -4    1.81    1.83
  -3   6   4    1.95    0.49
   3   6  -4    0.47    1.16
   3   6  -4    0.84    1.36
  -3   6   4    1.55    0.73
  -2  -6   4    7.99    0.78
  -2  -6   4    8.92    0.82
  -2  -6   4    7.16    0.82
   2  -6  -4    5.56    1.14
  -2  -6   4    7.98    0.65
   2  -6  -4    7.90    1.09
   2  -6  -4    5.77    1.10
  -2  -6   4    6.94    0.64
   2  -6  -4    7.27    1.55
   2  -6  -4    8.14    1.44
   2   6  -4    7.03    0.97
   2   6  -4    6.23    2.19
  -2   6   4    7.63    1.39
  -2   6   4    5.45    1.01
   2   6  -4    5.86    1.33
  -2   6   4    8.52    0.81
  -2   6   4    8.10    1.14
  -2   6   4    6.83    0.91
   2   6  -4    8.58    1.28
  -2   6   4    6.68    0.78
  -2   6   4    8.63    1.03
   2   6  -4    7.13    1.54
  -2   6   4    8.64    1.36
   2   6  -4    8.62    1.13
  -1  -6   4    3.17    0.48
   1  -6  -4    3.15    0.69
  -1  -6   4    3.78    0.59
  -1  -6   4    3.78    0.64
  -1  -6   4    3.40    0.42
  -1  -6   4    3.24    0.54
   1  -6  -4    1.48    0.93
   1  -6  -4    3.60    0.75
   1  -6  -4    2.99    0.95
   1  -6  -4    3.61    1.46
   1   6  -4    2.70    0.70
  -1   6   4    2.68    0.64
  -1   6   4    2.71    0.50
   1   6  -4    2.50    0.86
   1   6  -4    5.10    1.45
  -1   6   4    3.17    0.47
  -1   6   4    2.08    0.51
   1   6  -4    3.31    1.14
   1   6  -4    2.41    1.92
   1   6  -4    2.81    0.62
  -1   6   4    2.43    0.81
  -1   6   4    1.90    0.87
   0  -6  -4    1.46    1.03
   0  -6  -4   -0.75    1.19
   0  -6   4    1.06    0.97
   0  -6  -4    2.46    1.99
   0  -6   4    0.65    0.42
   0  -6  -4    3.27    0.83
   0  -6   4    1.32    0.35
   0  -6  -4    2.67    1.12
   0  -6   4    2.03    0.36
   0  -6  -4    2.33    0.74
   0  -6   4    1.35    0.30
   0  -6  -4    0.75    1.09
   0   6   4    0.83    0.81
   0   6  -4    2.10    0.80
   0   6   4    1.39    0.50
   0   6   4    1.84    0.40
   0   6   4    1.26    0.67
   0   6   4    1.53    0.45
   0   6  -4   -0.02    1.85
   1  -6   4   14.62    0.91
  -1  -6  -4   13.44    1.63
  -1  -6  -4   15.82    1.47
   1  -6   4   14.35    0.96
  -1  -6  -4   13.43    1.68
  -1  -6  -4   11.71    1.61
  -1  -6  -4   14.26    1.81
  -1  -6  -4   14.10    1.45
  -1  -6  -4   12.40    1.69
   1  -6   4   15.01    0.92
  -1   6  -4   10.85    1.57
  -1   6  -4   17.59    1.64
  -1   6  -4   12.59    2.05
  -1   6  -4   15.39    1.25
  -1   6  -4   13.56    1.26
   1   6   4   14.30    1.06
  -1   6  -4   14.38    2.26
  -1   6  -4   17.01    1.69
   1   6   4   15.52    1.10
  -1   6  -4   11.67    1.55
   1   6   4   14.16    0.95
   1   6   4   14.64    1.00
  -1   6  -4   12.21    1.37
   1   6   4   14.54    1.45
  -2  -6  -4    3.70    1.03
  -2  -6  -4    4.21    1.28
  -2  -6  -4    1.18    1.48
  -2  -6  -4    3.41    0.81
  -2  -6  -4    2.98    0.70
  -2  -6  -4    2.56    0.95
  -2  -6  -4    3.39    0.82
  -2  -6  -4    2.27    0.77
   2  -6   4    4.54    0.57
   2  -6   4    3.68    0.56
   2   6   4    3.41    0.58
  -2   6  -4    3.06    0.68
  -2   6  -4    3.15    0.91
   2   6   4    2.93    0.52
  -2   6  -4    3.45    0.78
  -2   6  -4    3.32    1.08
  -2   6  -4    3.52    0.69
  -2   6  -4    1.50    1.54
  -2   6  -4    2.01    1.33
   2   6   4    3.13    1.03
  -2   6  -4    2.35    0.77
   2   6   4    1.50    0.61
   2   6   4    2.96    0.46
  -2   6  -4    3.35    1.30
  -3  -6  -4    6.15    1.30
  -3  -6  -4    6.09    1.13
   3  -6   4    6.58    0.77
   3  -6   4    5.73    0.92
  -3  -6  -4    5.94    1.02
   3  -6   4    7.15    0.75
  -3  -6  -4    8.26    1.40
  -3  -6  -4    6.15    1.07
  -3  -6  -4    4.45    1.49
  -3  -6  -4    2.66    1.40
  -3   6  -4    6.04    0.91
   3   6   4    5.07    0.78
  -3   6  -4    7.41    1.00
   3   6   4    5.75    0.78
  -3   6  -4    6.11    0.94
   3   6   4    6.62    0.77
   3   6   4    7.76    1.61
  -3   6  -4    5.25    0.79
   3   6   4    4.79    1.02
  -3   6  -4    3.26    1.24
  -3   6  -4    7.31    1.11
   4  -6   4    0.51    0.60
  -4  -6  -4    2.54    0.58
  -4  -6  -4    1.69    0.54
  -4  -6  -4    1.49    0.65
  -4  -6  -4    2.12    0.64
   4  -6   4    2.69    0.80
  -4  -6  -4    1.68    0.75
   4   6   4    1.59    0.45
   4   6   4    0.68    0.62
   4   6   4    1.85    0.77
  -4   6  -4    1.61    0.73
  -4   6  -4    1.84    0.55
  -4   6  -4    1.05    0.56
  -4   6  -4    0.34    1.42
  -4   6  -4    0.79    1.25
  -4   6  -4    1.45    1.47
  -4   6  -4    2.13    0.55
  -5  -6  -4   11.65    1.38
   5  -6   4   11.67    0.91
  -5  -6  -4   13.15    1.26
  -5  -6  -4   12.10    1.00
  -5  -6  -4   12.53    1.00
   5   6   4   11.10    0.85
  -5   6  -4   12.68    1.05
  -5   6  -4    8.48    1.80
   5   6   4   13.30    1.28
  -5   6  -4   12.05    1.01
  -5   6  -4   10.66    1.13
  -5   6  -4   13.04    1.14
  -8  -7   4    0.67    0.40
   8  -7  -4   -0.28    0.44
   8   7  -4    0.52    0.31
  -8   7   4    0.35    0.22
   7  -7  -4    4.15    0.81
  -7  -7   4    3.57    0.60
   7   7  -4    3.96    0.55
  -7   7   4    3.35    0.60
   6  -7  -4   -0.67    0.61
  -6  -7   4    0.54    0.65
   6   7  -4    0.76    0.54
  -6   7   4    1.23    0.70
  -6   7   4    0.65    0.84
   6   7  -4   -0.27    0.67
  -6   7   4   -0.33    0.64
   5  -7  -4   -0.21    1.24
   5  -7  -4   -1.68    1.32
   5  -7  -4   -1.00    0.75
  -5  -7   4    0.63    0.88
  -5  -7   4   -0.21    1.56
  -5   7   4   -0.79    0.72
   5   7  -4    0.43    0.63
   5   7  -4    0.91    0.71
   5   7  -4    0.69    0.83
  -5   7   4    0.68    0.85
  -5   7   4   -0.05    0.86
   4  -7  -4    1.31    1.50
   4  -7  -4    3.69    1.15
  -4  -7   4    7.89    1.33
   4  -7  -4    4.50    0.95
   4   7  -4    4.76    0.82
  -4   7   4    3.27    1.20
  -4   7   4    7.33    1.66
   4   7  -4    4.41    1.40
  -4   7   4    5.02    1.38
  -3  -7   4    9.42    0.88
  -3  -7   4   12.32    2.08
   3  -7  -4   10.46    1.55
   3  -7  -4   11.58    1.91
  -3  -7   4    9.99    1.09
  -3  -7   4   11.27    1.27
   3  -7  -4    9.90    1.53
  -3  -7   4   10.76    1.24
   3  -7  -4    8.21    1.38
   3  -7  -4    8.71    1.47
   3   7  -4   10.90    1.14
   3   7  -4   13.05    1.97
   3   7  -4    7.58    1.82
   3   7  -4   11.59    1.44
  -3   7   4   11.58    1.30
   3   7  -4    6.80    1.65
   3   7  -4    9.22    1.49
  -3   7   4   10.53    1.59
  -3   7   4   14.22    2.10
  -3   7   4   11.30    1.34
  -2  -7   4    3.01    0.46
  -2  -7   4    4.31    0.81
   2  -7  -4    2.79    1.22
  -2  -7   4    3.94    0.69
  -2  -7   4    2.64    0.45
  -2  -7   4    4.21    0.66
   2  -7  -4    3.32    0.89
  -2  -7   4    3.73    0.94
   2  -7  -4    3.21    1.00
   2  -7  -4    1.23    1.66
   2  -7  -4    2.91    0.88
   2   7  -4    5.28    0.92
  -2   7   4    1.80    0.84
   2   7  -4    3.29    0.88
   2   7  -4    3.12    0.67
  -2   7   4    2.84    0.97
   2   7  -4    0.49    1.68
   2   7  -4    2.56    0.78
   2   7  -4    3.29    1.49
  -2   7   4    2.76    0.53
   2   7  -4    3.31    1.51
  -2   7   4    1.89    0.74
   2   7  -4    2.19    0.89
  -2   7   4    3.93    1.17
  -1  -7   4    4.28    0.58
   1  -7  -4    5.12    1.04
  -1  -7   4    4.61    0.79
  -1  -7   4    3.54    0.75
   1  -7  -4    5.22    1.07
   1  -7  -4    4.42    0.97
  -1  -7   4    5.76    0.71
   1  -7  -4    3.02    1.46
   1  -7  -4    4.73    1.14
   1  -7  -4    5.12    1.40
  -1  -7   4    4.85    0.58
  -1   7   4    4.63    0.86
  -1   7   4    3.26    0.81
   1   7  -4    3.89    0.84
   1   7  -4    1.83    1.53
  -1   7   4    4.49    1.02
   1   7  -4    5.37    0.92
   1   7  -4    5.00    1.03
  -1   7   4    6.17    0.75
  -1   7   4    6.06    0.81
   1   7  -4    4.11    0.77
   1   7  -4    5.32    1.42
   1   7  -4    5.35    1.77
  -1   7   4    6.23    0.70
   0  -7   4    0.78    0.48
   0  -7   4    0.52    0.47
   0  -7  -4    0.91    0.75
   0  -7  -4    0.82    0.93
   0  -7  -4   -0.63    1.04
   0  -7   4   -0.36    0.72
   0  -7  -4    0.78    1.06
   0  -7   4    0.09    0.33
   0  -7   4    0.26    0.36
   0  -7  -4   -1.61    1.14
   0  -7  -4   -0.02    1.59
   0  -7  -4   -0.51    0.92
   0  -7  -4   -0.98    1.27
   0   7  -4   -0.04    0.71
   0   7  -4    1.30    0.84
   0   7   4   -0.24    0.93
   0   7   4   -0.19    0.40
   0   7  -4    1.63    2.01
   0   7  -4   -0.49    0.79
   0   7  -4   -0.44    0.64
   0   7   4    1.00    0.78
   0   7   4   -0.06    0.52
   0   7   4    0.62    1.16
   0   7  -4    0.77    1.20
   0   7   4    0.13    0.48
   0   7  -4    0.97    1.05
   0   7  -4   -0.84    1.39
   0   7  -4   -0.15    0.69
  -1  -7  -4    1.37    0.77
  -1  -7  -4    0.79    0.84
  -1  -7  -4   -0.84    0.88
   1  -7   4   -0.32    0.48
   1  -7   4   -0.68    0.35
  -1  -7  -4   -0.49    0.92
   1  -7   4    0.33    0.51
   1  -7   4   -0.24    0.64
  -1  -7  -4   -0.62    0.66
  -1  -7  -4   -1.19    1.34
  -1  -7  -4    2.49    0.93
   1  -7   4    0.29    0.52
  -1   7  -4    0.29    0.76
  -1   7  -4    0.87    0.69
  -1   7  -4    0.67    1.28
  -1   7  -4   -1.07    1.13
   1   7   4   -0.55    0.72
   1   7   4    0.03    0.54
   1   7   4   -0.12    1.17
  -1   7  -4    0.46    0.58
   1   7   4    0.44    0.83
  -1   7  -4    0.40    0.89
  -1   7  -4    0.86    0.72
  -1   7  -4   -0.25    1.30
   1   7   4    0.54    0.49
   1   7   4   -0.34    0.42
  -2  -7  -4    2.19    0.76
  -2  -7  -4    0.43    0.73
  -2  -7  -4    2.03    1.81
   2  -7   4    1.09    0.53
   2  -7   4    1.21    0.53
  -2  -7  -4    1.00    0.65
  -2  -7  -4    0.19    0.85
  -2  -7  -4   -0.08    0.71
   2  -7   4    1.70    0.76
   2  -7   4    1.04    0.62
  -2  -7  -4    1.17    1.10
  -2   7  -4    2.23    1.34
  -2   7  -4    2.36    1.20
  -2   7  -4    1.67    0.61
  -2   7  -4    1.33    0.55
  -2   7  -4    1.20    0.67
  -2   7  -4    2.68    3.10
   2   7   4    0.19    0.79
   2   7   4    0.97    0.58
  -2   7  -4   -0.50    1.03
  -2   7  -4    0.82    1.01
   2   7   4    0.76    1.40
   2   7   4    0.03    0.77
   2   7   4    1.16    0.45
  -2   7  -4    0.89    0.71
   2   7   4    0.19    1.76
  -3  -7  -4    0.96    0.78
   3  -7   4    1.35    0.54
  -3  -7  -4    0.56    0.59
  -3  -7  -4   -1.00    1.22
  -3  -7  -4    1.89    0.57
   3  -7   4    1.06    0.49
   3  -7   4    1.28    0.50
   3   7   4    0.79    0.46
  -3   7  -4    1.27    0.62
  -3   7  -4    2.43    0.85
   3   7   4    1.37    0.67
   3   7   4    0.72    0.61
   3   7   4   -1.22    1.43
  -3   7  -4    1.06    0.50
  -3   7  -4    1.14    0.56
  -3   7  -4    1.97    0.71
   3   7   4    2.25    0.61
  -4  -7  -4    6.98    1.15
   4  -7   4    6.23    0.75
  -4  -7  -4    4.88    0.88
  -4  -7  -4    5.26    1.00
   4  -7   4    3.72    0.67
  -4  -7  -4    7.43    1.18
  -4  -7  -4    5.91    0.83
   4   7   4    5.37    0.68
  -4   7  -4    5.43    0.81
  -4   7  -4    4.97    0.87
  -4   7  -4    4.98    0.84
  -4   7  -4    5.09    0.91
   4   7   4    5.84    1.21
   4   7   4    5.58    0.99
   4   7   4    5.29    0.88
  -4   7  -4    3.92    0.81
  -5  -7  -4    0.66    0.44
  -5  -7  -4    0.64    0.54
   5  -7   4    0.30    0.71
  -5  -7  -4    0.59    0.49
  -5  -7  -4    2.47    0.80
  -5   7  -4    1.43    0.52
  -5   7  -4    0.51    0.52
  -5   7  -4    1.59    0.49
   5   7   4    0.86    0.41
   5   7   4   -0.80    0.99
  -5   7  -4    1.84    0.68
   5   7   4   -0.95    0.78
  -7  -8   4    1.71    0.46
   7  -8  -4    1.48    0.46
   7   8  -4    1.26    0.37
  -7   8   4    1.73    0.48
  -6  -8   4    0.38    1.24
   6  -8  -4    1.85    0.59
  -6  -8   4    1.88    0.65
  -6   8   4    2.34    0.66
  -6   8   4    2.57    0.76
   6   8  -4    2.17    0.53
   6   8  -4    2.07    0.72
   5  -8  -4    3.00    0.77
  -5  -8   4    1.42    0.99
   5  -8  -4    3.50    1.04
   5  -8  -4    3.34    1.09
  -5  -8   4    3.98    0.87
   5   8  -4    3.38    0.64
  -5   8   4    4.14    0.75
  -5   8   4    2.08    0.83
   5   8  -4    2.69    0.78
  -5   8   4    3.12    0.74
   4  -8  -4    6.82    1.35
   4  -8  -4    9.21    1.75
  -4  -8   4    8.81    1.65
  -4  -8   4    5.96    0.97
   4  -8  -4    7.15    1.64
   4   8  -4    6.63    1.03
  -4   8   4    8.32    1.35
  -4   8   4    7.37    1.06
  -4   8   4    9.42    1.72
   4   8  -4    6.78    1.20
   4   8  -4    7.46    1.25
   4   8  -4    5.08    1.34
   3  -8  -4   -0.41    1.10
   3  -8  -4    1.19    1.06
  -3  -8   4    0.99    0.42
   3  -8  -4    0.39    0.87
  -3  -8   4    2.73    2.57
   3  -8  -4    0.70    1.19
  -3  -8   4    0.76    0.93
  -3  -8   4    0.32    0.54
   3   8  -4    0.47    1.24
  -3   8   4   -0.04    0.87
   3   8  -4    1.12    1.28
  -3   8   4    2.91    0.86
  -3   8   4    0.73    1.03
   3   8  -4    1.09    0.68
   3   8  -4   -0.15    1.08
   3   8  -4    0.37    1.39
   3   8  -4    0.67    0.81
  -3   8   4    2.53    1.16
   3   8  -4    2.85    1.41
   3   8  -4    0.23    0.70
  -2  -8   4   15.60    1.53
   2  -8  -4   18.15    2.42
   2  -8  -4   14.37    1.76
  -2  -8   4   15.98    1.49
  -2  -8   4   15.93    1.23
  -2  -8   4   16.35    1.23
  -2  -8   4   16.60    1.07
   2   8  -4   14.70    1.96
   2   8  -4   15.32    1.45
  -2   8   4   14.11    1.74
  -2   8   4   13.06    1.80
  -2   8   4   13.92    1.96
   2   8  -4   16.01    2.00
   2   8  -4   15.26    3.47
  -2   8   4   18.07    2.02
   2   8  -4   15.14    2.02
   1  -8  -4   -0.13    0.96
   1  -8  -4    0.89    1.92
  -1  -8   4    0.89    0.78
  -1  -8   4    0.28    0.72
  -1  -8   4    0.26    0.48
  -1  -8   4   -0.30    0.53
   1  -8  -4    1.31    1.06
  -1  -8   4    1.40    0.42
  -1   8   4    0.67    0.50
   1   8  -4    2.46    2.09
  -1   8   4    0.61    0.95
  -1   8   4   -0.04    0.82
  -1   8   4    0.41    1.03
   1   8  -4    0.17    0.91
   1   8  -4    0.21    1.29
   1   8  -4   -0.41    0.67
   1   8  -4    1.99    1.15
   1   8  -4   -0.65    0.96
   0  -8   4   10.04    0.86
   0  -8  -4   10.28    1.40
   0  -8  -4    9.91    1.67
   0  -8  -4    9.65    1.65
   0  -8   4    9.14    1.14
   0  -8   4    9.60    0.84
   0  -8  -4    7.93    1.30
   0  -8  -4    8.04    1.43
   0  -8   4    9.45    0.82
   0  -8  -4   12.04    1.79
   0  -8  -4    8.57    1.33
   0  -8   4    9.67    2.03
   0   8   4    8.44    1.20
   0   8  -4    9.60    1.71
   0   8   4    9.90    0.87
   0   8  -4    6.75    1.26
   0   8  -4    9.75    1.49
   0   8   4    5.45    1.38
   0   8  -4    6.46    1.86
   0   8  -4    8.82    1.12
   0   8   4    9.33    1.28
   0   8  -4    8.29    1.36
   0   8  -4    9.66    1.13
   0   8  -4    8.34    1.33
   0   8  -4    7.91    1.18
  -1  -8  -4   50.37    2.88
  -1  -8  -4   57.83    3.93
   1  -8   4   46.30    2.73
  -1  -8  -4   45.92    3.11
   1  -8   4   48.03    2.64
  -1  -8  -4   48.10    3.26
   1  -8   4   53.26    2.66
   1  -8   4   54.54    3.62
  -1  -8  -4   44.23    2.98
  -1  -8  -4   51.26    3.04
   1  -8   4   46.17    2.94
  -1   8  -4   48.95    2.98
   1   8   4   49.68    2.64
  -1   8  -4   50.31    2.81
  -1   8  -4   45.37    3.02
   1   8   4   45.61    3.48
   1   8   4   48.52    2.80
   1   8   4   50.71    2.78
  -1   8  -4   50.74    3.17
  -1   8  -4   53.16    2.84
  -1   8  -4   51.23    3.54
  -1   8  -4   49.62    3.17
   1   8   4   50.99    2.87
  -1   8  -4   55.65    2.90
   2  -8   4    2.16    0.52
   2  -8   4    2.32    0.49
  -2  -8  -4    2.72    0.71
  -2  -8  -4    2.49    0.84
   2   8   4    0.34    0.71
  -2   8  -4    2.11    0.54
   2   8   4    4.41    1.69
  -2   8  -4    1.78    0.84
   2   8   4    3.66    1.14
   2   8   4    1.62    0.64
  -2   8  -4    2.07    1.09
  -2   8  -4    2.75    0.72
   3  -8   4    8.07    0.86
   3  -8   4    9.45    0.85
  -3  -8  -4    8.60    1.06
   3   8   4   10.38    1.24
  -3   8  -4   10.53    1.52
  -3   8  -4   11.05    1.69
   3   8   4    9.02    0.82
  -3   8  -4   11.13    1.06
   3   8   4   12.17    1.55
   3   8   4   10.47    1.61
  -4  -8  -4    4.15    0.79
   4  -8   4    3.70    0.62
  -4  -8  -4    4.27    0.83
  -4  -8  -4    4.11    0.80
   4   8   4    4.59    0.76
  -4   8  -4    4.67    0.68
  -4   8  -4    2.75    0.66
  -4   8  -4    4.95    0.92
  -4   8  -4    5.44    0.85
   4   8   4    3.65    0.98
   4   8   4    7.82    1.56
   4   8   4    4.79    0.64
  -4   8  -4    5.11    0.75
   6  -9  -4   10.64    0.88
  -6  -9   4   11.30    1.08
  -6   9   4    8.69    1.40
  -6   9   4   12.20    1.19
  -6   9   4   10.36    0.96
   6   9  -4    8.01    1.55
   6   9  -4    9.88    0.89
   5  -9  -4    2.40    0.85
  -5  -9   4    2.52    0.95
  -5  -9   4    2.02    0.82
   5  -9  -4    2.09    0.67
  -5   9   4    1.76    0.60
  -5   9   4    1.35    0.71
   5   9  -4    1.89    0.78
   5   9  -4    1.34    0.54
  -5   9   4    3.40    0.73
  -4  -9   4    0.94    0.84
   4  -9  -4    0.92    0.88
   4  -9  -4    0.48    0.88
   4  -9  -4   -0.18    0.75
  -4  -9   4   -0.98    1.24
  -4   9   4   -0.48    0.68
  -4   9   4   -0.06    0.67
   4   9  -4    0.79    0.79
   4   9  -4    0.96    0.59
  -4   9   4   -0.29    0.73
  -3  -9   4    5.95    0.88
   3  -9  -4    7.17    1.48
  -3  -9   4    7.38    1.52
  -3   9   4    4.35    0.93
   3   9  -4    6.17    0.80
   3   9  -4    7.29    0.94
  -3   9   4    7.15    1.36
   3   9  -4    4.97    1.27
   2  -9  -4   12.27    1.60
   2  -9  -4    9.06    1.63
  -2  -9   4    9.13    1.22
  -2  -9   4    8.02    1.09
   2   9  -4    9.83    1.39
   2   9  -4   11.77    2.00
   2   9  -4    8.20    1.27
  -2   9   4   13.39    1.67
   2   9  -4   10.68    1.20
  -2   9   4   11.42    1.31
   2   9  -4    6.90    1.29
  -1  -9   4    1.99    0.70
   1  -9  -4   -0.27    1.12
   1  -9  -4    1.01    1.16
   1  -9  -4    0.68    0.78
  -1  -9   4    0.72    0.70
  -1  -9   4    0.02    0.54
   1   9  -4    0.97    1.28
  -1   9   4    0.72    0.55
   1   9  -4    1.14    0.65
  -1   9   4    0.31    0.85
   1   9  -4    2.04    1.07
   1   9  -4    1.10    0.67
   1   9  -4   -0.11    0.79
   1   9  -4   -0.73    0.97
   0  -9  -4    6.46    1.17
   0  -9  -4    5.21    0.89
   0  -9  -4    7.62    1.21
   0  -9  -4    8.09    1.51
   0  -9   4    6.18    1.12
   0  -9   4    7.11    0.93
   0  -9   4    5.09    0.90
   0   9  -4    5.16    1.10
   0   9  -4    5.95    0.97
   0   9   4    9.01    2.01
   0   9  -4    3.97    1.14
   0   9  -4    3.53    0.81
   0   9   4    5.17    0.71
   0   9   4    8.29    1.62
   0   9  -4    5.92    1.10
  -1  -9  -4    7.84    1.64
   1  -9   4    7.69    0.95
   1  -9   4   10.09    0.92
  -1  -9  -4    9.67    1.51
   1  -9   4    7.45    1.18
  -1  -9  -4    6.76    1.22
   1  -9   4    9.23    0.82
  -1   9  -4   10.24    1.15
  -1   9  -4    7.89    1.59
   1   9   4   11.08    1.95
  -1   9  -4    7.74    1.15
  -1   9  -4   10.14    1.23
  -1   9  -4    9.18    0.96
  -1   9  -4    6.88    1.01
   1   9   4    8.04    1.05
   2  -9   4    2.12    0.97
   2  -9   4    1.49    0.43
   2  -9   4    1.62    0.56
   2  -9   4    1.99    0.58
  -2  -9  -4    2.29    0.64
  -2  -9  -4    1.83    0.79
   2   9   4    2.57    0.96
  -2   9  -4    1.27    1.00
   2   9   4    0.76    0.47
  -2   9  -4    1.20    0.58
  -2   9  -4    2.63    0.63
  -2   9  -4    2.15    0.70
   3  -9   4    0.73    0.37
   3  -9   4    1.13    0.58
   3  -9   4    0.37    0.60
  -3  -9  -4    0.78    0.66
  -3  -9  -4    1.16    0.69
  -3  -9  -4    0.84    1.03
  -3  -9  -4    0.64    0.59
  -3   9  -4    0.24    0.57
   3   9   4    1.28    1.09
   3   9   4    0.00    0.51
  -3   9  -4    0.08    0.45
  -3   9  -4    0.44    0.58
   3   9   4    0.79    0.41
  -3   9  -4    0.40    0.69
  -3   9  -4    1.10    0.41
   4  -9   4    7.95    0.85
  -4  -9  -4    5.84    0.72
   4   9   4    7.85    0.73
  -4   9  -4    6.29    0.82
  -4   9  -4    6.75    0.66
  -4   9  -4    5.97    0.83
  -4   9  -4    7.10    0.65
   5 -10  -4    0.74    0.61
   5 -10  -4    2.22    1.04
   5 -10  -4   -0.14    1.15
  -5 -10   4    0.23    0.93
  -5 -10   4    0.64    0.73
  -5  10   4   -0.09    0.63
  -5  10   4    0.33    0.48
  -5  10   4    1.50    0.69
   5  10  -4   -0.21    0.42
  -4 -10   4    1.27    0.75
   4 -10  -4    0.94    0.70
   4 -10  -4    1.64    0.72
   4 -10  -4    0.18    0.77
   4  10  -4    0.10    0.49
  -4  10   4    1.23    0.77
   4  10  -4    3.80    1.01
   4  10  -4    0.21    0.67
  -3 -10   4   -0.35    1.10
  -3 -10   4    1.46    0.58
   3 -10  -4    0.35    0.83
   3  10  -4   -0.14    0.90
   3  10  -4    2.60    0.85
   3  10  -4   -0.32    0.76
  -3  10   4   -0.91    0.79
  -3  10   4   -0.41    0.70
   3  10  -4    0.34    1.08
  -3  10   4   -0.24    0.93
  -2 -10   4    1.31    0.90
   2 -10  -4    1.91    0.93
  -2 -10   4    0.95    0.55
  -2 -10   4    0.32    1.28
   2 -10  -4    0.70    0.85
   2 -10  -4    1.47    1.44
  -2 -10   4    0.21    0.42
   2  10  -4    0.24    0.59
   2  10  -4    0.56    1.26
   2  10  -4    0.79    1.20
  -2  10   4    0.58    0.73
   2  10  -4    1.22    1.13
  -2  10   4    1.16    0.82
   2  10  -4    1.52    0.80
  -2  10   4   -0.55    0.93
   1 -10  -4    3.75    1.29
  -1 -10   4    5.52    1.30
  -1 -10   4    3.02    0.51
  -1 -10   4    4.45    0.89
   1 -10  -4    4.51    0.99
  -1  10   4    5.40    0.94
   1  10  -4    1.86    0.77
   1  10  -4    1.94    1.02
   1  10  -4    3.26    0.95
   1  10  -4    3.54    0.91
   1  10  -4    3.45    0.68
   0 -10   4    0.47    0.39
   0 -10   4    1.07    0.80
   0 -10  -4    1.94    1.25
   0 -10   4    0.89    0.75
   0 -10  -4    1.43    0.80
   0  10   4    0.77    0.93
   0  10  -4    0.88    0.75
   0  10  -4    0.14    0.58
   0  10   4    0.07    0.48
   0  10  -4   -0.43    0.68
   0  10  -4    0.74    0.88
   0  10   4    0.14    1.19
   0  10  -4   -0.08    0.70
   0  10  -4    0.01    1.10
  -1 -10  -4    3.41    0.97
   1 -10   4    2.58    0.45
   1 -10   4    3.19    0.85
  -1 -10  -4    1.44    0.81
  -1 -10  -4    3.46    0.94
   1 -10   4    2.45    0.72
  -1  10  -4    3.31    0.75
   1  10   4    3.25    0.75
  -1  10  -4    3.07    0.88
  -1  10  -4    3.77    0.60
   1  10   4    3.99    0.74
   1  10   4    3.94    1.05
  -1  10  -4    4.66    0.76
  -1  10  -4    3.45    0.70
  -1  10  -4    2.37    0.51
  -2 -10  -4    1.08    0.76
   2 -10   4   -0.32    0.93
  -2 -10  -4    3.17    0.90
   2 -10   4    1.69    0.36
   2 -10   4   -0.08    0.98
   2 -10   4    0.93    0.52
  -2  10  -4    0.86    0.58
  -2  10  -4    0.82    0.60
   2  10   4    3.08    0.97
  -2  10  -4    1.36    0.47
  -2  10  -4    2.66    0.66
  -2  10  -4    1.84    0.52
   2  10   4    0.34    0.63
   2  10   4    1.95    0.42
   3 -10   4    1.51    0.43
  -3 -10  -4    3.64    0.62
  -3 -10  -4    2.65    0.83
   3  10   4    3.16    0.67
  -3  10  -4    3.44    0.55
  -3  10  -4    1.73    0.46
  -3  10  -4    2.21    0.43
   4 -11  -4    1.07    0.75
  -4 -11   4    0.52    0.69
   4 -11  -4    1.87    0.84
  -4  11   4    0.29    0.69
  -4  11   4    1.24    0.55
  -3 -11   4   -0.18    0.71
   3 -11  -4    1.52    0.78
   3 -11  -4    1.55    0.63
  -3  11   4   -0.04    0.55
   3  11  -4    1.44    1.04
   3  11  -4    0.49    0.51
  -3  11   4   -0.83    0.70
   2 -11  -4    4.69    1.05
  -2 -11   4    1.72    0.96
  -2 -11   4    2.31    0.88
   2  11  -4    0.94    1.67
   2  11  -4    2.20    0.66
  -2  11   4    2.80    0.63
  -2  11   4    3.48    0.95
  -1 -11   4    6.56    1.30
  -1 -11   4    6.34    1.10
  -1  11   4    6.18    0.98
  -1  11   4    4.94    1.40
   1  11  -4    4.37    0.76
   1  11  -4    7.27    1.32
   1  11  -4    6.63    1.30
   1  11  -4    5.83    0.85
   0 -11   4   -0.39    0.74
   0 -11   4    0.39    0.45
   0 -11  -4    2.36    1.64
   0 -11  -4    1.09    0.89
   0  11  -4   -0.14    0.83
   0  11  -4    0.64    0.53
   0  11  -4   -0.99    0.72
   0  11  -4   -0.81    0.58
   0  11   4   -0.17    0.90
   0  11   4   -0.91    0.59
   0  11  -4    0.71    0.81
   0  11  -4   -1.06    0.70
  -1 -11  -4    1.55    0.74
   1 -11   4    1.15    0.36
   1 -11   4    0.88    0.73
   1 -11   4    1.49    0.70
  -1  11  -4    1.14    0.47
   1  11   4    3.05    1.08
  -1  11  -4    0.22    0.62
  -1  11  -4    1.81    0.52
   2 -12  -4    6.00    0.87
   2  12  -4    6.83    0.64
  -2  12   4    6.13    0.79
  -1  12   4    0.65    0.50
   1  12  -4    0.79    0.42
  -9   0   5    3.53    0.66
   9   0  -5    3.96    0.61
   9   0  -5    3.56    0.49
  -8   0   5    0.58    0.51
   8   0  -5    0.51    0.60
   8   0  -5    0.33    0.40
  -7   0   5   10.28    1.31
   7   0  -5    9.92    1.04
   7   0  -5    7.82    1.44
   7   0  -5   10.12    1.88
   7   0  -5   10.06    1.17
  -6   0   5    0.08    0.88
   6   0  -5    1.10    0.68
  -6   0   5    0.45    0.68
  -6   0   5   -0.11    1.08
   6   0  -5   -0.37    1.30
   6   0  -5    1.55    0.80
   6   0  -5    0.82    0.73
   6   0  -5    0.11    1.13
   5   0  -5    7.74    1.13
  -5   0   5    7.15    0.94
   5   0  -5    5.61    1.12
  -5   0   5    6.88    0.82
   5   0  -5    8.69    1.30
  -5   0   5    7.03    1.13
   5   0  -5    7.76    1.21
  -5   0   5    5.72    0.77
  -5   0   5   10.15    1.59
  -4   0   5    0.45    0.32
   4   0  -5    0.33    0.48
  -4   0   5   -0.03    0.36
  -4   0   5    0.16    0.33
  -4   0   5   -0.08    0.45
   4   0  -5   -0.14    1.23
  -4   0   5   -0.37    0.40
  -4   0   5    0.47    0.35
  -4   0   5    0.23    0.38
   4   0  -5    0.81    0.93
  -3   0   5    2.19    0.41
   3   0  -5    1.77    0.46
  -3   0   5    1.88    0.29
  -3   0   5    2.18    0.35
  -3   0   5    2.21    0.38
   3   0  -5    2.65    0.56
   3   0  -5    1.70    0.90
   2   0  -5    0.04    0.34
   2   0  -5   -0.14    0.41
  -2   0   5    0.08    0.19
  -2   0   5   -0.08    0.19
  -2   0   5    0.69    0.34
  -2   0   5    0.37    0.28
  -1   0   5  231.86   10.40
  -1   0   5  182.53   10.50
  -1   0   5  224.90   10.37
  -1   0   5  206.53   10.66
   1   0  -5  211.06   10.61
   1   0  -5  208.95   10.56
   0   0  -5   -0.26    1.49
   0   0  -5    0.45    0.44
   0   0  -5   -0.01    0.43
   0   0   5    0.27    0.15
   0   0   5    0.06    0.33
  -1   0  -5  118.29    6.10
  -1   0  -5  124.51    6.08
  -1   0  -5  108.22    6.07
   1   0   5  119.06    6.01
  -1   0  -5  120.79    6.77
  -2   0  -5   -0.80    0.73
  -2   0  -5    0.22    0.80
   3   0   5   52.04    2.55
  -3   0  -5   48.94    3.13
  -3   0  -5   47.63    3.19
  -3   0  -5   50.55    3.45
  -3   0  -5   50.85    3.41
   3   0   5   50.85    2.58
  -4   0  -5   -0.36    1.08
  -4   0  -5   -0.46    0.90
  -4   0  -5    1.39    0.75
  -4   0  -5   -0.40    0.88
  -4   0  -5    0.00    0.64
   4   0   5    0.27    0.44
   5   0   5   12.05    1.05
  -5   0  -5   13.64    1.89
  -5   0  -5   15.56    1.28
  -5   0  -5   12.72    1.54
  -5   0  -5   15.20    1.30
  -6   0  -5    0.32    0.67
  -9  -1   5    0.47    0.38
   9  -1  -5    0.32    0.58
   9  -1  -5   -0.14    0.28
   9   1  -5    0.37    0.47
  -9   1   5    0.73    0.66
   9   1  -5    0.72    0.30
  -9   1   5    0.45    0.38
   8  -1  -5   17.73    1.21
   8  -1  -5   15.15    1.40
  -8  -1   5   17.37    1.37
  -8   1   5   20.30    1.67
  -8   1   5   16.45    1.38
   8   1  -5   18.76    1.20
   8   1  -5   18.15    1.36
   8   1  -5   19.78    1.32
   7  -1  -5    6.12    2.58
  -7  -1   5   11.07    1.81
  -7  -1   5   12.50    1.37
   7  -1  -5   12.74    1.16
   7  -1  -5   11.94    1.39
   7  -1  -5   12.59    1.32
   7   1  -5   13.88    2.12
  -7   1   5   13.10    1.42
  -7   1   5   13.65    1.86
   7   1  -5   12.41    1.13
   7   1  -5   12.08    1.21
  -7   1   5   12.91    1.38
  -6  -1   5   47.32    2.81
  -6  -1   5   45.96    2.99
  -6  -1   5   47.91    2.75
   6  -1  -5   46.00    2.77
   6  -1  -5   46.22    2.83
   6  -1  -5   44.13    3.09
   6  -1  -5   49.23    2.80
   6   1  -5   50.88    2.77
   6   1  -5   48.39    2.75
   6   1  -5   46.36    2.99
   6   1  -5   49.85    3.05
  -6   1   5   51.01    3.01
  -6   1   5   42.95    3.11
  -6   1   5   51.39    2.77
   6   1  -5   51.11    3.28
  -5  -1   5    8.58    0.88
   5  -1  -5   12.05    1.57
   5  -1  -5    9.80    1.44
  -5  -1   5    8.48    1.48
  -5  -1   5    8.43    0.85
  -5  -1   5    7.42    0.98
   5  -1  -5   10.35    1.56
   5  -1  -5    9.40    1.24
   5  -1  -5    9.46    1.60
   5   1  -5    8.20    1.16
  -5   1   5   11.08    1.47
  -5   1   5    9.40    0.85
  -5   1   5    9.73    0.94
   5   1  -5    7.28    1.19
  -5   1   5   10.29    1.12
  -5   1   5    7.48    1.10
   5   1  -5   10.08    1.29
   4  -1  -5   40.55    3.11
  -4  -1   5   50.81    2.62
  -4  -1   5   49.21    2.54
  -4  -1   5   49.99    2.54
  -4  -1   5   47.35    2.61
  -4  -1   5   48.59    2.59
   4  -1  -5   53.30    2.83
  -4   1   5   48.46    2.62
   4   1  -5   46.75    2.81
  -4   1   5   48.36    2.59
   4   1  -5   48.01    2.73
  -4   1   5   46.10    2.59
  -4   1   5   51.30    2.57
  -4   1   5   48.77    2.63
   4   1  -5   51.07    2.83
   3  -1  -5   56.80    3.14
  -3  -1   5   57.35    2.90
  -3  -1   5   58.45    3.00
   3  -1  -5   55.58    3.88
  -3  -1   5   56.85    2.93
  -3   1   5   57.09    2.90
   3   1  -5   56.96    3.38
   3   1  -5   57.30    3.07
  -3   1   5   56.55    2.99
  -3   1   5   54.91    2.99
  -3   1   5   62.01    3.20
   3   1  -5   55.78    3.15
  -3   1   5   55.37    2.93
  -2  -1   5   10.99    0.75
  -2  -1   5   11.55    0.80
  -2  -1   5   11.70    0.67
  -2  -1   5   10.78    0.68
  -2  -1   5   11.43    0.82
   2  -1  -5   12.01    0.96
   2  -1  -5   10.48    1.57
   2   1  -5    9.73    1.92
  -2   1   5   11.01    0.84
  -2   1   5   11.50    0.75
   2   1  -5   10.95    0.91
   2   1  -5   11.10    1.02
  -2   1   5   11.45    0.68
  -2   1   5   11.02    0.70
  -2   1   5   10.92    0.81
   1  -1  -5    9.46    0.83
  -1  -1   5    8.98    0.55
  -1  -1   5    9.03    0.71
   1  -1  -5    8.45    1.21
  -1  -1   5    8.97    0.53
  -1  -1   5    8.90    0.74
  -1   1   5    9.27    0.78
  -1   1   5    8.82    0.73
  -1   1   5    9.38    0.56
  -1   1   5    8.82    0.57
   1   1  -5    8.82    0.81
   0  -1   5    9.89    0.83
   0  -1   5   10.41    0.54
   0  -1   5   10.62    0.79
   0  -1  -5    8.79    1.02
   0  -1  -5    8.36    0.84
   0  -1  -5    8.88    0.87
   0   1   5   10.28    0.58
   0   1   5    9.42    0.57
   0   1   5    9.12    0.82
   0   1   5    9.66    0.85
   0   1  -5    9.55    0.93
   0   1  -5    9.85    0.89
  -1  -1  -5   11.55    1.20
  -1  -1  -5   17.83    2.16
  -1  -1  -5   13.74    1.12
  -1  -1  -5   12.61    1.26
   1  -1   5   13.26    1.12
  -1   1  -5   10.85    1.29
  -1   1  -5   11.73    1.05
  -1   1  -5   13.13    1.14
   1   1   5   13.92    0.73
   1   1   5   15.23    1.10
   1   1   5   13.25    1.16
  -1   1  -5    9.26    1.71
  -2  -1  -5    0.38    0.83
  -2  -1  -5    0.32    0.64
  -2  -1  -5    0.23    0.72
  -2  -1  -5    0.81    1.31
  -2  -1  -5    0.02    0.93
  -2   1  -5    0.34    1.36
   2   1   5    0.18    0.22
  -2   1  -5    0.34    0.83
   2   1   5    0.04    0.21
   3  -1   5    0.49    0.37
  -3  -1  -5   -0.35    0.69
  -3  -1  -5    0.75    1.80
  -3  -1  -5    0.62    1.42
  -3  -1  -5    0.77    0.95
  -3  -1  -5   -0.97    1.09
   3   1   5    0.20    0.36
  -3   1  -5   -0.58    1.07
  -3   1  -5    0.54    0.96
  -3   1  -5   -0.54    1.41
   3   1   5    0.19    0.27
   3   1   5    1.29    1.03
  -4  -1  -5    3.07    0.87
  -4  -1  -5    3.02    0.82
  -4  -1  -5    2.73    0.96
  -4  -1  -5    1.86    0.62
  -4   1  -5    2.87    0.92
   4   1   5    4.56    0.66
  -4   1  -5    3.60    1.10
  -4   1  -5    3.78    1.04
  -4   1  -5    3.47    0.84
  -5  -1  -5    0.82    0.75
   5  -1   5    1.34    0.63
  -5  -1  -5    0.38    0.77
  -5  -1  -5    0.64    0.73
  -5  -1  -5   -0.28    0.59
  -5  -1  -5   -0.46    0.67
   5   1   5    0.36    0.59
  -5   1  -5    0.53    0.86
  -5   1  -5    0.08    0.76
  -5   1  -5    1.14    0.79
  -5   1  -5    0.10    1.06
  -6  -1  -5    4.31    0.73
  -6  -1  -5    5.96    0.75
   9  -2  -5    1.09    0.31
  -9  -2   5    1.21    0.39
   9   2  -5    1.63    0.32
  -9   2   5    1.05    0.47
   9   2  -5    1.40    0.70
   9   2  -5    2.12    0.47
  -9   2   5    2.40    0.52
   8  -2  -5    0.56    0.69
   8  -2  -5    0.40    0.46
   8  -2  -5    0.95    0.72
  -8  -2   5   -0.58    0.71
  -8  -2   5    0.81    0.48
  -8   2   5    0.53    0.79
   8   2  -5   -0.13    0.51
  -8   2   5    1.50    0.76
   8   2  -5    0.21    0.47
   8   2  -5   -0.28    0.49
   7  -2  -5   15.69    1.30
  -7  -2   5   14.49    1.59
   7  -2  -5   13.54    1.26
  -7  -2   5   15.80    1.39
  -7  -2   5    9.79    1.77
   7   2  -5   11.61    1.39
  -7   2   5   15.04    1.49
   7   2  -5   13.77    1.17
   7   2  -5   14.43    1.25
  -7   2   5   13.20    1.37
   6  -2  -5    0.00    0.69
  -6  -2   5    0.57    0.94
   6  -2  -5    1.59    0.78
   6  -2  -5    1.99    1.25
   6  -2  -5   -0.10    1.19
  -6  -2   5    1.45    0.63
  -6  -2   5    0.13    0.75
  -6   2   5    2.18    1.05
  -6   2   5    0.48    0.94
   6   2  -5   -0.66    0.98
   6   2  -5    0.86    0.94
   6   2  -5    1.06    0.57
   6   2  -5    0.02    0.59
  -6   2   5    1.09    0.72
   6   2  -5    0.37    0.99
   5  -2  -5    0.95    1.02
   5  -2  -5    1.12    0.87
  -5  -2   5    1.80    1.66
  -5  -2   5    0.49    0.52
  -5  -2   5    0.23    0.48
   5  -2  -5   -0.26    1.20
   5   2  -5   -0.69    0.91
  -5   2   5    1.33    1.16
  -5   2   5   -0.19    0.70
   5   2  -5    0.55    0.77
   5   2  -5    1.35    1.16
  -5   2   5    0.26    0.45
   4  -2  -5    2.76    0.94
  -4  -2   5    1.79    0.47
  -4  -2   5    1.33    0.47
   4  -2  -5    1.64    0.64
  -4  -2   5    1.28    0.39
  -4  -2   5    1.89    0.41
  -4  -2   5    1.26    0.41
  -4  -2   5    1.68    0.47
   4   2  -5    0.96    0.60
   4   2  -5    2.07    0.64
  -4   2   5    2.75    0.49
  -4   2   5    2.58    0.48
   4   2  -5    1.88    0.69
   4   2  -5    1.70    0.97
  -4   2   5    1.46    0.47
  -4   2   5    2.22    0.44
  -4   2   5    2.40    0.47
  -3  -2   5   31.66    1.64
  -3  -2   5   30.65    1.67
   3  -2  -5   33.21    1.93
   3  -2  -5   28.34    2.17
  -3  -2   5   29.86    1.85
  -3  -2   5   31.84    1.67
  -3  -2   5   32.20    1.76
  -3  -2   5   31.04    1.73
   3   2  -5   31.46    2.39
  -3   2   5   29.29    1.78
  -3   2   5   31.36    1.79
   3   2  -5   26.14    2.75
  -3   2   5   30.63    1.68
  -3   2   5   30.81    1.69
   3   2  -5   32.17    1.94
  -3   2   5   30.20    1.95
   3   2  -5   33.12    1.86
  -3   2   5   30.64    1.65
  -2  -2   5    1.09    0.31
  -2  -2   5    0.78    0.22
  -2  -2   5    0.93    0.33
  -2  -2   5    0.97    0.21
   2  -2  -5    1.28    0.47
  -2   2   5    0.84    0.23
  -2   2   5    0.93    0.30
  -2   2   5    1.35    0.41
   2   2  -5    0.51    0.35
  -2   2   5    1.14    0.38
   2   2  -5    0.54    0.46
  -1  -2   5    2.51    0.52
   1  -2  -5    3.14    0.50
   1  -2  -5    2.53    0.51
   1  -2  -5    2.18    0.57
  -1  -2   5    2.22    0.30
  -1  -2   5    2.56    0.30
  -1   2   5    3.78    0.62
   1   2  -5    3.38    0.60
  -1   2   5    3.34    0.48
  -1   2   5    3.58    0.58
  -1   2   5    2.92    0.34
   0  -2  -5    2.36    0.51
   0  -2  -5    0.82    1.28
   0  -2   5    2.70    0.62
   0  -2  -5    2.40    0.58
   0  -2   5    2.58    0.27
   0  -2   5    2.32    0.40
   0   2  -5    2.24    0.62
   0   2   5    3.17    0.50
   0   2  -5   -0.35    1.16
   0   2   5    2.53    0.50
   0   2   5    2.54    0.29
   0   2  -5    1.49    0.47
   0   2  -5    1.13    0.80
  -1  -2  -5   -0.10    0.48
  -1  -2  -5    0.52    0.60
  -1  -2  -5    0.46    0.69
   1  -2   5    0.50    0.53
  -1  -2  -5    0.13    0.82
   1   2   5    0.00    0.59
  -1   2  -5    0.92    0.69
  -1   2  -5    0.00    0.87
  -1   2  -5    0.74    0.78
   1   2   5    0.28    0.20
  -1   2  -5    0.60    0.50
   1   2   5    0.12    0.20
  -2  -2  -5    9.20    1.52
  -2  -2  -5   10.77    1.71
  -2  -2  -5    9.82    1.18
  -2  -2  -5   10.82    1.47
  -2  -2  -5    8.77    1.31
  -2  -2  -5   10.58    1.37
  -2  -2  -5   11.36    1.88
  -2   2  -5   10.57    1.27
   2   2   5   10.82    0.65
   2   2   5   10.28    0.70
  -2   2  -5   11.17    1.33
  -3  -2  -5   11.26    1.36
  -3  -2  -5   11.14    1.28
  -3  -2  -5    9.58    1.69
  -3  -2  -5   11.56    1.81
  -3  -2  -5    9.49    1.70
  -3  -2  -5   10.99    1.52
   3  -2   5   11.04    0.82
   3   2   5   12.28    0.89
   3   2   5   11.76    1.54
   3   2   5   11.27    0.74
  -3   2  -5   11.46    1.76
  -3   2  -5    8.79    1.59
  -3   2  -5   13.07    2.03
  -4  -2  -5    6.12    0.86
  -4  -2  -5    5.69    0.91
  -4  -2  -5    6.47    0.98
   4  -2   5    5.82    0.80
   4   2   5    5.16    0.69
  -4   2  -5    7.17    1.25
  -4   2  -5    4.13    1.05
   4   2   5    5.36    0.69
  -4   2  -5    7.20    1.13
  -5  -2  -5    0.85    0.54
  -5  -2  -5    0.93    0.59
  -5  -2  -5    0.66    0.50
  -5  -2  -5    1.36    0.72
  -5  -2  -5    0.09    0.76
  -5   2  -5    0.92    0.76
   5   2   5   -0.01    0.80
  -5   2  -5    1.33    0.68
   5   2   5    1.34    0.60
  -5   2  -5    1.06    0.93
  -5   2  -5    3.23    1.08
   9  -3  -5    1.70    0.38
   9   3  -5    1.32    0.41
   9   3  -5    1.45    0.32
  -9   3   5    1.19    0.59
   9   3  -5    0.87    0.43
   8  -3  -5    2.58    0.48
  -8  -3   5    2.77    0.65
   8  -3  -5    4.22    0.69
  -8   3   5    2.82    0.69
   8   3  -5    4.91    0.88
   8   3  -5    2.65    0.52
   8   3  -5    4.03    0.66
   7  -3  -5    0.99    0.58
  -7  -3   5    1.14    0.75
   7  -3  -5    0.90    0.59
  -7  -3   5    0.60    0.66
  -7   3   5    0.49    0.83
   7   3  -5    0.22    0.57
  -7   3   5    0.48    0.61
   7   3  -5   -0.40    0.47
  -6  -3   5    6.18    1.11
  -6  -3   5    6.99    0.97
   6  -3  -5    7.26    1.03
   6  -3  -5    8.25    1.25
  -6  -3   5    6.80    1.39
  -6   3   5   11.11    2.02
   6   3  -5    3.78    0.90
   6   3  -5    4.71    0.76
   6   3  -5    5.20    1.04
  -6   3   5    7.90    1.14
  -5  -3   5    0.29    0.56
  -5  -3   5    0.38    0.47
  -5  -3   5    0.76    0.54
   5  -3  -5    0.14    0.99
   5  -3  -5    0.39    0.93
   5  -3  -5    0.95    1.23
  -5  -3   5   -0.52    1.25
   5  -3  -5    0.77    1.02
  -5  -3   5    0.28    0.72
  -5   3   5   -0.02    0.80
   5   3  -5   -0.80    0.60
   5   3  -5    2.24    1.19
   5   3  -5   -0.58    0.62
  -5   3   5    1.82    0.91
   5   3  -5    0.64    0.91
  -5   3   5    0.18    0.72
   5   3  -5   -0.09    0.92
   5   3  -5    1.70    1.29
  -5   3   5    0.00    0.49
  -4  -3   5   15.11    1.19
  -4  -3   5   15.52    1.11
   4  -3  -5   15.62    1.40
   4  -3  -5   15.30    1.72
  -4  -3   5   17.19    1.04
  -4  -3   5   15.60    1.20
  -4  -3   5   16.80    1.08
  -4  -3   5   16.31    1.13
   4   3  -5   13.99    1.26
   4   3  -5   18.48    1.86
  -4   3   5   16.87    1.09
   4   3  -5   14.65    1.37
  -4   3   5   16.18    1.38
  -4   3   5   14.95    1.25
   4   3  -5   16.32    1.40
  -4   3   5   16.58    1.21
  -4   3   5   15.83    1.11
  -4   3   5   15.76    1.09
  -3  -3   5    5.23    0.53
  -3  -3   5    4.86    0.57
   3  -3  -5    5.36    0.88
  -3  -3   5    4.93    0.64
   3  -3  -5    4.18    0.90
  -3  -3   5    6.26    0.52
  -3  -3   5    6.54    1.05
  -3  -3   5    4.85    0.66
   3   3  -5    6.92    0.86
  -3   3   5    3.56    0.63
   3   3  -5    5.28    0.93
  -3   3   5    5.69    0.73
  -3   3   5    5.24    0.61
   3   3  -5    5.60    0.85
  -3   3   5    4.99    0.56
   3   3  -5    3.97    0.89
  -3   3   5    5.58    0.75
  -3   3   5    5.55    0.57
  -2  -3   5   12.38    0.75
  -2  -3   5   11.29    0.99
   2  -3  -5   12.34    1.04
   2  -3  -5   10.36    1.41
  -2  -3   5   11.73    0.71
   2  -3  -5   12.25    1.08
  -2  -3   5   13.08    0.86
  -2  -3   5   11.13    0.88
   2   3  -5   12.14    1.16
   2   3  -5   11.65    1.00
  -2   3   5   12.64    0.79
  -2   3   5   12.11    0.99
   2   3  -5    8.98    1.24
   2   3  -5   10.70    1.10
  -2   3   5   12.43    0.76
  -2   3   5   11.29    0.93
  -2   3   5   12.29    0.80
  -1  -3   5   -0.09    0.19
   1  -3  -5    0.23    0.51
  -1  -3   5    0.12    0.19
  -1  -3   5   -0.16    0.30
   1  -3  -5    0.47    0.57
   1  -3  -5   -0.03    0.46
  -1  -3   5    0.64    0.53
   1  -3  -5   -0.20    0.88
   1   3  -5   -0.03    0.39
   1   3  -5   -0.07    0.68
   1   3  -5    0.34    0.77
  -1   3   5    0.03    0.48
  -1   3   5    0.07    0.42
  -1   3   5    0.18    0.22
  -1   3   5   -0.03    0.21
   1   3  -5    0.63    0.62
  -1   3   5   -0.41    0.32
   0  -3  -5    9.39    0.93
   0  -3   5    9.90    0.63
   0  -3  -5   10.40    1.04
   0  -3  -5    9.64    1.09
   0  -3   5    9.09    0.81
   0  -3  -5    9.07    1.81
   0  -3  -5    7.45    1.14
   0  -3   5   11.30    0.62
   0  -3   5   11.78    1.13
   0   3  -5   10.65    1.07
   0   3   5   10.65    0.64
   0   3   5    9.87    0.76
   0   3   5    9.98    0.67
   0   3  -5   11.79    1.33
   0   3   5   11.44    0.96
   0   3   5    8.49    1.04
   0   3  -5    9.81    1.37
  -1  -3  -5    0.79    0.78
   1  -3   5    1.49    0.23
  -1  -3  -5    0.76    1.21
  -1  -3  -5    2.30    2.34
   1  -3   5    0.85    1.04
  -1  -3  -5    1.21    0.56
  -1  -3  -5    1.88    0.80
  -1  -3  -5    2.95    1.24
  -1  -3  -5    0.14    1.34
  -1  -3  -5    0.49    0.67
  -1   3  -5    1.74    0.68
  -1   3  -5    0.83    1.01
  -1   3  -5    0.31    0.55
   1   3   5    1.40    0.23
  -1   3  -5    1.10    1.24
   1   3   5    0.98    0.26
   1   3   5   -0.33    0.71
  -1   3  -5    0.93    0.89
  -1   3  -5    1.83    0.75
   1   3   5    1.34    0.47
  -2  -3  -5    0.42    0.69
  -2  -3  -5   -0.72    0.94
  -2  -3  -5    1.21    0.77
  -2  -3  -5    0.38    1.62
  -2  -3  -5    0.62    0.60
  -2  -3  -5   -0.36    0.88
  -2   3  -5   -0.21    0.74
  -2   3  -5   -0.51    0.67
   2   3   5    0.82    0.51
   2   3   5    0.58    0.34
  -2   3  -5   -2.10    1.67
  -2   3  -5   -0.68    1.08
  -2   3  -5   -1.12    0.93
  -3  -3  -5   55.18    3.13
  -3  -3  -5   52.19    2.96
  -3  -3  -5   52.81    3.07
  -3  -3  -5   46.17    3.13
   3  -3   5   47.85    2.65
   3  -3   5   51.00    2.64
  -3  -3  -5   52.70    2.92
  -3  -3  -5   49.43    3.23
   3   3   5   45.42    2.70
   3   3   5   49.64    2.72
   3   3   5   54.59    2.65
  -3   3  -5   51.96    2.98
  -3   3  -5   53.33    3.21
   3   3   5   53.44    3.19
  -3   3  -5   49.68    2.95
  -3   3  -5   50.84    2.92
  -4  -3  -5   -0.67    0.70
  -4  -3  -5    0.06    0.77
  -4  -3  -5   -0.11    0.61
  -4  -3  -5    0.44    0.54
  -4  -3  -5    0.61    0.96
  -4  -3  -5   -0.16    0.59
  -4   3  -5   -0.65    0.60
   4   3   5    0.39    0.54
   4   3   5   -0.28    0.42
  -4   3  -5   -1.64    0.93
  -4   3  -5    0.35    0.81
  -4   3  -5    0.18    1.08
  -5  -3  -5   -0.19    0.74
  -5  -3  -5    0.26    0.65
  -5  -3  -5    1.21    0.74
  -5  -3  -5    0.14    0.51
  -5   3  -5    0.73    0.95
  -5   3  -5    0.65    0.54
   5   3   5   -0.18    0.45
  -5   3  -5   -0.84    0.74
   5   3   5    1.99    0.69
  -9  -4   5    1.82    0.40
   9  -4  -5    2.00    0.32
   9   4  -5    2.03    0.51
   8  -4  -5    1.39    0.58
   8  -4  -5    1.24    0.45
  -8  -4   5    2.44    0.61
  -8  -4   5    0.98    0.54
   8   4  -5    1.40    0.45
  -8   4   5    1.54    0.68
   8   4  -5    0.95    0.42
  -8   4   5    1.56    0.51
   8   4  -5    1.88    0.54
  -7  -4   5    1.06    0.71
   7  -4  -5    1.81    0.62
  -7  -4   5    2.24    0.65
   7  -4  -5    3.59    0.64
  -7   4   5    2.19    0.67
   7   4  -5    2.46    0.54
   7   4  -5    1.66    0.64
   7   4  -5    1.75    0.52
  -7   4   5    1.63    0.82
  -6  -4   5   23.98    1.58
   6  -4  -5   23.32    1.86
  -6  -4   5   23.73    1.97
  -6  -4   5   23.00    1.92
   6  -4  -5   21.81    1.77
  -6  -4   5   26.55    1.98
   6   4  -5   22.36    1.63
   6   4  -5   24.36    1.83
   6   4  -5   25.75    1.72
  -6   4   5   26.62    2.10
  -6   4   5   24.64    1.85
   5  -4  -5   -1.21    1.86
   5  -4  -5    1.71    0.90
   5  -4  -5    0.82    2.13
  -5  -4   5    0.56    0.47
  -5  -4   5    0.61    1.01
  -5  -4   5    0.42    0.76
  -5  -4   5    0.97    0.67
   5  -4  -5    0.93    1.00
   5  -4  -5   -0.19    0.98
   5   4  -5   -0.47    0.64
  -5   4   5   -1.67    1.51
   5   4  -5   -1.03    0.96
   5   4  -5    0.01    1.87
   5   4  -5    0.19    0.77
   5   4  -5   -0.30    0.61
  -5   4   5    0.01    0.65
   5   4  -5    1.01    1.27
  -5   4   5    1.29    0.89
  -4  -4   5    6.66    1.57
   4  -4  -5    2.35    0.88
   4  -4  -5    7.48    1.65
  -4  -4   5    4.52    0.70
   4  -4  -5    9.01    2.74
  -4  -4   5    2.93    0.70
  -4  -4   5    2.60    0.93
  -4  -4   5    4.65    0.61
   4  -4  -5    5.15    1.72
  -4  -4   5    5.54    0.79
  -4  -4   5    3.27    0.55
   4   4  -5    5.07    0.88
  -4   4   5    3.58    0.61
   4   4  -5    3.81    1.06
   4   4  -5    4.60    1.24
   4   4  -5    2.45    0.82
   4   4  -5    5.01    1.12
   4   4  -5    3.73    0.94
  -4   4   5    4.36    0.74
   3  -4  -5   -0.67    0.76
  -3  -4   5    0.79    0.72
   3  -4  -5    0.91    0.69
  -3  -4   5    0.57    0.40
  -3  -4   5    0.20    0.48
  -3  -4   5    0.11    0.35
   3  -4  -5   -0.25    0.96
  -3  -4   5    0.45    0.37
   3   4  -5    1.13    0.84
  -3   4   5   -0.44    0.65
  -3   4   5   -0.22    0.53
   3   4  -5    1.08    0.88
  -3   4   5    0.54    0.37
  -3   4   5    0.08    0.43
   3   4  -5   -0.10    0.73
  -3   4   5    0.44    0.39
   3   4  -5    0.23    0.62
   3   4  -5    0.25    0.64
  -3   4   5    0.85    0.36
  -2  -4   5    3.39    0.59
   2  -4  -5    3.02    0.74
  -2  -4   5    3.02    0.46
   2  -4  -5    3.44    0.67
   2  -4  -5    3.11    0.66
  -2  -4   5    3.89    0.41
  -2  -4   5    3.71    0.46
  -2  -4   5    2.92    0.67
   2   4  -5    2.66    0.82
  -2   4   5    3.43    0.53
   2   4  -5    3.84    0.71
  -2   4   5    3.28    0.41
  -2   4   5    3.13    0.48
  -2   4   5    2.37    0.55
  -2   4   5    2.87    0.43
   2   4  -5    2.95    0.85
   2   4  -5    1.95    0.75
  -2   4   5    1.80    0.58
   2   4  -5    2.71    0.60
  -1  -4   5    1.35    0.24
  -1  -4   5    1.27    0.38
  -1  -4   5    1.22    0.32
   1  -4  -5    1.46    0.49
   1  -4  -5    1.09    0.67
  -1  -4   5    1.09    0.26
  -1  -4   5    0.63    0.64
   1  -4  -5    0.92    0.88
   1  -4  -5    0.78    0.60
  -1   4   5    0.59    0.30
   1   4  -5    0.61    0.79
   1   4  -5    0.70    0.50
  -1   4   5    1.46    0.60
  -1   4   5    1.02    0.52
   1   4  -5    1.25    0.79
  -1   4   5    2.03    0.38
  -1   4   5    1.17    0.52
   1   4  -5    1.02    0.65
  -1   4   5    1.37    0.38
   0  -4   5   13.93    1.38
   0  -4  -5   11.50    1.76
   0  -4   5   15.77    0.86
   0  -4  -5   13.18    1.51
   0  -4  -5   13.70    1.27
   0  -4  -5   16.08    1.98
   0  -4  -5   16.74    1.89
   0  -4  -5   15.49    1.26
   0  -4  -5   14.05    1.42
   0  -4   5   14.26    1.04
   0   4  -5   11.41    1.27
   0   4  -5   16.43    2.53
   0   4   5   15.10    0.92
   0   4  -5   15.59    2.23
   0   4   5   11.98    1.24
   0   4  -5   14.72    1.36
   0   4  -5   13.60    1.57
   0   4   5   14.96    0.86
   0   4   5   11.45    1.38
   0   4   5   15.98    0.95
  -1  -4  -5    0.68    1.41
  -1  -4  -5    3.17    0.93
  -1  -4  -5    2.14    0.74
  -1  -4  -5    3.00    0.81
   1  -4   5    2.01    0.32
  -1  -4  -5    1.50    0.75
  -1  -4  -5    2.81    0.75
  -1  -4  -5    1.39    1.05
  -1  -4  -5    1.42    0.71
   1  -4   5    3.12    0.36
  -1   4  -5    1.17    0.80
  -1   4  -5    1.09    0.88
   1   4   5    2.38    0.47
  -1   4  -5    1.08    0.94
  -1   4  -5    2.88    0.97
   1   4   5    2.64    0.41
  -1   4  -5    0.72    1.44
  -1   4  -5    1.67    0.66
   1   4   5    2.76    0.40
  -1   4  -5    2.44    0.63
  -2  -4  -5    0.51    0.72
  -2  -4  -5    0.58    1.44
  -2  -4  -5   -0.34    0.56
  -2  -4  -5    0.27    0.96
  -2  -4  -5    1.22    0.84
  -2  -4  -5    0.27    0.90
   2  -4   5    0.37    0.34
   2  -4   5    0.74    0.37
  -2  -4  -5    0.56    0.72
  -2   4  -5   -1.48    1.44
   2   4   5    0.74    0.87
  -2   4  -5    0.29    0.65
  -2   4  -5   -0.44    0.63
   2   4   5    0.24    0.27
  -2   4  -5   -0.49    0.90
  -2   4  -5   -0.14    0.82
   2   4   5    0.65    0.39
  -2   4  -5    0.13    0.85
  -3  -4  -5    1.43    0.70
   3  -4   5    1.79    0.45
  -3  -4  -5    1.55    0.62
  -3  -4  -5    0.48    0.74
  -3  -4  -5    0.72    0.74
  -3   4  -5    1.03    1.11
  -3   4  -5    1.18    0.63
   3   4   5    1.87    0.74
   3   4   5    1.03    0.37
  -3   4  -5    1.79    0.68
   3   4   5    1.04    0.53
  -3   4  -5    0.40    0.84
   3   4   5    0.03    1.50
  -4  -4  -5   -0.18    0.62
  -4  -4  -5    0.14    0.96
  -4  -4  -5    0.59    0.70
  -4  -4  -5    0.08    0.48
  -4  -4  -5   -0.11    0.51
   4  -4   5   -0.52    0.76
  -4   4  -5   -0.55    0.64
   4   4   5    1.23    0.53
   4   4   5    0.19    0.53
  -4   4  -5    0.09    0.68
  -4   4  -5    2.69    1.55
   4   4   5    0.64    0.48
  -5  -4  -5    1.24    0.65
  -5  -4  -5    1.03    0.42
  -5  -4  -5    0.32    0.38
  -5  -4  -5    0.61    0.60
  -5  -4  -5    0.51    0.78
  -5   4  -5    0.81    0.72
  -5   4  -5    0.55    0.58
   5   4   5    0.97    0.40
  -8  -5   5    0.97    0.47
  -8  -5   5    0.16    0.61
   8  -5  -5    0.26    0.52
   8  -5  -5    0.12    0.49
   8   5  -5    0.00    0.45
   8   5  -5    0.41    0.55
  -8   5   5    0.67    0.46
   8   5  -5   -0.29    0.38
  -7  -5   5   19.04    1.83
  -7  -5   5   16.70    1.35
   7  -5  -5   17.22    1.36
   7  -5  -5   17.10    1.67
  -7   5   5   17.90    1.70
   7   5  -5   16.06    1.25
   7   5  -5   15.52    1.30
   7   5  -5   15.24    1.24
  -7   5   5   18.74    1.35
  -6  -5   5    1.18    0.78
  -6  -5   5    1.38    1.14
  -6  -5   5    0.71    0.73
   6  -5  -5    2.20    0.75
   6   5  -5    1.00    0.60
   6   5  -5    1.30    0.64
   6   5  -5    1.00    0.65
  -6   5   5    0.34    1.16
  -6   5   5    1.83    0.71
   5  -5  -5    1.82    1.09
   5  -5  -5    2.71    2.07
   5  -5  -5    2.59    1.08
  -5  -5   5    0.78    0.82
  -5  -5   5    0.74    1.06
   5  -5  -5    0.90    0.98
  -5  -5   5    1.33    0.70
  -5  -5   5    2.29    0.50
   5   5  -5    2.44    2.02
   5   5  -5    1.23    1.33
  -5   5   5    2.11    1.04
   5   5  -5    1.24    0.60
  -5   5   5    1.38    0.73
   5   5  -5    2.09    1.04
   5   5  -5    0.66    0.64
  -5   5   5   -0.80    1.08
  -4  -5   5    6.97    1.20
  -4  -5   5    6.43    1.17
  -4  -5   5    4.44    0.65
   4  -5  -5    3.19    0.92
   4  -5  -5    5.15    1.14
  -4  -5   5    4.27    0.55
   4  -5  -5    2.30    1.42
  -4  -5   5    4.85    0.91
   4  -5  -5    6.34    1.08
  -4  -5   5    4.16    0.65
   4   5  -5    3.49    0.68
   4   5  -5    4.55    0.93
   4   5  -5    5.62    1.07
  -4   5   5    5.95    1.24
  -4   5   5    3.73    0.56
   4   5  -5    2.74    1.06
   4   5  -5    2.04    2.05
   4   5  -5    4.44    1.14
  -4   5   5    4.56    1.00
   4   5  -5    5.57    0.83
  -3  -5   5    0.60    0.92
   3  -5  -5    2.06    0.94
   3  -5  -5    1.43    0.86
  -3  -5   5    3.32    0.57
   3  -5  -5    2.55    2.63
  -3  -5   5    1.76    0.54
   3  -5  -5    3.22    0.87
   3  -5  -5    2.37    1.30
   3  -5  -5    1.64    0.81
  -3  -5   5    1.34    0.38
  -3  -5   5    2.16    0.40
  -3  -5   5    1.34    0.50
  -3   5   5    2.35    1.04
  -3   5   5    0.87    1.11
   3   5  -5    2.86    0.74
   3   5  -5    0.08    1.70
  -3   5   5    3.05    0.50
   3   5  -5    1.83    0.82
  -3   5   5    2.37    0.71
  -3   5   5    2.30    0.66
  -3   5   5    2.08    0.49
   3   5  -5    1.96    0.76
   3   5  -5    2.95    1.53
   3   5  -5    1.79    1.04
  -2  -5   5   35.41    1.91
  -2  -5   5   34.97    2.01
  -2  -5   5   36.12    1.85
   2  -5  -5   31.59    2.33
  -2  -5   5   36.70    2.01
   2  -5  -5   36.55    2.22
  -2  -5   5   36.83    1.88
   2  -5  -5   33.34    3.68
   2  -5  -5   36.09    2.39
   2  -5  -5   29.13    2.55
   2  -5  -5   39.09    2.21
   2   5  -5   36.12    2.56
  -2   5   5   35.81    2.12
   2   5  -5   37.24    2.23
   2   5  -5   29.15    2.43
  -2   5   5   34.91    2.00
   2   5  -5   32.05    2.46
  -2   5   5   36.32    2.13
   2   5  -5   34.01    2.59
   2   5  -5   41.35    4.13
  -2   5   5   37.24    1.93
   2   5  -5   34.15    2.38
  -2   5   5   31.66    2.76
   2   5  -5   28.59    2.65
  -2   5   5   34.92    1.90
   2   5  -5   28.71    3.79
   1  -5  -5   56.96    3.19
   1  -5  -5   50.32    3.41
  -1  -5   5   58.02    2.88
   1  -5  -5   54.90    5.15
  -1  -5   5   57.43    2.92
  -1  -5   5   59.71    3.05
   1  -5  -5   57.71    3.21
   1  -5  -5   49.75    3.51
  -1  -5   5   58.47    2.93
   1  -5  -5   67.61    4.92
   1  -5  -5   65.95    4.15
   1   5  -5   59.22    3.50
  -1   5   5   57.03    2.99
  -1   5   5   56.53    2.97
  -1   5   5   58.13    3.02
  -1   5   5   56.92    3.15
  -1   5   5   46.68    3.24
   1   5  -5   46.39    4.94
   1   5  -5   59.20    3.24
  -1   5   5   54.08    3.64
  -1   5   5   57.03    2.93
   0  -5  -5    3.85    1.77
   0  -5  -5    5.49    1.03
   0  -5  -5    6.17    1.04
   0  -5  -5    2.47    1.29
   0  -5   5    2.94    0.57
   0  -5  -5    2.85    0.85
   0  -5   5    4.10    0.55
   0  -5  -5    6.35    1.13
   0  -5  -5    4.13    1.31
   0  -5  -5    4.11    1.24
   0  -5  -5    4.11    0.79
   0  -5   5    3.54    0.47
   0   5  -5    2.72    1.29
   0   5  -5    3.80    0.93
   0   5  -5    3.28    3.02
   0   5  -5    2.45    0.83
   0   5   5    5.84    0.92
   0   5  -5    3.28    0.86
   0   5  -5    2.74    0.64
   0   5  -5    3.13    0.84
   0   5   5    4.01    0.64
   0   5   5    4.75    0.65
   0   5  -5    5.39    0.88
  -1  -5  -5    7.61    1.34
  -1  -5  -5    9.42    1.13
   1  -5   5    8.33    0.74
  -1  -5  -5    7.27    1.14
  -1  -5  -5    8.90    1.24
  -1  -5  -5    8.31    1.26
   1  -5   5    6.61    1.03
  -1  -5  -5    6.60    1.15
   1  -5   5    8.82    0.72
   1  -5   5    9.09    0.68
  -1  -5  -5    6.75    1.50
   1   5   5    8.85    0.78
  -1   5  -5    6.16    1.43
  -1   5  -5    9.38    1.77
  -1   5  -5   10.03    1.58
   1   5   5    8.04    0.82
   1   5   5    8.95    0.94
  -1   5  -5    8.08    1.35
  -1   5  -5   10.13    1.45
  -1   5  -5    8.43    1.15
  -1   5  -5   10.01    1.10
   1   5   5    9.01    0.69
   2  -5   5    8.20    0.69
  -2  -5  -5    7.93    1.33
  -2  -5  -5    7.86    1.41
  -2  -5  -5    7.94    1.17
  -2  -5  -5    7.91    1.10
   2  -5   5    7.28    0.76
  -2  -5  -5    8.61    1.45
  -2   5  -5    7.13    1.43
   2   5   5    7.22    0.67
   2   5   5    5.51    0.89
  -2   5  -5    7.28    1.28
  -2   5  -5    6.37    1.12
   2   5   5    7.13    0.95
  -2   5  -5    5.28    0.81
   2   5   5    6.58    0.79
  -2   5  -5    6.94    1.03
   2   5   5    6.24    1.15
  -2   5  -5    6.36    1.18
  -2   5  -5    8.50    1.40
   3  -5   5    0.73    0.60
  -3  -5  -5   -0.48    0.66
  -3  -5  -5   -0.45    0.76
  -3  -5  -5    0.80    0.52
  -3  -5  -5   -0.10    0.57
  -3  -5  -5    0.81    0.69
   3  -5   5   -0.06    0.45
  -3   5  -5    0.89    0.93
  -3   5  -5   -0.28    0.57
   3   5   5    0.75    0.52
  -3   5  -5   -0.52    0.89
  -3   5  -5    0.27    0.59
   3   5   5    0.99    0.52
  -3   5  -5    0.64    0.64
   3   5   5    0.10    0.42
  -4  -5  -5    0.43    0.60
  -4  -5  -5    0.38    0.48
  -4  -5  -5   -1.20    1.21
  -4  -5  -5    0.14    0.48
  -4  -5  -5    0.35    0.62
  -4  -5  -5    0.56    0.70
   4  -5   5   -0.41    0.53
  -4   5  -5   -0.15    0.60
   4   5   5   -0.57    0.50
   4   5   5   -0.11    0.41
  -4   5  -5   -0.53    0.80
  -4   5  -5    0.45    0.55
  -4   5  -5    0.29    0.58
  -5  -5  -5    2.34    0.82
  -5  -5  -5    3.38    0.52
  -5  -5  -5    2.63    0.84
  -5  -5  -5    3.16    0.57
  -5   5  -5    2.85    0.63
   5   5   5    3.02    0.71
  -5   5  -5    2.29    0.52
   8  -6  -5    0.41    0.57
  -8  -6   5    0.62    0.40
   8   6  -5    0.39    0.48
  -8   6   5    1.19    0.35
   8   6  -5    0.69    0.44
  -7  -6   5    0.14    0.55
   7  -6  -5    0.81    0.54
  -7   6   5    0.96    0.54
   7   6  -5    0.56    0.56
   7   6  -5    0.35    0.46
   7   6  -5    0.56    0.55
   6  -6  -5    1.42    0.70
  -6  -6   5    2.30    0.68
   6   6  -5    1.92    0.67
   6   6  -5    2.09    0.62
  -6   6   5    0.77    0.65
   6   6  -5    1.93    0.57
   5  -6  -5    3.35    1.03
  -5  -6   5    3.23    1.12
  -5  -6   5    2.30    0.88
  -5  -6   5    3.34    0.56
   5  -6  -5    4.99    0.87
   5  -6  -5    3.64    1.38
  -5   6   5    3.76    0.76
   5   6  -5    2.46    0.69
   5   6  -5    3.96    0.73
  -5   6   5    1.62    1.70
   5   6  -5    1.07    1.37
   5   6  -5    5.34    0.78
  -4  -6   5   10.15    1.75
   4  -6  -5   11.60    1.54
  -4  -6   5    8.67    1.23
  -4  -6   5    8.40    1.23
   4  -6  -5    7.36    1.26
  -4  -6   5    9.44    0.83
   4  -6  -5   11.10    1.72
  -4  -6   5    8.92    1.17
   4  -6  -5    7.93    1.61
  -4  -6   5    8.49    1.13
   4   6  -5    8.66    1.54
  -4   6   5    9.12    1.48
  -4   6   5   11.15    1.35
   4   6  -5    9.88    1.20
   4   6  -5    8.52    1.44
   4   6  -5    8.64    1.12
   4   6  -5   12.41    1.92
   4   6  -5    6.77    1.57
   4   6  -5    7.46    1.85
  -4   6   5    9.64    1.15
  -4   6   5   10.77    2.30
  -3  -6   5   17.48    1.17
  -3  -6   5   18.86    1.14
  -3  -6   5   22.32    1.92
   3  -6  -5   16.55    2.19
   3  -6  -5   16.91    2.06
   3  -6  -5   17.94    1.87
  -3  -6   5   18.11    1.43
   3  -6  -5   18.46    1.68
   3  -6  -5   12.71    2.89
   3  -6  -5   18.92    1.84
  -3  -6   5   18.38    1.19
  -3  -6   5   13.94    1.92
   3   6  -5   17.87    2.61
   3   6  -5   15.16    1.49
  -3   6   5   17.72    1.29
   3   6  -5   18.79    1.47
   3   6  -5   17.60    1.86
  -3   6   5   21.57    2.26
   3   6  -5   17.83    1.77
   3   6  -5   15.03    1.85
  -3   6   5   16.08    1.56
   3   6  -5   19.34    2.37
  -3   6   5   18.56    1.56
   3   6  -5   18.33    2.66
  -3   6   5   18.72    1.17
  -2  -6   5   62.58    3.08
   2  -6  -5   61.64    4.21
  -2  -6   5   59.83    3.12
  -2  -6   5   59.52    3.27
  -2  -6   5   66.18    3.72
  -2  -6   5   62.15    3.06
   2  -6  -5   60.33    3.39
   2  -6  -5   58.57    3.45
   2  -6  -5   56.42    3.74
   2  -6  -5   59.32    3.46
   2  -6  -5   59.21    3.52
   2   6  -5   61.88    3.79
  -2   6   5   61.75    3.13
  -2   6   5   54.10    4.00
  -2   6   5   55.23    3.44
   2   6  -5   60.78    3.55
  -2   6   5   51.72    3.24
   2   6  -5   56.82    3.30
  -2   6   5   55.81    3.68
  -2   6   5   61.20    3.59
   2   6  -5   59.69    3.98
   2   6  -5   58.56    3.28
   2   6  -5   57.09    3.42
  -2   6   5   60.91    3.13
   2   6  -5   59.36    3.49
  -2   6   5   58.36    3.10
   2   6  -5   58.49    3.53
  -1  -6   5    7.94    0.64
   1  -6  -5    7.41    1.08
   1  -6  -5    9.65    1.95
  -1  -6   5    7.74    0.62
   1  -6  -5    6.16    1.07
   1  -6  -5    6.03    1.51
   1  -6  -5    8.06    1.48
   1  -6  -5    6.60    1.22
   1  -6  -5    4.63    1.00
  -1  -6   5    7.45    0.94
   1   6  -5    7.82    1.00
  -1   6   5    7.69    0.76
   1   6  -5    6.15    1.32
  -1   6   5    7.09    0.75
  -1   6   5    5.43    1.05
  -1   6   5    6.47    1.04
  -1   6   5    4.56    1.03
  -1   6   5    7.62    0.80
   1   6  -5    5.83    0.85
   1   6  -5    6.91    1.57
  -1   6   5    6.05    1.28
   1   6  -5    7.57    1.09
   1   6  -5    7.65    1.43
   0  -6   5   82.69    4.32
   0  -6   5   88.21    4.35
   0  -6  -5   76.55    4.80
   0  -6  -5   85.15    4.71
   0  -6  -5   87.08    4.69
   0  -6   5   84.51    4.50
   0  -6  -5   90.00    4.59
   0  -6  -5   84.21    5.07
   0  -6  -5   86.34    4.64
   0  -6  -5   80.32    5.09
   0  -6  -5   80.81    4.86
   0  -6   5   86.12    4.30
   0  -6  -5   87.33    4.70
   0   6  -5   83.69    4.62
   0   6   5   78.79    4.65
   0   6   5   83.30    4.44
   0   6  -5   84.14    4.93
   0   6   5   85.95    4.38
   0   6  -5   85.61    4.55
   0   6   5   86.28    4.35
   0   6  -5   88.48    4.78
   0   6  -5   79.66    4.76
   0   6  -5   88.79    4.56
   0   6   5   93.27    4.41
   0   6  -5   88.24    4.67
   0   6  -5   81.72    5.56
   0   6   5   91.25    4.94
  -1  -6  -5    2.29    1.11
   1  -6   5    0.52    0.41
  -1  -6  -5    0.38    0.67
  -1  -6  -5   -0.05    0.76
  -1  -6  -5    0.20    0.95
   1  -6   5   -0.06    0.35
  -1  -6  -5    0.54    0.68
   1  -6   5    0.40    0.45
  -1  -6  -5   -1.35    1.24
   1  -6   5    0.88    0.71
  -1  -6  -5   -0.64    0.71
   1   6   5    1.60    1.15
   1   6   5    1.19    0.52
  -1   6  -5   -0.11    0.75
   1   6   5    0.49    0.39
  -1   6  -5   -0.63    1.38
   1   6   5    0.46    0.47
  -1   6  -5    0.62    0.62
  -1   6  -5    1.71    0.92
  -1   6  -5    0.58    0.64
  -1   6  -5    0.73    1.44
   1   6   5    0.25    0.59
  -1   6  -5    1.11    1.31
  -1   6  -5    0.81    0.73
   2  -6   5    1.66    0.44
  -2  -6  -5    0.08    0.84
   2  -6   5    1.93    0.57
  -2  -6  -5    0.51    0.68
  -2  -6  -5    2.43    0.67
  -2  -6  -5    1.85    1.17
  -2  -6  -5    2.47    0.87
  -2   6  -5    2.85    1.27
  -2   6  -5    0.93    0.98
   2   6   5    1.46    0.79
  -2   6  -5    1.63    0.81
   2   6   5    2.41    0.46
  -2   6  -5    1.51    1.09
  -2   6  -5    1.12    0.67
   2   6   5    1.06    0.53
  -2   6  -5    0.92    0.51
  -3  -6  -5    1.07    0.50
  -3  -6  -5   -0.40    0.63
   3  -6   5   -0.07    0.54
   3  -6   5   -0.85    0.76
  -3  -6  -5    0.47    0.52
  -3  -6  -5    1.29    0.74
  -3  -6  -5    1.05    0.65
   3   6   5    0.86    0.45
   3   6   5    0.11    0.88
  -3   6  -5    0.80    0.55
  -3   6  -5    1.43    1.17
  -3   6  -5   -0.27    1.00
  -3   6  -5    0.58    0.50
  -3   6  -5    0.32    0.57
   3   6   5    0.71    0.64
  -4  -6  -5   13.71    1.15
  -4  -6  -5   15.96    1.38
  -4  -6  -5   15.59    2.44
  -4  -6  -5   15.98    1.10
  -4  -6  -5   16.75    1.24
   4   6   5   13.00    1.10
  -4   6  -5   16.47    1.15
  -4   6  -5   14.42    1.32
  -4   6  -5   16.37    1.16
   4   6   5   18.00    1.57
  -4   6  -5   15.68    1.30
  -7  -7   5    0.18    0.49
   7  -7  -5    0.78    0.51
   7   7  -5    0.32    0.40
  -7   7   5    0.71    0.48
   7   7  -5    1.18    0.61
   6  -7  -5   -0.43    0.63
  -6  -7   5   -0.42    0.65
  -6  -7   5    0.40    1.25
   6   7  -5   -0.05    0.49
   6   7  -5    0.23    0.62
   6   7  -5    0.49    0.67
  -6   7   5    0.03    0.62
  -5  -7   5    2.54    0.51
   5  -7  -5    3.16    0.77
  -5  -7   5    2.86    0.78
   5  -7  -5    2.73    1.13
   5  -7  -5    2.69    1.02
   5   7  -5    0.62    1.18
  -5   7   5    2.51    0.86
   5   7  -5    2.31    0.76
   5   7  -5    2.25    0.59
  -5   7   5    2.72    0.69
   5   7  -5    2.39    0.75
  -5   7   5    0.45    0.98
   4  -7  -5    5.88    1.27
  -4  -7   5    7.91    0.99
  -4  -7   5    7.80    1.52
  -4  -7   5    8.61    1.56
   4  -7  -5    7.01    1.54
  -4  -7   5    6.32    0.79
   4  -7  -5    9.53    1.40
  -4   7   5    6.11    0.74
   4   7  -5    3.41    1.56
   4   7  -5    7.28    0.92
  -4   7   5   10.72    1.86
  -4   7   5    7.59    1.25
   4   7  -5    6.74    1.21
   4   7  -5    6.07    0.89
   4   7  -5    7.11    1.28
  -4   7   5   10.75    1.88
  -3  -7   5    4.75    0.65
   3  -7  -5    3.21    0.95
   3  -7  -5    4.35    1.16
  -3  -7   5    3.51    1.52
  -3  -7   5    3.81    1.01
  -3  -7   5    2.86    0.82
   3  -7  -5    2.98    0.78
   3  -7  -5    4.23    1.22
  -3  -7   5    3.55    0.69
   3  -7  -5    0.67    1.25
   3  -7  -5    2.78    1.95
  -3  -7   5    3.72    0.66
  -3  -7   5    2.91    0.70
   3   7  -5    3.20    0.91
  -3   7   5    3.72    0.96
  -3   7   5    3.22    0.66
   3   7  -5    4.62    1.56
  -3   7   5    2.35    0.94
   3   7  -5    2.99    0.74
   3   7  -5    3.96    1.37
  -3   7   5    4.90    1.05
   3   7  -5    3.24    1.42
   3   7  -5    3.05    0.72
  -3   7   5    4.85    0.83
   2  -7  -5   20.28    2.00
  -2  -7   5   18.14    1.45
   2  -7  -5   16.32    2.21
   2  -7  -5   19.68    1.91
  -2  -7   5   14.09    2.40
   2  -7  -5   17.99    2.17
  -2  -7   5   19.89    1.21
  -2  -7   5   18.13    1.51
  -2  -7   5   20.21    1.24
  -2  -7   5   18.83    1.24
  -2   7   5   13.65    2.98
  -2   7   5   17.65    1.79
   2   7  -5   23.13    2.05
   2   7  -5   18.67    1.51
   2   7  -5   23.50    1.96
  -2   7   5   17.87    2.22
   2   7  -5   20.22    2.04
  -2   7   5   19.66    1.42
  -2   7   5   21.75    1.29
   1  -7  -5    0.94    1.39
  -1  -7   5    0.28    0.45
   1  -7  -5    1.63    1.06
   1  -7  -5   -2.33    1.83
  -1  -7   5   -0.07    0.39
  -1  -7   5    0.59    0.68
  -1  -7   5    0.97    0.38
   1  -7  -5   -0.80    0.97
  -1  -7   5    0.42    0.57
  -1   7   5    0.73    1.01
  -1   7   5    0.18    0.59
  -1   7   5   -1.62    1.06
   1   7  -5   -0.33    0.94
   1   7  -5    1.54    0.89
   1   7  -5   -0.25    1.94
   1   7  -5   -0.23    0.67
  -1   7   5    0.45    0.41
  -1   7   5    0.62    0.97
   1   7  -5    1.02    0.98
   1   7  -5    0.37    1.15
   1   7  -5    1.51    0.90
  -1   7   5   -0.03    0.52
   0  -7  -5    3.94    1.50
   0  -7  -5    3.06    0.69
   0  -7   5    3.53    0.46
   0  -7   5    3.23    0.81
   0  -7  -5    2.15    1.19
   0  -7  -5    1.53    0.78
   0  -7  -5    0.93    1.15
   0  -7  -5    4.05    0.89
   0  -7   5    4.23    0.76
   0  -7   5    3.15    0.59
   0  -7   5    3.62    0.59
   0  -7  -5    3.26    0.96
   0  -7  -5    1.01    1.19
   0   7  -5    2.14    0.59
   0   7  -5    2.80    0.67
   0   7   5    2.82    0.56
   0   7  -5    1.52    1.32
   0   7   5    4.08    0.82
   0   7  -5    3.51    1.80
   0   7   5    4.74    0.97
   0   7  -5    1.61    1.08
   0   7  -5    3.60    0.92
   0   7   5    2.71    0.58
   0   7  -5    4.82    1.35
   0   7  -5    1.68    0.65
   0   7   5    2.83    1.06
   0   7   5    1.99    1.32
   0   7   5    3.28    0.51
   0   7  -5    2.05    0.74
   0   7   5    5.92    1.47
  -1  -7  -5    1.34    0.58
  -1  -7  -5    1.74    0.86
  -1  -7  -5   -0.15    1.02
  -1  -7  -5    2.17    0.69
   1  -7   5    1.20    0.58
   1  -7   5    1.05    0.44
   1  -7   5    0.28    1.67
  -1  -7  -5    1.86    0.75
  -1   7  -5    2.59    0.63
  -1   7  -5    1.30    1.02
   1   7   5    1.93    0.43
   1   7   5    0.41    0.78
   1   7   5    2.81    1.05
  -1   7  -5    2.36    0.76
   1   7   5    1.32    0.53
  -1   7  -5    1.99    0.55
   1   7   5    1.19    0.56
  -1   7  -5   -0.66    1.12
  -1   7  -5    1.72    0.65
  -2  -7  -5    1.20    0.80
  -2  -7  -5    1.77    0.68
   2  -7   5    1.48    0.54
   2  -7   5    1.26    0.49
  -2  -7  -5    2.96    1.08
  -2  -7  -5    1.73    0.60
  -2  -7  -5    2.01    0.68
  -2  -7  -5    2.76    0.57
  -2   7  -5    1.40    1.15
  -2   7  -5    2.19    0.53
  -2   7  -5    1.16    0.89
   2   7   5    1.50    0.72
  -2   7  -5    1.48    0.69
   2   7   5    1.49    0.58
   2   7   5    2.04    0.44
   2   7   5    1.22    0.64
  -2   7  -5    1.44    0.59
  -2   7  -5    1.33    0.57
  -2   7  -5    1.52    1.13
  -3  -7  -5    5.22    0.83
   3  -7   5    5.41    0.70
  -3  -7  -5    5.20    0.98
  -3  -7  -5    5.32    1.53
  -3  -7  -5    7.10    1.24
  -3  -7  -5    5.97    1.19
  -3   7  -5    5.55    0.78
  -3   7  -5    6.12    0.96
  -3   7  -5    5.54    0.89
  -3   7  -5    6.46    1.09
   3   7   5    5.66    0.66
   3   7   5    4.68    0.71
  -3   7  -5    4.66    0.82
   3   7   5    4.68    0.71
  -4  -7  -5    5.34    1.05
  -4  -7  -5    2.58    0.47
  -4  -7  -5    3.92    0.66
  -4  -7  -5    3.67    0.70
   4   7   5    4.63    0.51
  -4   7  -5    3.67    0.56
  -4   7  -5    3.38    0.67
  -4   7  -5    2.84    0.48
  -4   7  -5    3.16    0.60
   4   7   5    3.11    0.95
   7  -8  -5   -0.17    0.57
  -7   8   5    0.02    0.37
   7   8  -5   -0.42    0.40
   6  -8  -5    9.58    0.93
  -6  -8   5    6.74    1.02
  -6  -8   5    7.69    1.68
  -6   8   5    9.07    1.46
   6   8  -5    7.97    0.84
   6   8  -5    8.57    1.25
  -6   8   5    8.28    0.93
   5  -8  -5    4.38    1.01
   5  -8  -5    3.18    0.89
  -5  -8   5    4.54    1.30
  -5  -8   5    5.20    1.35
   5   8  -5    3.94    0.83
   5   8  -5    2.92    0.70
   5   8  -5    3.32    0.58
  -5   8   5    3.12    0.68
  -5   8   5    2.04    0.86
  -5   8   5    2.27    0.75
   4  -8  -5    4.00    1.04
   4  -8  -5    4.97    0.89
  -4  -8   5    3.95    0.59
  -4   8   5    3.58    0.95
   4   8  -5    6.27    1.50
   4   8  -5    6.64    1.13
  -4   8   5    3.80    0.82
   4   8  -5    4.01    1.11
   4   8  -5    8.09    1.84
  -4   8   5    5.91    1.07
   4   8  -5    4.92    0.80
  -3  -8   5   13.81    1.22
   3  -8  -5   15.83    3.01
  -3  -8   5   14.35    1.32
   3  -8  -5   14.31    1.94
   3   8  -5   15.30    1.36
   3   8  -5   14.29    1.34
   3   8  -5   14.96    2.17
   3   8  -5   12.33    1.73
   3   8  -5   16.14    2.09
  -3   8   5   16.72    1.85
  -3   8   5   18.21    1.26
  -2  -8   5   -0.34    0.54
  -2  -8   5    0.41    1.42
   2  -8  -5   -0.34    1.09
  -2  -8   5    0.85    0.60
  -2  -8   5    0.05    0.37
   2  -8  -5    0.52    0.69
   2  -8  -5   -0.37    0.92
  -2   8   5    0.62    1.51
   2   8  -5   -0.20    0.75
   2   8  -5    1.12    0.65
  -2   8   5    0.95    0.57
   2   8  -5    1.41    1.08
   2   8  -5    0.05    0.91
   2   8  -5    0.49    1.50
  -2   8   5   -0.04    0.90
   2   8  -5    0.30    0.62
   2   8  -5   -0.29    0.63
  -2   8   5   -0.97    0.77
   2   8  -5   -0.19    1.19
  -2   8   5    1.04    0.69
   1  -8  -5   -0.34    0.64
   1  -8  -5    0.49    1.33
   1  -8  -5    1.59    1.15
  -1  -8   5    1.16    0.40
  -1  -8   5   -0.17    0.66
  -1  -8   5    0.33    0.49
   1  -8  -5   -1.60    1.04
   1   8  -5   -0.27    0.68
   1   8  -5    0.10    1.02
   1   8  -5    1.36    1.23
   1   8  -5    0.58    0.62
   1   8  -5    1.27    0.71
  -1   8   5    1.48    0.90
   1   8  -5   -0.34    1.31
   1   8  -5    3.25    2.23
  -1   8   5    0.18    1.03
  -1   8   5   -0.54    0.77
  -1   8   5    1.21    0.48
   1   8  -5    1.39    0.96
  -1   8   5   -0.19    0.57
   1   8  -5   -0.31    0.67
   0  -8   5    3.08    0.60
   0  -8   5    1.80    0.48
   0  -8  -5    1.98    0.73
   0  -8  -5    0.83    0.64
   0  -8  -5    2.62    1.21
   0  -8   5    1.66    0.46
   0  -8  -5    1.85    0.86
   0  -8  -5    0.08    1.02
   0  -8  -5    0.96    1.47
   0   8  -5    2.05    0.70
   0   8   5    1.60    0.47
   0   8  -5    2.01    0.56
   0   8  -5    3.49    1.02
   0   8  -5    0.80    1.69
   0   8  -5    1.78    0.60
   0   8   5    1.15    0.60
   0   8   5    1.92    1.02
   0   8   5    1.04    0.67
  -1  -8  -5    6.08    1.30
  -1  -8  -5    5.69    1.07
  -1  -8  -5    2.94    0.62
   1  -8   5    3.92    0.71
   1  -8   5    4.45    0.72
   1  -8   5    3.09    0.61
   1   8   5    5.47    0.72
  -1   8  -5    3.61    0.71
  -1   8  -5    4.84    0.97
   1   8   5    4.24    0.55
  -1   8  -5    4.81    1.03
  -1   8  -5    6.03    0.96
  -1   8  -5    3.88    0.64
   1   8   5    2.57    0.73
  -1   8  -5    4.80    0.64
   1   8   5    4.39    1.05
   1   8   5    4.30    0.98
  -2  -8  -5    0.77    0.84
  -2  -8  -5    0.77    0.61
   2  -8   5    0.67    0.50
  -2  -8  -5    0.63    0.61
   2  -8   5    1.11    0.48
   2  -8   5    0.98    1.24
  -2  -8  -5    2.94    1.08
  -2  -8  -5    1.64    0.54
   2   8   5    0.51    0.71
  -2   8  -5    0.59    0.47
   2   8   5    2.15    0.99
  -2   8  -5    1.68    0.52
   2   8   5    1.39    0.53
  -2   8  -5    1.92    1.13
  -2   8  -5    2.04    0.79
   2   8   5    0.62    0.40
  -2   8  -5    1.04    0.64
  -2   8  -5    1.08    0.55
  -3  -8  -5    2.06    0.54
   3  -8   5    1.48    0.46
  -3  -8  -5    2.53    0.60
  -3  -8  -5    1.28    0.70
  -3  -8  -5    0.23    1.66
  -3  -8  -5    1.77    0.53
  -3   8  -5    1.81    0.44
   3   8   5    2.20    0.45
  -3   8  -5    0.69    0.66
  -3   8  -5    1.78    0.57
   3   8   5    2.93    1.01
   3   8   5    1.01    0.39
  -3   8  -5    1.53    0.51
  -3   8  -5    0.99    0.55
  -6  -9   5    4.79    0.78
  -6   9   5    6.90    0.85
   6   9  -5    5.65    0.65
   5  -9  -5    1.36    0.60
   5  -9  -5    0.86    0.78
  -5  -9   5   -0.47    0.76
  -5  -9   5   -0.83    0.80
   5  -9  -5    0.06    1.29
  -5   9   5   -0.27    0.56
  -5   9   5    0.09    0.58
   5   9  -5    0.08    0.91
   5   9  -5    0.44    0.46
   4  -9  -5    5.03    1.38
   4  -9  -5    6.67    1.48
   4  -9  -5    4.52    0.89
  -4   9   5    2.83    0.81
   4   9  -5    4.00    0.77
  -4   9   5    2.95    0.68
   4   9  -5    3.91    0.75
  -4   9   5    3.49    0.72
   3  -9  -5    1.56    0.79
   3  -9  -5    0.02    0.85
  -3  -9   5   -0.46    0.42
   3   9  -5    0.00    0.99
  -3   9   5    0.08    0.80
   3   9  -5    0.11    0.68
   3   9  -5   -0.01    0.52
   3   9  -5    0.85    1.32
  -3   9   5   -0.54    0.68
  -3   9   5    0.26    0.70
   3   9  -5   -0.86    1.25
   2  -9  -5    1.04    0.84
  -2  -9   5    1.13    0.93
  -2  -9   5    0.34    0.47
  -2  -9   5   -0.35    0.37
   2  -9  -5   -1.32    0.95
   2  -9  -5   -0.22    1.10
   2   9  -5    0.47    0.80
   2   9  -5    1.38    0.75
   2   9  -5    0.35    0.57
  -2   9   5    1.08    0.49
  -2   9   5    1.32    0.70
  -2   9   5   -0.15    0.86
   2   9  -5    1.32    0.94
   2   9  -5    0.40    0.90
   2   9  -5    0.81    0.60
   1  -9  -5    1.01    0.96
   1  -9  -5    0.25    0.94
  -1  -9   5    0.13    0.68
  -1  -9   5    0.58    0.38
  -1  -9   5    0.10    0.50
  -1  -9   5    1.04    0.76
   1  -9  -5    0.86    0.63
   1  -9  -5    0.13    1.11
   1   9  -5    1.23    0.65
   1   9  -5    1.75    0.90
   1   9  -5    1.97    1.57
   1   9  -5    0.48    0.68
   1   9  -5    1.05    0.89
  -1   9   5    1.43    0.49
   1   9  -5    1.79    0.57
  -1   9   5    0.19    0.67
   1   9  -5   -0.03    0.55
   0  -9  -5   -0.36    0.91
   0  -9  -5    1.08    0.95
   0  -9  -5    0.21    1.00
   0  -9  -5    1.96    1.45
   0  -9   5    0.08    0.56
   0  -9  -5   -1.34    1.19
   0  -9   5    0.53    0.65
   0   9  -5    0.63    0.87
   0   9   5   -0.13    0.47
   0   9  -5   -0.84    0.63
   0   9  -5   -0.01    0.59
   0   9  -5   -0.30    0.91
   0   9   5   -0.50    0.49
   0   9   5    1.37    0.72
   0   9  -5    0.93    0.49
   0   9  -5    0.73    0.58
   0   9  -5    0.08    0.82
   0   9   5    0.67    0.95
  -1  -9  -5    0.31    0.85
  -1  -9  -5    0.41    0.56
   1  -9   5    1.16    0.56
   1  -9   5    1.19    0.39
   1  -9   5    1.29    0.55
  -1  -9  -5    1.19    0.74
   1  -9   5    1.21    0.86
   1   9   5    0.96    0.88
  -1   9  -5    1.07    0.44
  -1   9  -5    1.20    0.56
   1   9   5    1.35    0.72
   1   9   5    0.45    0.46
  -1   9  -5    1.03    0.78
   1   9   5    1.19    0.47
  -1   9  -5    1.05    0.46
  -1   9  -5    1.08    0.60
  -1   9  -5    1.05    0.92
   2  -9   5   -1.64    1.16
  -2  -9  -5    0.24    0.96
  -2  -9  -5    0.26    0.63
  -2  -9  -5    0.66    0.56
   2  -9   5   -0.09    0.39
  -2  -9  -5   -0.49    0.78
  -2   9  -5   -0.33    0.53
  -2   9  -5    0.04    0.43
  -2   9  -5    0.13    0.42
   2   9   5   -0.37    0.46
  -2   9  -5    0.49    0.66
   2   9   5   -0.56    0.94
  -2   9  -5    0.32    0.55
   2   9   5    0.68    0.41
  -3  -9  -5    3.73    0.67
   3   9   5    4.78    0.51
  -3   9  -5    5.29    0.65
  -3   9  -5    4.47    0.56
  -3   9  -5    5.75    0.75
   3   9   5    4.53    0.78
  -5 -10   5    0.25    0.83
   5  10  -5   -0.44    0.38
  -5  10   5    0.16    0.51
  -4 -10   5   -0.93    0.69
   4 -10  -5   -0.38    0.72
   4 -10  -5    0.26    0.83
   4  10  -5    0.36    0.45
  -4  10   5    0.21    0.59
  -4  10   5   -0.26    0.55
  -4  10   5   -0.05    0.69
  -3 -10   5    1.32    0.78
  -3 -10   5    1.52    1.03
  -3 -10   5    1.60    0.42
   3 -10  -5    2.62    0.83
   3 -10  -5    1.29    0.73
   3  10  -5    1.95    0.90
  -3  10   5    1.43    0.58
  -3  10   5    0.96    0.64
   3  10  -5    0.94    0.66
   3  10  -5    2.52    1.06
   2 -10  -5    0.73    0.83
   2 -10  -5   -0.30    1.05
  -2 -10   5   -0.21    0.58
  -2 -10   5   -0.22    0.90
  -2 -10   5    0.55    0.40
  -2 -10   5    0.47    0.88
   2 -10  -5    0.02    0.84
   2  10  -5   -0.24    0.87
  -2  10   5    1.65    0.82
   2  10  -5   -0.13    0.51
  -2  10   5   -1.32    0.71
   2  10  -5   -0.36    0.66
   2  10  -5    0.77    0.51
   2  10  -5    0.42    0.89
  -2  10   5    0.28    0.63
  -1 -10   5   -0.27    1.16
  -1 -10   5    0.89    0.80
   1 -10  -5    1.59    0.89
   1 -10  -5    0.57    1.06
  -1 -10   5    1.86    1.40
  -1 -10   5    1.20    0.42
   1  10  -5    0.61    0.51
   1  10  -5   -0.18    0.77
   1  10  -5    0.28    0.63
   1  10  -5    1.16    0.65
   1  10  -5    0.45    0.52
   1  10  -5    0.75    0.79
  -1  10   5    0.96    0.81
  -1  10   5    0.42    0.59
   0 -10   5    1.80    0.42
   0 -10  -5    2.47    0.81
   0 -10   5    1.99    1.09
   0 -10   5    1.84    0.49
   0  10  -5    2.34    0.48
   0  10  -5    0.96    0.59
   0  10  -5    1.49    0.45
   0  10   5    4.22    1.39
   0  10   5    1.42    0.38
   0  10  -5    2.18    0.73
   0  10  -5    2.29    0.77
   0  10   5    2.60    0.66
   0  10  -5    3.72    0.83
   1 -10   5    5.70    1.28
  -1 -10  -5    6.17    0.96
  -1 -10  -5    6.24    1.14
   1 -10   5    4.83    0.58
  -1  10  -5    6.45    0.69
  -1  10  -5    6.95    1.29
  -1  10  -5    5.91    0.85
  -1  10  -5    6.25    0.73
  -1  10  -5    5.25    0.93
   1  10   5    7.07    0.99
  -1  10  -5    6.26    0.94
  -2 -10  -5    5.03    0.81
   2 -10   5    4.81    0.74
  -2  10  -5    6.03    0.61
  -2  10  -5    6.02    0.59
  -2  10  -5    5.07    0.75
   2  10   5    6.93    0.81
   3 -11  -5    0.15    0.87
  -3 -11   5    0.33    0.93
   3  11  -5    0.00    0.50
  -3  11   5    0.57    0.48
  -2 -11   5    2.17    0.67
   2 -11  -5    3.31    0.90
  -2 -11   5    1.93    1.42
   2  11  -5    2.37    0.46
  -2  11   5    1.82    0.78
  -2  11   5    3.04    0.52
   1 -11  -5    3.09    0.94
   1 -11  -5   -0.02    0.78
  -1  11   5   -0.65    0.81
  -1  11   5    0.97    0.58
   1  11  -5    0.58    0.82
   1  11  -5    1.05    0.42
   0 -11  -5   -0.19    0.68
   0  11  -5    0.05    0.58
   0  11  -5    0.53    0.40
   0  11   5   -0.10    0.53
   9   0  -6    0.21    0.27
  -9   0   6    0.75    0.35
   8   0  -6    6.63    0.87
   8   0  -6    6.48    1.09
  -7   0   6    1.28    0.70
   7   0  -6   -0.27    0.63
   7   0  -6    0.31    0.77
   7   0  -6    0.76    0.51
   6   0  -6    0.56    0.90
  -6   0   6    0.59    0.61
  -6   0   6    0.89    1.10
   6   0  -6    1.15    0.77
   6   0  -6   -0.17    1.20
  -5   0   6    0.05    0.39
  -5   0   6    0.80    0.85
  -5   0   6    0.92    0.79
   5   0  -6    1.64    1.85
  -5   0   6    0.69    0.53
  -5   0   6    0.11    0.46
   5   0  -6    0.07    0.85
   5   0  -6    0.29    0.74
   5   0  -6   -0.42    1.03
  -5   0   6   -0.57    0.77
   5   0  -6    0.22    1.21
   5   0  -6    1.03    0.79
  -4   0   6   67.27    3.40
   4   0  -6   71.70    3.87
  -4   0   6   66.66    3.41
   4   0  -6   60.88    4.10
   4   0  -6   64.00    4.67
  -4   0   6   67.85    3.47
   4   0  -6   57.73    3.81
   4   0  -6   70.20    3.75
  -4   0   6   64.37    3.59
   4   0  -6   61.96    3.91
  -4   0   6   65.27    3.45
  -4   0   6   71.18    3.54
  -3   0   6    1.36    0.61
  -3   0   6    0.41    0.30
  -3   0   6    0.09    0.32
   3   0  -6    0.53    0.81
  -3   0   6    1.52    0.52
   3   0  -6    0.59    0.54
  -3   0   6    0.64    0.43
  -2   0   6   33.27    1.70
  -2   0   6   29.98    1.73
   2   0  -6   33.00    2.05
  -2   0   6   32.64    1.95
   2   0  -6   32.53    2.26
   2   0  -6   31.60    1.99
   1   0  -6   -0.29    0.85
   1   0  -6   -0.77    0.61
   1   0  -6    0.35    0.63
  -1   0   6    0.01    0.25
  -1   0   6    0.24    0.52
   0   0  -6   10.50    1.71
   0   0  -6   12.61    2.10
   0   0  -6   12.59    1.92
   0   0  -6   19.08    3.80
   0   0   6   14.69    1.42
   0   0  -6   13.99    1.26
   0   0   6   15.21    0.83
   0   0  -6   17.62    2.05
  -1   0  -6   -2.52    1.66
  -1   0  -6    0.23    1.05
  -1   0  -6    0.50    0.90
  -1   0  -6   -0.42    1.01
   1   0   6    0.10    0.22
   1   0   6    1.71    1.12
  -2   0  -6   54.81    3.06
  -2   0  -6   46.76    3.14
  -3   0  -6    0.33    0.76
  -3   0  -6    0.60    1.20
  -3   0  -6   -1.47    0.95
  -4   0  -6   98.28    5.04
  -4   0  -6   97.33    5.86
  -4   0  -6   82.81    4.82
   9  -1  -6    2.29    0.40
  -9  -1   6    1.86    0.39
   9   1  -6    1.83    0.33
   8  -1  -6   10.01    0.88
  -8  -1   6    9.96    1.06
   8  -1  -6   14.47    1.97
   8  -1  -6   10.80    1.25
   8   1  -6   12.03    0.97
   8   1  -6   10.90    1.12
  -8   1   6   10.00    1.09
   7  -1  -6    5.16    1.05
   7  -1  -6    6.79    0.85
  -7  -1   6    4.16    0.93
   7  -1  -6    5.49    0.77
  -7  -1   6    5.58    1.11
   7   1  -6    6.00    0.88
  -7   1   6    4.48    0.78
  -7   1   6    6.11    1.03
   7   1  -6    6.68    0.88
  -6  -1   6    1.48    0.97
  -6  -1   6   -0.14    0.98
   6  -1  -6    2.32    0.83
   6  -1  -6    1.00    1.31
   6  -1  -6    1.64    0.95
   6  -1  -6    1.22    1.65
  -6  -1   6    1.04    0.58
  -6  -1   6    0.76    0.76
  -6   1   6    2.50    0.92
  -6   1   6    1.06    0.70
   6   1  -6    0.13    0.67
   6   1  -6   -0.77    0.68
   6   1  -6    1.50    1.20
   6   1  -6    0.63    1.24
   6   1  -6   -0.13    0.90
   5  -1  -6    6.28    0.98
  -5  -1   6    6.87    1.19
   5  -1  -6    9.75    1.74
  -5  -1   6    7.18    0.98
   5  -1  -6    7.73    1.46
  -5  -1   6    7.19    0.93
  -5  -1   6    5.75    0.74
   5  -1  -6    9.31    1.75
   5  -1  -6    9.90    1.37
   5  -1  -6    6.24    1.27
  -5  -1   6    5.99    0.75
   5  -1  -6    7.97    2.01
   5   1  -6    6.13    1.05
  -5   1   6    7.11    1.23
   5   1  -6    7.07    0.99
  -5   1   6    6.43    0.93
   5   1  -6    7.16    0.97
  -5   1   6    5.95    0.76
  -5   1   6    7.82    0.80
   5   1  -6    4.77    1.16
  -5   1   6    5.74    0.76
   5   1  -6    3.89    3.01
   5   1  -6    6.19    0.92
  -4  -1   6    3.71    0.77
   4  -1  -6    1.92    1.06
  -4  -1   6    2.71    0.65
  -4  -1   6    2.44    0.43
  -4  -1   6    2.16    0.66
   4  -1  -6    2.35    2.32
  -4  -1   6    3.10    0.55
  -4  -1   6    3.27    0.45
   4  -1  -6    1.13    1.05
   4  -1  -6    2.64    0.80
   4   1  -6    1.93    0.89
   4   1  -6    2.08    0.86
   4   1  -6    3.21    0.80
   4   1  -6    1.00    0.91
   4   1  -6    4.77    1.86
  -4   1   6    3.63    0.55
  -4   1   6    3.22    0.47
  -4   1   6    3.11    0.68
  -4   1   6    3.96    0.79
   4   1  -6    0.87    0.98
   4   1  -6    2.99    1.56
  -3  -1   6    6.33    1.01
  -3  -1   6    6.44    0.88
  -3  -1   6    6.27    0.62
   3  -1  -6    7.08    0.98
  -3  -1   6    8.01    0.98
   3  -1  -6    6.11    1.41
  -3  -1   6    6.43    0.68
   3   1  -6    6.46    1.01
   3   1  -6    5.82    0.99
  -3   1   6    8.61    0.84
  -3   1   6    8.12    0.89
  -3   1   6    7.21    0.69
  -3   1   6    7.42    0.66
  -3   1   6    8.35    1.12
  -3   1   6    7.54    0.63
   2  -1  -6    2.43    0.86
  -2  -1   6    3.24    0.66
  -2  -1   6    1.77    0.57
  -2  -1   6    2.15    0.35
   2  -1  -6    1.90    0.60
  -2  -1   6    2.45    0.38
  -2  -1   6    1.85    0.34
  -2   1   6    2.79    0.37
  -2   1   6    2.52    0.38
   2   1  -6    2.18    0.65
  -2   1   6    2.76    0.65
   2   1  -6    1.71    0.86
  -2   1   6    3.21    0.54
   1  -1  -6   17.15    1.71
  -1  -1   6   15.26    0.87
   1  -1  -6   15.12    1.26
  -1  -1   6   15.74    1.32
  -1  -1   6   15.63    0.90
  -1   1   6   15.39    1.08
  -1   1   6   14.13    1.28
   1   1  -6   13.54    1.74
   1   1  -6   13.58    1.30
  -1   1   6   15.20    0.91
   1   1  -6   15.13    1.34
  -1   1   6   16.40    1.17
   0  -1  -6   10.04    1.14
   0  -1  -6    9.62    1.92
   0  -1  -6    9.88    2.28
   0  -1   6   10.83    0.69
   0   1  -6   10.90    1.20
   0   1   6   11.24    1.32
   0   1  -6   11.15    2.09
   0   1   6   11.89    0.70
   0   1  -6    9.53    1.38
   0   1  -6   12.50    1.47
   0   1   6   12.32    1.12
   0   1   6   10.74    0.69
  -1  -1  -6    7.87    1.61
  -1  -1  -6    6.88    1.66
  -1  -1  -6    7.70    1.36
  -1  -1  -6    8.09    1.47
   1   1   6    6.72    0.52
  -1   1  -6    8.04    1.29
  -1   1  -6    7.44    1.41
  -2  -1  -6    6.49    1.09
  -2  -1  -6    7.99    1.86
  -2  -1  -6    3.42    0.75
  -2  -1  -6    5.76    0.91
   2   1   6    7.50    1.23
   2   1   6    5.00    0.48
   2   1   6    4.24    0.59
  -3  -1  -6    9.30    1.33
  -3  -1  -6   11.15    1.41
  -3  -1  -6   10.29    1.92
  -3  -1  -6    9.65    1.23
   3   1   6   10.84    0.82
  -4  -1  -6    4.34    0.77
  -4  -1  -6    4.94    0.89
  -4   1  -6    6.42    1.34
  -5  -1  -6   19.13    2.29
  -9  -2   6    0.43    0.46
   9  -2  -6    0.82    0.32
  -9   2   6    0.75    0.34
   9   2  -6    0.16    0.38
   8  -2  -6    5.31    0.99
  -8  -2   6    4.12    0.63
   8  -2  -6    4.05    0.55
  -8   2   6    6.87    0.98
   8   2  -6    4.71    0.64
  -8   2   6    4.34    0.66
   8   2  -6    5.62    0.90
  -7  -2   6    0.47    0.68
   7  -2  -6    0.34    0.51
   7  -2  -6    0.05    0.59
  -7  -2   6    0.44    0.81
   7   2  -6    1.06    0.66
  -7   2   6    0.11    0.74
   7   2  -6   -0.01    0.45
  -7   2   6    0.23    0.65
   6  -2  -6   24.38    2.33
  -6  -2   6   22.15    1.96
  -6  -2   6   21.57    1.53
   6  -2  -6   24.95    1.80
  -6  -2   6   24.36    1.65
   6  -2  -6   25.10    1.69
  -6  -2   6   23.65    1.95
  -6   2   6   25.94    1.88
   6   2  -6   22.16    1.61
   6   2  -6   23.16    1.70
   6   2  -6   23.27    2.18
   6   2  -6   24.47    1.81
  -6   2   6   23.94    1.67
   6   2  -6   23.23    2.02
  -6   2   6   20.16    1.87
  -5  -2   6    0.45    0.43
   5  -2  -6    0.27    1.11
  -5  -2   6    0.36    0.48
   5  -2  -6    2.17    0.92
  -5  -2   6    0.50    0.70
   5  -2  -6   -0.67    0.75
   5  -2  -6    1.55    1.25
  -5  -2   6   -0.25    0.81
   5  -2  -6    1.87    0.84
   5  -2  -6   -0.91    1.00
   5  -2  -6   -0.76    1.77
  -5   2   6   -0.53    0.49
   5   2  -6   -0.72    1.03
  -5   2   6    0.45    0.40
   5   2  -6   -0.49    0.88
  -5   2   6    0.84    0.99
   5   2  -6   -0.27    0.83
   5   2  -6   -0.70    0.74
   5   2  -6   -0.45    0.66
  -4  -2   6   -0.41    0.43
   4  -2  -6    1.00    1.00
   4  -2  -6    1.02    0.78
   4  -2  -6   -0.26    0.72
   4  -2  -6   -0.73    1.08
  -4  -2   6    1.17    0.55
   4  -2  -6    1.39    1.74
  -4  -2   6    0.10    0.38
   4  -2  -6   -0.57    2.97
  -4  -2   6   -0.02    0.37
  -4  -2   6    1.15    1.54
   4   2  -6    1.20    0.78
   4   2  -6   -0.74    0.78
   4   2  -6   -2.48    2.21
   4   2  -6   -0.02    0.73
  -4   2   6   -0.16    0.40
   4   2  -6    0.18    0.76
  -4   2   6    0.54    0.60
  -4   2   6   -0.33    0.37
   4   2  -6    1.33    1.42
  -4   2   6    0.09    0.40
   4   2  -6    0.46    0.86
  -4   2   6    0.65    0.49
  -3  -2   6   -0.08    0.57
   3  -2  -6   -0.31    0.58
  -3  -2   6   -0.22    0.56
   3  -2  -6    0.49    0.82
  -3  -2   6   -0.24    0.30
   3  -2  -6    0.52    1.32
   3  -2  -6    0.03    0.81
  -3  -2   6   -0.91    0.50
  -3  -2   6    0.17    0.31
   3  -2  -6    1.26    1.16
  -3  -2   6   -0.11    0.35
   3  -2  -6    1.62    1.86
   3   2  -6    2.26    1.67
   3   2  -6   -1.62    1.79
  -3   2   6   -0.08    0.51
  -3   2   6    0.61    0.45
   3   2  -6   -0.11    0.65
  -3   2   6   -0.12    0.62
   3   2  -6   -0.12    0.65
   3   2  -6    1.22    0.87
  -3   2   6    0.08    0.28
   3   2  -6    0.66    0.80
  -3   2   6    0.04    0.36
  -3   2   6   -0.30    0.33
   3   2  -6    0.02    0.78
   3   2  -6   -0.47    0.98
   2  -2  -6    8.61    1.04
  -2  -2   6    6.67    1.07
  -2  -2   6    8.96    0.92
  -2  -2   6    8.57    0.68
  -2  -2   6    8.50    0.68
   2  -2  -6    7.59    1.44
  -2  -2   6    7.65    0.69
  -2   2   6   10.72    0.96
  -2   2   6    9.67    0.70
   2   2  -6    9.50    1.35
   2   2  -6    8.90    1.10
  -2   2   6    9.20    0.69
   2   2  -6    8.97    1.40
   2   2  -6    8.56    1.12
  -1  -2   6   11.48    1.02
   1  -2  -6    9.17    1.42
   1  -2  -6   10.46    1.09
  -1  -2   6   11.16    0.71
   1  -2  -6    8.27    1.38
   1  -2  -6   12.04    2.22
   1  -2  -6   10.20    1.61
   1  -2  -6   10.49    2.43
   1   2  -6    9.19    1.21
  -1   2   6   13.45    1.47
  -1   2   6   11.34    1.06
   1   2  -6   10.92    1.18
   1   2  -6   10.13    1.45
  -1   2   6   10.44    0.71
   1   2  -6   13.65    1.76
  -1   2   6    8.23    0.78
   1   2  -6   10.84    1.93
   0  -2  -6    8.60    1.05
   0  -2  -6   10.34    1.47
   0  -2   6   10.54    1.17
   0  -2  -6    9.69    2.33
   0  -2  -6   11.80    1.69
   0  -2   6    8.97    0.63
   0  -2   6    9.78    0.65
   0  -2  -6    8.85    1.51
   0   2   6    7.49    1.15
   0   2   6    9.84    0.63
   0   2   6    9.95    0.68
   0   2  -6   10.14    1.42
   0   2  -6    9.35    1.77
   0   2  -6    8.81    1.45
   0   2  -6    9.41    2.10
  -1  -2  -6    0.66    0.83
  -1  -2  -6   -0.28    1.36
  -1  -2  -6    0.67    0.87
  -1  -2  -6    0.70    0.64
  -1  -2  -6    0.45    0.78
  -1   2  -6    1.43    1.05
  -1   2  -6   -2.36    1.37
  -1   2  -6    1.96    1.54
   1   2   6    0.30    0.28
  -1   2  -6    1.97    1.38
   1   2   6    0.30    0.23
  -2  -2  -6   10.24    1.17
  -2  -2  -6   10.80    1.27
  -2  -2  -6    9.35    1.78
  -2  -2  -6   11.26    1.81
  -2  -2  -6   10.68    1.52
   2   2   6    9.61    0.67
   2   2   6    7.31    0.78
   2   2   6    9.43    1.53
  -3  -2  -6   12.99    1.62
  -3  -2  -6   11.20    1.57
  -3  -2  -6   12.20    1.16
  -3  -2  -6   12.68    1.31
  -3  -2  -6   10.06    1.67
   3   2   6   10.47    0.87
   3   2   6   12.85    1.34
  -4  -2  -6    4.21    1.24
  -4  -2  -6    2.35    0.84
  -4  -2  -6    3.12    0.70
  -4  -2  -6    3.64    0.66
   4   2   6    3.57    0.83
  -5  -2  -6    2.10    0.56
  -9  -3   6    0.06    0.33
   9   3  -6    0.47    0.29
   8  -3  -6   -0.74    0.43
   8  -3  -6    0.63    0.55
  -8  -3   6    0.14    0.52
  -8  -3   6    0.82    0.47
   8   3  -6   -0.44    0.51
   8   3  -6   -0.25    0.35
  -8   3   6    1.34    0.52
  -8   3   6   -0.28    0.51
   7  -3  -6    0.37    0.57
   7  -3  -6    1.17    0.56
  -7  -3   6    0.55    0.68
  -7  -3   6    0.90    0.66
  -7   3   6    0.26    0.68
   7   3  -6    0.22    0.55
   7   3  -6    0.48    0.47
   7   3  -6    1.68    0.65
  -7   3   6    0.17    0.59
   6  -3  -6    5.22    2.91
  -6  -3   6    4.62    0.96
   6  -3  -6    8.21    1.24
  -6  -3   6    6.02    0.93
  -6  -3   6    4.94    1.44
  -6  -3   6    7.51    0.99
   6  -3  -6    7.56    1.18
  -6   3   6    5.61    1.12
   6   3  -6    5.39    0.93
   6   3  -6    6.94    0.92
   6   3  -6    5.08    2.19
   6   3  -6    6.59    1.35
   6   3  -6    6.51    0.86
   6   3  -6    9.35    1.50
  -6   3   6    6.51    0.95
   5  -3  -6   16.64    2.04
   5  -3  -6   24.46    2.62
  -5  -3   6   21.71    1.78
   5  -3  -6   19.92    2.02
  -5  -3   6   20.03    1.30
  -5  -3   6   24.02    1.53
   5  -3  -6   17.36    1.78
   5  -3  -6   22.52    1.77
  -5  -3   6   23.58    1.52
  -5  -3   6   20.39    1.63
   5   3  -6   20.70    1.52
  -5   3   6   20.03    1.80
   5   3  -6   19.24    1.84
   5   3  -6   17.25    1.87
   5   3  -6   19.81    2.92
   5   3  -6   20.73    1.58
  -5   3   6   19.13    1.82
   5   3  -6   18.35    1.77
  -5   3   6   19.62    1.27
  -4  -3   6    2.56    1.29
   4  -3  -6    2.80    0.88
  -4  -3   6    2.62    0.48
  -4  -3   6    3.34    0.48
  -4  -3   6    3.17    0.66
   4  -3  -6    3.39    1.06
  -4  -3   6    2.28    0.50
   4  -3  -6    5.18    0.97
   4  -3  -6    2.96    0.92
  -4  -3   6    3.31    0.65
   4  -3  -6    4.86    1.75
   4  -3  -6    0.60    1.38
   4  -3  -6    3.05    0.83
   4   3  -6    3.70    0.94
   4   3  -6    1.35    0.98
   4   3  -6    2.86    0.85
  -4   3   6    4.35    0.90
   4   3  -6    4.29    0.78
  -4   3   6    2.18    0.73
   4   3  -6    1.21    1.38
  -4   3   6    2.81    0.50
   4   3  -6    2.77    0.82
   4   3  -6    0.74    1.50
   4   3  -6    2.28    0.74
  -4   3   6    1.95    0.62
  -4   3   6    3.68    0.65
  -4   3   6    2.80    0.50
   4   3  -6    1.38    0.99
  -3  -3   6   75.70    3.86
   3  -3  -6   68.23    4.01
  -3  -3   6   77.21    3.70
  -3  -3   6   73.48    3.82
   3  -3  -6   65.86    4.11
  -3  -3   6   76.20    3.73
  -3  -3   6   74.17    3.76
   3  -3  -6   70.86    4.04
   3   3  -6   68.96    4.09
   3   3  -6   78.56    4.01
   3   3  -6   66.68    4.70
  -3   3   6   75.14    3.73
  -3   3   6   75.84    3.80
   3   3  -6   69.25    4.10
   3   3  -6   71.06    4.07
   3   3  -6   71.68    4.59
  -3   3   6   72.12    3.74
  -3   3   6   75.33    3.91
  -2  -3   6   -0.05    0.31
   2  -3  -6    0.84    0.95
  -2  -3   6    0.35    0.25
  -2  -3   6   -0.15    0.49
   2  -3  -6    0.86    0.66
   2  -3  -6    1.20    1.17
   2  -3  -6   -0.50    0.77
  -2  -3   6    0.00    0.32
  -2   3   6   -0.14    0.50
  -2   3   6    0.24    0.34
  -2   3   6    0.21    0.35
   2   3  -6    0.41    0.70
   2   3  -6   -0.46    1.15
   2   3  -6   -0.36    0.81
  -2   3   6    0.03    0.54
  -2   3   6    0.34    0.27
   2   3  -6    0.55    0.63
   2   3  -6   -0.90    1.00
   1  -3  -6   14.17    3.00
   1  -3  -6   12.23    2.59
  -1  -3   6   19.04    1.01
   1  -3  -6   17.31    2.44
  -1  -3   6   18.37    1.06
   1  -3  -6   17.16    1.57
  -1  -3   6   17.00    1.32
   1  -3  -6   21.07    1.46
   1  -3  -6   16.35    1.65
  -1   3   6   18.50    1.12
   1   3  -6   17.49    2.51
   1   3  -6   18.94    1.51
  -1   3   6   17.95    1.10
   1   3  -6   13.31    2.12
  -1   3   6   19.20    1.37
   1   3  -6   16.82    1.75
   1   3  -6   16.87    1.70
   1   3  -6   15.49    2.18
  -1   3   6   19.10    1.04
   0  -3  -6   51.69    3.07
   0  -3   6   56.67    2.71
   0  -3  -6   52.75    3.16
   0  -3   6   57.45    2.74
   0  -3  -6   52.79    3.13
   0  -3  -6   48.88    3.46
   0  -3   6   54.40    2.98
   0  -3  -6   54.08    3.69
   0   3  -6   55.98    3.59
   0   3  -6   51.52    3.13
   0   3  -6   52.75    3.06
   0   3  -6   51.17    3.27
   0   3   6   51.65    2.79
   0   3  -6   57.29    3.20
   0   3  -6   55.57    3.25
   0   3   6   53.95    2.84
   0   3   6   51.83    3.05
   0   3   6   54.70    2.74
   0   3  -6   48.70    4.22
   1  -3   6    4.15    0.90
  -1  -3  -6    2.84    1.21
  -1  -3  -6    2.61    0.60
  -1  -3  -6    4.47    0.88
  -1  -3  -6    4.18    1.37
   1  -3   6    5.20    0.52
  -1  -3  -6    3.38    0.97
  -1  -3  -6    2.67    1.78
  -1   3  -6    3.75    1.53
  -1   3  -6    5.15    1.02
   1   3   6    3.91    0.59
  -1   3  -6    4.37    1.46
  -1   3  -6    4.40    0.85
   1   3   6    4.46    0.46
  -1   3  -6    3.24    1.12
  -1   3  -6    3.44    0.90
  -2  -3  -6   -0.28    0.80
  -2  -3  -6    1.64    1.47
  -2  -3  -6   -0.41    0.89
  -2  -3  -6    0.10    0.64
  -2  -3  -6    0.34    0.54
  -2  -3  -6    0.31    0.72
  -2   3  -6   -0.08    1.21
   2   3   6   -0.42    0.59
   2   3   6    0.04    0.30
   2   3   6    0.97    0.58
  -2   3  -6    0.25    0.74
   2   3   6   -0.86    1.27
  -3  -3  -6    5.80    0.94
  -3  -3  -6    5.38    0.87
  -3  -3  -6    4.66    0.83
  -3  -3  -6    4.61    0.70
  -3  -3  -6    3.94    0.80
  -4  -3  -6   -0.29    0.64
  -4  -3  -6    1.20    0.79
  -4  -3  -6    0.24    0.49
  -4  -3  -6    0.03    0.51
  -8  -4   6    1.85    0.55
   8  -4  -6    2.71    0.51
  -8  -4   6    3.51    0.62
   8  -4  -6    3.59    0.60
   8   4  -6    2.60    0.51
   8   4  -6    2.41    0.44
   8   4  -6    2.27    0.61
  -8   4   6    4.02    0.68
  -8   4   6    1.86    0.53
   7  -4  -6    3.81    0.64
  -7  -4   6    5.17    0.96
   7  -4  -6    2.21    0.71
  -7   4   6    3.77    1.00
  -7   4   6    3.22    0.66
   7   4  -6    3.90    0.68
   7   4  -6    3.42    0.73
   7   4  -6    4.76    0.61
  -6  -4   6    0.60    0.80
  -6  -4   6    1.95    0.92
  -6  -4   6    0.44    0.49
   6  -4  -6    1.02    0.67
  -6   4   6    1.81    0.86
   6   4  -6    0.33    0.50
   6   4  -6    0.69    0.63
   6   4  -6    1.11    1.14
  -6   4   6    0.32    0.66
   6   4  -6    0.76    1.63
   5  -4  -6    0.89    0.95
   5  -4  -6    0.72    1.12
   5  -4  -6    1.07    2.33
  -5  -4   6    0.86    0.77
   5  -4  -6    1.04    1.47
  -5  -4   6    0.93    0.53
  -5  -4   6    0.02    0.75
   5  -4  -6    1.89    0.89
  -5  -4   6    0.71    0.43
   5   4  -6    1.51    0.65
  -5   4   6    0.04    0.66
  -5   4   6    0.74    0.49
   5   4  -6   -0.77    1.12
  -5   4   6    1.75    0.86
   5   4  -6    1.83    1.37
  -5   4   6   -0.43    1.08
   5   4  -6    0.47    0.85
   5   4  -6    0.79    1.28
   5   4  -6    0.54    0.70
   4  -4  -6    2.71    1.09
  -4  -4   6    0.52    0.68
   4  -4  -6    1.15    1.31
   4  -4  -6    3.07    1.64
   4  -4  -6    2.09    0.86
  -4  -4   6    1.87    0.45
   4  -4  -6    2.02    0.79
  -4  -4   6    2.13    0.45
  -4  -4   6    1.47    0.53
   4  -4  -6    2.01    0.89
  -4  -4   6    2.44    0.67
  -4  -4   6    1.98    1.02
   4   4  -6    2.23    1.43
   4   4  -6    2.38    1.31
   4   4  -6    1.21    0.81
  -4   4   6    1.17    0.79
   4   4  -6    2.19    0.77
  -4   4   6    2.56    0.45
   4   4  -6    1.91    0.66
  -4   4   6    1.55    0.54
  -4   4   6    1.50    0.57
  -4   4   6    1.86    0.75
   4   4  -6    0.60    1.05
   4   4  -6    2.15    1.30
   4   4  -6    1.03    1.11
   4   4  -6    1.23    0.63
   4   4  -6    2.35    0.92
   3  -4  -6   43.16    2.62
  -3  -4   6   43.46    2.24
   3  -4  -6   40.91    2.77
  -3  -4   6   42.66    2.44
   3  -4  -6   39.62    2.59
  -3  -4   6   41.45    2.32
  -3  -4   6   42.91    2.33
   3  -4  -6   45.99    2.74
   3  -4  -6   41.98    2.84
   3  -4  -6   40.94    3.03
   3  -4  -6   39.44    3.46
   3  -4  -6   46.58    2.68
  -3  -4   6   43.69    2.26
   3   4  -6   38.57    3.00
   3   4  -6   42.60    2.76
   3   4  -6   37.58    3.23
  -3   4   6   38.66    3.10
   3   4  -6   38.70    2.88
  -3   4   6   44.57    2.27
  -3   4   6   43.70    2.28
   3   4  -6   39.71    2.50
   3   4  -6   42.30    2.50
   3   4  -6   42.93    2.68
  -3   4   6   42.03    2.40
   3   4  -6   44.54    2.62
  -3   4   6   43.19    2.29
  -3   4   6   41.77    2.53
   3   4  -6   44.87    2.98
   3   4  -6   38.93    2.73
   2  -4  -6    9.35    1.25
  -2  -4   6    8.95    0.70
  -2  -4   6    8.25    0.76
   2  -4  -6   10.46    1.50
   2  -4  -6    9.87    1.58
   2  -4  -6   11.93    1.53
   2  -4  -6    8.23    1.30
  -2  -4   6    7.53    0.99
  -2  -4   6    8.32    0.65
   2  -4  -6    9.74    1.19
   2  -4  -6   10.35    1.44
   2   4  -6    8.22    1.28
   2   4  -6    8.34    1.14
   2   4  -6    9.53    1.41
   2   4  -6    6.56    1.33
  -2   4   6    7.61    1.15
  -2   4   6    9.04    0.85
   2   4  -6    7.36    1.29
  -2   4   6    8.82    0.74
  -2   4   6    8.65    0.88
   2   4  -6    8.51    1.36
   2   4  -6    8.51    1.82
  -2   4   6    9.03    0.70
   2   4  -6    8.14    1.39
   2   4  -6    6.03    1.46
   1  -4  -6   63.48    3.81
   1  -4  -6   68.97    3.86
  -1  -4   6   74.52    3.53
  -1  -4   6   71.70    3.49
   1  -4  -6   67.90    3.94
   1  -4  -6   64.36    4.16
   1  -4  -6   72.31    3.81
  -1  -4   6   74.48    3.68
   1  -4  -6   58.56    4.09
   1  -4  -6   66.79    3.75
  -1  -4   6   73.55    3.45
   1   4  -6   63.95    3.84
  -1   4   6   67.33    3.76
  -1   4   6   62.72    3.56
   1   4  -6   67.87    3.74
   1   4  -6   69.61    3.78
   1   4  -6   64.50    4.02
   1   4  -6   64.55    4.13
  -1   4   6   71.41    3.53
   1   4  -6   64.99    3.88
  -1   4   6   70.03    3.62
  -1   4   6   70.02    3.48
   1   4  -6   70.30    3.94
   1   4  -6   67.72    4.56
   0  -4  -6   37.80    2.27
   0  -4  -6   34.46    2.24
   0  -4   6   36.16    1.89
   0  -4  -6   31.06    2.89
   0  -4   6   34.67    2.20
   0  -4  -6   35.90    2.94
   0  -4  -6   35.20    2.33
   0  -4  -6   36.50    3.05
   0  -4  -6   40.14    2.38
   0  -4  -6   36.15    2.67
   0  -4   6   36.89    1.85
   0  -4  -6   29.87    2.65
   0   4  -6   33.30    2.82
   0   4  -6   32.65    2.22
   0   4  -6   33.31    2.43
   0   4   6   33.05    2.42
   0   4  -6   34.79    2.37
   0   4  -6   31.25    2.47
   0   4   6   36.67    1.96
   0   4   6   39.98    1.98
   0   4   6   36.98    1.90
   0   4  -6   36.08    2.49
  -1  -4  -6   27.98    2.54
  -1  -4  -6   29.01    2.62
  -1  -4  -6   34.00    2.26
   1  -4   6   32.79    1.81
   1  -4   6   29.55    2.25
  -1  -4  -6   34.44    2.11
  -1  -4  -6   35.92    2.39
  -1  -4  -6   36.66    2.19
   1  -4   6   33.62    1.79
  -1  -4  -6   37.21    2.88
  -1  -4  -6   32.60    2.59
   1   4   6   32.42    1.90
   1   4   6   34.75    1.81
  -1   4  -6   35.64    2.37
  -1   4  -6   32.40    2.91
  -1   4  -6   34.28    2.17
  -1   4  -6   33.91    2.82
  -1   4  -6   33.38    2.63
  -1   4  -6   33.57    2.10
   1   4   6   36.93    1.91
  -1   4  -6   29.83    2.30
   2  -4   6   15.12    1.09
  -2  -4  -6   18.23    1.56
  -2  -4  -6   16.25    1.34
  -2  -4  -6   18.44    1.42
  -2  -4  -6   18.28    2.05
  -2  -4  -6   14.42    1.80
  -2   4  -6   16.48    1.61
  -2   4  -6   17.45    1.45
  -2   4  -6   16.51    1.37
  -2   4  -6   16.79    1.87
   2   4   6   12.91    1.14
   2   4   6   16.80    1.03
  -3  -4  -6    3.01    1.15
  -3  -4  -6    2.66    0.76
  -3  -4  -6    1.65    0.60
  -3  -4  -6    3.17    1.09
  -3  -4  -6    4.38    0.90
   3   4   6    1.33    0.55
  -3   4  -6    1.79    0.68
   3   4   6    2.87    0.62
  -3   4  -6    1.69    0.81
  -3   4  -6    3.13    0.74
  -4  -4  -6    9.34    0.90
  -4  -4  -6    8.03    1.25
  -4  -4  -6    9.53    0.91
  -4  -4  -6    6.92    1.31
   4   4   6   10.16    0.86
  -4   4  -6   11.69    1.19
  -8  -5   6   -0.28    0.38
   8  -5  -6   -0.01    0.47
   8   5  -6    0.40    0.45
   8   5  -6    0.14    0.39
  -8   5   6    0.61    0.36
   8   5  -6    0.70    0.45
  -7  -5   6   -0.13    0.52
   7  -5  -6   -0.81    0.55
   7   5  -6    0.10    0.45
  -7   5   6   -0.52    0.71
   7   5  -6    0.00    0.45
   7   5  -6    0.10    0.52
  -7   5   6   -0.26    0.56
   6  -5  -6    0.56    0.66
   6  -5  -6    1.52    1.60
  -6  -5   6    0.41    0.47
  -6  -5   6    0.08    0.67
   6  -5  -6    1.39    1.42
   6   5  -6    0.17    0.61
  -6   5   6    0.18    0.59
  -6   5   6    1.41    0.85
   6   5  -6    0.61    0.54
   6   5  -6   -1.32    1.33
   6   5  -6   -0.32    0.55
  -5  -5   6    2.50    0.62
   5  -5  -6    2.48    0.96
  -5  -5   6    2.85    0.49
   5  -5  -6    3.17    0.88
   5  -5  -6    3.56    0.86
   5   5  -6    3.97    0.70
   5   5  -6    2.62    0.89
   5   5  -6    2.10    1.86
   5   5  -6    2.43    1.33
  -5   5   6    2.44    0.57
  -5   5   6    1.14    1.57
   5   5  -6    2.98    0.71
  -5   5   6    2.95    0.70
   5   5  -6    1.93    0.70
  -4  -5   6   36.43    2.45
  -4  -5   6   41.32    2.44
  -4  -5   6   40.37    2.26
  -4  -5   6   41.32    2.19
   4  -5  -6   38.34    3.27
   4  -5  -6   38.49    2.81
  -4  -5   6   41.09    2.19
   4  -5  -6   42.36    2.72
   4   5  -6   40.77    2.77
   4   5  -6   40.03    2.41
  -4   5   6   40.31    2.29
  -4   5   6   34.83    2.58
   4   5  -6   40.60    2.89
  -4   5   6   42.83    2.20
  -3  -5   6    2.42    0.46
   3  -5  -6    2.50    0.81
   3  -5  -6    3.90    1.03
   3  -5  -6    2.05    1.13
   3  -5  -6    4.47    1.05
  -3  -5   6    2.84    0.52
   3  -5  -6    2.24    0.69
  -3  -5   6    2.50    0.63
  -3  -5   6    2.47    0.71
   3  -5  -6    2.25    0.90
   3  -5  -6    3.87    1.41
  -3   5   6    4.18    0.87
   3   5  -6    1.66    1.26
   3   5  -6    3.41    0.73
   3   5  -6    3.89    0.98
   3   5  -6    1.92    0.90
   3   5  -6    2.79    1.10
   3   5  -6    2.67    1.30
   3   5  -6    1.80    0.73
   3   5  -6    2.32    0.70
  -3   5   6    1.60    0.81
  -3   5   6    1.92    0.55
  -3   5   6    3.07    0.76
  -3   5   6    3.73    0.98
   3   5  -6    1.47    0.88
  -2  -5   6   29.63    1.78
  -2  -5   6   30.93    1.71
   2  -5  -6   33.35    2.08
   2  -5  -6   32.19    2.21
   2  -5  -6   31.35    2.20
   2  -5  -6   28.82    2.57
   2  -5  -6   31.41    2.66
   2  -5  -6   32.91    2.33
  -2  -5   6   30.42    1.95
   2  -5  -6   31.88    2.08
  -2  -5   6   31.50    1.69
  -2  -5   6   30.25    1.85
   2   5  -6   28.73    2.20
  -2   5   6   33.56    1.77
  -2   5   6   30.56    1.91
   2   5  -6   30.12    2.27
   2   5  -6   30.38    2.69
   2   5  -6   28.74    3.47
   2   5  -6   29.57    2.86
  -2   5   6   32.35    2.14
   2   5  -6   30.10    2.04
  -2   5   6   32.90    1.77
   2   5  -6   27.05    2.23
  -2   5   6   30.51    2.35
   2   5  -6   29.13    2.33
   2   5  -6   31.49    2.03
  -2   5   6   32.52    1.79
   1  -5  -6    0.76    0.76
   1  -5  -6    1.25    0.66
   1  -5  -6    0.40    1.10
   1  -5  -6    0.66    0.91
  -1  -5   6   -0.62    0.40
   1  -5  -6    0.88    0.97
  -1  -5   6    0.55    0.66
   1  -5  -6    1.05    0.64
  -1  -5   6    0.58    0.31
   1   5  -6   -0.76    1.43
  -1   5   6    0.16    0.47
  -1   5   6    0.04    0.46
  -1   5   6    0.03    0.89
   1   5  -6   -0.16    1.14
  -1   5   6   -0.90    1.18
   1   5  -6    0.37    0.74
   1   5  -6    0.24    0.86
  -1   5   6   -0.09    0.35
   1   5  -6   -0.98    0.89
   1   5  -6    0.37    1.05
   1   5  -6    0.22    0.67
   0  -5  -6   15.25    2.41
   0  -5  -6   19.38    1.79
   0  -5  -6   21.72    2.67
   0  -5  -6   22.18    1.70
   0  -5  -6   18.52    1.71
   0  -5  -6   23.49    3.29
   0  -5   6   20.24    1.25
   0  -5   6   20.50    1.18
   0  -5   6   19.73    1.25
   0  -5   6   21.06    1.66
   0  -5  -6   22.05    1.84
   0  -5  -6   19.09    2.09
   0   5   6   20.67    1.32
   0   5  -6   20.73    1.61
   0   5  -6   21.62    2.13
   0   5  -6   20.57    2.86
   0   5   6   21.74    1.24
   0   5   6   18.70    1.38
   0   5  -6   22.50    1.59
   0   5  -6   22.00    1.81
   0   5  -6   21.40    1.98
   0   5   6   17.79    2.17
   0   5   6   20.96    1.36
  -1  -5  -6    2.70    0.71
  -1  -5  -6    1.27    0.60
   1  -5   6    2.89    0.57
  -1  -5  -6    2.46    1.17
   1  -5   6    2.17    0.42
   1  -5   6    2.26    0.53
  -1  -5  -6    1.70    0.62
   1  -5   6   -0.02    1.16
  -1  -5  -6    1.29    0.91
  -1   5  -6    3.08    1.09
  -1   5  -6    1.53    0.70
  -1   5  -6    2.28    0.81
  -1   5  -6    2.53    0.68
  -1   5  -6    3.15    1.22
   1   5   6    2.71    0.47
   1   5   6    2.74    0.59
   1   5   6    3.11    0.58
  -1   5  -6    6.88    2.62
   1   5   6    1.71    0.68
   1   5   6    2.66    1.29
  -2  -5  -6    0.56    0.62
  -2  -5  -6    0.99    0.54
  -2  -5  -6    1.14    1.31
  -2  -5  -6    0.20    0.73
   2  -5   6   -0.17    0.43
  -2  -5  -6    0.41    0.51
   2   5   6    0.07    0.52
   2   5   6    0.30    0.39
   2   5   6   -0.63    0.53
  -2   5  -6   -0.19    0.70
  -2   5  -6    0.74    0.60
  -2   5  -6    0.60    0.51
  -2   5  -6   -0.28    0.80
  -3  -5  -6    2.48    0.67
  -3  -5  -6    2.02    0.55
  -3  -5  -6    1.68    0.76
  -3  -5  -6    1.91    0.51
  -3   5  -6    2.27    0.60
  -3   5  -6    2.15    0.63
   3   5   6    1.38    0.48
   3   5   6    1.77    0.54
  -3   5  -6    1.45    1.00
  -4  -5  -6    0.81    0.41
  -4  -5  -6    1.86    0.79
  -4  -5  -6    0.84    0.40
  -4  -5  -6   -0.14    0.53
  -4   5  -6    0.42    0.62
   4   5   6    1.14    0.37
   8  -6  -6    0.82    0.41
  -8  -6   6    0.29    0.32
   8   6  -6    0.51    0.42
  -8   6   6    0.87    0.28
   7  -6  -6    2.54    0.54
  -7  -6   6    3.59    0.75
   7   6  -6    4.44    0.70
  -7   6   6    3.45    0.55
   7   6  -6    4.85    0.73
   7   6  -6    3.19    0.68
  -6  -6   6    1.47    0.63
   6  -6  -6    3.35    1.31
   6  -6  -6   -0.26    1.23
   6  -6  -6    1.15    0.60
  -6   6   6    2.87    0.96
  -6   6   6    0.41    0.55
   6   6  -6    0.50    0.58
   6   6  -6    0.58    0.57
   6   6  -6    0.64    0.52
  -5  -6   6   10.59    0.93
  -5  -6   6    8.55    1.40
   5  -6  -6    9.98    1.64
  -5  -6   6    9.07    0.97
   5  -6  -6    9.83    1.40
   5  -6  -6    8.87    1.24
   5  -6  -6    9.39    1.44
  -5   6   6   10.36    1.21
   5   6  -6    7.46    1.13
  -5   6   6    9.61    1.12
   5   6  -6    8.66    1.23
   5   6  -6    8.78    1.06
   4  -6  -6   11.89    1.96
   4  -6  -6   13.30    1.48
   4  -6  -6   13.08    1.45
  -4  -6   6   12.95    1.25
  -4  -6   6   11.29    0.89
  -4  -6   6   12.13    1.36
  -4  -6   6    9.96    0.92
  -4  -6   6   10.45    1.57
   4  -6  -6    9.81    1.69
  -4   6   6   12.51    1.26
   4   6  -6    9.64    1.50
  -4   6   6   14.80    2.08
   4   6  -6   12.09    1.23
   4   6  -6   11.09    1.33
   4   6  -6    8.90    2.13
  -4   6   6   12.14    1.16
   4   6  -6    9.73    1.93
   4   6  -6   10.07    1.20
  -4   6   6   10.42    1.01
   4   6  -6   12.55    1.72
   4   6  -6   13.30    2.25
  -3  -6   6   10.73    1.57
   3  -6  -6    8.66    1.82
   3  -6  -6    6.49    1.44
  -3  -6   6    8.12    0.80
  -3  -6   6    7.31    1.26
   3  -6  -6    8.85    1.21
   3  -6  -6    9.15    1.28
   3  -6  -6    7.27    1.62
  -3  -6   6    8.11    0.86
  -3  -6   6    7.81    1.01
  -3  -6   6    7.38    0.75
   3   6  -6    6.99    1.58
   3   6  -6   11.40    2.09
  -3   6   6    7.84    1.27
   3   6  -6    8.90    1.17
   3   6  -6    6.67    1.31
   3   6  -6    8.10    1.11
   3   6  -6    7.52    1.35
   3   6  -6   10.70    1.95
  -3   6   6    9.61    0.80
   3   6  -6    9.22    1.27
   3   6  -6    5.27    1.16
  -3   6   6    6.79    0.96
   2  -6  -6    4.16    1.34
   2  -6  -6    6.08    1.20
  -2  -6   6    7.17    0.69
  -2  -6   6    6.64    0.98
   2  -6  -6    4.81    1.02
   2  -6  -6    8.25    1.49
  -2  -6   6    7.68    0.97
  -2  -6   6    8.06    0.70
   2  -6  -6    5.67    0.86
   2  -6  -6    7.07    1.31
   2  -6  -6    6.90    1.17
  -2  -6   6    6.25    0.83
   2   6  -6    7.67    0.95
   2   6  -6    7.80    1.28
  -2   6   6    4.59    0.91
   2   6  -6    7.28    1.07
  -2   6   6    6.77    0.89
   2   6  -6    6.24    1.09
  -2   6   6    6.45    0.78
  -2   6   6    6.90    0.82
   2   6  -6    6.71    1.08
  -2   6   6    4.53    1.21
   2   6  -6    5.66    1.24
  -2   6   6    6.90    1.29
   2   6  -6    8.81    1.74
   2   6  -6   10.03    2.06
  -1  -6   6   21.69    1.24
   1  -6  -6   26.23    3.55
  -1  -6   6   19.86    1.69
  -1  -6   6   20.52    1.25
  -1  -6   6   19.06    1.35
   1  -6  -6   21.95    2.09
   1  -6  -6   21.04    2.20
   1  -6  -6   23.82    2.10
   1  -6  -6   20.85    1.59
   1  -6  -6   16.20    2.20
  -1  -6   6   19.20    1.40
   1  -6  -6   20.40    1.60
   1  -6  -6   21.64    1.77
   1   6  -6   23.48    2.58
  -1   6   6   20.97    1.33
  -1   6   6   20.65    2.28
  -1   6   6   17.85    1.58
   1   6  -6   20.69    1.73
   1   6  -6   20.69    2.18
  -1   6   6   22.37    1.33
  -1   6   6   20.74    1.34
  -1   6   6   18.07    1.84
   1   6  -6   20.29    1.95
   1   6  -6   21.38    1.55
   1   6  -6   21.90    2.16
   1   6  -6   19.37    1.62
   0  -6  -6    0.63    1.41
   0  -6   6    2.71    0.46
   0  -6  -6    2.25    0.61
   0  -6   6    0.68    1.11
   0  -6   6    2.24    0.61
   0  -6  -6    1.50    1.53
   0  -6  -6    1.60    1.01
   0  -6  -6    1.84    0.74
   0  -6  -6    0.94    1.45
   0  -6  -6    1.60    0.63
   0  -6  -6    1.42    0.97
   0  -6   6    1.84    0.41
   0   6  -6    0.82    1.04
   0   6  -6   -0.74    1.63
   0   6  -6    2.36    0.67
   0   6   6    0.45    0.74
   0   6  -6    1.48    0.89
   0   6  -6    1.47    1.40
   0   6   6    1.95    0.53
   0   6   6    1.64    0.50
   0   6  -6    2.24    0.62
   0   6   6    1.70    0.53
   0   6  -6    1.43    0.65
   0   6  -6    2.23    0.70
   0   6   6    0.99    0.91
  -1  -6  -6   78.99    4.55
  -1  -6  -6   82.93    4.46
   1  -6   6   79.68    4.16
  -1  -6  -6   82.90    4.38
  -1  -6  -6   87.80    4.78
  -1  -6  -6   84.68    4.41
  -1   6  -6   83.64    4.40
  -1   6  -6   79.27    4.64
  -1   6  -6   89.01    4.41
   1   6   6   82.59    4.23
   1   6   6   82.02    4.89
  -1   6  -6   84.65    4.46
  -1   6  -6   77.19    4.66
   1   6   6   78.07    4.21
  -1   6  -6   82.06    4.34
  -2  -6  -6    1.56    1.96
   2  -6   6    1.46    0.60
  -2  -6  -6    2.41    0.71
  -2   6  -6    2.60    0.72
   2   6   6    3.73    0.67
   2   6   6    2.32    0.56
  -2   6  -6    4.18    0.94
  -2   6  -6    2.10    0.72
  -3  -6  -6    0.03    0.44
  -3  -6  -6    0.22    0.49
  -3  -6  -6    1.01    0.69
   3   6   6    0.83    0.35
  -3   6  -6    0.50    0.54
  -3   6  -6   -0.49    0.87
  -3   6  -6    0.83    0.53
   3   6   6   -0.30    0.62
  -7  -7   6    0.92    0.46
   7  -7  -6    1.12    0.43
   7   7  -6    0.88    0.40
  -7   7   6    1.39    0.36
   7   7  -6    0.12    0.47
   7   7  -6    1.02    0.46
   6  -7  -6    1.70    1.02
  -6  -7   6    1.53    1.10
   6  -7  -6    3.02    0.62
  -6  -7   6    2.92    0.67
   6   7  -6    2.22    0.48
   6   7  -6    2.15    0.55
   6   7  -6    3.14    0.61
  -6   7   6    3.21    0.58
   5  -7  -6    8.46    1.31
  -5  -7   6    8.26    0.84
   5  -7  -6    9.62    1.63
  -5  -7   6   10.70    1.31
   5  -7  -6    9.60    1.16
  -5   7   6    9.75    1.02
   5   7  -6    7.70    0.95
   5   7  -6    8.36    1.76
   5   7  -6    9.97    1.11
   5   7  -6    8.56    1.00
   4  -7  -6   10.72    1.48
  -4  -7   6   13.61    0.95
   4  -7  -6   12.94    1.74
  -4  -7   6   12.45    1.09
   4  -7  -6   12.16    1.77
  -4  -7   6   12.94    1.67
   4  -7  -6   14.95    1.47
  -4   7   6   12.49    1.10
   4   7  -6   10.57    1.91
   4   7  -6   11.17    1.21
   4   7  -6   15.39    1.54
   4   7  -6   11.94    1.94
   4   7  -6   12.80    1.22
   4   7  -6   13.26    1.99
  -4   7   6   13.13    1.29
   4   7  -6   13.07    1.32
  -3  -7   6    0.93    0.57
  -3  -7   6    0.32    0.43
  -3  -7   6    0.66    0.66
   3  -7  -6    0.71    0.77
   3  -7  -6    2.24    1.26
   3  -7  -6    0.72    0.69
   3  -7  -6    0.84    1.06
  -3   7   6    0.83    0.92
   3   7  -6    0.67    1.07
   3   7  -6    1.04    0.60
  -3   7   6    2.74    1.08
  -3   7   6    0.45    0.53
   3   7  -6    0.58    1.08
   3   7  -6    0.95    0.57
   3   7  -6    1.25    0.70
  -2  -7   6   34.90    2.05
  -2  -7   6   37.12    1.99
   2  -7  -6   36.39    2.25
   2  -7  -6   36.28    2.77
   2  -7  -6   36.94    2.63
  -2  -7   6   35.40    2.31
   2  -7  -6   37.70    2.26
   2  -7  -6   33.77    2.51
  -2  -7   6   36.40    1.97
   2   7  -6   37.02    3.03
   2   7  -6   34.08    2.72
  -2   7   6   34.03    2.07
   2   7  -6   35.65    2.14
  -2   7   6   34.85    2.08
   2   7  -6   36.72    2.30
   2   7  -6   35.61    2.93
   2   7  -6   37.74    2.24
  -2   7   6   30.38    2.56
  -2   7   6   33.57    2.21
   1  -7  -6    4.05    1.49
   1  -7  -6    2.88    1.24
   1  -7  -6    3.95    0.73
   1  -7  -6    3.97    0.89
  -1  -7   6    4.38    0.64
   1  -7  -6    3.21    0.71
  -1  -7   6    3.51    0.50
   1  -7  -6    3.52    1.04
  -1  -7   6    3.97    0.60
   1   7  -6    3.11    1.38
  -1   7   6    3.68    0.73
  -1   7   6    2.97    0.70
   1   7  -6    3.86    0.73
   1   7  -6    3.29    0.71
   1   7  -6    5.17    1.14
   1   7  -6    4.90    0.72
  -1   7   6    3.75    1.08
  -1   7   6    2.32    0.69
  -1   7   6    3.91    0.91
   0  -7  -6   66.60    3.94
   0  -7  -6   69.23    3.99
   0  -7  -6   62.10    3.49
   0  -7  -6   64.10    3.39
   0  -7   6   58.35    3.18
   0  -7  -6   61.01    3.73
   0  -7  -6   60.32    3.38
   0  -7   6   61.58    3.24
   0  -7  -6   60.76    3.61
   0   7  -6   63.62    3.47
   0   7  -6   58.39    3.69
   0   7   6   58.77    3.28
   0   7   6   51.45    3.24
   0   7  -6   61.04    3.41
   0   7   6   64.73    3.80
   0   7  -6   60.92    3.34
   0   7  -6   62.57    3.39
   0   7   6   61.75    3.23
   0   7  -6   65.07    3.68
   0   7   6   63.29    3.42
  -1  -7  -6    2.04    0.59
   1  -7   6    1.79    0.53
  -1  -7  -6    2.67    0.64
  -1  -7  -6    2.35    1.09
   1  -7   6    2.87    0.50
   1  -7   6    1.04    0.53
  -1  -7  -6    2.99    0.57
  -1  -7  -6    4.19    1.34
  -1   7  -6    3.10    0.88
   1   7   6    1.91    0.74
  -1   7  -6    1.89    0.45
   1   7   6    2.37    0.46
  -1   7  -6    1.97    0.64
   1   7   6    2.80    0.94
  -1   7  -6    3.24    1.00
  -1   7  -6    2.58    0.61
   2  -7   6    2.30    0.61
  -2  -7  -6    1.07    0.53
  -2  -7  -6    0.59    0.41
  -2  -7  -6    0.54    0.44
  -2  -7  -6    0.14    1.08
  -2  -7  -6    0.62    0.77
   2  -7   6    0.59    0.53
   2   7   6    3.03    1.12
  -2   7  -6    1.09    0.57
   2   7   6    1.07    0.38
  -2   7  -6    1.06    0.52
  -2   7  -6    1.82    0.64
   2   7   6    1.64    0.57
  -2   7  -6    0.74    0.42
   2   7   6    1.69    0.58
  -3  -7  -6    6.70    0.81
  -3  -7  -6    5.82    0.73
  -3  -7  -6    6.83    0.70
  -3  -7  -6    7.01    1.05
  -3   7  -6    6.52    0.75
  -3   7  -6    6.94    0.73
   3   7   6    4.84    0.59
   3   7   6    8.50    0.89
   3   7   6    7.28    1.16
  -3   7  -6    6.22    1.09
  -3   7  -6    4.95    1.01
  -6  -8   6    0.26    1.14
   6  -8  -6    1.37    1.11
  -6  -8   6    1.37    0.68
   6  -8  -6    1.83    0.52
   6   8  -6    1.57    0.42
   6   8  -6    1.41    0.54
   6   8  -6    2.16    0.64
  -6   8   6    1.95    0.44
  -5  -8   6    5.12    0.78
  -5  -8   6    3.34    0.86
   5  -8  -6    4.99    0.98
  -5   8   6    4.64    0.81
   5   8  -6    3.85    0.67
   5   8  -6    3.59    0.62
   5   8  -6    3.68    0.60
  -4  -8   6    0.31    1.04
   4  -8  -6   -0.33    0.88
   4  -8  -6    1.31    0.81
   4  -8  -6    1.52    1.07
  -4  -8   6    0.84    0.43
  -4  -8   6    1.58    0.45
  -4   8   6   -0.41    0.78
   4   8  -6    1.83    1.12
   4   8  -6    1.43    0.64
   4   8  -6    1.48    0.74
   4   8  -6    0.54    0.71
   4   8  -6   -0.17    1.06
   4   8  -6    0.41    1.00
  -4   8   6    1.30    0.72
   3  -8  -6    2.48    0.95
   3  -8  -6    2.82    0.88
  -3  -8   6    1.14    0.94
  -3  -8   6    1.74    0.41
  -3  -8   6    1.86    0.46
   3   8  -6    2.11    0.95
   3   8  -6    0.84    0.94
   3   8  -6    1.13    0.92
  -3   8   6    2.70    0.46
   3   8  -6    0.85    0.99
   3   8  -6    2.32    0.58
  -3   8   6    3.66    0.98
   3   8  -6    2.12    0.55
   3   8  -6    1.65    0.65
   2  -8  -6    8.05    1.63
   2  -8  -6    7.36    1.53
   2  -8  -6    8.16    1.20
   2  -8  -6    8.28    1.85
   2  -8  -6    7.55    1.02
  -2  -8   6    6.59    0.73
  -2  -8   6    7.23    0.96
   2   8  -6    6.47    1.12
  -2   8   6    5.79    1.07
   2   8  -6    5.19    1.13
   2   8  -6    7.00    1.59
   2   8  -6    5.34    1.02
  -2   8   6    7.12    0.93
  -2   8   6    9.28    1.31
  -2   8   6    5.60    0.85
   2   8  -6    5.19    0.92
   1  -8  -6   12.03    1.64
  -1  -8   6    9.80    0.84
  -1  -8   6    9.32    0.96
  -1  -8   6    9.32    1.32
   1  -8  -6   12.13    1.74
   1  -8  -6   10.53    1.08
   1  -8  -6    9.73    1.62
  -1   8   6   10.23    1.21
   1   8  -6   10.42    1.54
  -1   8   6    9.48    1.32
   1   8  -6   12.03    1.03
   1   8  -6   11.14    1.18
   1   8  -6   11.39    1.11
   1   8  -6   10.97    1.11
  -1   8   6    9.64    0.93
  -1   8   6    9.33    1.13
   0  -8  -6   14.54    2.49
   0  -8   6   11.45    0.93
   0  -8   6   13.82    1.00
   0  -8  -6   12.29    1.13
   0  -8  -6   11.31    1.84
   0  -8  -6   12.83    1.40
   0   8  -6   10.91    1.58
   0   8  -6   13.12    1.18
   0   8  -6   15.12    1.61
   0   8  -6   13.68    1.65
   0   8   6   10.71    1.53
   0   8   6   12.18    1.18
   0   8   6   10.56    0.93
  -1  -8  -6    5.82    0.91
  -1  -8  -6    8.55    0.91
  -1  -8  -6    6.25    0.99
  -1  -8  -6    5.86    1.00
  -1   8  -6    7.48    1.00
  -1   8  -6    8.25    1.05
  -1   8  -6    7.79    0.95
  -1   8  -6    6.13    0.75
  -1   8  -6    9.06    1.52
   1   8   6   10.38    1.95
  -1   8  -6    5.11    1.47
   1   8   6    8.82    0.93
   1   8   6    6.56    0.73
  -2  -8  -6    5.11    0.70
   2  -8   6    2.90    0.52
  -2  -8  -6    5.53    0.72
  -2  -8  -6    4.36    0.79
   2   8   6    5.12    0.77
  -2   8  -6    4.15    0.66
  -2   8  -6    3.70    0.69
  -2   8  -6    3.86    0.61
  -2   8  -6    4.47    0.84
   2   8   6    3.70    1.02
   5  -9  -6    0.29    0.74
   5  -9  -6    0.63    0.62
  -5  -9   6    0.82    0.70
   5  -9  -6    1.78    0.90
  -5   9   6    1.21    0.45
   5   9  -6    1.26    0.55
   5   9  -6    0.74    0.40
   5   9  -6    1.45    0.55
  -4  -9   6   -0.28    0.67
  -4  -9   6    0.09    0.37
   4  -9  -6    0.48    1.08
   4  -9  -6    0.71    0.72
  -4   9   6   -0.73    0.70
   4   9  -6    1.12    1.43
   4   9  -6    0.62    0.50
   4   9  -6    1.63    0.80
   4   9  -6   -0.11    0.44
   3  -9  -6    7.91    1.20
   3  -9  -6    6.72    0.98
  -3  -9   6    6.98    0.78
   3   9  -6    5.62    0.87
  -3   9   6    4.68    0.91
  -3   9   6    4.62    0.78
   3   9  -6    5.71    0.88
   3   9  -6    6.89    1.19
   3   9  -6    6.04    1.39
  -3   9   6    5.29    1.02
   3   9  -6    5.29    1.05
  -2  -9   6    0.45    0.44
  -2  -9   6    0.90    0.77
   2  -9  -6    1.09    0.89
   2  -9  -6    0.14    0.97
   2  -9  -6   -0.92    0.85
  -2  -9   6   -0.08    0.34
  -2   9   6    2.13    1.01
  -2   9   6    0.19    0.65
   2   9  -6    0.29    0.61
   2   9  -6    0.81    0.55
   2   9  -6   -0.21    0.72
   2   9  -6    0.25    0.50
   2   9  -6   -1.03    0.81
   2   9  -6    0.31    0.55
   1  -9  -6    0.54    0.89
   1  -9  -6    1.20    2.16
  -1  -9   6   -0.71    1.14
   1  -9  -6    0.67    1.12
  -1  -9   6   -0.04    0.35
  -1  -9   6    0.41    0.46
  -1  -9   6    0.43    0.67
   1  -9  -6    0.14    0.53
   1   9  -6   -0.76    0.47
   1   9  -6   -0.06    0.80
  -1   9   6   -0.58    0.60
   1   9  -6   -0.28    0.75
   1   9  -6    0.35    0.46
  -1   9   6    2.03    1.60
   1   9  -6    0.83    0.59
  -1   9   6    0.65    0.38
   1   9  -6    0.38    0.54
   0  -9   6    3.02    0.65
   0  -9   6    4.48    0.91
   0  -9  -6    2.84    0.73
   0  -9  -6    2.25    0.85
   0  -9  -6    2.05    0.54
   0   9  -6    2.20    0.84
   0   9  -6    3.24    1.17
   0   9  -6    3.58    0.54
   0   9  -6    3.43    0.61
   0   9   6    3.17    0.85
   0   9  -6    1.90    0.61
   0   9  -6    2.33    0.87
   0   9   6    2.43    0.44
   0   9   6    2.05    0.58
   1  -9   6    8.47    0.73
  -1  -9  -6    7.02    0.81
  -1  -9  -6    8.83    1.38
   1  -9   6    8.31    1.79
  -1  -9  -6    7.63    1.08
   1   9   6    9.26    1.08
  -1   9  -6   10.03    0.95
  -1   9  -6    9.03    0.92
   1   9   6   12.62    1.71
  -1   9  -6   12.81    1.84
  -1   9  -6    9.17    0.74
   1   9   6   10.74    0.77
  -1   9  -6   11.07    0.83
  -4 -10   6    2.44    0.88
   4 -10  -6    1.90    0.77
   4 -10  -6    3.61    1.44
   4  10  -6    2.80    0.53
  -4  10   6    2.61    0.46
   3 -10  -6    0.51    0.78
  -3 -10   6    0.42    0.39
  -3 -10   6   -0.25    0.65
   3  10  -6   -0.13    0.46
   3  10  -6    0.65    1.03
  -3  10   6   -0.87    0.61
   3  10  -6    0.06    0.40
   3  10  -6   -0.39    0.54
  -3  10   6   -0.76    0.55
  -2 -10   6   26.31    2.52
   2 -10  -6   21.75    1.64
  -2 -10   6   21.12    1.30
   2 -10  -6   24.20    1.85
  -2 -10   6   23.52    1.28
  -2 -10   6   23.29    1.78
   2  10  -6   19.50    1.46
   2  10  -6   22.88    1.64
   2  10  -6   21.61    1.54
   2  10  -6   22.13    1.43
   2  10  -6   19.33    1.31
  -2  10   6   20.34    1.50
  -1 -10   6    0.66    0.35
  -1 -10   6    1.15    0.37
  -1 -10   6    0.89    0.75
   1 -10  -6   -0.14    0.83
   1 -10  -6   -0.69    0.93
   1  10  -6    0.89    0.41
   1  10  -6    0.96    0.74
   1  10  -6    1.08    0.51
   1  10  -6    0.75    0.42
  -1  10   6    1.97    1.01
   1  10  -6    1.25    0.60
  -1  10   6   -0.59    0.66
  -1  10   6    0.29    0.52
   0  10  -6    0.59    0.40
   0  10  -6    0.46    0.27
   0  10  -6    0.20    0.47
   0  10   6    0.00    0.46
   0  10  -6    1.28    0.74
  -9   0   7    1.23    0.39
   9   0  -7    0.95    0.32
   8   0  -7    0.59    0.38
   8   0  -7    1.10    0.69
   7   0  -7    6.80    1.06
  -7   0   7    7.34    1.02
   7   0  -7    6.17    0.85
   6   0  -7   -0.33    0.57
  -6   0   7    1.70    0.76
  -6   0   7    0.83    0.53
   6   0  -7    0.33    0.83
   6   0  -7   -0.20    0.54
   6   0  -7    0.22    2.56
   5   0  -7   17.32    1.84
  -5   0   7   15.81    1.26
  -5   0   7   17.38    1.11
   5   0  -7   15.74    1.96
  -5   0   7   13.05    1.78
   5   0  -7   18.00    1.59
   5   0  -7   15.79    1.86
   5   0  -7   16.04    1.73
   5   0  -7   16.07    1.65
  -5   0   7   16.55    1.11
   5   0  -7   14.16    2.84
   4   0  -7   -0.25    0.71
  -4   0   7    0.39    0.41
   4   0  -7   -0.46    1.03
  -4   0   7   -0.16    1.13
  -4   0   7    0.27    0.39
   4   0  -7   -0.49    0.79
   4   0  -7    0.87    1.23
   4   0  -7    0.46    0.92
   4   0  -7   -0.68    0.85
   4   0  -7   -0.48    0.79
  -4   0   7    0.70    0.59
   4   0  -7    1.94    1.40
  -4   0   7    0.96    0.68
   3   0  -7    7.26    1.33
  -3   0   7    6.98    0.71
   3   0  -7    8.42    1.49
  -3   0   7    8.65    0.70
   3   0  -7    8.71    1.12
   3   0  -7    7.30    1.35
  -3   0   7    7.05    1.19
   3   0  -7    9.96    1.77
   3   0  -7   11.27    2.15
  -3   0   7    6.96    0.97
  -3   0   7    7.22    1.20
   2   0  -7    0.83    1.20
   2   0  -7    0.91    1.13
   2   0  -7    1.51    0.94
   2   0  -7   -0.42    0.90
  -2   0   7    0.35    1.00
   2   0  -7   -1.01    0.83
  -2   0   7   -0.29    0.32
   2   0  -7   -0.09    0.85
  -2   0   7    0.23    0.38
   2   0  -7    0.41    0.74
   1   0  -7   26.75    1.87
   1   0  -7   23.88    1.95
  -1   0   7   26.84    1.83
  -1   0   7   27.08    1.42
   1   0  -7   23.41    2.08
   1   0  -7   20.06    1.97
   1   0  -7   23.09    2.61
  -1   0   7   27.00    1.40
   1   0  -7   25.00    2.25
   0   0   7    0.77    0.37
   0   0   7    1.98    0.94
   0   0   7    0.67    0.31
   0   0  -7    0.68    1.06
  -1   0  -7    1.94    1.50
  -1   0  -7   -0.75    0.93
  -1   0  -7    0.11    0.82
  -8  -1   7    0.25    0.44
  -8  -1   7   -0.94    0.60
   8  -1  -7    0.64    0.64
   8  -1  -7    1.32    0.41
   8   1  -7    0.34    0.36
  -8   1   7    0.74    0.45
   8   1  -7    0.98    0.72
   7  -1  -7    4.07    0.65
  -7  -1   7    5.26    1.03
   7  -1  -7    4.98    0.66
   7   1  -7    5.82    1.01
   7   1  -7    4.29    0.90
   7   1  -7    4.66    0.74
  -7   1   7    4.70    0.72
   6  -1  -7   20.72    1.73
   6  -1  -7   17.86    1.57
  -6  -1   7   22.44    1.56
  -6  -1   7   20.77    1.81
   6  -1  -7   25.92    2.04
   6   1  -7   22.30    1.69
   6   1  -7   26.27    1.90
   6   1  -7   21.13    1.52
  -6   1   7   21.92    1.57
  -6   1   7   23.78    1.75
  -5  -1   7   17.43    1.76
  -5  -1   7   18.40    1.83
   5  -1  -7   19.00    1.70
   5  -1  -7   19.75    2.28
   5  -1  -7   20.77    3.28
   5  -1  -7   19.80    1.63
  -5  -1   7   21.00    1.27
   5  -1  -7   21.98    1.93
  -5  -1   7   19.36    1.72
   5  -1  -7   17.99    1.71
   5  -1  -7   16.76    2.01
  -5  -1   7   19.99    1.23
   5  -1  -7   17.84    1.96
   5   1  -7   20.97    2.00
  -5   1   7   19.64    1.86
   5   1  -7   21.76    1.53
   5   1  -7   20.61    2.49
   5   1  -7   17.51    1.95
   5   1  -7   19.94    1.79
  -5   1   7   19.60    1.42
  -5   1   7   20.14    1.26
   5   1  -7   18.97    1.64
   5   1  -7   20.24    3.49
  -5   1   7   20.02    1.24
  -5   1   7   19.53    1.70
  -4  -1   7    4.32    0.71
   4  -1  -7    4.37    0.83
   4  -1  -7    3.74    0.86
  -4  -1   7    4.45    0.69
   4  -1  -7    2.60    0.95
  -4  -1   7    4.31    0.67
   4  -1  -7    5.58    1.44
   4  -1  -7    6.18    1.37
   4  -1  -7    6.64    1.45
   4   1  -7    4.65    1.06
  -4   1   7    5.18    0.57
   4   1  -7    2.47    0.95
   4   1  -7    5.30    1.43
   4   1  -7    4.07    0.89
   4   1  -7    2.55    1.18
   4   1  -7    2.54    0.82
  -4   1   7    5.62    0.88
  -4   1   7    3.68    0.52
   4   1  -7    4.52    0.88
  -4   1   7    6.02    1.08
   4   1  -7    3.90    0.85
  -4   1   7    5.37    0.73
  -4   1   7    4.75    0.93
  -3  -1   7   29.01    1.59
  -3  -1   7   28.52    1.61
   3  -1  -7   25.75    2.49
   3  -1  -7   31.74    2.20
  -3  -1   7   27.67    1.76
   3  -1  -7   25.72    2.74
   3  -1  -7   26.60    2.04
   3  -1  -7   26.75    2.02
   3  -1  -7   32.55    2.11
   3  -1  -7   25.15    2.19
   3   1  -7   25.67    2.12
   3   1  -7   23.25    2.23
   3   1  -7   30.30    2.27
   3   1  -7   26.35    2.25
   3   1  -7   30.71    2.20
   3   1  -7   28.96    2.12
  -3   1   7   30.05    1.62
  -3   1   7   30.86    1.71
   3   1  -7   31.23    2.79
  -3   1   7   31.96    1.74
  -3   1   7   28.59    1.95
   3   1  -7   26.26    2.19
   3   1  -7   26.62    2.53
  -2  -1   7   17.70    1.03
   2  -1  -7   18.55    1.96
   2  -1  -7   15.28    1.65
   2  -1  -7   16.06    2.00
  -2  -1   7   17.24    1.09
   2  -1  -7   16.74    1.74
   2  -1  -7   16.20    1.58
   2  -1  -7   19.18    2.24
   2  -1  -7   16.84    1.55
   2   1  -7   16.97    1.73
   2   1  -7   16.61    1.96
  -2   1   7   16.53    1.07
   2   1  -7   15.17    1.70
  -2   1   7   17.84    1.15
   2   1  -7   14.22    1.73
   2   1  -7   14.10    1.73
  -2   1   7   17.10    1.52
   2   1  -7   13.55    2.01
   2   1  -7   18.56    2.31
  -1  -1   7    1.24    0.35
   1  -1  -7    1.51    1.22
   1  -1  -7    1.37    0.69
   1  -1  -7    1.38    0.74
   1  -1  -7    0.48    0.96
   1  -1  -7    3.52    1.25
   1  -1  -7    2.09    0.79
  -1   1   7    1.45    0.77
   1   1  -7    3.93    1.31
  -1   1   7    1.80    0.50
   1   1  -7   -0.77    0.99
   1   1  -7    1.55    0.84
   1   1  -7    3.04    1.20
   1   1  -7    1.97    0.89
   1   1  -7    3.06    0.91
  -1   1   7    2.42    0.39
   1   1  -7    1.81    0.90
   0  -1  -7   -0.57    0.97
   0  -1  -7    0.05    1.11
   0  -1   7    1.00    0.31
   0  -1   7    1.68    1.00
   0  -1  -7    1.58    0.97
   0  -1   7    0.34    0.36
   0  -1  -7    0.91    0.92
   0   1   7    0.88    0.28
   0   1   7    1.00    0.36
   0   1  -7    0.89    1.30
   0   1  -7    1.86    0.94
   0   1  -7    1.65    1.57
   0   1   7   -0.34    1.03
  -1  -1  -7    2.47    0.78
  -1  -1  -7    2.46    0.81
  -1  -1  -7    1.52    1.43
  -1  -1  -7    0.67    0.85
   1   1   7    1.16    0.30
  -2  -1  -7    3.22    1.24
  -2  -1  -7    5.40    1.33
  -2  -1  -7    4.37    0.90
  -3  -1  -7    6.48    1.17
  -8  -2   7   -0.25    0.48
   8  -2  -7    0.51    0.46
  -8  -2   7    0.44    0.41
   8  -2  -7    0.75    0.54
   8   2  -7    0.80    0.59
  -8   2   7   -0.03    0.45
   8   2  -7    0.42    0.35
  -7  -2   7   36.60    2.46
  -7  -2   7   36.47    2.47
   7  -2  -7   41.09    2.36
   7  -2  -7   42.71    2.42
  -7   2   7   39.33    2.75
   7   2  -7   39.10    2.51
   7   2  -7   41.52    2.37
  -7   2   7   40.04    2.34
   7   2  -7   38.32    2.18
  -6  -2   7    0.42    0.53
   6  -2  -7    0.67    1.11
   6  -2  -7    0.81    0.69
  -6  -2   7   -0.32    0.83
   6  -2  -7    1.80    2.11
   6  -2  -7    1.96    1.63
  -6  -2   7    0.09    0.51
   6   2  -7    0.25    0.87
  -6   2   7    0.80    0.81
   6   2  -7    0.42    0.48
   6   2  -7    0.41    0.64
  -6   2   7    0.58    0.51
  -6   2   7    0.95    0.84
   6   2  -7    0.37    0.66
   5  -2  -7    7.47    1.61
   5  -2  -7    4.20    0.84
   5  -2  -7    3.37    1.34
   5  -2  -7    3.20    1.42
  -5  -2   7    4.18    0.84
  -5  -2   7    4.32    0.58
   5  -2  -7    4.24    1.01
  -5  -2   7    4.20    0.66
  -5  -2   7    3.63    0.79
   5   2  -7    4.40    1.40
   5   2  -7    4.70    0.90
  -5   2   7    5.34    0.96
   5   2  -7    4.61    1.25
  -5   2   7    4.29    0.70
   5   2  -7    2.55    0.89
   5   2  -7    3.31    0.66
  -5   2   7    4.63    0.63
   5   2  -7    5.47    0.84
   5   2  -7    5.57    0.97
   5   2  -7    2.91    1.43
  -5   2   7    2.99    0.72
  -5   2   7    3.46    1.18
   4  -2  -7    6.62    1.46
   4  -2  -7    5.60    1.09
   4  -2  -7    4.42    1.41
  -4  -2   7    6.96    1.31
  -4  -2   7    4.82    0.74
   4  -2  -7    4.96    0.95
  -4  -2   7    6.01    0.74
  -4  -2   7    4.58    0.76
   4  -2  -7    6.78    1.16
   4  -2  -7    5.42    0.96
   4  -2  -7    3.06    1.00
  -4   2   7    5.81    0.76
  -4   2   7    4.48    0.72
   4   2  -7    3.78    1.07
  -4   2   7    6.28    1.04
   4   2  -7    5.84    1.24
  -4   2   7    7.36    1.23
  -4   2   7    5.28    0.72
   4   2  -7    2.89    1.08
  -4   2   7    5.76    0.98
   4   2  -7    5.41    0.86
   4   2  -7    3.14    1.36
   4   2  -7    5.34    0.98
   4   2  -7    3.97    1.26
   4   2  -7    4.99    0.86
   4   2  -7    5.78    0.99
   4   2  -7    5.45    0.90
   3  -2  -7    9.38    1.80
   3  -2  -7    9.85    1.82
  -3  -2   7    9.94    0.83
   3  -2  -7   10.07    1.38
  -3  -2   7   12.89    1.09
   3  -2  -7    9.67    1.42
  -3  -2   7   10.27    0.80
   3  -2  -7    9.05    1.63
   3  -2  -7   10.96    1.54
   3  -2  -7   10.57    1.30
  -3   2   7   10.71    0.83
   3   2  -7   11.26    1.85
  -3   2   7   10.83    1.30
  -3   2   7   11.94    0.94
   3   2  -7   11.22    1.44
  -3   2   7   11.74    0.82
   3   2  -7    8.76    1.49
   3   2  -7    8.41    1.50
   3   2  -7   12.84    2.33
   3   2  -7    9.95    1.51
  -3   2   7   12.23    0.98
   3   2  -7    7.25    1.54
   2  -2  -7    0.38    0.68
   2  -2  -7    1.37    0.84
   2  -2  -7    0.52    0.60
   2  -2  -7   -0.63    0.75
   2  -2  -7    0.49    1.07
   2  -2  -7    1.03    1.06
   2  -2  -7    1.18    0.85
  -2  -2   7    0.77    0.35
  -2  -2   7    1.09    0.40
   2  -2  -7   -0.06    1.05
  -2  -2   7    0.35    0.47
  -2   2   7    1.88    0.60
  -2   2   7    0.35    0.75
  -2   2   7    0.92    0.31
   2   2  -7   -0.62    0.95
   2   2  -7   -1.14    0.91
   2   2  -7    0.57    0.87
   2   2  -7    1.02    0.69
   2   2  -7    1.12    1.06
  -2   2   7    0.84    0.43
   2   2  -7    1.83    1.32
  -2   2   7    0.51    0.40
   2   2  -7    0.26    0.95
   2   2  -7    0.68    0.80
   1  -2  -7    4.44    1.03
   1  -2  -7    2.86    1.24
   1  -2  -7    4.81    0.85
   1  -2  -7    5.04    1.23
  -1  -2   7    2.58    0.49
   1  -2  -7    3.59    0.78
   1  -2  -7    3.19    0.86
  -1  -2   7    2.70    0.39
  -1   2   7    4.52    0.64
  -1   2   7    4.06    0.48
   1   2  -7    3.30    0.85
  -1   2   7    2.54    0.88
   1   2  -7    2.39    1.15
   1   2  -7    4.27    1.03
   1   2  -7    3.71    1.18
   1   2  -7    2.58    0.80
   1   2  -7    3.06    1.11
   0  -2  -7    0.20    1.17
   0  -2  -7   -1.13    1.22
   0  -2  -7    1.52    1.49
   0  -2  -7    0.87    0.72
   0  -2  -7    0.82    0.66
   0  -2  -7    1.08    0.67
   0  -2  -7   -0.17    0.94
   0  -2   7    0.18    0.36
   0   2   7    0.04    1.09
   0   2  -7    1.24    0.89
   0   2   7   -0.25    0.37
   0   2  -7    1.27    1.45
   0   2   7    0.26    0.26
   0   2  -7    1.22    0.92
   0   2  -7   -0.15    1.14
   0   2   7    0.19    0.53
  -1  -2  -7   10.84    1.29
  -1  -2  -7   12.86    1.36
  -1  -2  -7   10.12    1.25
   1   2   7   10.23    0.74
  -2  -2  -7    3.99    0.76
  -2  -2  -7    5.00    0.89
  -2  -2  -7    4.66    0.97
  -3  -2  -7   16.52    1.35
  -3  -2  -7   16.71    1.34
   8  -3  -7    2.94    0.58
  -8  -3   7    2.33    0.48
  -8   3   7    2.36    0.48
   8   3  -7    3.42    0.51
   8   3  -7    3.68    0.60
  -7  -3   7    3.00    1.04
   7  -3  -7    2.80    0.98
  -7  -3   7    1.95    0.67
  -7   3   7    2.08    0.65
   7   3  -7    1.71    0.62
   7   3  -7   -0.66    1.18
   6  -3  -7    0.54    1.51
  -6  -3   7    0.82    0.89
  -6  -3   7    0.11    0.52
   6  -3  -7   -1.11    1.27
   6  -3  -7    0.61    0.67
  -6  -3   7    0.73    0.48
   6   3  -7    0.88    0.66
   6   3  -7    0.12    0.72
   6   3  -7    0.45    0.48
   6   3  -7    0.08    0.59
   6   3  -7   -1.04    1.34
  -6   3   7    0.51    0.68
  -6   3   7    0.32    0.50
   5  -3  -7   -0.87    0.68
  -5  -3   7   -0.41    0.39
   5  -3  -7   -0.20    0.94
  -5  -3   7   -0.99    1.63
  -5  -3   7    0.65    1.18
   5  -3  -7    0.41    2.08
   5  -3  -7   -1.60    1.27
  -5  -3   7   -0.07    0.45
   5  -3  -7    1.30    0.78
   5  -3  -7    0.74    1.04
  -5  -3   7    0.43    0.66
   5   3  -7    1.35    0.59
  -5   3   7    1.03    0.73
  -5   3   7   -0.72    0.56
   5   3  -7    0.55    0.66
  -5   3   7    1.19    1.42
   5   3  -7   -1.34    0.73
   5   3  -7    1.12    1.21
  -5   3   7   -0.07    0.38
   5   3  -7    0.44    1.24
   5   3  -7    1.64    0.93
   5   3  -7   -0.73    1.44
   5   3  -7    0.43    0.65
  -5   3   7    0.09    0.54
   4  -3  -7    5.67    1.02
   4  -3  -7    5.28    1.28
  -4  -3   7    3.83    0.54
  -4  -3   7    4.73    0.66
   4  -3  -7    5.28    1.26
  -4  -3   7    3.96    1.76
   4  -3  -7    7.06    1.19
  -4  -3   7    4.94    0.96
   4  -3  -7    3.17    0.91
  -4  -3   7    6.09    0.80
   4  -3  -7    4.82    0.96
  -4   3   7    5.13    0.70
   4   3  -7    3.85    0.89
  -4   3   7    3.76    1.05
   4   3  -7    3.19    0.86
   4   3  -7    3.66    1.65
   4   3  -7    6.46    1.15
   4   3  -7    1.48    1.26
   4   3  -7    3.20    1.44
  -4   3   7    5.77    0.83
   4   3  -7    1.94    1.25
   4   3  -7    6.72    1.22
  -4   3   7    7.23    1.22
  -4   3   7    6.27    0.73
  -4   3   7    6.10    1.06
   4   3  -7    3.17    0.84
  -3  -3   7    3.50    0.61
   3  -3  -7    5.17    1.44
   3  -3  -7    5.06    0.86
   3  -3  -7    2.88    1.13
  -3  -3   7    1.99    0.65
  -3  -3   7    2.63    0.91
   3  -3  -7    2.69    0.69
  -3  -3   7    2.94    0.47
  -3  -3   7    3.72    0.62
   3  -3  -7    3.05    0.97
   3  -3  -7    3.58    0.78
   3  -3  -7    5.22    1.18
   3  -3  -7    5.58    1.09
   3   3  -7    1.92    1.29
   3   3  -7    2.99    1.22
   3   3  -7    3.61    0.78
  -3   3   7    2.93    0.47
   3   3  -7    4.49    1.17
  -3   3   7    4.71    0.63
  -3   3   7    5.12    0.90
   3   3  -7    3.42    0.92
  -3   3   7    3.17    0.89
   3   3  -7    2.13    1.23
   3   3  -7    3.52    0.87
   3   3  -7    3.28    0.88
   3   3  -7    3.16    0.82
  -2  -3   7    0.03    1.04
   2  -3  -7    0.14    0.55
   2  -3  -7    0.58    0.84
   2  -3  -7   -0.09    0.62
   2  -3  -7    0.88    1.14
   2  -3  -7    0.03    0.86
  -2  -3   7    0.09    0.47
   2  -3  -7    0.41    0.71
   2  -3  -7   -0.22    1.03
  -2  -3   7    0.30    0.34
   2   3  -7    0.27    1.04
   2   3  -7   -0.10    0.92
   2   3  -7   -0.75    1.42
  -2   3   7   -0.73    0.86
   2   3  -7   -0.11    0.78
   2   3  -7    0.78    0.72
  -2   3   7   -0.21    0.49
  -2   3   7   -0.28    0.45
   2   3  -7    0.38    0.94
  -2   3   7   -0.36    0.32
  -2   3   7    0.81    0.50
   2   3  -7   -0.34    0.81
   2   3  -7    0.13    0.95
  -1  -3   7    8.42    0.84
   1  -3  -7   11.43    1.77
  -1  -3   7    8.91    0.83
   1  -3  -7    7.81    1.42
   1  -3  -7   10.04    1.89
   1  -3  -7   12.87    2.35
   1  -3  -7    6.41    1.06
  -1  -3   7    8.45    0.68
   1  -3  -7    9.42    1.26
  -1   3   7    8.30    0.82
   1   3  -7   11.29    1.48
  -1   3   7    6.62    0.89
  -1   3   7    7.57    1.18
   1   3  -7    8.58    1.40
   1   3  -7   10.03    1.49
   1   3  -7   12.66    1.82
   1   3  -7   10.38    1.38
  -1   3   7    8.43    0.68
   1   3  -7    8.09    1.65
   1   3  -7    5.92    1.84
   0  -3  -7    1.27    1.10
   0  -3  -7    0.36    0.56
   0  -3   7    1.17    0.72
   0  -3  -7   -1.99    1.31
   0  -3  -7    1.98    1.54
   0  -3  -7    0.79    1.07
   0  -3  -7    0.38    0.55
   0  -3  -7    0.86    0.64
   0   3   7    0.28    0.32
   0   3  -7   -0.88    1.10
   0   3  -7   -0.27    0.72
   0   3  -7   -0.83    1.50
   0   3  -7    0.04    1.68
   0   3   7    0.43    0.50
   0   3  -7    0.32    0.95
   0   3  -7   -0.02    0.84
   0   3   7   -0.27    0.47
  -1  -3  -7    0.47    0.55
  -1  -3  -7   -0.41    1.14
  -1  -3  -7    0.32    0.59
  -1  -3  -7   -0.19    0.63
   1   3   7    1.17    0.55
   1   3   7    0.01    0.31
  -1   3  -7   -0.12    1.38
  -1   3  -7   -1.39    0.93
  -1   3  -7    1.63    1.36
  -2  -3  -7   19.21    1.84
  -2  -3  -7   19.04    1.95
   2   3   7   12.60    1.15
  -3  -3  -7    0.21    0.54
  -3  -3  -7    0.71    0.54
  -8  -4   7    1.10    0.46
   8  -4  -7    1.48    0.51
   8   4  -7    1.24    0.34
  -8   4   7    2.02    0.49
   8   4  -7    1.20    0.50
  -7  -4   7    2.95    0.59
   7  -4  -7    4.30    0.65
   7   4  -7    3.37    0.52
  -7   4   7    3.68    0.67
  -7   4   7    4.35    0.64
   7   4  -7    2.91    0.61
   6  -4  -7    2.91    0.69
  -6  -4   7    2.24    0.46
   6  -4  -7    1.26    1.21
   6  -4  -7    0.68    1.67
  -6  -4   7    1.58    0.59
  -6   4   7    1.59    0.59
   6   4  -7    1.97    0.82
   6   4  -7    2.97    1.71
   6   4  -7    2.23    0.54
   6   4  -7    2.39    0.69
  -6   4   7    1.70    0.63
  -5  -4   7    2.41    0.52
  -5  -4   7    1.84    0.59
   5  -4  -7    3.16    0.78
   5  -4  -7    1.01    0.65
  -5  -4   7    4.66    1.08
   5  -4  -7    2.94    1.21
   5   4  -7    0.80    1.21
   5   4  -7    3.06    0.68
  -5   4   7    0.90    0.54
  -5   4   7    3.48    0.71
   5   4  -7    1.07    0.64
   5   4  -7    3.31    1.14
   5   4  -7    1.86    1.35
  -5   4   7    2.12    0.68
   5   4  -7    1.81    0.53
  -4  -4   7    4.29    1.09
  -4  -4   7    2.70    0.49
  -4  -4   7    4.30    1.14
   4  -4  -7    4.96    0.99
   4  -4  -7    2.53    1.38
   4  -4  -7    2.82    0.88
   4  -4  -7    4.93    1.14
  -4  -4   7    2.84    0.73
   4  -4  -7    3.32    0.91
  -4  -4   7    2.74    0.48
  -4  -4   7    3.48    0.88
   4   4  -7    2.98    0.89
  -4   4   7    2.61    0.45
   4   4  -7    2.06    0.82
  -4   4   7    4.24    0.71
   4   4  -7    1.96    0.64
  -4   4   7    3.83    0.62
   4   4  -7    2.63    1.11
   4   4  -7    2.54    1.60
   4   4  -7    2.33    1.17
   4   4  -7    2.73    0.68
  -4   4   7    3.15    0.80
   4   4  -7    4.27    0.79
  -4   4   7    3.69    1.22
   3  -4  -7   30.79    2.66
   3  -4  -7   35.73    2.83
  -3  -4   7   36.37    1.92
   3  -4  -7   38.63    2.53
   3  -4  -7   33.76    2.18
   3  -4  -7   34.17    2.22
  -3  -4   7   35.72    1.97
  -3  -4   7   33.10    2.06
  -3  -4   7   30.03    2.33
   3  -4  -7   35.99    2.42
  -3  -4   7   36.00    1.92
   3  -4  -7   34.90    2.32
   3  -4  -7   34.82    2.42
   3   4  -7   35.07    2.50
  -3   4   7   28.76    2.29
   3   4  -7   32.48    2.56
   3   4  -7   32.64    2.76
  -3   4   7   33.65    1.92
   3   4  -7   36.52    2.31
  -3   4   7   36.42    2.53
  -3   4   7   32.49    1.92
   3   4  -7   35.89    2.42
   3   4  -7   36.69    2.20
   3   4  -7   34.98    2.25
   3   4  -7   35.87    2.68
  -3   4   7   32.52    2.20
  -3   4   7   34.16    1.94
   2  -4  -7   -1.03    1.06
   2  -4  -7   -0.13    0.60
   2  -4  -7    0.37    0.99
   2  -4  -7    0.37    0.61
  -2  -4   7   -0.17    0.73
   2  -4  -7   -0.69    0.88
   2  -4  -7    0.79    0.67
  -2  -4   7   -0.38    0.54
  -2  -4   7   -0.17    0.36
  -2  -4   7    0.83    0.94
  -2  -4   7    0.19    0.41
   2  -4  -7   -1.64    0.89
  -2   4   7    0.47    0.64
  -2   4   7    0.08    0.44
   2   4  -7    1.05    0.72
   2   4  -7   -1.30    0.79
   2   4  -7    0.30    0.99
   2   4  -7    0.95    1.14
   2   4  -7   -0.53    1.19
   2   4  -7    0.80    0.81
  -2   4   7    0.82    0.47
  -2   4   7   -0.34    0.35
   2   4  -7    0.74    1.00
   2   4  -7    0.56    0.67
   1  -4  -7   18.34    2.10
  -1  -4   7   17.63    1.25
  -1  -4   7   18.53    2.42
   1  -4  -7   19.19    1.82
   1  -4  -7   19.76    1.45
  -1  -4   7   19.78    1.10
   1  -4  -7   16.72    2.15
   1  -4  -7   16.55    2.06
  -1  -4   7   18.54    1.18
   1  -4  -7   16.65    1.41
   1  -4  -7   19.69    1.55
   1   4  -7   16.69    1.88
   1   4  -7   13.65    2.54
  -1   4   7   19.04    1.28
   1   4  -7   18.84    1.52
  -1   4   7   18.86    1.22
   1   4  -7   16.72    1.65
  -1   4   7   19.31    1.29
  -1   4   7   14.80    1.94
   1   4  -7   18.13    1.62
   1   4  -7   17.33    2.14
   1   4  -7   18.58    2.07
  -1   4   7   17.95    1.11
   0  -4  -7    1.52    0.59
   0  -4  -7    0.97    0.62
   0  -4  -7    2.02    0.65
   0  -4  -7    2.18    1.60
   0  -4  -7   -0.66    1.05
   0  -4   7    1.30    0.38
   0   4   7    1.57    0.37
   0   4  -7    0.63    1.06
   0   4   7    0.41    0.49
   0   4   7    1.50    0.88
   0   4  -7   -0.29    1.43
   0   4  -7    1.97    0.80
   0   4  -7    0.89    0.63
  -1  -4  -7   13.25    1.33
  -1  -4  -7   12.29    1.13
  -1  -4  -7   15.58    2.15
  -1  -4  -7   13.44    1.13
   1   4   7   12.02    0.89
  -1   4  -7   14.15    2.21
  -1   4  -7   12.30    1.78
  -1   4  -7    9.39    1.53
  -1   4  -7   11.66    1.19
   1   4   7   13.57    1.16
  -2  -4  -7    1.07    0.91
  -2  -4  -7    0.90    0.43
  -2  -4  -7    0.27    0.59
  -2  -4  -7    0.67    1.55
  -2  -4  -7    0.41    0.52
   2   4   7    0.57    0.54
  -3  -4  -7    1.01    0.47
  -3  -4  -7    1.02    0.57
  -3  -4  -7    0.78    0.33
  -8  -5   7    0.04    0.31
   8  -5  -7    1.01    0.40
  -8   5   7    0.97    0.38
   8   5  -7    0.25    0.31
   7  -5  -7    5.14    0.86
  -7  -5   7    3.91    0.58
   7   5  -7    4.72    0.68
  -7   5   7    5.37    0.76
  -7   5   7    4.37    0.83
   7   5  -7    4.46    0.77
   6  -5  -7    1.06    1.14
   6  -5  -7    2.45    1.12
  -6  -5   7   -0.80    0.86
   6  -5  -7   -1.61    1.13
   6   5  -7    0.61    0.59
  -6   5   7   -1.06    0.69
   6   5  -7    1.70    1.17
   6   5  -7    0.46    1.03
   6   5  -7    0.31    0.51
  -6   5   7    0.23    0.88
   6   5  -7    0.08    0.61
  -5  -5   7    0.39    0.55
  -5  -5   7    0.61    0.46
  -5  -5   7    0.44    0.40
   5  -5  -7   -0.65    0.66
   5  -5  -7    0.50    1.01
   5  -5  -7    1.70    0.89
   5  -5  -7   -0.08    0.71
   5   5  -7   -0.24    0.56
  -5   5   7    0.66    0.60
   5   5  -7    0.30    1.11
   5   5  -7   -0.70    0.67
   5   5  -7   -0.44    1.04
  -5   5   7   -0.05    0.45
   5   5  -7   -0.05    0.54
   5   5  -7    0.60    0.98
   5   5  -7    0.74    0.68
   4  -5  -7   16.12    1.39
   4  -5  -7   13.26    1.60
   4  -5  -7   16.13    1.92
  -4  -5   7   14.27    1.00
  -4  -5   7   13.99    1.27
   4  -5  -7   15.74    1.76
  -4  -5   7   16.40    1.33
   4  -5  -7   19.11    2.82
  -4  -5   7   13.49    1.47
   4   5  -7   12.85    1.57
   4   5  -7   11.73    1.41
   4   5  -7   15.42    1.29
   4   5  -7   15.46    1.94
  -4   5   7   12.79    1.17
  -4   5   7   14.78    1.30
   4   5  -7   14.24    1.44
  -4   5   7   13.88    1.26
   4   5  -7   13.44    1.98
   3  -5  -7   -1.57    1.21
   3  -5  -7    0.78    1.13
   3  -5  -7    1.00    0.60
  -3  -5   7    1.20    0.41
   3  -5  -7    0.83    0.85
   3  -5  -7    1.82    1.04
  -3  -5   7    2.72    0.79
   3  -5  -7    1.06    0.65
   3  -5  -7   -0.80    1.38
  -3  -5   7    0.64    0.50
  -3  -5   7   -1.08    1.24
  -3  -5   7    0.25    0.45
   3  -5  -7    1.46    0.79
   3   5  -7   -0.43    0.87
   3   5  -7    0.66    0.62
  -3   5   7    0.97    0.51
   3   5  -7    0.40    0.68
  -3   5   7    0.45    1.20
   3   5  -7    1.00    1.42
   3   5  -7    1.19    1.05
   3   5  -7    1.03    0.74
   3   5  -7    0.89    0.79
   3   5  -7    0.26    0.85
  -3   5   7    1.37    0.67
  -3   5   7    1.66    0.42
  -3   5   7    0.01    0.58
   3   5  -7   -0.18    0.99
  -2  -5   7    7.63    1.72
  -2  -5   7    8.80    1.01
  -2  -5   7    7.57    1.17
   2  -5  -7    9.59    1.66
  -2  -5   7    7.79    0.85
  -2  -5   7    8.99    0.76
   2  -5  -7    6.77    1.24
   2  -5  -7    9.62    1.88
   2  -5  -7    8.91    1.37
   2  -5  -7   11.31    1.71
   2  -5  -7    9.67    1.09
   2  -5  -7    8.96    1.13
  -2   5   7    8.61    0.87
   2   5  -7   11.12    1.88
   2   5  -7    9.49    1.58
   2   5  -7   11.77    1.12
   2   5  -7    8.36    1.13
   2   5  -7    9.59    1.76
  -2   5   7    9.79    0.89
   2   5  -7    8.31    1.27
  -2   5   7    9.46    1.36
  -2   5   7    7.58    1.06
   2   5  -7   10.05    1.57
  -2   5   7    8.47    0.86
  -1  -5   7    1.44    0.42
   1  -5  -7    1.44    0.52
   1  -5  -7    2.00    1.05
   1  -5  -7    1.08    1.16
   1  -5  -7    0.75    0.59
   1  -5  -7    1.06    0.64
  -1  -5   7    1.39    0.38
  -1   5   7    1.21    0.43
   1   5  -7    0.73    1.35
  -1   5   7    0.78    0.48
   1   5  -7    0.82    0.97
   1   5  -7    0.63    0.62
   1   5  -7    0.25    0.76
   1   5  -7    1.26    0.65
   1   5  -7    0.86    1.23
   0  -5  -7   -0.30    0.44
   0  -5  -7   -0.55    0.99
   0  -5  -7   -0.66    1.62
   0  -5  -7    0.48    0.63
   0  -5   7    0.35    0.38
   0  -5  -7    0.17    0.50
   0  -5   7    0.43    0.45
   0   5  -7    0.54    0.98
   0   5  -7    0.13    0.64
   0   5  -7    0.16    1.00
   0   5  -7    0.21    0.75
   0   5  -7    2.49    1.42
   0   5  -7    0.21    0.52
   0   5   7   -0.30    0.48
   0   5   7    0.50    0.41
   0   5   7    0.02    0.48
  -1  -5  -7    2.98    0.53
  -1  -5  -7    2.34    0.56
  -1  -5  -7    2.80    1.09
  -1  -5  -7    2.14    0.60
  -1   5  -7    2.92    1.07
   1   5   7    2.42    0.50
   1   5   7    1.43    0.52
  -1   5  -7    3.02    1.19
  -1   5  -7    3.18    0.71
  -1   5  -7    2.04    1.16
   1   5   7    2.12    0.52
  -1   5  -7    1.68    0.79
  -2  -5  -7   -0.02    0.44
  -2  -5  -7    0.03    0.50
  -2  -5  -7    1.59    0.99
  -2   5  -7    0.74    0.96
   2   5   7    1.61    1.55
   2   5   7    0.90    0.41
  -2   5  -7    1.13    0.60
   2   5   7    0.22    0.52
  -3  -5  -7    4.59    0.76
  -3  -5  -7    5.63    0.67
  -3  -5  -7    4.56    0.60
   7  -6  -7    0.62    0.43
  -7  -6   7   -0.20    0.40
   7   6  -7    0.38    0.44
   7   6  -7   -0.18    0.34
  -7   6   7    0.12    0.35
   7   6  -7   -0.16    0.53
  -6  -6   7    0.76    0.47
   6  -6  -7    2.10    0.61
   6  -6  -7    2.59    0.99
   6  -6  -7    1.47    1.19
  -6  -6   7    0.74    0.61
   6   6  -7    2.23    0.56
  -6   6   7    3.08    0.72
   6   6  -7    0.73    0.48
   6   6  -7    2.53    1.09
  -6   6   7    1.48    0.52
   6   6  -7    1.58    0.49
   5  -6  -7    0.68    1.00
   5  -6  -7    1.33    0.90
  -5  -6   7    0.30    0.39
   5  -6  -7    1.21    1.66
  -5  -6   7    0.78    0.42
  -5  -6   7   -0.04    1.00
   5   6  -7    0.04    0.72
   5   6  -7   -0.53    1.72
   5   6  -7    0.75    0.60
   5   6  -7    0.83    0.47
   5   6  -7   -0.03    0.50
   5   6  -7   -0.22    0.97
  -5   6   7    0.88    0.58
   4  -6  -7    1.22    0.89
   4  -6  -7    0.69    0.80
   4  -6  -7   -0.29    0.58
  -4  -6   7    0.00    1.18
  -4  -6   7    0.41    0.45
  -4  -6   7    0.10    0.47
   4  -6  -7    1.59    0.92
  -4  -6   7    1.01    0.38
   4  -6  -7    3.28    1.78
   4   6  -7   -0.06    0.88
  -4   6   7    0.68    0.44
  -4   6   7    0.14    0.49
  -4   6   7    1.53    0.58
   4   6  -7    0.55    0.55
   4   6  -7    0.11    0.55
   4   6  -7    0.60    0.95
   4   6  -7    0.24    0.90
   4   6  -7    0.78    0.65
   4   6  -7    0.42    0.62
  -3  -6   7    3.11    0.68
  -3  -6   7    4.11    0.62
   3  -6  -7    4.10    1.04
   3  -6  -7    3.89    0.90
  -3  -6   7    5.19    0.86
   3  -6  -7    6.03    0.98
   3  -6  -7    3.35    0.71
  -3  -6   7    4.34    0.72
   3  -6  -7    4.39    0.96
   3  -6  -7    4.19    1.15
  -3   6   7    4.17    0.70
   3   6  -7    4.48    1.09
   3   6  -7    3.25    1.02
   3   6  -7    4.95    0.71
   3   6  -7    4.34    0.78
   3   6  -7    2.22    0.74
   3   6  -7    2.84    0.92
  -3   6   7    4.29    0.70
  -3   6   7    3.93    0.65
   3   6  -7    3.09    0.70
  -2  -6   7   33.99    1.99
   2  -6  -7   36.05    2.20
   2  -6  -7   39.11    2.57
   2  -6  -7   35.44    2.61
  -2  -6   7   36.30    2.02
   2  -6  -7   38.66    2.61
   2  -6  -7   36.73    2.34
  -2  -6   7   33.81    1.96
   2  -6  -7   35.54    2.16
   2   6  -7   38.59    2.79
   2   6  -7   36.67    2.17
   2   6  -7   36.18    2.26
   2   6  -7   37.44    2.53
  -2   6   7   34.25    2.26
  -2   6   7   36.06    2.02
   2   6  -7   32.72    2.24
   2   6  -7   35.98    2.59
  -2   6   7   35.95    2.06
   2   6  -7   41.98    2.34
  -2   6   7   31.21    2.10
   1  -6  -7    0.72    1.19
   1  -6  -7    0.73    0.52
  -1  -6   7    0.18    0.39
   1  -6  -7    1.49    0.94
   1  -6  -7   -0.28    0.52
  -1  -6   7    0.38    0.52
   1  -6  -7    0.20    1.16
   1  -6  -7    0.51    0.65
  -1  -6   7    0.58    0.42
   1   6  -7    0.15    0.61
  -1   6   7   -0.10    0.54
   1   6  -7   -0.29    0.68
   1   6  -7   -0.13    0.85
  -1   6   7    0.46    0.74
  -1   6   7    0.26    0.51
   1   6  -7    0.18    1.21
   1   6  -7   -0.23    0.54
   1   6  -7    0.21    0.92
   1   6  -7    0.16    0.59
  -1   6   7   -0.43    0.42
   0  -6  -7    2.25    0.56
   0  -6   7    3.11    0.47
   0  -6  -7    2.42    0.52
   0  -6  -7    2.51    0.62
   0  -6  -7    2.71    0.96
   0  -6   7    2.77    0.51
   0   6  -7    2.41    1.08
   0   6  -7    3.35    0.82
   0   6  -7    2.43    0.55
   0   6  -7    1.43    0.59
   0   6  -7    3.07    0.72
   0   6   7    3.00    0.61
   0   6   7    3.12    0.82
  -1  -6  -7   -0.18    0.49
  -1  -6  -7   -0.35    0.94
  -1  -6  -7    0.87    0.42
  -1  -6  -7    0.85    0.46
  -1  -6  -7    0.28    1.01
   1  -6   7    0.73    0.58
   1   6   7    0.42    0.52
   1   6   7    0.44    0.39
  -1   6  -7   -0.90    1.07
   1   6   7    1.36    1.27
   1   6   7    0.64    0.72
  -1   6  -7    0.90    1.25
  -1   6  -7   -0.06    0.63
  -1   6  -7    1.50    0.65
  -1   6  -7   -0.90    0.95
  -1   6  -7    0.74    0.48
  -2  -6  -7   -0.76    1.22
  -2  -6  -7    0.75    0.35
  -2  -6  -7    0.86    0.42
  -2  -6  -7    0.70    0.44
   2   6   7    1.20    0.69
  -2   6  -7    1.02    0.62
  -2   6  -7    0.42    0.90
  -2   6  -7    1.29    0.63
   6  -7  -7   -0.22    0.51
  -6  -7   7   -0.97    0.93
   6  -7  -7    1.02    1.06
  -6  -7   7   -0.08    0.58
   6  -7  -7   -1.70    1.98
   6   7  -7   -0.22    0.42
  -6   7   7   -0.01    0.38
   6   7  -7   -0.24    0.61
   6   7  -7   -0.15    0.48
   5  -7  -7    0.41    0.67
   5  -7  -7   -0.87    0.77
   5  -7  -7    1.58    0.92
  -5  -7   7   -0.14    0.36
   5   7  -7    0.33    0.54
  -5   7   7   -0.45    0.47
   5   7  -7    0.12    0.91
   5   7  -7   -0.48    0.45
   5   7  -7   -0.20    0.46
   4  -7  -7   16.23    1.56
  -4  -7   7   13.90    1.50
  -4  -7   7   13.71    0.94
   4  -7  -7   16.80    1.32
  -4  -7   7   10.01    1.59
   4  -7  -7   17.18    1.61
   4   7  -7   12.13    1.15
  -4   7   7   12.30    1.37
   4   7  -7   11.48    1.40
   4   7  -7   14.10    1.25
   4   7  -7   12.99    1.82
  -4   7   7   16.40    1.16
   4   7  -7   13.28    1.34
   4   7  -7   16.53    1.83
  -3  -7   7    1.04    0.46
   3  -7  -7    1.39    0.86
   3  -7  -7    1.43    0.83
   3  -7  -7   -0.50    0.88
  -3  -7   7    0.76    0.37
   3   7  -7    1.49    0.89
   3   7  -7    2.24    0.66
   3   7  -7    0.98    0.75
  -3   7   7    0.85    0.47
   3   7  -7    1.13    0.94
   3   7  -7    1.15    0.78
   3   7  -7    1.06    0.50
   3   7  -7   -0.18    0.82
  -3   7   7    1.19    0.42
  -2  -7   7    4.22    0.67
   2  -7  -7    4.95    1.12
  -2  -7   7    4.04    0.63
   2  -7  -7    5.88    1.22
  -2  -7   7    5.10    0.74
   2  -7  -7    7.90    1.61
  -2  -7   7    3.99    0.72
   2  -7  -7    6.57    1.20
   2  -7  -7    6.00    1.00
  -2   7   7    3.84    0.71
   2   7  -7    3.82    0.89
  -2   7   7    5.86    0.97
   2   7  -7    4.93    0.97
   2   7  -7    5.55    1.63
   2   7  -7    6.31    0.99
   2   7  -7    6.99    1.49
   1  -7  -7    9.12    1.05
   1  -7  -7   13.97    2.03
   1  -7  -7    9.38    1.32
  -1  -7   7   10.11    0.85
   1  -7  -7   10.09    1.72
   1   7  -7   11.03    1.53
  -1   7   7    7.40    0.99
   1   7  -7    9.87    1.57
  -1   7   7    9.84    0.86
   1   7  -7   10.55    2.31
   1   7  -7   11.94    1.08
   1   7  -7    7.98    1.09
  -1   7   7    9.74    1.19
  -1   7   7   11.09    1.80
   0  -7   7   -0.63    0.66
   0  -7  -7    0.15    0.49
   0  -7  -7    0.11    0.85
   0  -7  -7   -0.03    0.44
   0  -7  -7    0.07    0.56
   0   7  -7   -0.01    0.55
   0   7  -7    0.83    0.61
   0   7   7    0.83    0.52
   0   7   7    0.08    0.57
   0   7   7   -0.12    0.38
   0   7   7    1.21    1.48
   0   7  -7    0.71    0.90
   0   7  -7   -0.18    0.40
   0   7   7   -0.23    0.67
   0   7  -7    1.11    0.59
   0   7  -7    0.99    0.85
  -1  -7  -7    2.72    0.51
  -1  -7  -7    2.66    0.52
  -1  -7  -7    1.93    0.91
  -1  -7  -7    2.09    0.53
   1   7   7    4.62    1.31
  -1   7  -7    2.71    2.06
   1   7   7    1.23    0.57
  -1   7  -7    1.09    0.56
  -1   7  -7    3.90    1.48
  -1   7  -7    2.35    0.67
  -1   7  -7    2.16    0.47
  -2  -7  -7   -0.05    0.36
  -2  -7  -7    0.24    0.38
  -2  -7  -7    0.35    0.20
  -2   7  -7    0.25    0.44
   2   7   7    0.83    0.41
   6  -8  -7    1.80    0.65
  -6  -8   7   -0.49    0.74
   6   8  -7    0.01    0.50
  -6   8   7    0.49    0.29
   6   8  -7    1.22    0.42
   5  -8  -7    1.65    0.71
   5  -8  -7   -0.37    0.67
  -5  -8   7   -0.62    0.67
   5  -8  -7    1.40    0.94
  -5  -8   7    1.33    0.62
   5   8  -7   -0.59    0.38
   5   8  -7   -0.71    0.46
   5   8  -7    0.24    0.46
  -5   8   7    0.14    0.37
   4  -8  -7   -0.48    0.67
  -4  -8   7    0.12    0.41
  -4  -8   7    0.01    0.32
   4  -8  -7    1.43    1.06
   4   8  -7   -0.21    0.83
   4   8  -7    0.21    0.43
   4   8  -7    0.60    0.47
  -4   8   7    0.26    0.45
   4   8  -7    1.03    0.63
   4   8  -7   -1.06    0.82
   4   8  -7    1.70    1.19
   4   8  -7    0.33    0.70
  -3  -8   7    0.21    0.39
   3  -8  -7   -1.04    1.13
   3  -8  -7    0.38    0.65
  -3  -8   7   -0.20    0.33
   3  -8  -7    0.34    0.86
  -3  -8   7    2.29    0.81
   3  -8  -7   -1.03    0.75
  -3   8   7   -0.21    0.35
   3   8  -7   -0.33    0.85
   3   8  -7    0.45    0.45
   3   8  -7    1.15    0.58
   3   8  -7    0.62    0.58
   3   8  -7    0.92    0.97
   3   8  -7    1.03    0.92
   3   8  -7    0.49    0.50
   2  -8  -7    4.10    0.94
   2  -8  -7    4.62    0.82
  -2  -8   7    5.21    0.88
   2  -8  -7    2.90    0.60
  -2  -8   7    4.18    0.88
   2  -8  -7    7.97    1.62
  -2  -8   7    4.13    0.58
   2   8  -7    4.44    0.69
  -2   8   7    4.20    0.67
   2   8  -7    2.75    0.90
   2   8  -7    5.85    1.30
   2   8  -7    3.86    1.15
   2   8  -7    5.19    0.93
   2   8  -7    4.50    0.71
  -2   8   7    4.84    0.63
   1  -8  -7    1.55    1.31
   1  -8  -7    0.14    0.70
   1  -8  -7    2.47    1.07
   1  -8  -7    1.04    0.50
   1  -8  -7    1.87    0.78
  -1  -8   7    0.13    0.54
   1  -8  -7    0.14    0.52
  -1  -8   7    0.26    0.44
  -1  -8   7    1.46    0.59
   1   8  -7    0.84    0.41
   1   8  -7    0.90    0.49
  -1   8   7    0.27    0.38
   1   8  -7    0.24    0.77
   1   8  -7    0.29    0.83
  -1   8   7    0.00    0.71
   1   8  -7    0.90    0.82
   1   8  -7    1.03    0.49
   0  -8   7    1.68    0.68
   0  -8  -7    3.08    0.80
   0  -8  -7    1.08    0.51
   0  -8  -7    1.93    0.58
   0  -8  -7    1.51    0.45
   0   8  -7    1.96    0.50
   0   8   7    0.67    0.39
   0   8  -7    1.01    0.36
   0   8  -7    0.98    0.84
   0   8   7    1.43    0.39
   0   8  -7    1.71    0.60
   0   8  -7    1.36    0.84
   0   8  -7    2.51    0.52
   0   8   7    0.36    0.68
  -1  -8  -7    2.26    0.67
  -1  -8  -7    2.29    0.44
  -1  -8  -7    2.84    0.47
  -1  -8  -7    2.65    0.48
  -1   8  -7    2.64    0.43
   1   8   7    3.59    0.54
  -1   8  -7    2.51    0.50
  -4  -9   7    0.78    0.91
   4  -9  -7    1.14    0.73
  -4  -9   7    2.12    0.38
   4  -9  -7    4.16    1.09
   4   9  -7    4.79    1.89
   4   9  -7    1.70    0.44
  -4   9   7    2.14    0.48
   4   9  -7    1.71    0.51
   4   9  -7    1.76    0.40
  -3  -9   7    2.86    0.70
   3  -9  -7    3.16    0.71
   3   9  -7    2.98    0.54
   3   9  -7    3.67    0.57
   3   9  -7    3.80    0.91
  -3   9   7    3.03    0.56
  -2  -9   7    0.82    0.37
   2  -9  -7   -0.06    0.94
   2  -9  -7    1.07    1.18
  -2  -9   7   -0.84    1.10
   2   9  -7    1.29    0.64
   2   9  -7    0.77    0.34
   2   9  -7    1.07    0.54
   2   9  -7    0.35    0.75
  -2   9   7    0.10    0.51
   2   9  -7    0.54    0.50
   2   9  -7    0.94    0.74
  -1  -9   7    1.90    0.36
   1  -9  -7    0.38    1.01
   1   9  -7    3.78    0.93
   1   9  -7    2.05    0.86
  -1   9   7    1.32    0.35
   1   9  -7    2.21    0.39
   0  -9  -7    0.59    0.54
   0   9  -7    0.10    0.77
  -8   0   8   22.86    1.37
   8   0  -8   23.62    1.55
   8   0  -8   25.27    1.40
  -7   0   8   -0.49    0.52
   7   0  -8    0.19    0.55
   7   0  -8   -0.72    0.48
  -6   0   8   61.96    3.45
   6   0  -8   55.16    4.41
  -6   0   8   63.70    3.34
   6   0  -8   70.58    3.91
   6   0  -8   62.98    3.43
   6   0  -8   60.49    3.48
  -6   0   8   63.34    3.25
  -5   0   8   -0.66    0.67
  -5   0   8    0.33    0.37
   5   0  -8    0.29    0.62
   5   0  -8    0.25    0.66
  -5   0   8    0.27    0.46
   5   0  -8    1.59    0.71
   5   0  -8    0.87    0.60
  -5   0   8    0.39    0.60
   5   0  -8   -0.62    1.01
   5   0  -8   -0.03    0.90
  -4   0   8    0.95    0.41
  -4   0   8    0.77    1.00
  -4   0   8   -1.04    0.88
   4   0  -8   -0.21    0.79
   4   0  -8    0.11    1.55
  -4   0   8    1.41    0.44
   4   0  -8    0.22    0.66
   4   0  -8   -1.17    1.00
  -4   0   8    0.63    0.40
   4   0  -8    1.65    1.09
   4   0  -8    0.60    0.67
   4   0  -8    0.06    0.73
  -4   0   8   -0.12    1.39
   3   0  -8    0.03    0.78
  -3   0   8    0.08    0.43
   3   0  -8    0.79    1.06
  -3   0   8   -0.62    0.49
   3   0  -8   -0.24    0.74
   3   0  -8   -0.36    1.38
   3   0  -8    0.95    0.74
   2   0  -8    0.13    0.80
   2   0  -8   -0.50    0.98
  -2   0   8    1.21    1.17
   2   0  -8    1.31    0.72
   2   0  -8    1.40    0.87
  -2   0   8    0.67    0.44
   2   0  -8    1.33    0.77
   2   0  -8    3.06    1.31
  -2   0   8    0.25    0.62
   2   0  -8    0.12    0.96
   1   0  -8    0.85    1.05
   1   0  -8    0.49    0.78
   1   0  -8    0.24    1.13
   1   0  -8    0.09    0.67
   1   0  -8    1.37    1.03
  -1   0   8   -0.50    0.52
   0   0   8   29.11    1.60
   0   0  -8   29.11    1.98
   0   0  -8   30.54    2.61
   0   0  -8   29.53    2.61
   0   0  -8   29.80    2.65
  -1   0  -8   -0.72    0.72
   8  -1  -8    0.24    0.39
   8  -1  -8   -0.70    0.62
  -8  -1   8   -0.85    0.52
  -8  -1   8    0.01    0.49
   8   1  -8   -1.11    0.61
  -8   1   8   -0.29    0.34
   8   1  -8   -0.60    0.44
   7  -1  -8    2.35    0.60
   7  -1  -8    3.43    0.63
  -7  -1   8    2.45    0.62
  -7   1   8    2.18    0.52
   7   1  -8    2.51    0.48
   6  -1  -8    6.49    1.04
   6  -1  -8    8.25    1.87
   6  -1  -8    6.88    0.91
  -6  -1   8    8.07    0.88
   6  -1  -8    6.82    1.28
  -6  -1   8    5.24    0.85
  -6  -1   8    5.34    0.76
  -6   1   8    6.96    0.80
   6   1  -8    7.27    0.97
   6   1  -8    5.02    1.07
   6   1  -8    5.77    1.74
   6   1  -8    5.58    0.86
  -6   1   8    8.72    1.08
  -6   1   8    6.64    0.84
   5  -1  -8   26.53    2.71
  -5  -1   8   27.11    1.73
  -5  -1   8   29.01    1.57
   5  -1  -8   29.23    1.99
   5  -1  -8   29.15    2.21
   5  -1  -8   25.43    2.37
   5  -1  -8   26.40    1.85
   5  -1  -8   27.16    1.85
  -5  -1   8   27.44    1.59
  -5  -1   8   27.05    1.90
  -5   1   8   27.61    1.57
  -5   1   8   27.65    1.83
   5   1  -8   27.74    1.80
   5   1  -8   27.74    1.85
   5   1  -8   28.55    2.36
  -5   1   8   26.15    1.59
   5   1  -8   21.88    2.50
   5   1  -8   28.92    1.95
  -5   1   8   22.93    1.81
   5   1  -8   28.55    2.14
   4  -1  -8    1.71    0.74
   4  -1  -8    1.26    0.90
  -4  -1   8    1.84    0.45
   4  -1  -8    1.42    0.69
  -4  -1   8    1.44    0.41
  -4  -1   8    3.06    0.96
   4  -1  -8    2.82    1.11
   4  -1  -8    3.77    1.13
   4  -1  -8    1.55    0.68
   4  -1  -8    4.20    1.82
  -4   1   8    0.81    0.40
  -4   1   8    1.78    0.51
   4   1  -8    0.48    0.81
   4   1  -8    1.04    0.88
  -4   1   8    0.40    1.64
   4   1  -8    0.73    0.74
   4   1  -8    2.03    1.09
   4   1  -8    2.76    0.74
  -4   1   8    1.34    0.44
  -4   1   8    0.89    0.81
   4   1  -8    1.58    0.71
   4   1  -8    1.98    1.00
  -3  -1   8    3.48    0.64
   3  -1  -8    2.50    0.70
  -3  -1   8    3.46    0.85
  -3  -1   8    2.82    0.48
   3  -1  -8    3.34    0.75
   3  -1  -8    3.42    0.91
   3  -1  -8    2.22    0.83
   3  -1  -8    4.20    1.11
   3  -1  -8    1.85    1.46
   3  -1  -8    2.81    1.02
  -3  -1   8    2.88    0.58
  -3   1   8    3.66    0.65
  -3   1   8    3.18    0.55
  -3   1   8    3.08    0.80
   3   1  -8    3.83    1.12
  -3   1   8    3.85    0.65
   3   1  -8    2.60    0.85
   3   1  -8    3.76    1.06
  -3   1   8    1.60    1.17
   3   1  -8    3.02    0.71
   3   1  -8    4.37    1.79
   2  -1  -8    4.33    0.76
  -2  -1   8    5.69    0.69
  -2  -1   8    4.76    0.83
   2  -1  -8    4.73    1.20
   2  -1  -8    6.16    1.14
  -2  -1   8    3.31    0.95
   2  -1  -8    6.93    1.50
   2  -1  -8    4.10    0.79
  -2  -1   8    4.70    0.69
   2  -1  -8    4.66    1.00
   2  -1  -8    5.77    1.10
  -2   1   8    4.00    0.68
   2   1  -8    3.41    0.88
   2   1  -8    4.30    0.85
   2   1  -8    4.16    1.12
  -2   1   8    4.08    0.65
  -2   1   8    3.26    1.19
   2   1  -8    5.13    1.10
  -2   1   8    3.72    0.56
  -1  -1   8    2.82    0.59
   1  -1  -8    1.25    1.15
  -1  -1   8    4.40    0.65
   1  -1  -8    3.21    0.75
   1  -1  -8    2.17    0.70
   1  -1  -8    3.42    1.03
  -1   1   8    1.75    0.55
   1   1  -8    2.09    1.43
   1   1  -8    2.74    1.12
   1   1  -8    1.70    1.04
   1   1  -8    2.64    1.02
  -1   1   8    2.81    0.39
   1   1  -8    2.04    0.76
   0  -1  -8    2.18    0.70
   0  -1  -8    1.43    1.35
   0  -1  -8    1.75    0.63
   0  -1  -8    3.33    1.47
   0  -1  -8    3.38    1.09
   0   1  -8    2.25    1.20
   0   1   8    2.57    0.37
   0   1  -8    2.81    1.18
   0   1  -8    0.20    1.17
   0   1  -8    1.07    0.71
  -1  -1  -8    0.42    1.37
  -1  -1  -8    3.06    0.70
  -1  -1  -8    3.37    0.72
  -8  -2   8    0.17    0.41
  -8  -2   8   -0.32    0.39
   8  -2  -8    0.32    0.54
   8   2  -8   -0.13    0.43
  -8   2   8   -0.20    0.57
  -7  -2   8    1.32    0.57
  -7  -2   8    1.24    0.57
   7   2  -8    1.73    0.43
   7   2  -8    0.97    0.49
   6  -2  -8   12.74    1.86
  -6  -2   8    9.03    1.58
   6  -2  -8   12.05    1.15
   6  -2  -8   10.73    1.75
  -6  -2   8   11.27    1.03
   6  -2  -8   17.35    2.16
  -6  -2   8   12.33    0.95
  -6   2   8   12.90    0.99
   6   2  -8   14.34    1.30
   6   2  -8   14.32    1.29
  -6   2   8   13.51    1.13
   6   2  -8   11.34    1.56
  -6   2   8   13.30    1.18
   6   2  -8   12.12    1.23
  -5  -2   8    0.70    0.44
   5  -2  -8    2.54    1.09
  -5  -2   8    0.59    0.40
   5  -2  -8    0.15    0.74
   5  -2  -8    0.27    0.60
  -5  -2   8    1.36    0.58
   5  -2  -8    0.08    0.59
  -5  -2   8    2.61    1.10
   5  -2  -8    1.55    0.90
  -5   2   8    0.93    0.37
  -5   2   8    0.54    0.52
   5   2  -8    0.41    0.57
   5   2  -8    1.23    0.67
   5   2  -8    0.30    0.56
   5   2  -8    0.22    0.82
   5   2  -8    0.02    0.90
   5   2  -8   -0.99    1.00
  -5   2   8    0.60    0.47
   4  -2  -8    2.44    0.71
  -4  -2   8    3.65    0.63
   4  -2  -8    5.07    1.15
   4  -2  -8    2.35    0.60
   4  -2  -8    2.95    0.80
   4  -2  -8    3.93    1.10
  -4  -2   8    2.31    0.95
  -4  -2   8    2.85    0.61
   4   2  -8    2.63    0.73
   4   2  -8    2.03    0.74
   4   2  -8    3.84    1.07
   4   2  -8    2.62    0.65
  -4   2   8    3.26    0.60
   4   2  -8    2.59    0.99
  -4   2   8    3.91    0.79
  -4   2   8    2.67    0.51
   3  -2  -8   28.89    2.53
  -3  -2   8   27.63    1.59
   3  -2  -8   28.79    2.20
   3  -2  -8   30.07    2.31
  -3  -2   8   26.80    1.63
   3  -2  -8   29.50    2.36
  -3  -2   8   22.55    2.15
   3  -2  -8   28.98    1.90
   3  -2  -8   28.77    1.97
   3  -2  -8   27.90    2.12
  -3   2   8   28.49    1.68
   3   2  -8   27.79    2.09
  -3   2   8   23.93    2.75
   3   2  -8   28.06    2.26
  -3   2   8   27.64    1.62
   3   2  -8   27.95    2.01
   3   2  -8   25.63    1.94
  -3   2   8   28.92    1.63
   3   2  -8   29.40    1.96
   3   2  -8   27.18    2.42
   2  -2  -8    5.12    1.33
   2  -2  -8    2.16    1.06
  -2  -2   8    2.81    0.49
   2  -2  -8    4.35    1.12
  -2  -2   8    1.65    0.46
   2  -2  -8    2.26    0.66
   2  -2  -8    2.85    1.19
   2  -2  -8    2.58    0.66
   2   2  -8    2.25    1.06
  -2   2   8    2.18    0.48
   2   2  -8    1.90    1.09
   2   2  -8    2.23    0.94
   2   2  -8    1.03    0.72
  -2   2   8    2.29    0.41
   2   2  -8    1.45    0.77
   1  -2  -8   16.72    2.12
   1  -2  -8   14.95    1.95
   1  -2  -8   13.10    2.10
  -1  -2   8   17.22    1.17
   1  -2  -8   17.89    1.45
   1  -2  -8   17.15    1.36
   1   2  -8   15.91    1.81
  -1   2   8   16.96    1.03
   1   2  -8   15.18    1.66
   1   2  -8   16.58    2.24
   1   2  -8   16.92    1.90
   1   2  -8   16.76    1.61
  -1   2   8   18.70    1.16
   0  -2  -8   27.12    2.29
   0  -2  -8   25.96    1.78
   0  -2  -8   24.94    1.71
   0   2  -8   22.46    2.25
   0   2   8   22.68    1.47
   0   2  -8   28.33    2.35
  -1  -2  -8    0.64    0.55
  -1  -2  -8   -0.54    0.55
  -1  -2  -8    0.04    1.10
  -1  -2  -8   -1.36    1.30
  -2  -2  -8   12.35    1.58
  -2  -2  -8    8.95    1.04
  -8  -3   8    0.75    0.37
   8  -3  -8    1.43    0.46
  -8   3   8    0.71    0.30
  -7  -3   8    1.00    0.49
   7  -3  -8    1.72    0.52
  -7  -3   8    2.22    0.85
   7   3  -8    1.24    0.78
   7   3  -8    1.50    0.40
  -7   3   8    0.97    0.52
   7   3  -8    1.17    0.53
   6  -3  -8   30.61    2.08
   6  -3  -8   26.58    2.19
  -6  -3   8   25.09    1.48
   6  -3  -8   23.45    3.08
   6  -3  -8   29.50    2.29
   6   3  -8   23.55    1.68
  -6   3   8   23.24    1.83
   6   3  -8   27.32    2.53
   6   3  -8   25.91    1.95
   6   3  -8   24.20    1.65
  -6   3   8   25.39    2.01
  -6   3   8   24.64    1.58
  -5  -3   8    0.03    0.44
   5  -3  -8   -0.15    0.92
   5  -3  -8    0.06    0.50
   5  -3  -8    0.45    1.04
  -5  -3   8    0.22    0.51
   5  -3  -8   -0.05    0.81
  -5  -3   8    0.72    0.40
   5  -3  -8   -0.67    0.64
   5   3  -8    0.14    0.52
   5   3  -8    0.02    0.87
   5   3  -8   -0.11    0.85
  -5   3   8    0.17    0.61
  -5   3   8   -0.11    0.45
   5   3  -8    0.45    0.49
   5   3  -8   -0.16    0.92
  -5   3   8    0.51    1.08
  -5   3   8    0.71    0.38
   5   3  -8   -0.07    0.92
   5   3  -8   -0.18    0.54
  -4  -3   8   99.22    5.62
   4  -3  -8  111.57    6.17
   4  -3  -8  114.40    5.83
  -4  -3   8  114.74    5.62
   4  -3  -8  112.34    5.85
   4  -3  -8  111.85    6.01
   4  -3  -8  115.89    5.80
   4  -3  -8  119.31    5.99
  -4  -3   8  103.05    5.59
  -4  -3   8  108.34    5.82
   4   3  -8  114.93    5.89
  -4   3   8  113.73    5.62
  -4   3   8  105.36    5.73
  -4   3   8  109.18    5.63
   4   3  -8  115.96    6.10
   4   3  -8  116.54    5.76
  -4   3   8  104.27    5.64
   4   3  -8  115.24    5.82
   4   3  -8  114.30    5.96
   4   3  -8  118.42    6.02
  -4   3   8   93.65    5.72
  -3  -3   8    6.85    0.79
   3  -3  -8    6.17    1.03
   3  -3  -8    5.36    1.16
  -3  -3   8    7.26    0.71
   3  -3  -8    7.24    1.04
   3  -3  -8    5.35    0.93
   3  -3  -8    4.26    1.12
   3  -3  -8    5.93    1.15
  -3  -3   8    7.84    0.91
   3   3  -8    5.30    1.14
  -3   3   8    6.72    0.72
  -3   3   8    6.60    0.76
   3   3  -8    6.82    1.25
  -3   3   8    5.61    0.95
   3   3  -8    6.85    1.20
  -3   3   8    5.18    0.85
   3   3  -8    5.72    1.05
   3   3  -8    6.45    1.12
   2  -3  -8   33.31    2.49
  -2  -3   8   31.98    1.76
   2  -3  -8   31.43    2.05
   2  -3  -8   31.71    1.98
   2  -3  -8   33.80    2.64
  -2  -3   8   28.98    1.76
   2  -3  -8   28.85    2.09
   2  -3  -8   32.90    2.46
  -2   3   8   32.82    1.80
   2   3  -8   35.45    2.57
   2   3  -8   31.04    2.60
   2   3  -8   29.63    2.11
   2   3  -8   32.46    2.35
   2   3  -8   30.66    2.14
  -2   3   8   27.70    1.84
  -2   3   8   29.96    1.73
   2   3  -8   31.91    2.03
   1  -3  -8    1.48    0.95
  -1  -3   8    0.17    0.51
  -1  -3   8    0.40    0.45
   1  -3  -8    2.59    1.14
   1  -3  -8    0.21    0.49
   1  -3  -8    0.16    0.70
   1  -3  -8    1.04    0.60
   1  -3  -8    1.14    1.25
   1   3  -8    0.24    0.89
   1   3  -8   -1.19    1.09
  -1   3   8    0.83    0.35
  -1   3   8   -0.76    0.55
   1   3  -8    0.06    0.98
   1   3  -8    0.67    0.68
   1   3  -8    0.90    0.69
  -1   3   8    0.47    0.46
   0  -3  -8    1.86    0.53
   0  -3  -8    2.00    0.96
   0  -3  -8    1.63    0.58
   0  -3  -8    1.13    1.39
   0   3  -8    4.32    1.56
   0   3  -8    0.40    1.15
   0   3  -8    2.81    1.94
   0   3   8    1.24    0.51
   0   3  -8    1.77    0.93
   0   3   8    1.37    0.41
  -1  -3  -8    2.57    1.24
  -1  -3  -8    4.93    0.78
  -1  -3  -8    5.06    0.93
  -1  -3  -8    5.91    1.05
  -2  -3  -8    4.48    0.92
  -2  -3  -8    4.94    0.84
  -2  -3  -8    6.37    1.02
  -7  -4   8    1.17    0.43
   7  -4  -8    1.99    0.49
  -7   4   8    0.97    0.44
   7   4  -8    0.68    0.64
  -7   4   8    0.94    0.60
  -6  -4   8   11.72    0.89
  -6  -4   8   11.57    1.18
   6  -4  -8    7.88    1.65
   6  -4  -8   12.82    1.06
  -6   4   8   10.60    0.93
  -6   4   8    8.60    1.07
  -6   4   8   11.27    1.07
   6   4  -8   11.07    2.11
   6   4  -8   12.41    1.11
   6   4  -8   13.14    0.97
  -5  -4   8    0.14    0.46
   5  -4  -8    0.98    0.97
  -5  -4   8    0.24    0.36
   5  -4  -8   -0.13    0.48
   5  -4  -8    0.25    1.48
  -5  -4   8    0.53    0.44
   5  -4  -8   -0.97    0.89
   5  -4  -8   -0.29    1.07
   5   4  -8    0.00    0.55
   5   4  -8    0.08    0.50
   5   4  -8    0.22    0.71
  -5   4   8    0.58    0.43
   5   4  -8    0.46    1.11
  -5   4   8   -0.75    0.73
  -5   4   8    0.14    0.39
   5   4  -8   -0.32    0.67
   5   4  -8    1.07    1.22
   5   4  -8    0.00    0.93
   4  -4  -8   -0.79    0.90
  -4  -4   8    0.10    0.40
  -4  -4   8    0.38    0.42
  -4  -4   8    0.46    0.60
   4  -4  -8   -0.85    0.74
   4  -4  -8   -0.18    0.84
  -4  -4   8   -1.47    0.66
   4  -4  -8    0.01    0.49
   4  -4  -8   -0.19    0.79
   4  -4  -8    1.66    1.19
  -4   4   8    0.16    0.36
   4   4  -8   -0.41    0.51
   4   4  -8   -0.18    0.56
   4   4  -8    0.44    0.81
  -4   4   8   -0.22    0.48
   4   4  -8    0.59    0.82
   4   4  -8   -0.33    0.61
  -4   4   8    1.30    0.66
   4   4  -8   -0.30    0.87
  -4   4   8    0.82    0.52
  -4   4   8    0.13    0.92
   4   4  -8    0.54    0.81
  -3  -4   8   -0.12    0.54
   3  -4  -8   -0.46    0.81
   3  -4  -8   -0.69    0.64
   3  -4  -8    0.99    0.57
  -3  -4   8    0.67    0.40
  -3  -4   8    0.64    0.47
   3  -4  -8    0.91    1.04
   3  -4  -8    0.38    0.95
   3  -4  -8    0.88    0.63
   3  -4  -8    1.55    1.02
  -3   4   8    0.32    0.48
   3   4  -8   -0.09    0.55
  -3   4   8    0.51    0.66
   3   4  -8    0.27    0.59
  -3   4   8    0.78    0.40
   3   4  -8   -0.28    0.69
   3   4  -8    0.72    0.83
   3   4  -8    0.67    0.89
  -3   4   8    0.67    0.55
   3   4  -8   -1.09    0.86
   3   4  -8    3.08    0.94
  -2  -4   8    0.11    0.41
  -2  -4   8    0.35    0.48
   2  -4  -8    1.78    0.93
   2  -4  -8    0.08    0.63
   2  -4  -8    0.60    0.57
   2  -4  -8   -0.28    0.99
   2  -4  -8    0.14    0.52
  -2  -4   8    1.06    0.59
   2  -4  -8    0.39    0.94
   2   4  -8    1.68    0.83
   2   4  -8   -1.01    0.90
   2   4  -8   -0.12    0.58
  -2   4   8    0.55    0.45
   2   4  -8   -0.61    0.85
  -2   4   8    1.11    0.96
  -2   4   8    0.05    0.44
  -2   4   8   -0.30    0.44
   2   4  -8    0.78    0.78
   2   4  -8    0.81    0.55
   1  -4  -8    2.45    1.60
   1  -4  -8    1.86    1.14
   1  -4  -8    0.24    0.54
   1  -4  -8    0.38    0.85
  -1  -4   8    0.28    0.47
   1  -4  -8    0.47    0.61
   1  -4  -8    0.25    0.40
   1   4  -8    1.40    0.62
  -1   4   8    0.55    0.47
   1   4  -8    0.39    0.92
  -1   4   8   -0.07    0.47
   1   4  -8    0.50    0.88
  -1   4   8    0.76    0.69
   1   4  -8    1.42    1.19
   0  -4  -8   12.54    1.17
   0  -4  -8   13.69    1.23
   0  -4  -8   11.04    1.01
   0  -4  -8    9.60    1.79
   0   4  -8   12.55    1.16
   0   4  -8    9.11    1.82
   0   4  -8   14.16    1.30
   0   4  -8    6.63    2.33
   0   4  -8   10.69    1.71
   0   4   8   10.86    0.92
   0   4   8   10.64    1.00
  -1  -4  -8    1.34    0.53
  -1  -4  -8    2.22    0.59
  -1  -4  -8    1.21    0.37
  -1  -4  -8    0.16    1.12
   1   4   8    1.05    0.47
  -2  -4  -8    0.74    0.46
  -2  -4  -8    1.88    0.57
  -2  -4  -8    0.60    0.35
  -7  -5   8   -0.29    0.44
   7  -5  -8    0.82    0.49
  -7   5   8   -0.13    0.46
  -7   5   8    0.32    0.35
   7   5  -8    0.84    0.38
   6  -5  -8    2.09    1.10
  -6  -5   8    0.71    0.54
   6  -5  -8    0.67    0.54
  -6  -5   8   -0.04    0.32
  -6   5   8   -0.02    0.51
  -6   5   8   -0.23    0.50
   6   5  -8    0.03    0.55
   6   5  -8    1.12    1.05
   6   5  -8    0.12    0.55
   5  -5  -8    1.52    0.89
  -5  -5   8    3.03    0.53
   5  -5  -8    2.49    0.89
   5  -5  -8    2.52    0.71
   5  -5  -8    2.36    0.54
  -5  -5   8    1.76    0.43
   5   5  -8    2.14    0.60
   5   5  -8    1.76    0.93
   5   5  -8    1.73    0.47
   5   5  -8    2.00    0.65
   5   5  -8    1.54    1.03
  -5   5   8    1.58    0.40
  -5   5   8    1.79    0.55
   4  -5  -8    9.03    1.41
   4  -5  -8    5.60    1.00
   4  -5  -8    5.50    0.92
   4  -5  -8    4.82    1.15
   4  -5  -8    6.89    1.20
  -4  -5   8    4.56    0.82
  -4  -5   8    6.37    0.67
   4  -5  -8    6.51    1.53
  -4  -5   8    5.30    0.67
   4   5  -8    6.38    0.98
  -4   5   8    6.04    0.95
   4   5  -8    6.77    1.18
  -4   5   8    6.60    0.72
   4   5  -8    6.32    1.30
   4   5  -8    5.81    1.34
  -4   5   8    7.44    1.06
   3  -5  -8   12.00    2.14
   3  -5  -8   10.69    1.28
  -3  -5   8    6.92    1.03
  -3  -5   8    7.06    0.81
   3  -5  -8    7.62    1.47
   3  -5  -8    8.97    1.76
  -3  -5   8    7.52    1.30
   3  -5  -8    8.73    0.95
  -3   5   8    8.14    0.80
   3   5  -8    9.59    1.44
   3   5  -8    9.27    1.01
  -3   5   8    8.22    1.10
   3   5  -8    8.80    0.96
   3   5  -8    7.49    1.37
   3   5  -8    6.97    1.35
   3   5  -8   10.59    1.36
   3   5  -8    8.13    1.41
  -3   5   8    9.34    0.99
   2  -5  -8   16.92    1.23
  -2  -5   8   14.79    1.08
  -2  -5   8   17.55    1.19
   2  -5  -8   17.16    1.74
   2  -5  -8   17.77    1.41
  -2  -5   8   16.66    1.20
   2  -5  -8   17.98    2.01
   2  -5  -8   16.63    1.90
   2  -5  -8   18.15    1.89
   2   5  -8   18.16    1.65
   2   5  -8   17.87    1.68
   2   5  -8   18.48    1.65
   2   5  -8   17.71    2.04
  -2   5   8   16.08    1.13
   2   5  -8   15.72    1.64
   2   5  -8   16.14    1.32
  -2   5   8   13.35    1.53
   1  -5  -8    1.94    1.18
   1  -5  -8    0.61    0.57
  -1  -5   8    0.16    0.41
   1  -5  -8    0.36    1.22
   1  -5  -8    1.65    0.61
   1  -5  -8   -0.22    0.75
   1   5  -8    0.11    1.15
   1   5  -8   -0.03    0.62
  -1   5   8    0.12    0.40
  -1   5   8    1.59    0.75
   1   5  -8   -0.49    0.88
   1   5  -8   -0.17    0.52
   1   5  -8    1.03    1.31
  -1   5   8    0.23    0.48
   0  -5  -8   15.21    1.16
   0  -5  -8   15.93    1.07
   0  -5  -8   14.13    1.16
   0   5  -8   12.72    1.07
   0   5  -8   13.76    1.25
   0   5   8   13.80    1.05
   0   5  -8   12.71    1.73
   0   5  -8   14.41    1.74
  -1  -5  -8    0.64    0.34
  -1  -5  -8   -0.49    0.42
  -1  -5  -8    0.67    0.50
  -1  -5  -8   -0.54    1.47
   1   5   8   -0.50    0.36
  -1   5  -8   -0.29    0.68
   6  -6  -8    0.56    0.62
   6  -6  -8   -1.12    0.87
   6   6  -8   -0.04    0.33
  -6   6   8    1.51    0.49
  -6   6   8    1.00    0.46
   6   6  -8    0.23    0.48
  -5  -6   8    0.07    0.32
   5  -6  -8    1.00    0.64
   5  -6  -8   -1.04    0.99
  -5  -6   8   -0.14    0.40
  -5  -6   8    0.12    0.70
   5  -6  -8    0.32    0.77
   5   6  -8   -0.01    0.55
   5   6  -8    1.65    0.87
   5   6  -8    1.13    1.36
  -5   6   8   -0.04    0.44
   5   6  -8   -0.76    0.49
  -5   6   8    0.45    0.39
   5   6  -8    0.08    0.39
   4  -6  -8    0.98    0.90
   4  -6  -8    0.01    0.49
  -4  -6   8    0.26    0.40
  -4  -6   8    0.93    0.91
  -4  -6   8    0.53    0.44
   4  -6  -8    1.37    0.80
   4  -6  -8   -0.79    1.28
  -4  -6   8    0.50    0.32
  -4   6   8    0.86    0.38
  -4   6   8    0.04    0.61
   4   6  -8    0.06    0.83
   4   6  -8    0.96    0.49
   4   6  -8   -0.04    0.51
   4   6  -8    2.50    0.81
   4   6  -8    0.66    0.89
  -4   6   8   -0.19    0.47
   3  -6  -8    3.50    0.91
  -3  -6   8    3.85    0.59
   3  -6  -8    2.68    1.07
   3  -6  -8    4.41    0.84
  -3  -6   8    3.71    0.61
  -3  -6   8    4.46    0.60
   3  -6  -8    2.24    0.51
  -3   6   8    2.57    0.49
  -3   6   8    4.68    0.64
   3   6  -8    4.09    0.73
   3   6  -8    2.95    0.76
   3   6  -8    3.62    0.90
   3   6  -8    3.46    0.62
   3   6  -8    1.68    0.86
   3   6  -8    2.90    0.83
  -3   6   8    5.32    0.95
   2  -6  -8   -0.13    0.56
   2  -6  -8   -0.09    0.61
   2  -6  -8    0.68    0.94
  -2  -6   8    0.79    0.40
   2  -6  -8   -0.67    1.08
   2  -6  -8   -0.23    0.41
  -2  -6   8   -0.30    0.40
   2  -6  -8   -0.99    0.85
   2   6  -8   -0.45    0.73
   2   6  -8   -0.51    0.46
  -2   6   8    0.11    0.58
   2   6  -8    0.20    0.99
  -2   6   8   -0.27    0.35
  -2   6   8    0.11    0.48
   2   6  -8    0.11    0.48
   2   6  -8    0.20    0.78
   2   6  -8   -1.51    1.11
  -1  -6   8    2.20    0.44
   1  -6  -8    0.65    1.19
   1  -6  -8    1.56    0.44
   1  -6  -8    1.82    0.59
   1  -6  -8    2.20    0.56
   1  -6  -8    4.29    1.22
  -1  -6   8    0.98    0.47
   1  -6  -8    2.20    0.87
   1   6  -8   -0.04    1.29
  -1   6   8    1.50    0.56
   1   6  -8    1.75    0.75
   1   6  -8    2.23    0.47
  -1   6   8    1.28    0.54
   1   6  -8    1.07    0.96
  -1   6   8    1.26    0.39
   1   6  -8    1.87    0.86
   1   6  -8    2.25    0.55
   0  -6  -8    0.06    0.33
   0  -6  -8   -0.07    0.44
   0  -6  -8    0.36    0.48
   0   6   8   -0.12    0.35
   0   6  -8    0.44    0.52
   0   6  -8   -0.49    0.45
   0   6   8    0.92    0.57
   0   6  -8   -0.65    0.97
   0   6  -8    2.54    1.04
  -1  -6  -8    0.49    0.42
  -1  -6  -8    0.40    0.35
  -1  -6  -8    0.34    0.21
   1   6   8    1.34    0.50
  -5  -7   8    3.05    0.82
   5  -7  -8    3.37    0.94
   5  -7  -8    4.45    0.89
  -5  -7   8    2.90    0.53
   5   7  -8    5.72    1.27
  -5   7   8    4.08    0.62
   5   7  -8    4.00    0.48
   4  -7  -8   14.06    1.20
   4  -7  -8   16.83    1.35
   4  -7  -8   13.77    1.68
  -4  -7   8   11.36    0.89
  -4  -7   8   14.71    0.98
   4   7  -8   14.47    1.20
  -4   7   8   13.66    0.90
   4   7  -8   13.51    1.10
   4   7  -8   16.39    1.65
   4   7  -8   14.88    1.71
  -4   7   8   12.88    0.96
   4   7  -8   14.42    1.56
   4   7  -8   13.90    0.96
  -3  -7   8    1.42    0.42
   3  -7  -8    0.44    0.99
  -3  -7   8    1.12    0.34
   3  -7  -8    2.05    0.98
   3   7  -8    0.60    0.59
  -3   7   8    0.95    0.36
   3   7  -8    1.07    0.86
  -3   7   8    1.19    0.53
   3   7  -8   -0.41    0.79
   3   7  -8    1.79    0.55
   3   7  -8    2.22    0.92
   3   7  -8    1.12    0.43
  -3   7   8    0.27    0.58
   2  -7  -8   12.90    1.08
  -2  -7   8   15.17    1.22
   2  -7  -8   15.41    1.28
   2  -7  -8   11.28    1.78
  -2  -7   8   14.35    0.95
   2  -7  -8   13.30    1.66
   2  -7  -8   13.73    1.47
   2  -7  -8   14.05    1.09
   2   7  -8   12.76    1.50
   2   7  -8   16.24    1.07
   2   7  -8   14.05    1.17
   2   7  -8   14.68    1.26
  -2   7   8   13.09    0.98
  -2   7   8   13.91    1.00
   2   7  -8   16.92    1.55
   2   7  -8   17.56    1.95
   1  -7  -8    0.31    1.51
  -1  -7   8   -0.04    0.37
   1  -7  -8   -0.28    0.51
   1  -7  -8   -0.12    0.37
   1  -7  -8   -0.26    0.73
   1  -7  -8   -0.11    0.43
  -1   7   8   -0.52    0.37
   1   7  -8    0.61    0.36
   1   7  -8   -0.25    0.75
   1   7  -8    0.46    0.44
  -1   7   8    0.10    0.36
   1   7  -8    1.56    0.74
   1   7  -8    1.48    0.80
   0  -7  -8    0.93    0.71
   0  -7  -8    2.29    0.40
   0  -7  -8    2.21    0.45
   0  -7  -8    1.93    0.46
   0   7  -8    3.09    0.91
   0   7   8    1.33    0.36
   0   7  -8    1.27    0.46
   0   7  -8    1.42    0.40
   4  -8  -8    2.88    0.65
  -4  -8   8    2.43    0.46
   4   8  -8    2.97    1.21
   4   8  -8    2.20    0.38
   3  -8  -8    0.83    0.70
  -3  -8   8   -0.03    0.39
  -3  -8   8   -0.43    0.54
   3   8  -8    0.33    0.43
   3   8  -8   -0.21    0.34
  -3   8   8   -0.20    0.33
   3   8  -8   -1.02    0.82
  -2  -8   8    4.01    0.68
   2  -8  -8    4.76    1.06
   2  -8  -8    3.82    0.84
   2  -8  -8    5.02    0.98
   2   8  -8    4.84    0.58
   2   8  -8    4.69    0.85
  -2   8   8    4.19    0.54
  -2   8   8    4.43    0.50
   2   8  -8    4.45    1.02
   2   8  -8    4.76    0.71
   7   0  -9   10.18    0.83
  -7   0   9    9.62    0.96
  -6   0   9    1.77    0.58
  -6   0   9   -0.29    0.44
   6   0  -9    0.02    0.46
   6   0  -9    0.32    0.52
   6   0  -9    0.45    0.98
  -6   0   9   -0.14    0.34
  -5   0   9   -0.54    0.71
   5   0  -9    0.87    0.58
   5   0  -9    0.85    0.82
   5   0  -9    0.90    0.90
  -5   0   9    1.63    0.37
   5   0  -9    2.02    0.97
   5   0  -9    0.83    0.54
  -5   0   9    0.81    0.49
  -5   0   9    1.45    0.48
   4   0  -9    0.21    0.91
   4   0  -9   -0.27    0.51
  -4   0   9    0.25    0.40
   4   0  -9    0.39    0.59
   4   0  -9    0.10    1.09
  -4   0   9    0.48    0.37
   4   0  -9    0.11    0.73
  -4   0   9   -0.91    0.67
   3   0  -9   37.16    2.28
  -3   0   9   40.52    2.23
   3   0  -9   38.26    2.56
   3   0  -9   37.29    2.46
   3   0  -9   36.41    2.33
  -3   0   9   36.52    2.12
   3   0  -9   38.40    2.42
  -2   0   9   -0.20    0.44
  -2   0   9    1.04    0.58
   2   0  -9    0.20    0.66
   2   0  -9   -0.48    0.83
   2   0  -9   -0.13    0.69
   2   0  -9    0.59    0.86
   2   0  -9    1.00    1.13
   1   0  -9    3.82    1.01
   1   0  -9    5.62    1.24
  -1   0   9    5.27    0.64
   1   0  -9    6.33    1.00
   1   0  -9    5.41    1.16
   0   0  -9    0.43    1.15
   0   0  -9    0.41    0.67
   7  -1  -9    1.58    0.48
  -7  -1   9    1.19    0.45
  -7  -1   9    0.97    0.52
   7   1  -9    0.64    0.52
  -7   1   9    1.56    0.65
  -7   1   9    1.28    0.43
   7   1  -9    1.32    0.45
  -6  -1   9    2.90    0.71
   6  -1  -9    2.36    0.98
  -6  -1   9    3.33    0.60
   6  -1  -9    1.49    0.62
   6  -1  -9    2.46    0.50
   6  -1  -9    1.04    1.06
  -6  -1   9    2.33    0.40
  -6   1   9    2.56    0.42
   6   1  -9    1.16    1.34
   6   1  -9    2.91    0.54
  -6   1   9    2.37    0.69
   6   1  -9    2.78    0.58
   6   1  -9    1.89    0.56
  -6   1   9    2.35    0.55
   6   1  -9    4.16    1.20
   5  -1  -9   13.05    1.22
   5  -1  -9   12.36    1.59
   5  -1  -9   14.16    1.52
  -5  -1   9   13.03    1.17
   5  -1  -9   14.41    2.02
   5  -1  -9   14.07    1.26
  -5  -1   9   11.41    0.96
  -5  -1   9   12.28    1.44
  -5  -1   9   14.05    0.93
   5   1  -9   14.37    1.53
  -5   1   9   13.17    1.10
  -5   1   9   14.17    0.91
   5   1  -9   16.36    1.75
   5   1  -9   13.48    1.16
   5   1  -9   13.99    1.55
   5   1  -9   13.81    1.55
  -5   1   9   12.35    0.99
   5   1  -9   12.92    1.21
   4  -1  -9    6.73    1.43
  -4  -1   9    4.08    0.74
  -4  -1   9    3.51    0.60
  -4  -1   9    2.96    0.46
   4  -1  -9    3.94    0.93
   4  -1  -9    5.29    0.92
   4  -1  -9    4.21    0.85
   4   1  -9    3.15    0.74
   4   1  -9    3.88    0.84
   4   1  -9    2.40    1.13
  -4   1   9    4.08    0.60
  -4   1   9    3.63    0.71
  -4   1   9    3.44    0.46
   4   1  -9    4.21    1.08
   3  -1  -9   11.27    1.51
   3  -1  -9   13.68    1.54
  -3  -1   9   15.51    1.17
   3  -1  -9   13.72    1.29
  -3  -1   9   14.62    1.08
   3  -1  -9   14.28    1.75
   3  -1  -9   14.29    1.62
  -3  -1   9   13.95    0.96
   3   1  -9   12.58    1.51
  -3   1   9   13.45    0.96
  -3   1   9   14.55    1.05
   3   1  -9   16.50    1.63
   3   1  -9   12.36    1.53
   3   1  -9   11.55    1.64
   2  -1  -9   10.39    1.52
  -2  -1   9    7.08    1.09
   2  -1  -9    6.62    1.02
  -2  -1   9    8.70    0.76
   2   1  -9    9.10    1.22
   2   1  -9    5.89    1.51
  -2   1   9    9.94    0.78
   2   1  -9    6.76    1.46
  -2   1   9    7.36    0.96
   2   1  -9    8.94    1.19
   1  -1  -9    0.94    1.06
   1  -1  -9   -0.45    0.86
   1  -1  -9    0.41    0.53
  -1  -1   9    1.51    0.53
   1  -1  -9    0.21    0.56
   1  -1  -9    0.66    1.61
  -1   1   9    0.84    0.51
   1   1  -9    1.88    0.99
   1   1  -9    0.13    0.95
   1   1  -9    0.50    0.63
   1   1  -9    0.30    1.14
   0  -1  -9    1.04    0.55
   0  -1  -9   -0.21    1.07
   0   1  -9    5.38    2.11
  -7  -2   9    0.14    0.40
   7  -2  -9   -0.87    0.48
   7   2  -9    0.37    0.37
  -7   2   9   -0.23    0.51
   7   2  -9   -0.18    0.35
   6  -2  -9    0.39    0.50
  -6  -2   9    0.07    0.34
   6  -2  -9    0.50    0.66
   6  -2  -9    0.90    1.06
  -6  -2   9    0.57    0.43
   6  -2  -9   -0.84    0.98
   6   2  -9   -0.08    0.46
   6   2  -9    0.13    0.48
   6   2  -9   -0.67    1.36
   6   2  -9    0.45    0.44
  -6   2   9   -0.10    0.36
  -6   2   9    0.08    0.53
  -5  -2   9   -0.54    0.43
  -5  -2   9    0.49    0.34
   5  -2  -9   -0.21    0.60
   5  -2  -9    0.07    0.47
   5  -2  -9   -0.25    0.56
  -5  -2   9    0.10    0.44
   5  -2  -9    1.34    1.11
   5  -2  -9    0.88    0.90
   5  -2  -9    0.29    0.82
  -5   2   9    0.16    0.34
  -5   2   9    0.33    0.57
   5   2  -9    0.96    0.85
   5   2  -9    0.04    0.52
   5   2  -9   -0.24    0.48
   5   2  -9   -0.69    0.82
  -5   2   9    0.08    0.41
   5   2  -9   -1.12    0.80
   5   2  -9   -0.10    0.53
  -4  -2   9    0.35    0.37
   4  -2  -9    1.67    1.10
   4  -2  -9    0.47    0.77
  -4  -2   9    0.81    0.72
   4  -2  -9    0.73    0.68
   4  -2  -9    0.58    0.44
   4  -2  -9    0.61    0.76
   4  -2  -9   -1.03    0.95
  -4  -2   9   -0.10    0.41
   4   2  -9    0.20    0.55
   4   2  -9    0.77    0.64
   4   2  -9    0.12    0.71
   4   2  -9   -0.27    0.79
  -4   2   9    0.12    0.34
   4   2  -9    0.93    1.07
  -4   2   9    1.50    0.55
   4   2  -9   -0.01    0.78
  -4   2   9    0.76    0.41
   3  -2  -9   11.05    1.48
   3  -2  -9    8.88    1.14
  -3  -2   9    9.72    0.91
   3  -2  -9   10.43    1.17
  -3  -2   9   10.64    0.82
  -3   2   9   10.60    0.85
   3   2  -9   12.04    1.47
   3   2  -9    9.62    1.20
   3   2  -9    8.71    1.39
  -3   2   9    7.16    1.45
  -3   2   9    9.16    0.81
   2  -2  -9    6.87    1.50
   2  -2  -9    5.39    0.75
   2  -2  -9    5.10    1.23
  -2  -2   9    5.03    0.70
   2  -2  -9    5.08    0.88
   2  -2  -9    7.03    1.11
  -2  -2   9    5.27    0.94
   2   2  -9    4.95    0.96
   2   2  -9    4.39    0.92
   2   2  -9    6.01    0.80
  -2   2   9    4.77    0.80
   2   2  -9    7.19    1.20
  -2   2   9    6.68    0.69
   1  -2  -9    4.45    1.45
   1  -2  -9    4.03    0.95
   1  -2  -9    5.49    0.68
   1  -2  -9    4.29    0.84
   1   2  -9    4.11    0.82
   1   2  -9    4.74    0.84
  -1   2   9    3.66    0.60
  -1   2   9    5.22    0.71
   1   2  -9    6.34    1.39
   1   2  -9    8.30    1.82
   0  -2  -9    4.17    0.69
   0  -2  -9    4.83    0.66
   7  -3  -9   -0.54    0.42
  -7  -3   9   -0.46    0.33
  -7   3   9   -0.19    0.35
   7   3  -9    0.23    0.34
   6  -3  -9    7.29    1.56
   6  -3  -9    5.51    0.73
  -6  -3   9    4.14    0.58
   6  -3  -9    4.58    1.22
   6   3  -9    5.55    0.62
   6   3  -9    3.98    2.05
  -6   3   9    4.15    0.70
   6   3  -9    4.88    0.73
  -6   3   9    3.77    0.62
  -5  -3   9    0.05    0.33
   5  -3  -9    1.93    0.86
   5  -3  -9    0.03    0.65
  -5  -3   9    0.32    0.40
   5  -3  -9   -0.26    0.60
   5  -3  -9   -0.38    0.41
  -5  -3   9   -0.47    0.60
   5  -3  -9   -0.07    1.00
   5  -3  -9    1.43    1.21
  -5   3   9    0.42    0.53
   5   3  -9    0.24    0.45
  -5   3   9   -0.21    0.34
   5   3  -9   -0.67    1.03
   5   3  -9   -0.27    0.77
   5   3  -9    0.40    0.84
   5   3  -9   -0.29    0.48
   5   3  -9    0.05    0.46
   4  -3  -9    1.45    0.50
   4  -3  -9    2.68    0.87
   4  -3  -9    2.20    0.83
   4  -3  -9    0.81    0.79
  -4  -3   9    1.72    0.39
  -4  -3   9    1.23    0.43
   4  -3  -9    1.47    0.63
   4  -3  -9    1.84    0.95
  -4   3   9    1.15    0.36
  -4   3   9    2.01    0.50
  -4   3   9    2.05    0.46
   4   3  -9    0.63    0.75
   4   3  -9    1.76    0.72
   4   3  -9    1.80    0.59
   4   3  -9    2.37    0.82
   4   3  -9    0.61    0.56
   4   3  -9    1.61    0.58
  -3  -3   9    0.16    0.43
   3  -3  -9   -0.22    0.84
   3  -3  -9   -0.40    0.77
   3  -3  -9    1.21    0.83
   3  -3  -9   -0.20    0.45
   3  -3  -9    1.08    0.54
  -3  -3   9    0.12    0.40
   3   3  -9    1.09    0.61
   3   3  -9    0.09    0.76
   3   3  -9    0.98    0.77
  -3   3   9    0.40    0.44
   3   3  -9    0.13    0.51
   3   3  -9    0.59    0.70
  -3   3   9   -0.62    0.59
   3   3  -9   -0.27    0.59
  -3   3   9    0.22    0.36
   2  -3  -9   -0.50    0.48
   2  -3  -9    1.52    0.98
   2  -3  -9   -0.30    0.73
   2  -3  -9    0.29    0.91
  -2  -3   9    0.41    0.42
  -2  -3   9    0.24    0.56
   2  -3  -9    0.11    0.45
  -2   3   9    0.59    0.43
   2   3  -9    1.10    0.87
   2   3  -9    0.54    0.82
   2   3  -9    0.65    0.78
   2   3  -9   -0.12    0.58
   2   3  -9   -0.53    0.67
  -2   3   9    0.31    0.40
   1  -3  -9    7.18    1.37
   1  -3  -9    6.78    1.27
   1  -3  -9    5.27    0.72
   1  -3  -9    6.01    0.81
   1  -3  -9    5.42    0.94
  -1   3   9    5.34    0.73
   1   3  -9    5.10    0.76
   1   3  -9    5.88    1.33
   1   3  -9    4.52    1.10
   1   3  -9    5.85    1.23
   0  -3  -9    5.34    0.82
   0  -3  -9    4.88    1.48
   0  -3  -9    5.41    0.73
  -6  -4   9   -0.33    0.32
  -6  -4   9    0.77    0.51
   6  -4  -9    0.37    0.85
  -6   4   9    0.44    0.43
   6   4  -9    1.61    1.08
   6   4  -9   -0.06    0.42
   6   4  -9   -0.05    0.46
   5  -4  -9   -0.33    0.61
  -5  -4   9   -0.08    0.37
   5  -4  -9    0.44    1.04
   5  -4  -9    1.08    0.91
  -5  -4   9    0.03    0.35
   5  -4  -9    0.19    0.42
   5  -4  -9    1.84    0.86
  -5   4   9    1.64    0.51
   5   4  -9    0.65    0.97
   5   4  -9    0.21    0.43
   5   4  -9    0.37    0.93
   5   4  -9    1.19    0.93
  -5   4   9    0.27    0.34
   5   4  -9    0.89    0.49
  -4  -4   9    0.36    0.42
   4  -4  -9   -0.38    0.94
   4  -4  -9   -0.22    0.81
   4  -4  -9    0.72    0.36
  -4  -4   9    0.40    0.45
   4  -4  -9    1.40    1.08
  -4  -4   9    0.71    0.35
   4  -4  -9    1.23    0.63
   4  -4  -9    0.25    0.78
   4   4  -9    1.50    0.82
  -4   4   9    1.04    0.41
   4   4  -9   -0.07    0.68
  -4   4   9    0.21    0.40
   4   4  -9    0.08    0.48
   4   4  -9    1.02    0.57
  -4   4   9    0.01    0.68
   4   4  -9    0.28    0.43
   4   4  -9    0.83    1.28
   3  -4  -9   -0.78    0.78
  -3  -4   9   -0.11    0.40
   3  -4  -9    1.21    0.54
   3  -4  -9   -0.25    0.40
   3  -4  -9    1.43    0.89
   3  -4  -9    0.26    0.79
  -3  -4   9    0.83    0.65
  -3   4   9   -0.67    0.70
   3   4  -9    0.78    0.66
   3   4  -9   -0.33    0.72
   3   4  -9   -0.22    0.47
   3   4  -9   -0.05    0.76
  -3   4   9   -0.13    0.34
   3   4  -9    0.00    0.53
  -3   4   9   -0.44    0.49
  -3   4   9   -0.56    0.47
   3   4  -9    1.18    0.75
  -2  -4   9    1.15    0.43
   2  -4  -9    0.52    0.47
   2  -4  -9    1.48    1.04
   2  -4  -9    0.50    0.40
   2  -4  -9    0.06    0.70
  -2  -4   9    0.11    0.49
  -2   4   9    1.66    0.49
  -2   4   9    0.18    0.60
  -2   4   9    0.48    0.63
   2   4  -9    0.20    0.50
   2   4  -9   -0.56    0.87
   2   4  -9    0.68    0.74
   2   4  -9    0.60    0.59
   1  -4  -9    1.15    0.76
   1  -4  -9   -1.61    1.29
   1  -4  -9   -0.02    0.37
   1  -4  -9   -0.15    0.77
   1  -4  -9    0.30    0.43
   1   4  -9    1.03    0.55
  -1   4   9   -0.28    0.38
   1   4  -9   -1.01    0.95
   1   4  -9    0.41    0.89
   1   4  -9    0.22    1.73
  -1   4   9    1.32    0.74
   0  -4  -9   -0.76    0.84
   0  -4  -9   -0.36    0.54
   6  -5  -9    0.81    0.58
  -6   5   9    3.18    0.59
   6   5  -9    2.19    0.38
   5  -5  -9    1.37    0.71
  -5  -5   9    0.73    0.73
   5  -5  -9   -0.61    0.65
   5  -5  -9    2.21    0.93
  -5  -5   9    0.09    0.28
  -5  -5   9    0.62    0.38
   5   5  -9    0.70    1.01
   5   5  -9    0.08    0.43
  -5   5   9    0.67    0.47
  -5   5   9    0.35    0.56
   5   5  -9    0.07    0.39
   5   5  -9    0.54    0.87
   4  -5  -9    3.54    0.60
  -4  -5   9    2.55    1.07
  -4  -5   9    2.84    0.47
   4  -5  -9    3.31    0.77
  -4  -5   9    3.84    0.51
   4  -5  -9    2.19    1.42
   4  -5  -9    4.90    1.15
   4   5  -9    3.70    0.94
   4   5  -9    3.05    0.85
   4   5  -9    3.52    0.87
   4   5  -9    4.18    0.67
   4   5  -9    3.15    0.52
  -4   5   9    2.33    0.73
  -4   5   9    4.51    0.56
  -4   5   9    3.57    0.62
   3  -5  -9    4.88    0.95
   3  -5  -9    5.32    0.97
  -3  -5   9    4.58    1.04
   3  -5  -9    5.68    1.16
   3  -5  -9    4.83    0.66
  -3  -5   9    4.75    0.61
  -3   5   9    5.80    0.62
   3   5  -9    5.15    0.73
   3   5  -9    3.81    0.92
  -3   5   9    5.28    0.76
   3   5  -9    4.00    0.86
   3   5  -9    4.24    0.74
  -3   5   9    3.79    0.77
   2  -5  -9    0.80    0.99
   2  -5  -9   -0.40    0.46
  -2  -5   9    0.69    0.41
   2  -5  -9   -0.09    0.36
   2   5  -9   -0.55    0.96
   2   5  -9    0.04    0.76
   2   5  -9   -1.10    0.72
   2   5  -9    0.05    0.44
  -2   5   9   -0.16    0.34
   2   5  -9    1.39    0.65
   1  -5  -9    0.52    0.43
   1  -5  -9    0.31    0.33
   1  -5  -9   -0.81    0.74
   1   5  -9    1.52    0.91
  -1   5   9    0.81    0.51
   1   5  -9    0.47    0.47
  -1   5   9    0.69    0.35
   5  -6  -9    1.89    0.73
   5   6  -9   -0.76    0.85
   5   6  -9    0.71    0.32
   5   6  -9    0.82    0.51
  -4  -6   9   -0.28    0.33
  -4  -6   9    0.25    0.44
   4  -6  -9    0.16    0.36
   4  -6  -9   -0.71    0.85
   4   6  -9    0.91    1.26
  -4   6   9   -0.06    0.28
  -4   6   9    0.44    0.37
   4   6  -9    0.10    0.43
   4   6  -9    1.84    0.80
   4   6  -9   -0.02    0.41
  -3  -6   9    0.92    0.32
   3  -6  -9    0.35    0.31
   3  -6  -9    2.94    1.14
  -3  -6   9   -0.08    0.41
   3  -6  -9    1.22    0.64
   3  -6  -9    1.01    0.91
  -3   6   9    0.62    0.40
   3   6  -9    0.19    0.66
   3   6  -9    0.09    0.40
   3   6  -9    1.74    1.14
   3   6  -9    0.23    0.53
   3   6  -9    2.30    1.33
   2  -6  -9    2.37    1.11
  -2  -6   9    3.41    0.81
   2  -6  -9    2.50    0.44
  -2   6   9    2.35    0.46
   2   6  -9    3.56    1.03
   2   6  -9    1.22    1.01
   2   6  -9    2.95    0.51
   2   6  -9    3.29    0.45
  -2   6   9    2.71    0.39
  -6   0  10   -0.36    0.23
   6   0 -10   -0.04    0.43
   5   0 -10   -0.04    0.72
  -5   0  10    1.68    0.71
  -5   0  10   -0.34    0.31
   5   0 -10   -0.24    0.82
  -5   0  10    0.83    0.37
   5   0 -10   -0.45    0.84
   5   0 -10   -0.21    0.44
   5   0 -10   -0.39    0.68
   4   0 -10   16.76    1.17
  -4   0  10   16.55    1.01
   4   0 -10   15.57    1.37
   4   0 -10   19.01    1.68
   4   0 -10   16.69    1.26
   4   0 -10   13.70    1.55
   3   0 -10    0.55    0.42
   3   0 -10   -0.57    0.57
   3   0 -10    0.45    0.68
  -3   0  10    0.68    0.67
   3   0 -10   -0.74    0.73
  -3   0  10    0.66    0.38
   3   0 -10    1.47    0.76
   2   0 -10    7.26    0.94
   2   0 -10   10.29    1.47
   2   0 -10   12.00    1.68
   1   0 -10    4.07    1.65
  -5  -1  10    0.77    0.51
  -5  -1  10    0.87    0.36
   5  -1 -10    0.86    0.55
   5  -1 -10    1.71    0.59
   5  -1 -10    2.61    0.92
   5  -1 -10    0.68    1.08
   5  -1 -10    1.84    0.91
   5   1 -10    1.68    0.53
   5   1 -10    1.55    0.53
   5   1 -10    0.50    0.96
  -5   1  10    1.49    0.55
   5   1 -10    1.24    0.87
  -5   1  10    1.25    0.36
   4  -1 -10   15.99    1.29
   4  -1 -10   18.99    1.47
   4  -1 -10   19.62    1.81
   4  -1 -10   15.06    1.17
   4  -1 -10   18.14    1.61
  -4  -1  10   17.59    1.05
  -4   1  10   18.46    1.31
   4   1 -10   16.36    1.62
   4   1 -10   18.47    1.23
   4   1 -10   19.08    1.47
   4   1 -10   16.73    1.20
   4   1 -10   17.82    1.60
  -4   1  10   17.59    1.04
   3  -1 -10    1.51    0.73
  -3  -1  10    1.75    0.42
  -3  -1  10    0.24    0.70
   3  -1 -10    0.84    0.41
   3  -1 -10    2.05    0.70
   3  -1 -10    1.12    0.52
   3  -1 -10    2.09    0.84
  -3   1  10    1.74    0.39
  -3   1  10    0.85    0.62
   3   1 -10    2.56    0.78
   3   1 -10    2.15    0.71
   3   1 -10    1.57    0.56
   3   1 -10    2.10    0.52
   2  -1 -10    5.91    1.28
   2  -1 -10    4.60    0.85
   2  -1 -10    6.99    1.46
   2   1 -10    5.34    0.87
   2   1 -10    8.04    1.39
   1  -1 -10    2.23    1.18
   5  -2 -10    1.20    0.47
   5  -2 -10    0.67    0.54
   5  -2 -10    2.09    0.72
  -5  -2  10    1.17    0.32
  -5   2  10    0.71    0.47
  -5   2  10    1.34    0.37
   5   2 -10    1.26    0.89
   5   2 -10    0.90    0.45
   5   2 -10    1.66    0.48
   5   2 -10    2.19    0.85
  -4  -2  10    4.07    0.56
   4  -2 -10    4.70    0.86
   4  -2 -10    3.42    0.73
   4  -2 -10    4.77    1.01
   4  -2 -10    3.85    0.98
  -4  -2  10    4.37    0.80
   4   2 -10    6.36    1.27
  -4   2  10    4.78    0.53
   4   2 -10    3.11    0.82
   4   2 -10    6.46    1.30
   4   2 -10    5.15    1.01
   4   2 -10    5.01    0.86
   3  -2 -10    1.19    0.43
  -3  -2  10    3.30    0.59
   3  -2 -10    2.44    0.76
  -3  -2  10    2.24    0.68
   3  -2 -10    1.99    0.98
   3  -2 -10    2.45    0.50
   3  -2 -10    1.60    0.85
   3   2 -10    1.53    0.80
   3   2 -10    1.69    0.72
  -3   2  10    2.18    0.37
   3   2 -10    2.50    0.74
  -3   2  10    1.63    0.55
   3   2 -10    1.21    0.50
   2  -2 -10    0.64    0.44
   2  -2 -10    0.24    0.44
   2  -2 -10    0.07    0.90
   2  -2 -10    1.43    1.01
   2   2 -10   -1.19    0.80
   2   2 -10    0.49    0.75
  -5  -3  10    5.67    0.62
   5  -3 -10    6.99    1.19
   5   3 -10    6.98    1.47
  -5   3  10    5.59    0.53
   5   3 -10    7.08    0.67
   5   3 -10    5.39    1.24
   4  -3 -10    0.32    0.82
   4  -3 -10    0.03    0.46
  -4  -3  10   -0.14    0.37
   4  -3 -10    0.10    0.31
   4  -3 -10   -0.58    0.64
   4   3 -10    0.07    0.71
   4   3 -10   -0.09    0.89
   4   3 -10   -0.18    0.39
  -4   3  10   -0.25    0.32
   3  -3 -10    0.76    0.70
   3  -3 -10    0.50    0.45
  -3  -3  10   -0.84    0.66
   3  -3 -10   -0.27    0.82
   3  -3 -10    0.20    0.33
   3   3 -10    1.43    1.04
   3   3 -10   -0.20    0.40
   3   3 -10   -0.42    0.76
   2  -3 -10    2.63    0.72
   2   3 -10    5.11    1.08
   2   3 -10    3.98    0.92
   0   0   0    0.00    0.00
;
_shelx_hkl_checksum              10429
_shelx_shelxl_version_number     2014/7
_olex2_submission_special_instructions 'No special instructions were received'
loop_
_space_group_symop_operation_xyz
'x, y, z'
'-x+1/2, y+1/2, -z+1/2'
'-x, -y, -z'
'x-1/2, -y-1/2, z-1/2'
loop_
_atom_site_label
_atom_site_type_symbol
_atom_site_fract_x
_atom_site_fract_y
_atom_site_fract_z
_atom_site_U_iso_or_equiv
_atom_site_adp_type
_atom_site_occupancy
_atom_site_site_symmetry_order
_atom_site_calc_flag
O1 O 0.8369(2) 0.54793(14) 0.18561(18) 0.0266(3) Uani 1 1 d
O2 O 0.6837(2) 0.45947(16) -0.06408(17) 0.0349(4) Uani 1 1 d
O3 O 0.67119(18) 0.36660(13) 0.16383(15) 0.0200(3) Uani 1 1 d
O4 O 0.93406(18) 0.71416(14) 0.79628(18) 0.0266(4) Uani 1 1 d
O5 O 0.65255(19) 0.75814(14) 0.78519(17) 0.0246(3) Uani 1 1 d
N1 N 0.7390(2) 0.46791(16) 0.0907(2) 0.0222(4) Uani 1 1 d
N2 N 0.6726(2) 0.45352(15) 0.42989(18) 0.0155(3) Uani 1 1 d
N3 N 0.7843(2) 0.54334(15) 0.53665(19) 0.0173(3) Uani 1 1 d
N4 N 0.7633(2) 0.69762(15) 0.73983(19) 0.0185(4) Uani 1 1 d
C1 C 0.7551(3) 0.36190(19) 0.3493(2) 0.0171(4) Uani 1 1 d
H1A H 0.883(3) 0.3775(19) 0.388(3) 0.013(5) Uiso 1 1 d
H1B H 0.728(3) 0.275(2) 0.374(3) 0.015(5) Uiso 1 1 d
C2 C 0.4998(2) 0.45275(18) 0.4423(2) 0.0149(4) Uani 1 1 d
C3 C 0.6826(2) 0.59929(18) 0.6131(2) 0.0164(4) Uani 1 1 d
loop_
_atom_site_aniso_label
_atom_site_aniso_U_11
_atom_site_aniso_U_22
_atom_site_aniso_U_33
_atom_site_aniso_U_23
_atom_site_aniso_U_13
_atom_site_aniso_U_12
O1 0.0283(7) 0.0240(8) 0.0257(8) 0.0017(6) 0.0081(6) -0.0035(6)
O2 0.0475(10) 0.0438(10) 0.0119(7) 0.0051(6) 0.0095(7) 0.0062(8)
O3 0.0225(7) 0.0249(7) 0.0122(7) -0.0016(5) 0.0061(5) -0.0025(6)
O4 0.0169(7) 0.0318(8) 0.0275(8) -0.0104(6) 0.0042(6) -0.0036(6)
O5 0.0234(7) 0.0283(8) 0.0232(7) -0.0089(6) 0.0100(6) 0.0003(6)
N1 0.0241(8) 0.0259(10) 0.0163(9) 0.0036(6) 0.0075(7) 0.0052(7)
N2 0.0145(7) 0.0192(8) 0.0123(8) -0.0018(6) 0.0046(6) -0.0012(6)
N3 0.0174(7) 0.0202(8) 0.0123(7) -0.0013(6) 0.0032(6) -0.0005(6)
N4 0.0180(8) 0.0216(8) 0.0147(8) -0.0014(6) 0.0048(6) -0.0009(6)
C1 0.0186(9) 0.0206(10) 0.0117(9) -0.0009(7) 0.0052(7) 0.0012(7)
C2 0.0162(8) 0.0187(9) 0.0081(8) 0.0020(6) 0.0026(7) 0.0013(7)
C3 0.0170(8) 0.0217(10) 0.0094(9) 0.0003(7) 0.0036(7) 0.0004(7)
loop_
_atom_type_symbol
_atom_type_description
_atom_type_scat_dispersion_real
_atom_type_scat_dispersion_imag
_atom_type_scat_source
C C 0.0181 0.0091 'International Tables Vol C Tables 4.2.6.8 and 6.1.1.4'
H H 0.0000 0.0000 'International Tables Vol C Tables 4.2.6.8 and 6.1.1.4'
N N 0.0311 0.0180 'International Tables Vol C Tables 4.2.6.8 and 6.1.1.4'
O O 0.0492 0.0322 'International Tables Vol C Tables 4.2.6.8 and 6.1.1.4'
loop_
_geom_angle_atom_site_label_1
_geom_angle_atom_site_label_2
_geom_angle_atom_site_label_3
_geom_angle
_geom_angle_site_symmetry_1
_geom_angle_site_symmetry_3
N1 O3 C1 113.77(14) . .
O1 N1 O2 129.81(18) . .
O1 N1 O3 118.36(15) . .
O2 N1 O3 111.83(16) . .
N3 N2 C1 118.96(14) . .
N3 N2 C2 110.21(14) . .
C2 N2 C1 129.72(15) . .
C3 N3 N2 106.36(15) . .
O4 N4 O5 124.98(16) . .
O4 N4 C3 119.03(15) . .
O5 N4 C3 115.97(15) . .
O3 C1 N2 112.51(15) . .
O3 C1 H1A 110.6(12) . .
O3 C1 H1B 102.4(12) . .
N2 C1 H1A 108.5(13) . .
N2 C1 H1B 110.8(12) . .
H1A C1 H1B 111.9(17) . .
N2 C2 C2 107.62(19) . 3_666
N2 C2 C3 148.16(17) . 3_666
C2 C2 C3 104.19(19) 3_666 3_666
N3 C3 N4 120.27(16) . .
N3 C3 C2 111.60(16) . 3_666
C2 C3 N4 128.10(16) 3_666 .
loop_
_geom_bond_atom_site_label_1
_geom_bond_atom_site_label_2
_geom_bond_distance
_geom_bond_site_symmetry_2
O1 N1 1.200(2) .
O2 N1 1.202(2) .
O3 N1 1.414(2) .
O3 C1 1.437(2) .
O4 N4 1.226(2) .
O5 N4 1.228(2) .
N2 N3 1.353(2) .
N2 C1 1.446(2) .
N2 C2 1.369(2) .
N3 C3 1.317(2) .
N4 C3 1.436(2) .
C1 H1A 0.93(2) .
C1 H1B 0.96(2) .
C2 C2 1.378(4) 3_666
C2 C3 1.408(2) 3_666
C3 C2 1.407(2) 3_666
loop_
_geom_torsion_atom_site_label_1
_geom_torsion_atom_site_label_2
_geom_torsion_atom_site_label_3
_geom_torsion_atom_site_label_4
_geom_torsion
_geom_torsion_site_symmetry_4
O4 N4 C3 N3 -11.8(3) .
O4 N4 C3 C2 166.07(18) 3_666
O5 N4 C3 N3 169.26(16) .
O5 N4 C3 C2 -12.9(3) 3_666
N1 O3 C1 N2 79.82(18) .
N2 N3 C3 N4 178.09(15) .
N2 N3 C3 C2 -0.1(2) 3_666
N3 N2 C1 O3 -121.00(17) .
N3 N2 C2 C2 1.5(2) 3_666
N3 N2 C2 C3 178.8(3) 3_666
C1 O3 N1 O1 -9.6(2) .
C1 O3 N1 O2 171.38(15) .
C1 N2 N3 C3 -169.92(16) .
C1 N2 C2 C2 169.02(19) 3_666
C1 N2 C2 C3 -13.6(4) 3_666
C2 N2 N3 C3 -0.84(19) .
C2 N2 C1 O3 72.4(2) .
