#------------------------------------------------------------------------------
#$Date: 2019-11-24 04:09:55 +0200 (Sun, 24 Nov 2019) $
#$Revision: 236641 $
#$URL: file:///home/coder/svn-repositories/cod/cif/7/23/69/7236926.cif $
#------------------------------------------------------------------------------
#
# This file is available in the Crystallography Open Database (COD),
# http://www.crystallography.net/
#
# All data on this site have been placed in the public domain by the
# contributors.
#
data_7236926
loop_
_publ_author_name
'Walwyn, Robert J.'
'Chan, Bun'
'Usov, Pavel M.'
'Solomon, Marcello B.'
'Duyker, Samuel G.'
'Koo, Jin Young'
'Kawano, Masaki'
'Turner, Peter'
'Kepert, Cameron J.'
'D'Alessandro, Deanna M.'
_publ_section_title
;
 Spectroscopic, electronic and computational properties of a mixed
 tetrachalcogenafulvalene and its charge transfer complex
;
_journal_issue                   5
_journal_name_full               'Journal of Materials Chemistry C'
_journal_page_first              1092
_journal_paper_doi               10.1039/C7TC03853D
_journal_volume                  6
_journal_year                    2018
_chemical_formula_sum            'C18 H8 N4 S Se3'
_chemical_formula_weight         549.22
_space_group_crystal_system      monoclinic
_space_group_IT_number           14
_space_group_name_Hall           '-P 2ybc'
_space_group_name_H-M_alt        'P 1 21/c 1'
_symmetry_cell_setting           monoclinic
_symmetry_Int_Tables_number      14
_symmetry_space_group_name_Hall  '-P 2ybc'
_symmetry_space_group_name_H-M   'P 1 21/c 1'
_atom_sites_solution_hydrogens   geom
_audit_creation_method           SHELXL-2014/7
_audit_update_record
;
2016-08-29 deposited with the CCDC.
2017-11-27 downloaded from the CCDC.
;
_cell_angle_alpha                90
_cell_angle_beta                 104.179(7)
_cell_angle_gamma                90
_cell_formula_units_Z            2
_cell_length_a                   12.4011(8)
_cell_length_b                   3.8012(3)
_cell_length_c                   18.4421(13)
_cell_measurement_reflns_used    4554
_cell_measurement_temperature    150(1)
_cell_measurement_theta_max      75.3980
_cell_measurement_theta_min      4.9340
_cell_volume                     842.86(11)
_computing_cell_refinement
;
  CrysAlisPro 1.171.38.43 (Rigaku OD, 2015)
;
_computing_data_collection
;
  CrysAlisPro 1.171.38.43 (Rigaku OD, 2015)
;
_computing_data_reduction
;
  CrysAlisPro 1.171.38.43 (Rigaku OD, 2015)
;
_computing_molecular_graphics
;
  ORTEP3 for Windows (Farrugia, L., 1997)
  ORTEPIII  (Burnett, N.M., Johnson,C.K., 1996). 
  WinGX (Farrugia, 1999)
  shelXle (H\"ubschle,C.B., et al., 2011) 
;
_computing_structure_refinement  'SHELXL-2014/7 (Sheldrick, 2015)'
_computing_structure_solution    'ShelxT (Sheldrick, 2015)'
_diffrn_ambient_temperature      150(1)
_diffrn_crystal_treatment
;
attached with Exxon Paratone N to a nylon loop and quenched 
in a cold nitrogen gas stream from an Oxford Cryosystems Cryostream. 
;
_diffrn_detector                 'CCD plate'
_diffrn_detector_area_resol_mean 10.5861
_diffrn_detector_type            Atlas
_diffrn_measured_fraction_theta_full 1.000
_diffrn_measured_fraction_theta_max 0.997
_diffrn_measurement_device       'four-circle diffractometer'
_diffrn_measurement_device_type  'SuperNova, Dual, Cu at zero, Atlas'
_diffrn_measurement_method       \w
_diffrn_radiation_monochromator  mirror
_diffrn_radiation_source         'SuperNova (Cu) X-ray Source'
_diffrn_radiation_type           'Cu K\a'
_diffrn_radiation_wavelength     1.5418
_diffrn_reflns_av_R_equivalents  0.0486
_diffrn_reflns_av_unetI/netI     0.0253
_diffrn_reflns_Laue_measured_fraction_full 1.000
_diffrn_reflns_Laue_measured_fraction_max 0.997
_diffrn_reflns_limit_h_max       15
_diffrn_reflns_limit_h_min       -15
_diffrn_reflns_limit_k_max       4
_diffrn_reflns_limit_k_min       -4
_diffrn_reflns_limit_l_max       22
_diffrn_reflns_limit_l_min       -23
_diffrn_reflns_number            9226
_diffrn_reflns_point_group_measured_fraction_full 1.000
_diffrn_reflns_point_group_measured_fraction_max 0.997
_diffrn_reflns_theta_full        67.679
_diffrn_reflns_theta_max         75.539
_diffrn_reflns_theta_min         3.676
_exptl_absorpt_coefficient_mu    9.203
_exptl_absorpt_correction_T_max  1.00
_exptl_absorpt_correction_T_min  0.741
_exptl_absorpt_correction_type   multi-scan
_exptl_absorpt_process_details
;
  CrysAlisPro, Agilent Technologies,
  Version 1.171.37.35
  Empirical absorption correction using spherical 
  harmonics, implemented in SCALE3 ABSPACK scaling algorithm.
;
_exptl_crystal_colour            black
_exptl_crystal_density_diffrn    2.164
_exptl_crystal_description       'needle like priamtic'
_exptl_crystal_F_000             524
_exptl_crystal_size_max          0.194
_exptl_crystal_size_mid          0.031
_exptl_crystal_size_min          0.018
_refine_diff_density_max         1.018
_refine_diff_density_min         -0.914
_refine_diff_density_rms         0.197
_refine_ls_extinction_method     none
_refine_ls_goodness_of_fit_ref   1.403
_refine_ls_hydrogen_treatment    constr
_refine_ls_matrix_type           full
_refine_ls_number_parameters     118
_refine_ls_number_reflns         1749
_refine_ls_number_restraints     0
_refine_ls_restrained_S_all      1.403
_refine_ls_R_factor_all          0.0604
_refine_ls_R_factor_gt           0.0562
_refine_ls_shift/su_max          0.000
_refine_ls_shift/su_mean         0.000
_refine_ls_structure_factor_coef Fsqd
_refine_ls_weighting_details
'w=1/[\s^2^(Fo^2^)+(0.05P)^2^+11.0P] where P=(Fo^2^+2Fc^2^)/3'
_refine_ls_weighting_scheme      calc
_refine_ls_wR_factor_gt          0.1732
_refine_ls_wR_factor_ref         0.1750
_reflns_Friedel_coverage         0.000
_reflns_number_gt                1598
_reflns_number_total             1749
_reflns_threshold_expression     'I > 2\s(I)'
_cod_data_source_file            c7tc03853d2.cif
_cod_data_source_block           TSTF-TCNQ_dmd15pt9
_cod_original_sg_symbol_H-M      'P 21/c'
_cod_database_code               7236926
_shelx_shelxl_version_number     2014/7
_shelx_space_group_comment
;
The symmetry employed for this shelxl refinement is uniquely defined
by the following loop, which should always be used as a source of
symmetry information in preference to the above space-group names.
They are only intended as comments.
;
_shelx_res_file
;

    dmd15pt9.res created by SHELXL-2014/7


TITL dmd15pt9_a.res in P2(1)/c
REM Old TITL dmd15pt9_x in P2(1)/c
REM SHELXT solution in P2(1)/c
REM R1 0.104,  Rweak 0.002,  Alpha 0.083,  Orientation as input
REM Formula found by SHELXT:  C9 N2 Se2
CELL  1.54178  12.4011   3.8012  18.4421   90.000  104.179   90.000
ZERR    2.000   0.0008   0.0003   0.0013    0.000    0.007    0.000
LATT  1
SYMM -X, 1/2+Y, 1/2-Z
SFAC C H N S SE
UNIT 36 16 8 2 6
TEMP -123
L.S. 10
LIST 4
ACTA
BOND $H
CONF
HTAB
FMAP 2
PLAN 20
REM SUMP 1.5 0.01 1.0 2 1.0 3
FREE C2 S1
FREE C3 S2
EXYZ SE1 S1
EADP SE1 S1
EXYZ SE2 S2
EADP SE2 S2
WGHT    0.050000   11.000000
FVAR       0.52040
SE1   5   -0.101232    0.309779    0.081462    10.70000    0.01373    0.02602 =
         0.02334    0.00179    0.00582    0.00108
S1    4   -0.101232    0.309779    0.081462    10.30000    0.01373    0.02602 =
         0.02334    0.00179    0.00582    0.00108
SE2   5    0.155314    0.312697    0.088510    10.80000    0.01413    0.02718 =
         0.02543    0.00154    0.00514    0.00021
S2    4    0.155314    0.312697    0.088510    10.20000    0.01413    0.02718 =
         0.02543    0.00154    0.00514    0.00021
C1    1    0.011454    0.423887    0.034570    11.00000    0.00906    0.02516 =
         0.02194   -0.00005    0.00379    0.00235
C2    1   -0.001893    0.147610    0.165449    11.00000    0.02566    0.02215 =
         0.02163    0.00086    0.00566   -0.00098
AFIX  43
H2    2   -0.028258    0.061176    0.206280    11.00000   -1.20000
AFIX   0
C3    1    0.107094    0.149877    0.169746    11.00000    0.02476    0.02530 =
         0.02161   -0.00054    0.00767   -0.00634
AFIX  43
H3    2    0.158783    0.069680    0.213541    11.00000   -1.20000
AFIX   0

N1    3    0.385370    1.094499    0.189942    11.00000    0.01776    0.03688 =
         0.02752   -0.00466    0.00672    0.00137
N2    3    0.745619    1.122003    0.188028    11.00000    0.01852    0.03978 =
         0.02653    0.00218    0.00307   -0.00052
C4    1    0.523600    0.706296    0.066803    11.00000    0.01391    0.02353 =
         0.02231    0.00340    0.00620   -0.00014
C5    1    0.608793    0.604275    0.031257    11.00000    0.01177    0.02152 =
         0.02607   -0.00124    0.00479   -0.00103
AFIX  43
H5    2    0.682953    0.679149    0.052295    11.00000   -1.20000
AFIX   0
C6    1    0.412426    0.596010    0.031562    11.00000    0.01207    0.02334 =
         0.02279    0.00149    0.00727    0.00040
AFIX  43
H6    2    0.352835    0.664203    0.052513    11.00000   -1.20000
AFIX   0
C7    1    0.545448    0.913172    0.131267    11.00000    0.01193    0.02098 =
         0.02404    0.00116    0.00486   -0.00018
C8    1    0.458682    1.014588    0.165869    11.00000    0.01855    0.01982 =
         0.01924    0.00040    0.00156   -0.00146
C9    1    0.656329    1.028879    0.165709    11.00000    0.01821    0.02484 =
         0.01932    0.00165    0.00581    0.00164
HKLF 4

REM  dmd15pt9_a.res in P2(1)/c
REM R1 =  0.0562 for    1598 Fo > 4sig(Fo)  and  0.0604 for all    1749 data
REM    118 parameters refined using      0 restraints

END

WGHT      0.0348     17.6354

REM Instructions for potential hydrogen bonds
EQIV $1 -x+1, y-3/2, -z+1/2
HTAB C3 N2_$1

REM Highest difference peak  1.018,  deepest hole -0.914,  1-sigma level  0.197
Q1    1  -0.0654  0.3094  0.1320  11.00000  0.05    1.02
Q2    1   0.1257  0.2946  0.0332  11.00000  0.05    0.99
Q3    1   0.1706  0.3268  0.1438  11.00000  0.05    0.97
Q4    1  -0.0363 -0.0879  0.2601  11.00000  0.05    0.96
Q5    1   0.5393  0.3217  0.0832  11.00000  0.05    0.93
Q6    1   0.4415  0.3081  0.0838  11.00000  0.05    0.93
Q7    1   0.4006  1.1701  0.2431  11.00000  0.05    0.92
Q8    1  -0.1957  0.3177  0.0838  11.00000  0.05    0.90
Q9    1   0.6306  0.3012  0.0854  11.00000  0.05    0.88
Q10   1   0.5173  1.0340  0.0892  11.00000  0.05    0.83
Q11   1  -0.0832  0.0432  0.1790  11.00000  0.05    0.78
Q12   1  -0.1317  0.3048  0.0219  11.00000  0.05    0.76
Q13   1   0.2320 -0.0712  0.2568  11.00000  0.05    0.76
Q14   1  -0.2122  0.0282  0.0891  11.00000  0.05    0.66
Q15   1   0.0786  0.5428  0.0165  11.00000  0.05    0.63
Q16   1   0.2003  0.0496  0.1809  11.00000  0.05    0.61
Q17   1   0.6918  0.9220  0.2583  11.00000  0.05    0.60
Q18   1   0.0675  0.3344  0.0792  11.00000  0.05    0.59
Q19   1   0.2408  0.0356  0.0898  11.00000  0.05    0.59
Q20   1   0.7108  0.3242  0.0841  11.00000  0.05    0.57
;
_shelx_res_checksum              67214
_shelx_hkl_file
;
   0   0   2 2494.69   20.43
   0   0  -2 2557.72   20.63
   0   0  -3    1.72    1.36
   0   0  -3    1.44    1.33
   0   0   3    0.39    1.18
   0   0   4 3946.00   36.26
   0   0  -4 4125.06   35.82
   0   0  -5    0.71    1.80
   0   0   6 1987.42   27.24
   0   0  -6 1961.78   27.14
   0   0  -7    0.84    2.19
   0   0  -7    2.85    3.52
   0   0   7    0.27    2.20
   0   0  -7   -0.91    1.74
   0   0  -7    2.75    2.65
   0   0  -8 4831.01   52.15
   0   0   8 4955.08   50.03
   0   0  -8 4908.15   50.42
   0   0  -9    1.65    3.23
   0   0  -9    1.90    2.48
   0   0   9    2.17    2.79
   0   0  -9    0.53    2.69
   0   0 -10  841.43   23.80
   0   0  10  865.66   24.16
   0   0 -10  840.91   25.41
   0   0 -10  769.52   24.42
   0   0 -11   -2.15    2.49
   0   0  11    0.57    2.80
   0   0  11    2.16    3.22
   0   0 -11    0.14    3.82
   0   0  11    2.73    2.46
   0   0 -11    1.30    2.98
   0   0  12 3988.19   59.41
   0   0  12 3985.55   51.23
   0   0  12 4104.45   59.75
   0   0 -12 4059.65   60.54
   0   0 -12 4222.33   59.00
   0   0 -12 3886.74   59.26
   0   0 -13   -0.24    3.86
   0   0  13    0.19    2.26
   0   0  13   -1.22    3.26
   0   0 -13    0.34    2.64
   0   0  13   -0.23    2.80
   0   0 -14   12.28    5.24
   0   0  14   15.82    4.15
   0   0  14   12.48    4.31
   0   0  14   20.21    5.41
   0   0 -14   17.42    4.76
   0   0  15   -1.72    3.24
   0   0 -15   -0.98    4.01
   0   0  15   -4.45    3.57
   0   0  15   -0.37    3.25
   0   0  16 1019.41   34.66
   0   0 -16  964.22   22.15
   0   0 -17    0.66    2.10
   0   0  17    4.86    3.60
   0   0  17    0.07    2.40
   0   0 -17    0.44    1.95
   0   0 -18 1372.40   25.13
   0   0  18 1314.20   25.43
   0   0  19    1.96    2.99
   0   0 -19   -0.17    1.97
   0   0  20  322.60   11.22
   0   0 -20  320.46   10.37
   0   0 -21   -0.56    1.60
   0   0  21    5.08    2.73
   0   0  22  179.75    6.26
   0   0 -22  155.23    5.33
   0   1  -1 1230.45   29.20
   0  -1  -1 1095.62   27.34
   0   1   2 8564.81   55.06
   0  -1  -2 8237.45   80.39
   0   1  -3 4746.18   39.57
   0  -1  -3 4834.97   64.83
   0   1  -4 1193.90   33.94
   0   1   4 1058.16   18.73
   0  -1   4  818.61   16.34
   0  -1   4 1037.46   19.27
   0  -1  -4  996.05   19.62
   0  -1  -4 1109.33   22.52
   0   1   4  876.32   15.17
   0  -1  -4 1171.04   22.59
   0   1  -4  800.88   13.91
   0  -1  -4 1100.05   32.26
   0  -1   5 2059.07   29.60
   0  -1  -5 1985.76   29.42
   0   1  -5 1960.57   30.42
   0   1   5 2046.88   27.66
   0  -1  -5 2090.93   46.72
   0  -1  -5 2107.33   33.99
   0  -1   5 2087.86   29.43
   0   1  -6    4.88    3.83
   0  -1  -6    8.99    3.41
   0  -1  -6    5.96    2.76
   0  -1   6    4.17    2.22
   0   1   6    5.33    2.56
   0  -1  -6    4.29    2.45
   0   1   6    6.42    2.71
   0  -1   6    5.24    2.70
   0   1  -7 1099.26   26.30
   0  -1   7 1104.42   25.23
   0   1   7 1115.48   23.63
   0   1   7 1163.93   24.23
   0  -1  -7 1126.72   24.66
   0  -1   7 1054.95   24.48
   0  -1  -7 1162.11   28.48
   0  -1   8 3315.78   46.37
   0   1   8 3509.34   46.59
   0   1   8 3520.50   46.24
   0  -1  -8 3703.47   46.83
   0  -1   8 3309.47   46.76
   0  -1  -8 3660.29   52.72
   0   1  -8 3367.42   49.82
   0   1   9  149.16    9.98
   0   1  -9  216.01   13.60
   0  -1   9  154.95   11.03
   0  -1  -9  213.47   12.19
   0   1   9  158.00   11.11
   0  -1   9  155.19   10.85
   0   1  -9  193.95   11.47
   0  -1  -9  220.69   14.06
   0   1 -10 3901.29   50.85
   0  -1  10 3489.52   53.50
   0  -1 -10 4040.91   62.54
   0  -1  10 3641.90   55.13
   0   1  10 3622.25   54.22
   0   1  10 3652.14   52.71
   0  -1 -10 3945.75   53.82
   0   1 -10 4074.95   61.23
   0  -1  11   26.56    5.39
   0   1 -11   21.69    5.94
   0  -1 -11   30.71    6.58
   0  -1  11   23.67    5.58
   0   1  11   17.30    4.81
   0   1 -12  229.04   16.59
   0   1 -12  238.08   15.19
   0  -1 -12  226.92   16.44
   0   1  12  233.54   14.60
   0  -1  12  225.98   15.27
   0  -1  12  226.84   15.61
   0   1 -13   83.76    9.45
   0  -1 -13   87.99   10.79
   0   1 -13   91.85   11.39
   0  -1  13   94.07   10.61
   0  -1  13   78.73    9.43
   0   1  13   73.56    8.73
   0   1 -14 2072.69   50.98
   0  -1 -14 1959.26   50.88
   0   1  14 2025.95   46.90
   0   1  15   31.51    6.07
   0  -1  15   27.50    6.51
   0  -1 -15   22.47    6.74
   0   1 -15   31.34    7.50
   0  -1  16  565.10   18.21
   0   1  16  592.30   25.86
   0   1 -16  551.99   15.28
   0   1 -16  607.16   17.57
   0  -1 -16  557.72   17.27
   0   1  16  451.03   15.06
   0   1  16  532.36   16.25
   0   1 -16  556.25   26.61
   0  -1 -16  471.10   25.96
   0  -1  16  616.55   27.54
   0  -1  16  555.17   16.91
   0   1 -17  466.36   13.82
   0   1 -17  508.43   13.62
   0   1  17  481.92   15.21
   0  -1 -17  516.70   15.93
   0   1 -17  526.74   16.10
   0  -1  17  502.41   15.85
   0   1  17  489.03   15.33
   0   1  17  503.17   16.21
   0   1 -17  468.45   13.44
   0  -1  17  489.12   16.91
   0   1 -18   37.30    3.88
   0  -1  18   29.58    5.25
   0   1 -18   36.21    3.66
   0  -1 -18   43.98    4.85
   0   1  18   36.80    4.71
   0   1  18   37.56    4.53
   0   1 -18   36.13    4.27
   0   1  18   38.74    4.99
   0  -1  18   34.69    5.13
   0   1 -19  121.61    6.15
   0   1  19  128.11    7.23
   0   1 -19  141.08    7.41
   0  -1  19  138.67    7.96
   0  -1  19  121.75    7.65
   0   1 -19  125.82    5.82
   0  -1 -19  135.60    7.44
   0   1  19  122.73    7.03
   0  -1 -20  603.76   13.74
   0  -1  20  643.33   14.20
   0  -1  20  621.42   14.00
   0   1 -20  559.23   11.65
   0   1  20  535.59   12.50
   0   1  20  579.78   12.98
   0   1 -20  620.14   13.36
   0   1  21   14.26    2.45
   0  -1  21   11.38    2.61
   0   1  21   17.97    2.89
   0   1 -21   12.09    1.98
   0  -1  21   14.36    2.66
   0  -1 -21   13.62    2.15
   0  -2   0 1413.31   26.98
   0   2   0 1547.66   28.70
   0  -2   0 1502.36   30.77
   0   2   0 1583.93   28.45
   0  -2   0 1461.53   32.78
   0   2  -1   10.27    3.71
   0  -2  -1   15.00    4.06
   0  -2   1   10.79    3.26
   0  -2   1   10.69    3.34
   0   2  -1    8.41    4.08
   0  -2  -1   13.05    3.48
   0  -2   1   11.34    3.21
   0  -2  -1   10.78    3.19
   0  -2  -1    9.05    2.94
   0   2   1    7.82    3.36
   0   2  -2  885.97   23.37
   0  -2  -2  866.79   22.74
   0  -2   2  811.53   22.98
   0   2   2  887.47   20.97
   0  -2  -2  945.89   27.08
   0  -2  -2  858.07   23.80
   0  -2   2  890.29   24.30
   0  -2  -3 2644.25   42.25
   0   2   3 2633.63   39.25
   0   2   3 2733.62   36.27
   0  -2   3 2715.71   43.45
   0   2  -3 2681.64   42.07
   0  -2  -3 2659.07   41.66
   0  -2  -3 2806.33   47.48
   0   2   4  686.93   20.39
   0  -2  -4  688.62   22.03
   0   2  -4  652.31   21.71
   0  -2  -4  686.20   24.32
   0  -2  -5  594.38   23.13
   0   2   5  557.03   18.74
   0  -2  -5  577.60   21.32
   0   2  -5  536.30   20.75
   0  -2   5  559.54   21.47
   0   2  -6 3634.73   54.79
   0  -2   6 3683.22   56.70
   0  -2   6 3790.38   56.07
   0   2   6 3641.17   49.13
   0  -2  -6 3816.78   56.95
   0  -2  -6 3555.47   59.23
   0  -2  -7 2494.50   50.81
   0   2   7 2590.60   43.08
   0  -2   7 2505.63   48.51
   0  -2  -7 2676.96   49.67
   0   2  -7 2565.82   47.99
   0   2  -7 2583.28   47.80
   0  -2   7 2681.73   48.83
   0   2   7 2652.28   44.46
   0   2  -8  440.85   21.18
   0  -2   8  381.21   19.66
   0   2  -8  410.33   19.97
   0  -2  -8  375.83   20.87
   0  -2   8  423.43   20.55
   0   2   8  415.42   18.85
   0  -2  -8  408.43   20.04
   0   2   8  397.87   18.13
   0   2   9 1006.97   29.84
   0  -2  -9  960.72   34.39
   0   2   9 1033.73   30.42
   0  -2  -9  941.77   31.17
   0   2  -9 1051.05   33.70
   0  -2   9  968.54   32.23
   0   2  -9  972.93   31.88
   0  -2   9  921.61   31.63
   0  -2  10  526.81   24.93
   0  -2 -10  546.24   27.35
   0  -2  10  473.98   23.45
   0   2 -10  646.21   27.56
   0  -2 -10  522.06   24.14
   0   2  10  601.39   24.67
   0   2  10  537.45   22.29
   0   2 -10  586.04   25.22
   0   2 -11  114.35   12.75
   0  -2  11   97.84   11.16
   0  -2 -11  102.84   12.33
   0   2 -11  102.67   10.73
   0  -2  11   73.05   10.25
   0   2  11   96.34   11.39
   0   2  12 1157.27   36.71
   0  -2 -12 1220.67   41.96
   0   2  12 1146.14   35.45
   0   2 -12 1264.03   40.57
   0   2 -12 1307.22   37.82
   0  -2 -13   87.59   11.98
   0   2  13   94.52   10.45
   0  -2  13   84.99    8.07
   0  -2 -13   88.29    7.35
   0   2  13   83.14    6.80
   0  -2 -13   82.64    7.01
   0  -2 -13   97.81    7.64
   0   2 -13   96.28   10.61
   0  -2  13   86.53   11.74
   0   2 -13   98.61   12.04
   0  -2 -14  315.95   12.85
   0   2  14  279.38   11.60
   0   2 -14  284.49   10.81
   0   2  14  371.69   21.25
   0  -2 -14  267.05   12.14
   0   2 -14  284.89   20.05
   0   2  14  264.09   16.83
   0  -2  14  189.25   12.09
   0  -2 -14  269.18   12.35
   0  -2  14  288.07   13.38
   0  -2  14  301.48   20.40
   0   2  15  833.65   19.38
   0  -2  15  829.26   22.21
   0  -2 -15  854.62   21.28
   0   2 -15  861.02   18.17
   0   2  15  893.86   22.24
   0   2 -16  130.15    8.18
   0  -2  16  109.22    8.37
   0   2  16  110.05    7.15
   0  -2 -16  108.88    7.56
   0   2  16  106.95    7.91
   0   2 -16  109.80    6.47
   0   2 -17   80.52    5.93
   0   2  17   74.62    5.82
   0  -2  17   85.27    7.07
   0  -2  17   64.35    5.97
   0   2  17   74.74    6.22
   0   2  17   68.24    5.63
   0  -2 -17   78.79    6.14
   0   2 -17   77.07    5.02
   0   2 -18  375.37   10.09
   0   2 -18  427.23   11.83
   0   2 -18  406.38    9.96
   0   2 -18  411.22   10.11
   0  -2 -18  415.37   12.23
   0   2  18  392.01   11.07
   0  -2  18  444.08   13.39
   0  -2  18  319.84   10.78
   0   2  18  392.40   12.23
   0   2  18  360.65   10.95
   0   2 -19  241.82    6.52
   0  -2 -19  241.68    8.24
   0  -2  19  252.42    9.02
   0   2 -19  248.62    7.81
   0   2 -19  226.48    6.84
   0   2  19  218.95    7.97
   0   2  20   28.47    3.05
   0  -2  20   27.72    3.22
   0   2 -20   23.38    2.25
   0   2  20   22.66    2.64
   0   2 -20   23.45    2.06
   0  -2 -20   23.46    2.45
   0  -2  20   26.25    2.88
   0  -3   0    0.95    2.51
   0   3   0    2.81    4.46
   0  -3   1 2089.14   49.75
   0   3  -1 2181.91   45.76
   0  -3  -1 2011.95   48.22
   0  -3  -1 2256.72   46.71
   0  -3   2  160.66   14.18
   0  -3  -2  184.91   14.06
   0   3   2  173.53   13.32
   0   3  -2  175.17   14.38
   0  -3   3   10.84    4.24
   0   3   3    9.52    3.92
   0   3  -3    5.35    5.99
   0  -3  -3   13.78    4.93
   0  -3  -4  758.63   28.28
   0   3   4  742.88   26.91
   0   3  -4  748.87   28.75
   0  -3   4  750.28   30.85
   0   3   5 1983.42   44.37
   0   3  -5 2025.35   48.02
   0  -3  -5 2062.12   46.86
   0  -3   5 2008.71   51.24
   0  -3   6   41.21    7.84
   0   3  -6   46.03    9.21
   0   3   6   41.27    6.93
   0   3   6   40.86    7.05
   0  -3  -6   40.91    7.42
   0  -3  -7 1371.09   39.10
   0   3   7 1361.21   37.30
   0  -3   7 1381.29   43.35
   0   3   7 1316.96   37.03
   0   3  -7 1293.91   39.43
   0  -3   8  194.24   11.71
   0   3   8  198.32   14.88
   0  -3   8  200.13   11.25
   0  -3  -8  190.44   10.78
   0  -3   8  226.88   17.92
   0   3   8  234.52   15.78
   0  -3  -8  220.76   16.02
   0   3  -8  213.82   16.38
   0  -3  -8  184.28   11.40
   0  -3   9    6.16    3.85
   0   3   9   12.15    3.85
   0  -3  -9    7.58    3.28
   0   3  -9   10.89    5.99
   0  -3   9    6.82    2.96
   0  -3   9   -2.71    3.87
   0  -3  -9   14.20    4.76
   0  -3   9    4.16    3.21
   0   3   9   12.83    6.21
   0  -3  -9    7.24    3.13
   0  -3  10    5.79    2.97
   0  -3 -10    5.18    3.22
   0  -3 -10    4.59    2.70
   0  -3  10    6.35    3.71
   0  -3  11  766.83   21.28
   0  -3 -11  769.09   18.69
   0  -3  12    0.24    2.24
   0  -3 -12    0.91    3.63
   0  -3 -12   -0.68    2.61
   0  -3  12    0.56    2.93
   0  -3  12    0.34    2.83
   0  -3 -13  704.81   16.69
   0  -3  13  625.09   15.40
   0  -3  13  608.76   18.53
   0  -3 -13  697.24   18.34
   0  -3  13  617.96   17.60
   0   3  14  128.85    7.06
   0   3 -14  141.83    6.32
   0  -3  14  111.21    7.87
   0  -3  14  113.63    6.07
   0  -3  14  124.48    7.65
   0   3  14  118.61    7.50
   0  -3 -14  133.55    7.48
   0  -3 -14  142.79    7.97
   0   3  15   23.82    3.53
   0  -3 -15   24.48    3.78
   0   3 -15   37.39    4.34
   0   3 -15   26.42    2.73
   0  -3  15   26.18    2.79
   0  -3 -15   28.23    3.67
   0   3  15   21.45    3.31
   0  -3  15   20.98    3.78
   0  -3  16  119.82    6.49
   0   3 -16  127.51    5.66
   0   3  16  126.95    6.13
   0   3  16  123.90    5.85
   0   3  16  135.65    5.77
   0  -3  16  118.79    4.45
   0  -3 -16  130.84    5.76
   0  -3  17  439.21    9.85
   0  -3 -17  342.57    7.61
   0   3 -17  493.76    8.60
   0   3 -17  356.37    7.81
   0   3  17  418.92    9.06
   0   3  17  405.10    7.86
   0  -4   0   44.09    5.30
   0  -4   0   87.29    5.81
   0  -4  -1  253.52    8.66
   0  -4   1  274.89    8.67
   0  -4   1  304.40   12.97
   0  -4  -1  283.74   12.72
   0  -4  -2    4.22    2.87
   0  -4  -2    6.20    2.69
   0  -4   2   -0.07    2.40
   0  -4  -3  906.30   21.90
   0  -4  -3  883.85   16.09
   0  -4  -4    2.26    2.27
   0  -4   4    8.11    3.10
   0  -4   5  219.15   10.54
   0  -4  -5  202.18    7.46
   0  -4   6   25.98    4.08
   0  -4  -6   19.18    2.73
   0  -4   6   26.84    3.87
   0  -4  -7  222.19    7.22
   0  -4   7  243.35   10.23
   0  -4   7  254.96   10.34
   0  -4   8    1.26    2.37
   0  -4  -8   -5.10    2.32
   0  -4  -9  741.38   12.16
   0  -4   9  732.98   15.15
   0  -4 -10   -1.65    1.71
   0  -4  10   -3.43    2.21
   0  -4  11   61.53    3.86
   0   4  11   53.75    3.63
   0  -4 -11   53.49    2.91
   0  -4  12   18.15    2.58
   0  -4  12   17.81    1.97
  -1   0  22  228.73    7.56
   1   0 -22  210.41    6.52
   1   0 -21   -1.03    1.65
  -1   0  21    3.98    2.85
  -1   0  20  130.28    7.89
   1   0 -20  122.67    6.75
   1   0 -20  120.16    5.87
  -1   0  19   -0.91    3.23
   1   0 -19   -1.26    1.71
  -1   0  19   -2.04    2.82
   1   0 -19    2.05    2.26
   1   0 -18 1015.04   21.64
  -1   0  18  966.05   22.22
   1   0 -18  962.10   19.28
  -1   0  17    2.36    3.18
  -1   0  17   -1.69    3.70
   1   0 -17    0.83    1.79
   1   0 -17    2.00    2.27
   1   0 -17   -1.60    1.85
  -1   0  16  577.71   22.82
  -1   0  16  645.19   27.60
  -1   0  15   -0.13    3.10
  -1   0  15   -2.00    3.70
   1   0 -15   -0.59    3.63
  -1   0  14  600.41   24.80
  -1   0  14  581.11   21.84
   1   0 -13    1.71    3.30
  -1   0  13   -0.75    3.16
  -1   0  13   -0.19    2.97
   1   0 -13    3.81    4.65
   1   0 -12 3227.41   52.92
  -1   0  12 3462.68   54.10
   1   0 -12 3269.85   55.30
   1   0 -12 3499.24   51.18
  -1   0  12 3619.99   52.82
  -1   0  12 3371.39   48.02
   1   0 -11    1.40    2.43
   1   0 -11    0.24    2.89
   1   0 -11    2.36    4.38
  -1   0  11    3.59    3.29
  -1   0  11    1.90    2.44
  -1   0  10  859.51   23.68
   1   0 -10  864.10   26.45
   1   0 -10  857.83   22.38
   1   0  -9    2.54    3.45
   1   0  -9   -0.19    2.15
   1   0  -9    2.55    2.96
  -1   0   9    1.59    2.64
   1   0  -8 1370.90   29.52
  -1   0   8 1339.67   25.50
   1   0  -7    1.60    2.70
  -1   0   7    1.14    2.49
   1   0  -7    2.91    2.56
  -1   0   7   -0.73    2.28
   1   0  -7    4.01    3.54
   1   0  -7    1.17    2.05
   1   0  -6 4840.07   50.95
  -1   0   6 5021.56   53.25
   1   0  -5    0.42    1.68
  -1   0   5    3.26    2.39
   1   0  -5    3.96    2.53
  -1   0   4  481.63   14.55
   1   0  -4  467.81   13.93
  -1   0   3    0.80    1.39
   1   0  -3    1.07    1.57
  -1   0   3    0.32    1.12
  -1   0   2 1318.21   18.01
  -1   0   2 1339.10   15.09
   1   0  -1    5.50    1.63
   1   0   0 2099.75   19.64
  -1   0   0 2061.78   18.27
   1   0   1    0.95    1.15
  -1   0  -2  327.25    7.97
  -1   0  -4 1705.73   23.78
   1   0   4 1817.25   28.29
   1   0   5    4.70    2.78
  -1   0  -5    5.64    2.85
  -1   0  -5    4.72    2.21
  -1   0  -6 2625.44   34.38
  -1   0  -6 2552.94   33.95
   1   0   6 2601.10   31.48
  -1   0  -6 2296.51   32.40
   1   0   6 2909.38   41.35
  -1   0  -7    2.49    3.01
   1   0   7    1.70    2.57
  -1   0  -7    2.29    2.59
  -1   0  -7    2.70    3.44
   1   0   8   21.01    4.01
  -1   0  -8   14.11    4.54
  -1   0  -8   16.59    3.69
  -1   0  -8   11.72    3.84
   1   0   9    3.07    2.66
  -1   0  -9    0.65    2.62
   1   0   9    0.88    2.33
  -1   0  -9    0.37    2.53
  -1   0  -9    1.50    3.88
  -1   0 -10  790.29   24.54
  -1   0 -10  757.70   24.36
   1   0  10  771.38   19.84
   1   0  10  788.31   25.23
   1   0  10  799.96   23.82
  -1   0 -10  802.96   23.97
   1   0  11    4.48    2.96
   1   0  11    4.02    3.44
  -1   0 -11    2.23    4.16
   1   0  11    2.86    2.64
  -1   0 -11    4.93    3.35
   1   0  12  936.68   24.43
   1   0  12  951.08   29.98
  -1   0 -12  879.04   29.42
   1   0  12  979.62   29.83
  -1   0 -12  954.64   29.83
   1   0  13    0.06    3.30
  -1   0 -13    0.31    2.86
  -1   0 -13    1.57    3.78
   1   0  13   -0.89    2.32
   1   0  14    0.08    3.07
   1   0  14   -0.24    2.71
  -1   0 -14   -1.04    3.54
  -1   0 -14    3.04    3.80
   1   0  15   -2.55    3.20
  -1   0 -15    2.18    3.53
   1   0  15    1.27    3.14
   1   0  16  262.48   12.14
  -1   0 -16  314.83   19.33
   1   0  16  291.33   19.26
   1   0  16  293.23   19.53
  -1   0 -16  242.88    9.82
  -1   0 -16  268.81   11.86
   1   0  17    4.63    3.53
  -1   0 -17    2.25    2.32
  -1   0 -17    1.97    1.80
  -1   0 -18   43.16    4.91
   1   0  18   40.26    5.15
  -1   0 -19    1.18    1.94
   1   0  19    2.46    2.83
   1   0  20   -1.73    2.76
  -1   0 -20    0.37    1.73
  -1   0 -21    0.78    1.41
   1   0  21    0.96    2.08
   1   0  22   45.92    3.24
  -1   0 -22   33.65    2.45
  -1  -1  22  492.78    9.36
   1  -1 -22  455.23    8.75
   1   1 -22  452.81    8.01
  -1   1  22  487.31    9.35
  -1   1  21    8.20    2.45
  -1   1  21    6.07    2.69
   1  -1 -21    5.27    1.87
   1  -1 -21    4.68    1.56
   1   1 -21    3.52    1.25
  -1  -1  21    4.35    2.53
   1   1 -21    4.07    1.50
  -1  -1  21    4.56    2.30
  -1   1  20  405.06   11.61
   1   1 -20  434.41   10.42
  -1  -1  20  441.54   13.03
   1   1 -20  459.63   11.82
  -1  -1  20  450.61   12.59
  -1   1  20  479.08   13.68
  -1   1  20  439.18   11.85
   1  -1 -20  445.30   11.97
   1   1 -20  422.23   10.75
   1  -1 -20  450.58   12.30
  -1   1  19  100.22    6.60
   1   1 -19  100.93    5.96
   1   1 -19  100.18    5.69
  -1  -1  19  109.84    7.19
  -1  -1  19  100.58    7.32
   1   1 -19  113.33    6.68
   1  -1 -19  114.58    7.09
  -1   1  19   98.03    6.58
   1   1 -18   -3.38    3.01
   1   1 -18    0.96    1.74
   1  -1 -18   -0.73    2.13
  -1   1  18    2.55    2.74
  -1   1  18    1.59    2.50
   1   1 -18    0.77    1.89
  -1  -1  18    2.08    3.30
  -1  -1  18    1.44    3.33
  -1   1  18    2.27    2.54
   1  -1 -17  111.34    7.70
  -1  -1  17   94.85    7.81
  -1   1  17  101.88    7.67
  -1  -1  17  104.31    8.66
  -1   1  17  104.56    7.39
   1   1 -17  111.40    7.67
   1   1 -17  111.92    7.09
  -1   1  17  104.89    7.62
   1   1 -17  103.23    6.70
   1   1 -17  103.05    6.58
   1   1 -16  916.43   21.54
   1   1 -16  855.48   18.64
   1  -1 -16  766.42   33.07
  -1   1  16  843.92   20.29
  -1  -1  16  869.50   21.36
   1  -1 -16  877.94   21.49
  -1   1  16  882.01   31.48
  -1   1  16  835.26   27.03
  -1  -1  16  889.14   22.56
  -1  -1  16  979.70   34.71
  -1   1  16  906.23   22.61
  -1   1  16  862.05   20.54
   1   1 -16  781.11   32.09
  -1   1  15    6.09    4.09
   1   1 -15    8.72    6.03
  -1  -1  15    8.45    4.47
   1  -1 -15    1.39    4.02
  -1   1  14 1247.51   36.29
   1  -1 -14 1189.67   39.35
   1   1 -14 1279.53   40.18
  -1   1  13  200.91   14.23
   1   1 -13  218.95   16.77
   1  -1 -13  225.06   16.74
  -1  -1  13  249.20   16.64
  -1  -1  12   38.24    6.62
   1  -1 -12   39.16    7.68
   1   1 -12   37.09    8.05
  -1   1  12   37.64    5.73
  -1   1  11  279.97   15.15
  -1   1  11  237.61   14.77
  -1  -1  11  251.59   15.07
   1  -1 -11  267.77   17.24
   1   1 -11  267.19   17.09
  -1   1  10 1502.25   32.59
  -1  -1  10 1472.04   34.18
  -1   1  10 1451.33   34.41
   1   1  -9    9.41    4.55
  -1  -1   9    4.17    3.29
  -1   1   9    2.42    3.43
  -1  -1   9    2.40    2.22
  -1   1   9   -4.82    5.61
   1  -1  -9    5.81    4.28
   1  -1  -8  954.20   23.61
   1   1  -8  945.35   26.07
  -1   1   8  985.99   24.19
   1  -1  -8 1078.82   29.36
  -1  -1   8  981.10   24.65
   1  -1  -8 1057.85   25.32
  -1  -1   8  938.56   22.71
  -1   1   8 1096.31   24.30
   1  -1  -7  211.61   10.87
   1  -1  -7  214.22   12.79
  -1  -1   7  195.85    9.76
  -1   1   7  202.00    9.86
  -1   1   7  198.38   10.03
  -1  -1   7  215.00   10.80
   1  -1  -7  166.50   10.06
   1   1  -7  180.94   11.08
  -1  -1   6  253.09   10.88
  -1  -1   6  242.47   10.08
  -1   1   6  251.98   10.46
   1   1  -6  240.95   11.94
  -1   1   6  268.60   10.22
   1  -1  -6  273.72   11.85
   1  -1  -6  260.00   13.14
   1  -1  -6  248.85   11.50
  -1  -1   5  545.99   14.47
   1  -1  -5  526.79   15.43
   1   1  -5  535.17   16.03
  -1   1   5  526.63   13.95
   1  -1  -5  556.26   17.56
   1  -1  -5  529.44   16.04
  -1   1   4 4826.02   46.62
  -1   1   4 5087.41   40.92
   1   1  -4 5584.67   71.32
   1  -1  -4 5383.84   48.86
   1  -1  -4 4668.40   42.85
   1  -1  -3  166.74    8.03
   1   1  -3  186.25   12.97
  -1   1   2 5248.40   49.21
   1   1  -2 5250.83   61.39
   1   1  -1 1022.85   25.29
  -1  -1   1 1007.81   24.59
  -1   1   1  988.55   22.68
  -1  -1   0  272.15   13.68
   1   1   0  250.24   11.72
  -1   1   0  248.24   12.23
   1   1   1  305.95   11.58
  -1   1  -1  308.82   12.77
  -1  -1  -1  299.06   15.24
  -1  -1  -2 6198.46   73.26
   1   1   2 6261.77   46.07
  -1  -1  -3  560.03   14.41
  -1  -1  -3  649.08   24.75
  -1   1  -3  572.02   14.96
   1   1   3  514.16   10.94
   1  -1   3  632.02   15.08
   1  -1   3  621.11   15.32
   1   1   3  548.16   10.21
  -1   1  -3  603.16   16.04
  -1   1  -4 1992.04   28.17
   1  -1   4 2104.02   28.58
   1   1   4 2133.45   26.55
   1  -1   4 2104.76   30.09
  -1  -1  -4 2394.34   33.84
  -1  -1  -4 1948.53   28.22
  -1  -1  -4 2238.64   48.57
  -1   1  -4 1729.42   25.57
   1  -1   5  191.10   10.02
  -1   1  -5  192.41   10.43
   1  -1   5  194.34    9.60
  -1  -1  -5  208.78   11.02
   1   1   5  207.04    9.60
  -1  -1  -5  178.99    9.33
  -1   1  -5  176.02    9.18
   1   1   5  198.84    9.01
  -1   1  -6   12.46    4.39
   1   1   6   11.64    3.85
   1  -1   6    8.61    3.07
  -1  -1  -6   11.29    3.61
   1  -1   6   17.59    3.62
  -1  -1  -6   11.33    3.18
   1   1   6   18.05    3.66
  -1   1  -6    8.62    3.82
  -1   1  -7   44.34    5.55
  -1   1  -7   46.06    6.56
  -1  -1  -7   45.05    5.44
   1   1   7   45.55    5.43
   1  -1   7   34.78    5.42
  -1  -1  -7   45.32    6.46
   1   1   7   41.61    5.89
   1  -1   7   37.38    5.39
  -1   1  -8  460.87   16.46
   1   1   8  377.10   16.17
  -1   1  -8  485.07   19.34
  -1  -1  -8  456.06   16.80
   1  -1   8  365.30   16.69
   1   1   8  381.24   16.62
  -1  -1  -8  491.93   19.70
   1  -1   8  415.29   17.51
  -1   1  -9   13.74    5.27
  -1   1  -9    9.29    3.66
   1  -1   9    6.82    3.59
   1   1   9    8.27    4.12
  -1  -1  -9    8.14    3.73
   1  -1   9    5.92    3.48
   1   1   9    8.18    3.75
  -1  -1  -9    8.35    4.20
   1  -1  10  447.97   20.86
  -1   1 -10  519.24   22.59
  -1  -1 -10  512.62   22.24
   1   1  10  463.80   19.84
   1   1  10  483.46   20.38
  -1  -1 -10  514.34   19.82
   1  -1  10  444.61   20.35
   1  -1  11  143.53   12.45
  -1  -1 -11  158.98   13.47
   1  -1  11  131.41   12.10
   1   1  11  146.86   11.39
  -1   1 -11  156.92   13.40
  -1   1 -12   25.88    6.91
  -1  -1 -12   21.23    5.66
   1  -1  12   26.17    6.29
   1   1  12   18.67    4.53
   1  -1  12   22.68    5.47
  -1   1 -12   26.85    6.31
   1  -1  13   19.09    5.59
  -1  -1 -13   20.33    6.29
  -1   1 -13   16.86    4.93
  -1   1 -13   13.46    5.95
   1   1  13   16.56    4.98
   1  -1  13   18.09    5.46
   1  -1  14  452.32   23.76
  -1   1 -14  446.68   23.99
  -1   1 -14  439.35   21.77
   1  -1  14  465.15   24.19
   1   1  14  467.19   22.87
  -1  -1 -14  429.28   24.03
   1  -1  15    2.36    2.58
  -1  -1 -15   -0.23    3.70
   1   1  15    5.44    3.73
  -1   1 -15    0.79    1.91
   1   1  15    9.64    4.89
  -1  -1 -15    0.97    1.80
  -1   1 -15    1.97    2.35
   1   1  15   -1.02    2.69
   1  -1  15   -1.24    3.24
   1  -1  15   -1.87    3.83
  -1   1 -15    0.12    3.14
  -1  -1 -15    4.40    2.30
   1   1  15   10.11    3.40
  -1   1 -15    4.27    4.29
   1   1  15    0.40    3.48
   1  -1  15    0.78    3.27
  -1   1 -16   39.91    4.93
   1  -1  16   43.35    5.60
   1   1  16   43.54    5.85
   1   1  16   41.27    5.03
  -1  -1 -16   42.09    4.99
  -1   1 -16   36.83    4.35
  -1  -1 -16   44.42    4.92
  -1   1 -17   17.70    3.27
   1   1  17   13.83    3.63
   1   1  17   17.33    3.39
   1   1  17   19.32    4.35
  -1   1 -17   14.28    2.61
  -1   1 -17   14.47    3.00
   1  -1  17   16.16    4.68
  -1  -1 -17   17.47    3.52
   1  -1  17   17.35    3.80
  -1   1 -18    5.28    1.86
   1   1  18    6.87    2.92
   1  -1  18    6.84    3.58
  -1  -1 -18    4.21    2.25
   1   1  18    4.50    2.51
  -1   1 -18    1.76    2.12
   1   1  18    7.07    3.24
   1  -1  18    4.61    2.79
   1   1  19    5.50    2.15
   1  -1  19    6.57    2.86
  -1  -1 -19    6.42    2.24
  -1   1 -19    5.97    2.23
  -1   1 -19    6.77    1.81
   1   1  19    4.30    2.56
   1  -1  19    5.80    3.27
   1   1  19    5.09    2.65
  -1  -1 -20   63.05    4.34
   1  -1  20   54.55    4.44
   1  -1  20   63.69    4.69
  -1   1 -20   62.93    4.28
   1   1  20   55.26    4.32
   1  -1  21    6.11    2.31
  -1  -1 -21   10.02    1.81
   1  -1  21    8.59    2.24
   1   1  21   13.08    2.54
  -1   1 -21   10.72    1.77
   1   1  21   12.65    2.22
   1   2 -20   74.15    3.68
  -1  -2  20   85.01    4.70
   1   2 -20   78.63    3.80
   1   2 -20   80.99    3.61
  -1   2  20   79.49    4.61
   1  -2 -20   78.86    4.30
  -1   2  20   74.81    4.46
   1   2 -19  211.91    7.09
  -1   2  19  217.62    8.70
  -1  -2  19  203.35    8.23
   1   2 -19  204.10    7.22
   1   2 -19  213.23    6.87
  -1   2  19  206.88    8.34
  -1  -2  19  233.70    9.19
  -1   2  19  179.88    7.09
   1  -2 -19  215.61    8.15
  -1  -2  18  386.02   13.03
   1  -2 -18  374.22   10.80
  -1  -2  18  305.16   10.88
  -1   2  18  332.09   11.04
   1   2 -18  379.86   11.15
   1  -2 -18  365.44   11.83
  -1   2  18  352.47   12.11
   1   2 -18  349.18   10.03
  -1   2  17  128.12    8.15
  -1  -2  17  114.86    7.81
   1   2 -17  146.91    7.79
   1  -2 -17  135.58    7.42
  -1  -2  17  124.09    6.17
   1  -2 -17  143.19    8.16
  -1   2  17  125.16    7.33
  -1   2  17  129.40    7.79
   1  -2 -17  122.44    7.03
  -1  -2  17  143.57    8.94
   1  -2 -16  237.19   10.47
  -1  -2  16  242.87   11.92
  -1  -2  16  227.22    8.97
  -1   2  16  242.92   11.24
   1   2 -16  263.89   11.16
  -1   2  16  246.52   11.58
   1  -2 -16  237.13   10.98
  -1   2  16  224.90   10.18
   1  -2 -15  525.05   16.60
   1  -2 -15  545.90   16.64
  -1  -2  15  499.90   14.00
   1  -2 -15  533.44   16.98
  -1   2  15  572.65   17.98
  -1   2  15  523.72   15.61
  -1  -2  15  527.66   17.74
   1  -2 -14  144.28   15.22
  -1  -2  14  158.34   14.95
  -1   2  14  160.37    9.95
   1  -2 -14  146.54    9.22
   1  -2 -14  145.74    9.06
   1  -2 -14  139.61    8.89
  -1  -2  14  154.57    9.94
  -1   2  14  140.47    8.39
   1   2 -14  137.59   14.49
  -1  -2  14  146.66    8.39
  -1   2  14  141.42   12.07
   1  -2 -13  199.82   17.41
  -1   2  13  223.53   16.58
   1   2 -13  223.90   16.26
  -1  -2  13  208.46   16.82
   1   2 -13  229.13   17.65
   1   2 -12 1126.80   35.30
  -1  -2  12  824.09   32.12
   1   2 -12 1161.03   38.90
  -1   2  12  868.90   29.98
   1  -2 -12 1017.11   38.02
  -1   2  12  914.31   33.12
  -1   2  11   96.43   11.61
  -1  -2  11   82.82   10.24
   1   2 -11  112.87   12.77
   1   2 -11  102.73   11.84
   1  -2 -11   94.95   12.03
  -1   2  10  124.70   11.91
   1  -2 -10  100.47   11.73
   1   2 -10  129.42   12.93
  -1   2  10  134.69   10.47
  -1  -2  10  100.13   11.15
   1   2 -10  120.94   11.66
   1   2  -9  890.90   29.96
  -1   2   9  903.81   28.19
  -1   2   9  861.49   27.07
  -1  -2   9  851.17   30.30
  -1  -2   9  769.32   27.91
   1  -2  -9  805.97   30.73
   1   2  -9  867.29   30.97
  -1   2   8  265.20   14.49
   1  -2  -8  226.85   16.34
  -1  -2   8  262.42   16.18
  -1  -2   8  250.37   15.38
  -1   2   8  278.14   14.84
   1   2  -8  269.35   16.70
   1   2  -8  270.47   16.72
  -1  -2   7    2.25    3.25
  -1  -2   7    2.57    2.58
   1  -2  -7    5.11    3.76
   1   2  -7    0.57    4.03
   1   2  -7    2.45    3.65
  -1   2   7    2.71    3.03
   1  -2  -7    0.40    3.46
   1  -2  -7   -2.80    3.13
  -1  -2   6  569.98   22.18
   1   2  -6  649.19   23.50
   1  -2  -6  642.52   23.07
   1  -2  -6  576.89   23.72
  -1   2   6  623.39   20.66
   1   2  -6  613.98   22.73
   1  -2  -6  586.22   23.45
   1   2  -5 1576.70   34.23
   1   2  -5 1386.54   33.97
  -1   2   5 1581.54   32.32
   1  -2  -5 1472.46   34.86
   1  -2  -5 1622.84   35.13
   1  -2  -5 1514.13   36.92
   1  -2  -4  555.70   20.00
  -1   2   4  590.90   19.86
   1  -2  -4  599.16   22.90
   1  -2  -3 1569.23   33.48
   1  -2  -3 1496.07   31.29
  -1   2   3 1578.17   29.00
  -1  -2   3 1536.80   32.13
   1   2  -3 1534.44   31.92
   1  -2  -3 1600.56   36.51
   1  -2  -2  241.89   13.09
   1  -2  -2  255.58   12.51
  -1  -2   2  232.25   12.38
   1  -2  -2  267.08   14.76
  -1  -2   2  245.13   11.41
   1   2  -2  240.69   12.61
   1  -2  -2  240.98   11.86
  -1   2   2  269.66   12.66
   1  -2  -1  135.02   10.05
   1  -2  -1  166.10    9.98
  -1  -2   1  103.40    8.36
  -1  -2   1  145.48    9.56
  -1   2   1  182.68   14.92
   1   2  -1  179.17   11.38
   1  -2  -1  165.85   10.70
   1  -2  -1  142.07   11.04
   1  -2   0 1882.10   35.31
  -1  -2   0 1689.23   29.39
   1   2   0 1803.22   29.83
  -1  -2   0 1853.86   36.47
   1  -2   0 1762.33   30.72
  -1  -2   0 1831.99   33.24
   1  -2   0 1883.46   37.34
  -1   2   0 1907.07   32.95
  -1  -2   0 1666.24   29.83
  -1  -2  -1  442.71   16.72
   1  -2   1  473.64   17.97
  -1  -2  -1  438.24   16.17
   1   2   1  443.12   14.23
   1  -2   1  460.31   18.27
  -1   2  -1  409.88   16.90
  -1   2  -1  464.49   16.70
  -1   2  -2   35.11    7.94
  -1   2  -2   24.22    6.71
   1  -2   2   22.96    6.62
   1  -2   2   19.60    4.98
  -1  -2  -2   28.29    5.73
  -1  -2  -3 1343.66   30.31
   1   2   3 1340.88   27.94
   1  -2   3 1351.07   31.45
  -1   2  -3 1313.73   30.57
  -1   2  -3 1391.54   30.16
  -1  -2  -4  600.84   21.33
   1  -2   4  594.60   22.49
   1  -2   4  607.84   21.90
  -1   2  -4  582.42   21.17
   1   2   4  607.76   19.52
   1  -2   5  652.25   24.39
   1  -2   5  701.61   25.05
   1   2   5  688.32   20.89
  -1   2  -5  627.39   23.46
  -1  -2  -5  684.61   23.52
   1   2   6  103.98    9.14
   1   2   6   95.83    8.33
  -1   2  -6   81.70    9.59
   1  -2   6   97.33    9.99
  -1  -2  -6  106.15    9.88
   1  -2   6   82.62    9.89
   1   2   7   97.09    9.46
  -1   2  -7   69.56    9.32
   1  -2   7   86.66    9.87
   1  -2   7   73.29   10.06
  -1  -2  -7   98.05   10.12
   1   2   7   87.99    8.43
  -1  -2  -8   62.47    8.62
   1   2   8   72.09    8.67
   1   2   8   59.81    7.92
  -1   2  -8   50.11    8.15
   1  -2   8   59.52    8.28
  -1   2  -8   65.67    9.00
   1  -2   8   55.25    9.16
  -1   2  -9  315.49   18.03
   1   2   9  301.73   16.94
   1   2   9  292.79   16.49
   1  -2   9  268.14   17.76
  -1   2  -9  316.70   19.43
  -1  -2  -9  303.88   18.16
   1  -2   9  268.72   18.65
  -1   2 -10  167.20   14.29
   1   2  10   91.76    8.03
   1   2  10  114.88   11.69
  -1   2 -10  166.06   13.56
  -1  -2 -10  132.46   12.51
   1  -2  10  112.70   12.01
   1  -2  10  122.27   13.32
   1   2  11    6.99    6.17
  -1  -2 -11   22.86    6.21
   1  -2  11   19.68    5.86
  -1   2 -11   28.46    7.48
   1   2  11   24.50    6.87
   1  -2  11   18.53    6.27
   1  -2  12  344.15   21.74
   1   2  12  387.11   21.23
   1  -2  12  328.69   21.50
  -1   2 -12  366.65   22.15
   1   2  12  417.28   23.04
   1  -2  13  102.56   12.12
   1  -2  13   98.19   12.23
   1   2  13  103.47   10.67
  -1  -2 -13   90.11    7.66
   1  -2  13   88.70    8.36
   1   2  13  111.45    7.62
  -1  -2 -13  100.14    7.76
  -1  -2 -13  107.31    7.75
   1  -2  13  103.47    8.56
  -1   2 -13  102.31   12.07
   1  -2  14   -1.27    4.05
  -1  -2 -14    6.45    3.22
  -1  -2 -14    8.15    3.12
  -1   2 -14    7.40    2.97
   1   2  14    9.00    3.48
   1  -2  14    5.23    3.68
  -1  -2 -14    7.56    2.91
  -1  -2 -15   72.97    6.54
   1  -2  15   68.33    6.95
   1  -2  15   73.02    7.56
  -1  -2 -15   82.22    6.67
  -1   2 -15   79.65    5.97
   1   2  15   84.02    6.81
  -1  -2 -15   94.68    7.06
   1   2  16   77.68    6.39
   1  -2  16   76.33    7.15
  -1   2 -16   82.10    6.48
  -1   2 -16   73.65    5.50
  -1  -2 -16   75.82    6.10
   1   2  16   75.91    6.15
  -1  -2 -16   84.17    6.23
   1   2  17   -0.38    2.04
  -1   2 -17   -0.05    1.92
   1  -2  17    1.17    2.18
   1   2  17    1.87    2.66
  -1  -2 -17    2.49    1.94
   1   2  17   -0.22    2.45
  -1   2 -17    2.21    2.05
  -1  -2 -17    2.21    2.00
   1  -2  17   -0.23    3.30
  -1   2 -18   20.55    2.46
  -1  -2 -18   20.54    3.01
   1   2  18   21.80    2.95
  -1  -2 -18   22.91    3.13
  -1  -2 -18   24.58    2.89
   1   2  18   17.61    2.93
  -1   2 -18   20.47    2.88
   1  -2  18   21.72    3.82
  -1   2 -18   22.16    2.69
   1   2  18   18.97    3.22
   1  -2  18   17.03    2.88
  -1   2 -19  104.20    4.26
   1   2  19  102.24    5.19
  -1  -2 -19  108.01    5.19
  -1   2 -19  106.35    4.94
  -1  -3  17  307.34    6.57
  -1   3  17  300.54    8.26
   1   3 -17  290.04    7.09
  -1   3  17  307.46    8.10
  -1  -3  17  305.44    8.71
   1  -3 -17  321.60    7.95
  -1   3  17  321.34    7.69
  -1  -3  16   90.15    4.53
   1  -3 -16   94.56    5.38
   1   3 -16   95.93    4.98
  -1   3  16   98.90    5.40
  -1   3  16   90.62    5.36
  -1  -3  16   85.06    5.63
  -1  -3  16   74.17    4.88
  -1   3  16   89.58    5.42
  -1   3  15   20.00    3.26
  -1  -3  15   23.18    3.04
  -1   3  15   26.43    3.83
  -1  -3  15   17.90    3.51
   1  -3 -15   22.12    3.77
   1  -3 -15   24.74    3.96
  -1   3  14   69.86    6.11
   1  -3 -14   80.05    6.37
  -1  -3  14   64.35    6.25
   1  -3 -14   77.35    6.44
  -1  -3  14   80.07    5.64
  -1   3  14   61.58    5.22
   1  -3 -13  331.48   13.17
  -1  -3  13  332.64   11.84
   1  -3 -13  337.08   12.11
  -1  -3  13  313.07   13.50
  -1  -3  13  330.77   13.38
  -1   3  13  357.34   12.93
  -1  -3  12   17.74    3.48
   1  -3 -12   23.36    4.64
  -1   3  12   22.31    4.60
  -1  -3  12   19.97    4.47
   1  -3 -12   17.33    3.71
  -1  -3  12   18.60    4.36
  -1  -3  11  517.47   18.43
   1  -3 -11  535.28   16.28
   1  -3 -11  479.21   16.83
  -1  -3  11  479.65   15.77
  -1  -3  10  439.99   16.80
  -1  -3  10  398.57   16.33
   1  -3 -10  403.88   15.87
   1  -3 -10  385.86   13.95
  -1  -3  10  379.44   14.71
   1   3  -9   28.89    7.21
  -1   3   9   30.96    6.49
  -1  -3   9   25.47    4.63
  -1   3   9   34.95    7.90
   1  -3  -9   23.57    4.34
   1   3  -9   29.31    7.87
  -1  -3   9   30.29    6.91
  -1  -3   9   25.96    4.80
  -1  -3   9   23.03    4.15
   1  -3  -9   18.81    4.46
  -1  -3   8  251.30   12.95
   1  -3  -8  342.34   19.86
  -1  -3   8  340.75   21.82
  -1  -3   8  322.52   14.01
   1   3  -8  297.33   20.97
  -1   3   8  310.79   18.46
  -1  -3   8  329.72   14.55
  -1   3   8  317.44   18.34
   1  -3  -8  253.70   12.93
   1  -3  -8  241.84   11.07
   1   3  -8  314.37   19.82
  -1  -3   7 1215.63   40.47
  -1   3   7 1256.68   35.94
   1  -3  -7 1244.55   37.04
   1   3  -7 1147.14   37.10
  -1   3   7 1125.45   34.03
   1   3  -7 1195.75   38.79
   1   3  -6   21.68    8.04
   1   3  -6   22.82    7.97
  -1   3   6    4.42    5.04
   1  -3  -6   22.70    6.47
  -1  -3   6    7.23    5.17
  -1  -3   5  843.86   32.70
   1   3  -5  866.60   31.71
   1   3  -5  865.36   30.97
  -1   3   5  854.18   29.91
   1  -3  -5  915.35   31.39
   1   3  -4   63.91    9.13
   1   3  -4   72.84   10.61
  -1  -3   4   71.46    9.74
  -1   3   4   75.74    9.46
   1  -3  -4   77.23    9.61
  -1   3   3  108.32   11.49
  -1  -3   3  108.32   11.60
   1  -3  -3  128.87   11.74
   1   3  -3  120.06   11.69
  -1   3   2   96.17   11.52
   1   3  -2   94.23   10.58
   1  -3  -2  119.20   11.84
  -1  -3   2   88.56   10.54
   1  -3  -2   76.82   10.79
  -1   3   1  479.19   21.54
   1   3  -1  471.58   20.64
  -1  -3   1  444.32   22.54
   1  -3  -1  434.20   23.00
   1  -3   0    6.70    4.51
   1  -3   0   13.73    5.79
  -1  -3   0   21.29    5.62
  -1   3   0   29.26    6.67
  -1  -3   0   39.32    7.17
   1  -3   1  244.21   17.55
  -1  -3  -1  247.92   16.73
   1   3   1  264.07   16.24
  -1  -3  -1  281.10   16.81
  -1   3  -1  263.84   16.81
   1   3   2   87.62    9.56
  -1   3  -2   85.35   10.70
  -1  -3  -2   87.83    9.84
   1  -3   2   81.60   10.61
  -1   3  -3   -4.43    7.19
   1   3   3    1.85    3.38
   1  -3   3   -0.29    2.77
  -1  -3  -3    1.36    4.57
  -1   3  -4   34.42    7.10
   1  -3   4   32.42    7.20
  -1  -3  -4   47.89    8.26
  -1  -3  -4   43.02    8.37
  -1  -3  -5  833.19   31.49
   1  -3   5  926.61   35.28
   1   3   5  883.91   30.56
   1   3   5  894.86   29.73
  -1   3  -5  956.92   33.30
  -1  -3  -5  950.68   32.12
  -1  -3  -6   28.73    7.56
   1   3   6   33.12    7.44
  -1  -3  -6   18.89    6.17
   1  -3   6   17.14    5.79
  -1   3  -6   20.23    7.41
  -1  -3  -7  244.87   18.08
   1   3   7  274.53   17.27
  -1  -3  -7  282.25   18.17
   1  -3   7  287.67   20.02
  -1  -3  -7  244.12   12.39
   1   3   7  270.01   16.75
  -1   3  -7  259.71   18.17
  -1  -3  -8  283.71   13.45
   1   3   8  323.83   19.09
  -1  -3  -8  284.80   13.23
  -1  -3  -8  312.93   19.04
   1   3   8  323.64   18.50
  -1  -3  -8  257.54   13.25
   1  -3   8  300.82   13.74
   1  -3   8  296.67   14.59
   1  -3   8  285.14   13.34
  -1   3  -8  311.99   19.98
   1  -3   8  304.86   20.89
  -1  -3  -9  248.43   12.97
   1  -3   9  278.80   19.77
   1  -3   9  302.36   13.87
  -1  -3  -9  263.13   12.76
  -1  -3  -9  242.12   12.58
   1  -3   9  291.23   13.93
   1  -3   9  241.21   12.26
   1  -3  10  202.47   10.34
  -1  -3 -10  225.89   12.30
  -1  -3 -10  201.41   11.14
   1  -3  10  253.08   12.91
  -1  -3 -10  209.88   11.09
   1  -3  10  257.36   13.01
  -1  -3 -11  139.65    9.04
   1  -3  11  156.20    9.89
   1  -3  11  129.14    9.15
  -1  -3 -11   79.96    7.00
   1  -3  11  100.19    6.99
  -1  -3 -12    0.23    2.41
  -1  -3 -12    0.12    2.59
   1  -3  12   -1.16    3.08
   1  -3  12   -0.40    1.99
  -1  -3 -13   36.90    5.06
   1   3  13   39.66    4.37
  -1  -3 -13   35.51    4.72
   1  -3  13   28.99    4.43
   1  -3  13   35.90    3.84
   1  -3  14   11.29    2.07
   1  -3  14   10.12    2.86
   1  -3  14   12.11    3.43
  -1  -3 -14   12.21    3.55
  -1  -3 -14   15.33    3.12
   1   3  14   12.74    2.81
  -1   3 -14   12.78    2.43
   1   3  15    3.91    2.17
  -1   3 -15    3.90    1.64
  -1  -3 -15    5.55    2.09
  -1  -3 -15    2.38    2.69
   1   3  15    5.16    2.35
   1  -3  15    3.12    2.35
  -1   3 -15   11.62    3.01
   1   3  16   10.86    2.33
  -1   3 -16   10.41    2.00
  -1  -3 -16   13.24    2.69
  -1   3 -16   14.51    1.93
   1   3  16   11.97    2.22
   1  -3  16    9.36    2.40
   1   3  17  107.59    4.34
  -1  -4  12   25.23    2.48
   1  -4 -12   22.31    2.86
  -1   4  11  139.51    5.31
   1  -4 -11  151.14    4.66
  -1  -4  11  151.52    6.60
  -1   4  10   20.02    2.87
   1  -4 -10   17.61    2.05
  -1  -4   9  584.34   13.46
   1  -4  -9  600.02   11.08
   1  -4  -8    5.05    1.81
   1  -4  -7  222.26    7.32
  -1  -4   7  215.87    9.39
   1  -4  -6    8.19    2.73
   1  -4  -6    5.20    2.09
  -1  -4   6    9.52    2.84
   1  -4  -5  226.35    7.99
   1  -4  -5  222.80   10.70
  -1  -4   5  232.68   10.60
   1  -4  -4   37.22    3.57
  -1  -4   4   39.31    5.17
  -1  -4   3  599.69   17.24
   1  -4  -3  592.01   18.40
   1  -4  -3  559.13   12.51
  -1  -4   2   46.63    4.53
   1  -4  -2   39.20    4.42
  -1  -4   2   18.14    3.75
   1  -4  -2   13.24    3.89
  -1  -4   1   63.93    4.74
   1  -4  -1   30.76    4.92
   1  -4  -1   50.67    4.95
  -1  -4   1   23.59    3.83
   1  -4   0    5.50    2.67
  -1  -4   0    3.20    2.36
  -1  -4  -1  159.07    8.99
   1  -4   1  170.32   10.09
   1  -4   1  191.52    7.50
  -1  -4  -1  138.85    6.20
   1  -4   2   44.79    5.71
  -1  -4  -2   63.39    4.71
  -1  -4  -3  447.11   11.22
   1  -4   3  484.08   16.21
  -1  -4  -4   13.44    2.51
   1  -4   4   14.29    3.50
   1  -4   5   17.94    3.31
  -1  -4  -5   17.52    2.51
   1  -4   5   24.22    3.96
   1  -4   6   22.13    3.71
   1  -4   6   19.41    3.51
  -1  -4  -6   12.83    2.43
   1  -4   7  368.00   12.07
   1  -4   7  374.49   12.24
   1  -4   8   15.48    3.22
  -1  -4  -8    4.87    1.72
   1  -4   9  176.44    7.08
  -1  -4  -9  183.97    6.03
  -1  -4 -10   -2.94    1.84
   1  -4  10   -0.22    1.47
   1   4  11   23.77    2.67
   1  -4  11   19.65    2.27
  -2   0  22   12.58    2.84
   2   0 -22    9.11    1.69
   2   0 -21    0.78    1.43
  -2   0  21    0.63    2.39
  -2   0  21    4.14    2.88
   2   0 -20  105.08    5.97
  -2   0  20   96.74    6.89
   2   0 -20  106.20    6.31
  -2   0  20  116.52    7.62
   2   0 -19    1.40    1.94
   2   0 -19   -1.15    2.14
  -2   0  19    1.84    3.18
  -2   0  19    0.30    2.93
   2   0 -18  124.15    7.77
  -2   0  18  128.40    8.70
  -2   0  18  112.10    8.15
   2   0 -18  120.66    7.28
   2   0 -18  114.74    7.19
  -2   0  17   -3.44    3.52
  -2   0  17    1.37    3.39
   2   0 -17    2.05    2.18
  -2   0  17   -5.29    3.80
   2   0 -17   -0.21    1.91
   2   0 -17    2.68    2.42
  -2   0  16  140.50   11.75
  -2   0  16  157.01   13.65
  -2   0  15    1.10    3.44
  -2   0  15    1.28    3.20
  -2   0  14  217.01   13.89
   2   0 -14  171.52   13.73
  -2   0  14  210.31   14.61
   2   0 -14  179.32   14.83
  -2   0  13    0.69    3.25
  -2   0  13   -3.66    3.55
   2   0 -13   -0.45    3.91
   2   0 -13    0.58    2.94
   2   0 -12   58.49    8.34
   2   0 -12   37.32    7.40
  -2   0  11   -0.46    2.65
   2   0 -11    2.49    3.19
   2   0 -11    1.53    3.32
   2   0 -10  170.01   11.60
   2   0 -10  181.47   13.56
  -2   0   9    1.21    2.34
   2   0  -9   -1.18    3.24
   2   0  -9    1.31    3.20
  -2   0   8    2.95    2.26
  -2   0   8    1.29    2.65
  -2   0   8    2.27    2.23
   2   0  -8    0.82    2.92
   2   0  -8    1.08    2.98
  -2   0   7   -2.93    2.66
   2   0  -7   -1.70    3.22
  -2   0   7    0.73    1.66
   2   0  -7    1.56    2.90
  -2   0   7    0.06    2.02
  -2   0   7   -0.14    2.10
  -2   0   6   57.39    5.46
  -2   0   6   54.53    7.09
  -2   0   5    0.50    1.80
  -2   0   5   -0.64    2.02
  -2   0   4   14.71    3.46
  -2   0   4   17.56    3.31
   2   0  -3   -0.22    1.60
  -2   0   3    1.64    1.97
  -2   0   3    1.05    1.83
   2   0  -2 1462.36   22.38
   2   0  -1    1.19    1.88
  -2   0   0 1934.83   24.69
   2   0   0 1891.76   27.07
   2   0   0 1919.44   24.41
   2   0   1    0.18    1.79
  -2   0  -1    0.03    1.58
   2   0   1    1.21    1.97
   2   0   2    4.43    2.03
   2   0   2    4.15    2.29
   2   0   3   -0.03    2.18
   2   0   4    1.88    2.17
  -2   0  -5   -0.10    1.64
   2   0   5    1.30    2.18
  -2   0  -5    1.24    2.30
   2   0   5    0.67    2.22
  -2   0  -5   -0.29    2.83
  -2   0  -5    0.56    1.54
  -2   0  -6  715.36   19.63
   2   0   6  689.38   24.96
  -2   0  -6  779.84   20.36
   2   0   6  790.56   18.01
   2   0   7   -0.78    2.15
  -2   0  -7    0.90    3.47
  -2   0  -7    0.65    2.52
  -2   0  -7    1.26    2.32
   2   0   7    2.33    2.39
  -2   0  -8   25.26    4.57
   2   0   8   22.55    4.27
  -2   0  -8   18.94    5.11
  -2   0  -8   24.48    4.53
  -2   0  -9   -0.41    3.52
  -2   0  -9   -2.57    2.92
   2   0   9   -1.32    2.42
   2   0  10  816.47   26.35
  -2   0 -10  788.11   25.53
   2   0  10  755.78   23.82
   2   0  11   -0.79    2.83
  -2   0 -11    2.78    4.46
   2   0  11   -0.03    2.22
  -2   0 -11   -1.06    3.34
   2   0  12  119.21   11.67
  -2   0 -12  134.19   11.86
   2   0  12  123.30   11.35
  -2   0 -12   93.53   11.05
  -2   0 -13    0.86    4.00
   2   0  13   -1.06    3.57
   2   0  13    1.07    2.92
   2   0  14   44.64    8.40
  -2   0 -14   52.80    8.18
   2   0  14   49.79    8.14
   2   0  15    3.49    3.19
  -2   0 -15   -0.48    3.50
   2   0  15    0.24    3.22
   2   0  15   -5.12    3.88
   2   0  16  126.39    8.78
  -2   0 -16  132.27    8.19
   2   0  16  134.64   13.34
  -2   0 -16  134.63    8.36
  -2   0 -17    0.34    1.57
  -2   0 -17    0.45    1.91
   2   0  17   -0.25    2.96
   2   0  18  199.39    9.69
  -2   0 -18  200.86    9.27
   2   0  19   -4.08    3.07
  -2   0 -19    0.07    1.66
  -2   0 -20   57.76    4.06
   2   0  20   50.94    4.35
  -2   0 -21    1.66    1.27
   2   0  21    0.80    1.87
   2   1 -22  111.43    4.03
   2  -1 -22  121.00    4.68
   2  -1 -22  107.94    4.30
   2  -1 -21    3.28    1.42
   2   1 -21    4.53    1.56
  -2  -1  21    1.52    1.92
   2  -1 -21    2.12    1.47
  -2  -1  21    4.67    2.53
   2   1 -21    1.85    1.43
   2  -1 -21    5.42    1.79
  -2   1  21    4.49    2.70
   2  -1 -20   43.61    4.17
   2   1 -20   41.23    3.82
  -2  -1  20   39.39    4.94
  -2   1  20   38.14    4.08
   2  -1 -20   46.80    4.28
   2   1 -20   45.81    3.76
  -2   1  20   46.56    5.11
   2   1 -20   44.94    4.04
  -2  -1  20   28.26    4.33
   2  -1 -20   45.46    4.32
   2  -1 -19  108.71    6.93
   2   1 -19  109.13    6.59
   2   1 -19  103.52    6.11
   2   1 -19  103.69    6.25
  -2   1  19  100.98    6.99
  -2  -1  19  116.89    7.57
  -2  -1  19   96.67    7.30
   2   1 -18   24.43    3.54
  -2   1  18   23.64    4.02
   2   1 -18   23.55    3.47
   2   1 -18   25.87    3.68
   2  -1 -18   30.19    4.33
  -2  -1  18   21.04    4.36
  -2  -1  18   18.76    4.32
  -2  -1  17   16.84    2.86
  -2   1  17   17.24    3.87
  -2  -1  17   15.97    4.15
   2  -1 -17   18.68    3.78
   2   1 -17   14.17    3.24
  -2   1  17   16.18    3.44
  -2  -1  17   15.70    4.69
   2   1 -17   12.88    2.82
   2  -1 -16  103.53   12.19
   2   1 -16  119.94    7.89
  -2   1  16  111.76    8.13
  -2   1  16  116.70    7.89
  -2  -1  16  125.10   12.92
   2  -1 -16  107.15    7.70
  -2  -1  16  116.54    8.80
   2   1 -16   98.01   11.62
  -2  -1  16  108.33    8.23
  -2  -1  16  111.83    6.91
  -2   1  16  121.26   11.63
   2  -1 -15   -0.62    3.77
  -2   1  15   -0.13    3.43
  -2  -1  15    2.91    3.65
   2   1 -15    2.30    4.87
   2  -1 -14  250.85   18.53
  -2   1  14  248.40   15.80
  -2  -1  14  310.25   18.59
   2   1 -14  271.26   18.83
   2  -1 -13    7.59    4.38
  -2  -1  13    9.57    4.53
   2   1 -13    6.79    5.62
   2   1 -12   34.98    7.44
   2  -1 -12   37.28    7.75
  -2  -1  12   38.99    7.00
  -2   1  12   28.03    5.12
   2   1 -11   45.99    7.75
  -2   1  11   53.31    7.58
  -2  -1  11   46.52    6.89
   2  -1 -11   46.90    8.48
  -2   1  11   39.39    6.91
  -2   1  10   35.95    4.52
  -2  -1  10   43.99    6.45
   2   1 -10   55.76    7.71
  -2   1  10   51.26    7.89
   2  -1  -9   69.29    8.73
  -2  -1   9   50.04    6.82
  -2   1   9   59.39    7.24
   2   1  -9   64.09    8.05
  -2   1   9   50.85    5.03
   2  -1  -8   -0.09    1.98
   2  -1  -8    2.35    3.46
  -2   1   8    3.11    2.96
   2   1  -8    0.32    3.69
  -2  -1   8    2.88    2.81
  -2   1   8    4.59    3.57
   2  -1  -7  118.21    9.81
  -2   1   7  120.24    7.83
  -2   1   7  117.59    7.22
   2  -1  -7  129.90    8.65
   2   1  -7  128.46    9.34
  -2  -1   7  120.35    8.07
  -2   1   6   10.53    2.84
   2  -1  -6   13.81    3.27
  -2  -1   6    8.47    2.77
   2   1  -6   14.68    4.21
   2  -1  -6    9.78    3.94
   2  -1  -5  193.71   12.30
  -2   1   5  214.87    9.12
  -2  -1   5  202.40    8.88
   2   1  -5  218.34   10.69
   2  -1  -5  240.93   10.99
   2  -1  -5  212.93   11.24
   2  -1  -4    1.51    1.97
   2  -1  -4    0.16    2.88
  -2   1   4    2.68    2.40
  -2  -1   4    0.92    3.28
  -2   1   4    4.58    2.07
   2  -1  -3  255.48   13.90
  -2   1   3  280.99   13.61
   2  -1  -3  310.05   12.00
  -2  -1   3  235.86   15.30
   2   1  -3  289.98   15.73
  -2   1   2   20.98    4.92
  -2  -1   2   13.11    4.57
   2   1  -2   23.42    4.38
   2   1  -2   26.72    4.92
  -2   1   1   15.65    4.03
   2   1  -1   14.43    3.77
  -2  -1   1    9.44    3.54
  -2   1   1   17.36    4.33
   2   1  -1   16.65    3.53
   2  -1   0    6.54    2.12
  -2   1   0    6.34    3.03
  -2   1   0    5.85    3.46
  -2  -1   0    3.60    2.35
   2   1   0    4.98    1.78
   2   1   0    2.92    2.27
   2   1   1   37.67    4.19
  -2   1  -1   31.45    5.12
   2   1   1   29.82    6.43
  -2   1  -1   27.12    5.57
  -2   1  -2  185.20   10.99
  -2   1  -2  182.42    8.51
   2   1   2  176.87    7.64
   2  -1   2  189.58    8.84
   2   1   2  197.10   14.72
  -2   1  -3  425.77   15.93
   2   1   3  447.81   13.06
  -2   1  -3  418.02   13.21
  -2   1  -3  383.04   19.12
  -2  -1  -3  410.95   13.13
   2  -1   3  459.78   14.20
   2  -1   3  443.71   12.98
  -2   1  -4  160.96    9.66
  -2  -1  -4  221.05   11.37
  -2  -1  -4  175.35    9.09
  -2   1  -4  173.45    9.11
  -2  -1  -4  168.25    9.00
   2   1   4  188.02    8.24
   2   1   4  197.83    9.53
   2  -1   4  182.19    8.85
  -2   1  -4  179.50    9.41
   2  -1   4  189.71    9.95
  -2   1  -5   19.69    4.56
  -2  -1  -5   25.42    4.86
  -2   1  -5   13.93    3.70
   2   1   5   14.20    3.86
   2   1   5   19.23    3.66
  -2  -1  -5   19.72    3.81
   2  -1   5   19.52    3.66
  -2  -1  -5   12.11    3.38
   2  -1   5   17.71    3.97
   2  -1   6   13.48    3.35
   2   1   6   10.95    4.05
   2  -1   6   16.27    3.80
  -2  -1  -6    8.87    2.90
  -2   1  -6   14.55    3.88
  -2  -1  -6   20.80    4.89
   2   1   6   13.58    3.34
  -2  -1  -6   17.00    3.49
  -2   1  -6   17.50    4.29
  -2  -1  -6   15.04    3.83
  -2  -1  -7   47.94    6.64
  -2   1  -7   36.78    5.93
   2  -1   7   37.17    5.81
   2  -1   7   45.39    5.69
   2   1   7   35.38    5.48
  -2  -1  -7   35.04    5.37
   2   1   7   29.36    5.04
  -2  -1  -7   30.93    5.53
  -2   1  -7   42.38    5.59
  -2  -1  -7   41.52    5.46
  -2   1  -8  361.43   15.17
   2  -1   8  230.21   14.28
  -2  -1  -8  300.07   16.20
  -2  -1  -8  406.24   18.99
   2  -1   8  323.85   15.61
  -2   1  -8  385.15   17.85
   2   1   8  328.05   15.79
   2   1   8  328.10   15.42
  -2  -1  -8  352.52   15.19
  -2  -1  -9   16.98    4.89
   2   1   9   11.65    4.27
  -2  -1  -9   13.28    4.97
   2   1   9   14.56    5.35
   2  -1   9   12.73    4.42
  -2  -1  -9   12.28    3.72
  -2   1  -9   15.06    4.62
   2  -1   9    9.32    3.59
   2   1  10   50.32    7.00
  -2  -1 -10   59.78    8.48
   2  -1  10   49.12    7.20
   2  -1  10   51.72    7.71
  -2  -1 -10   45.38    6.33
  -2   1 -10   51.42    8.19
   2  -1  11  117.95   11.12
  -2   1 -11  129.18   12.63
  -2  -1 -11  124.17   12.22
  -2   1 -11  122.86   12.11
   2  -1  11  118.99   11.96
   2   1  11  116.12   10.41
  -2  -1 -12    1.51    4.22
  -2   1 -12    3.94    4.74
   2  -1  12    3.27    2.81
  -2   1 -12    3.18    4.10
   2   1  12    1.16    2.80
   2  -1  12   -0.04    3.36
   2  -1  13   92.58   11.19
   2  -1  13   87.61   10.74
  -2   1 -13   93.53   10.46
   2   1  13   91.78   10.36
  -2   1 -13   83.03   10.90
  -2   1 -14  108.20   12.42
   2  -1  14  115.44   12.39
   2   1  14  117.75   11.77
  -2   1 -14  119.74   12.10
   2  -1  14  122.52   12.86
   2   1  15    0.46    2.98
   2   1  15    2.55    3.60
   2   1  15    8.34    3.69
  -2  -1 -15    9.69    2.74
  -2   1 -15    5.91    2.36
  -2  -1 -15   12.31    3.23
   2   1  15    7.03    4.03
   2   1  15   10.63    3.21
   2  -1  15    9.52    4.09
   2  -1  15   13.60    5.24
  -2   1 -15    6.61    2.73
   2  -1  15    5.31    3.75
  -2   1 -15    6.11    5.18
  -2   1 -16  194.92    9.08
  -2   1 -16  192.48    8.24
  -2   1 -16  204.71   10.07
   2  -1  16  175.56    9.86
   2   1  16  198.85    9.64
  -2  -1 -16  199.64   10.08
   2   1  16  204.84   10.30
  -2  -1 -16  204.07   10.10
  -2  -1 -17   -0.63    1.86
  -2   1 -17   -1.90    2.36
  -2   1 -17   -0.30    1.44
   2   1  17    5.29    3.69
  -2   1 -17    1.70    2.22
   2  -1  17   -1.99    3.08
   2  -1  17    0.55    3.61
   2   1  17   -1.22    2.42
   2  -1  18   31.93    5.06
  -2   1 -18   25.23    3.57
  -2  -1 -18   25.19    3.64
   2   1  18   27.41    3.94
   2   1  18   27.43    4.13
   2   1  18   26.28    3.60
  -2   1 -18   27.72    2.94
   2  -1  18   21.10    3.90
   2   1  19    8.37    2.82
   2  -1  19    6.30    2.53
   2   1  19    2.44    2.02
  -2   1 -19    7.07    2.15
   2   1  19    3.70    1.87
  -2  -1 -19    6.08    2.12
   2  -1  19    8.55    3.01
   2  -1  20  154.76    6.50
  -2  -1 -20  159.96    6.09
   2  -1  20  146.34    5.81
  -2   1 -20  161.23    6.01
   2   1  20  165.16    6.26
  -2   1 -21    1.59    1.21
   2   2 -20   21.40    2.30
  -2   2  20   14.87    2.23
  -2  -2  20   23.06    2.92
  -2   2  20   17.94    2.76
   2   2 -20   19.29    1.96
   2   2 -20   20.67    2.16
   2  -2 -20   24.00    2.66
  -2   2  20   22.18    2.93
   2   2 -19   16.32    2.54
   2   2 -19   16.78    2.46
   2   2 -19   11.80    2.05
  -2   2  19   12.82    2.55
   2  -2 -19   16.81    2.46
  -2  -2  19   14.52    3.07
  -2   2  19   13.77    3.05
  -2   2  19   14.80    3.31
   2  -2 -19   15.93    2.70
  -2  -2  19    9.51    1.65
  -2  -2  19   16.03    3.47
  -2  -2  18   18.82    3.18
   2  -2 -18   30.15    3.92
   2  -2 -18   31.00    3.72
  -2  -2  18   30.64    3.15
   2   2 -18   27.84    3.16
  -2   2  18   28.96    4.22
  -2  -2  18   34.46    4.91
  -2   2  18   21.07    3.54
   2  -2 -18   30.81    3.70
   2   2 -18   29.30    3.49
   2  -2 -17  127.87    7.77
   2  -2 -17  122.09    7.73
  -2  -2  17  110.64    6.17
   2  -2 -17  116.65    7.37
  -2   2  17  107.08    6.83
  -2   2  17  117.81    7.55
   2   2 -17  124.08    7.04
  -2   2  17  118.68    8.02
  -2  -2  17  127.38    8.76
  -2  -2  17  106.61    7.54
  -2   2  16    0.39    2.80
   2  -2 -16   -0.02    2.96
  -2   2  16    1.28    2.85
   2  -2 -16    0.71    2.03
   2  -2 -16    3.83    2.90
  -2  -2  16    4.60    2.28
  -2  -2  16   -1.18    2.92
   2  -2 -16    0.16    1.96
  -2   2  16   -0.82    2.85
   2   2 -16    1.87    2.58
  -2  -2  16   -1.67    3.72
   2  -2 -15    0.88    2.60
  -2   2  15    0.93    2.76
  -2  -2  15   -3.32    2.45
   2  -2 -15   -0.53    3.65
   2  -2 -15    1.74    2.32
   2  -2 -15   -0.74    2.14
  -2   2  15   -4.00    3.57
  -2   2  15    2.12    2.65
  -2  -2  15    0.54    3.93
  -2  -2  15   -1.04    3.59
  -2  -2  14   47.78    6.57
   2  -2 -14   66.38    6.30
   2  -2 -14   40.24    8.82
  -2   2  14   34.42    4.45
   2  -2 -14   51.45    5.72
  -2  -2  14   52.45    5.31
   2   2 -14   53.78    9.96
  -2  -2  14   54.35    6.52
   2   2 -14   42.27    7.98
   2  -2 -14   52.60    5.79
  -2  -2  14   47.28    8.82
  -2   2  14   57.81    6.25
  -2   2  13    7.76    5.93
  -2  -2  13    7.49    3.87
   2  -2 -13    8.48    5.40
   2   2 -13    4.59    3.99
   2   2 -13    6.74    5.46
  -2   2  12   83.25    7.62
   2  -2 -12  135.51   14.12
   2   2 -12  171.49   15.48
  -2  -2  12  109.77   12.10
   2   2 -12  156.27   13.68
  -2   2  12  140.61   14.63
   2   2 -11    3.95    4.33
   2  -2 -11    3.63    3.72
  -2   2  11   17.21    8.13
   2   2 -11    2.59    5.04
  -2  -2  11    2.93    3.88
  -2   2  10   15.94    6.69
   2   2 -10   -1.33    5.14
   2   2 -10   -1.05    4.54
  -2   2  10    2.85    3.98
   2  -2 -10   -1.00    4.01
  -2  -2  10    0.70    3.42
  -2   2   9   74.27    8.20
  -2  -2   9   60.93    9.34
   2  -2  -9   68.55    8.88
   2   2  -9   76.12   10.18
  -2   2   9   86.35    9.05
   2  -2  -9   71.85    9.45
   2  -2  -8   60.08    8.01
   2   2  -8   85.36   10.16
   2  -2  -8   51.53    9.04
  -2   2   8   70.65    8.05
  -2  -2   8   50.40    8.58
  -2   2   8   65.62    7.37
  -2  -2   7    0.88    2.82
   2   2  -7    2.69    4.55
  -2   2   7   -0.53    3.12
   2  -2  -7    0.58    3.34
   2  -2  -7    1.95    2.77
   2   2  -6   33.56    6.53
   2  -2  -6   28.30    5.79
   2  -2  -6   25.89    5.79
  -2   2   6   30.30    5.08
   2   2  -5    6.14    3.25
   2  -2  -5    5.22    3.58
  -2  -2   5    5.89    3.69
  -2   2   5    6.63    3.09
   2  -2  -4    1.15    2.94
  -2   2   4    2.34    2.84
   2   2  -4   -0.63    3.39
   2  -2  -4    0.66    3.00
  -2  -2   4   -1.33    2.72
   2  -2  -3   -2.26    2.95
   2  -2  -3    1.33    2.35
  -2  -2   3    3.48    2.54
   2  -2  -3    0.09    3.07
  -2  -2   3    0.64    1.66
  -2   2   2    4.19    4.59
   2  -2  -2    0.77    1.94
   2  -2  -2    0.59    3.20
  -2  -2   2    1.71    1.93
   2  -2  -2    1.75    2.72
  -2  -2   2    1.24    2.24
  -2  -2   1    0.96    1.67
  -2  -2   1   -0.20    2.30
   2  -2  -1    2.69    3.19
  -2  -2   1   -0.19    2.06
   2  -2  -1    0.78    2.68
  -2   2   1   -1.15    3.71
   2  -2  -1    0.66    2.05
  -2  -2   0   18.78    3.77
  -2  -2   0   22.46    3.99
  -2   2   0   27.44    5.64
  -2  -2   0   22.99    3.99
   2  -2   0   23.46    4.49
   2  -2   0   29.64    5.48
   2  -2   1    2.91    3.16
  -2   2  -1   -0.99    4.31
   2  -2   1    1.79    2.25
  -2  -2  -1    3.46    2.71
  -2  -2  -1    0.53    1.96
  -2  -2  -2    3.93    2.54
   2  -2   2    3.95    2.57
  -2  -2  -2    3.81    2.16
   2  -2   2    4.11    3.01
   2   2   2    0.82    2.61
  -2   2  -2    2.80    4.14
  -2  -2  -3   48.68    6.63
   2  -2   3   54.02    6.73
  -2   2  -3   51.27    6.64
   2   2   3   52.81    5.85
   2  -2   3   48.17    7.12
  -2   2  -4   12.32    4.29
  -2  -2  -4   17.63    4.76
   2  -2   4   13.80    4.00
   2  -2   4   12.42    4.19
   2   2   4   17.03    3.84
  -2   2  -5   10.37    4.50
  -2  -2  -5    2.22    3.19
   2   2   5    5.87    2.62
   2  -2   5    9.83    3.85
   2   2   5    6.85    3.90
   2  -2   5    6.92    3.84
  -2  -2  -6    0.72    3.80
   2   2   6    0.58    3.37
  -2   2  -6    0.10    4.50
   2  -2   6   -0.57    2.93
   2   2   6    2.15    2.67
   2  -2   6    1.70    3.00
   2   2   7    3.73    3.52
  -2  -2  -7    4.32    3.45
  -2   2  -7    1.80    5.17
   2  -2   7    6.21    3.43
   2   2   7    8.24    3.69
   2  -2   7    3.74    4.11
   2  -2   8    2.39    3.87
   2  -2   8    1.39    3.75
  -2  -2  -8    0.54    3.91
  -2   2  -8   -1.83    5.39
  -2  -2  -9  149.82   13.12
   2  -2   9  129.05   13.59
  -2   2  -9  156.72   12.59
   2   2   9  128.61   11.45
   2  -2   9  123.40   12.92
   2   2   9  113.07   10.11
  -2   2 -10   23.38    6.36
   2  -2  10   10.41    4.21
   2   2  10   10.84    5.54
  -2  -2 -10   20.35    5.65
   2   2  10   17.28    5.53
   2  -2  10   18.77    6.08
   2   2  11   46.22    7.91
  -2  -2 -11   36.93    7.62
   2  -2  11   31.58    6.76
   2   2  11   67.30   11.08
   2  -2  11   38.52    7.91
  -2   2 -11   44.92    8.01
   2   2  12   49.25    7.63
  -2  -2 -12   51.37    5.72
  -2  -2 -12   43.30    5.51
   2  -2  12   47.89    6.45
  -2  -2 -12   38.41    7.46
   2  -2  12   44.09    8.39
  -2   2 -12   48.35    8.64
   2  -2  12   44.05    8.73
  -2  -2 -12   44.82    5.23
  -2  -2 -13  171.31    9.75
   2  -2  13  190.04   10.83
   2  -2  13  183.75   15.65
  -2   2 -13  143.67   13.81
   2   2  13  182.19   13.92
   2   2  13  185.21    9.54
   2  -2  13  170.01   15.77
   2  -2  13  148.40   10.67
  -2  -2 -13  186.73   10.00
  -2   2 -14   12.60    3.24
   2   2  14    9.91    3.58
   2  -2  14    7.67    3.81
   2  -2  14    6.75    4.33
  -2  -2 -14    8.61    3.07
  -2  -2 -14    8.76    2.86
  -2   2 -15   43.96    4.58
  -2   2 -15   56.50    6.29
  -2  -2 -15   47.91    5.34
   2  -2  15   27.72    5.75
  -2  -2 -15   38.08    4.96
  -2  -2 -15   38.76    4.72
   2   2  15   41.35    4.99
   2  -2  15   39.86    5.43
  -2   2 -16  106.53    7.02
  -2  -2 -16  106.35    6.81
   2   2  16  109.42    6.85
  -2  -2 -16  103.63    6.85
  -2  -2 -16  123.55    7.33
  -2   2 -16  113.97    6.37
   2  -2  16  109.37    7.80
  -2   2 -17    0.80    1.88
  -2  -2 -17    3.80    1.99
   2  -2  17    2.87    3.35
  -2   2 -17    3.22    2.18
  -2  -2 -17    3.22    2.13
   2   2  17    5.29    2.67
   2   2  17    3.89    2.75
   2   2  18   63.34    4.01
  -2  -2 -18   71.97    4.63
  -2   2 -18   71.30    3.72
  -2  -2 -18   93.78    4.86
   2   2  18   75.31    4.86
   2   2  18   73.00    4.55
  -2   2 -18   78.89    4.26
  -2   2 -18   69.83    4.44
   2  -2  18   88.01    5.64
   2  -2  18   52.11    4.07
  -2   2 -19    0.29    1.20
  -2  -2 -19    0.12    1.29
   2  -2  19   -0.73    2.23
   2   2  19   -1.78    1.85
  -2  -3  17   18.07    2.12
  -2  -3  17   18.97    2.62
  -2   3  17   14.29    2.48
  -2  -3  17   15.64    2.51
   2   3 -17   21.83    2.11
   2  -3 -17   21.43    2.54
   2  -3 -17   11.47    2.54
  -2   3  17   15.64    2.40
  -2  -3  17   15.00    2.12
  -2   3  17   19.01    2.43
  -2  -3  16    1.62    1.98
  -2   3  16    6.12    2.34
  -2   3  16    6.63    2.58
   2  -3 -16   10.44    2.69
   2   3 -16    4.95    1.56
  -2  -3  16    4.50    2.40
  -2   3  16    9.00    2.74
   2  -3 -16    7.16    2.89
  -2  -3  16    3.74    1.81
  -2  -3  16    9.79    2.21
   2   3 -15   32.37    3.72
   2  -3 -15   27.19    3.90
  -2   3  15   20.79    3.46
  -2  -3  15   21.34    3.59
  -2  -3  15   22.26    3.47
  -2  -3  15   29.19    3.76
  -2   3  15   22.26    3.35
  -2   3  15   34.95    4.73
   2  -3 -15   24.45    4.01
  -2  -3  15   22.02    3.77
   2  -3 -14    0.09    3.44
  -2   3  14   -0.88    2.85
  -2  -3  14    1.09    2.39
  -2  -3  14   -1.37    3.10
   2  -3 -14   -0.01    2.47
  -2   3  13   29.41    4.55
   2  -3 -13   25.35    4.64
  -2  -3  13   41.70    4.99
  -2  -3  13   25.88    4.35
   2  -3 -13   25.88    4.36
   2  -3 -12   12.31    3.84
  -2   3  12    9.54    3.36
  -2  -3  12    2.87    2.81
   2  -3 -12   15.48    4.12
  -2  -3  12   10.55    3.54
  -2  -3  12   14.00    4.19
  -2  -3  11   32.76    5.43
   2  -3 -11   24.59    4.53
  -2   3  11   29.35    4.61
  -2  -3  11   29.42    4.90
   2  -3 -11   25.87    4.45
  -2  -3  11   11.29    3.02
   2  -3 -10    5.13    3.04
   2  -3 -10    2.16    3.36
  -2  -3  10    4.55    2.97
  -2  -3  10    7.38    3.57
   2  -3  -9    6.61    3.18
   2   3  -9    9.94    5.19
  -2  -3   9   10.61    3.35
  -2  -3   9    5.25    3.01
  -2   3   9   19.77    6.66
   2  -3  -9    5.68    3.35
  -2  -3   9   10.38    4.19
  -2  -3   9   13.82    3.93
  -2   3   9    1.10    4.39
  -2  -3   8    6.47    2.94
   2   3  -8   13.03    6.04
  -2   3   8    5.39    3.60
   2  -3  -8    4.02    3.34
  -2  -3   8    7.61    2.98
  -2  -3   8   11.86    4.54
   2  -3  -8   11.60    5.38
  -2  -3   8    4.33    2.57
  -2   3   8    6.08    3.03
   2   3  -7   70.74    9.79
   2   3  -7   62.32    9.99
  -2   3   7   71.99    9.10
  -2  -3   7   73.45   10.14
   2  -3  -7   85.85   10.23
  -2  -3   6   21.54    5.77
   2   3  -6   17.35    6.79
   2   3  -6   13.83    5.25
  -2   3   6    9.00    3.31
   2  -3  -6   16.39    5.33
   2   3  -5    1.89    5.40
   2  -3  -5    5.46    4.86
   2  -3  -5    2.34    4.03
   2   3  -5   12.91    6.24
  -2   3   5    0.34    3.50
  -2  -3   5    1.03    2.76
  -2  -3   4    3.58    2.41
   2   3  -4    5.04    4.66
  -2   3   4    3.84    3.56
   2  -3  -4    7.96    4.68
   2  -3  -4    6.13    4.04
   2   3  -3    4.53    5.44
  -2  -3   3    7.60    3.60
  -2   3   3    8.48    4.29
   2  -3  -3   11.53    5.04
   2  -3  -2   12.94    5.28
  -2  -3   2   11.89    4.20
  -2   3   2   11.83    4.54
  -2  -3   1    2.27    2.82
   2  -3  -1   -0.41    3.69
   2  -3  -1   -0.79    3.22
   2  -3   0   -1.47    3.31
  -2  -3   0    0.52    3.92
   2  -3   0    1.76    2.85
  -2  -3   0   -0.81    2.89
   2   3   0   -1.27    3.15
  -2  -3  -1    1.43    3.61
  -2   3  -1   -0.08    4.94
   2  -3   1   -0.01    2.47
   2   3   1    2.50    2.70
   2  -3   2   13.30    4.61
  -2  -3  -2    9.25    4.68
   2   3   2    9.70    3.99
  -2  -3  -3    0.67    3.75
  -2   3  -3    0.18    5.06
   2   3   3   -2.59    3.04
  -2  -3  -3   -0.54    4.24
   2  -3   3   -0.79    3.08
  -2   3  -4   20.97    5.98
  -2  -3  -4   31.00    6.94
   2  -3   4   32.52    6.75
   2   3   4   33.29    6.63
  -2  -3  -4   37.36    6.84
   2   3   4   32.93    6.09
  -2  -3  -5   19.85    6.14
   2   3   5   17.21    4.60
  -2   3  -5    8.65    5.45
   2   3   5   13.53    4.52
   2  -3   5   18.32    5.50
  -2  -3  -5   22.79    5.84
   2  -3   6    0.28    3.33
   2   3   6    1.07    3.18
  -2  -3  -6   -4.32    4.33
   2   3   6   -2.40    4.10
  -2   3  -6   -5.39    7.11
  -2  -3  -6    0.92    3.87
  -2  -3  -7    2.99    4.01
  -2  -3  -7   12.77    5.06
  -2  -3  -7   -1.77    3.55
   2  -3   7    5.60    3.16
   2  -3   7    7.33    3.84
   2   3   7    5.16    3.73
   2  -3   7    0.79    3.41
  -2  -3  -7    5.28    2.80
  -2   3  -7    0.86    6.44
  -2  -3  -7    6.80    2.98
   2   3   7    6.92    4.25
  -2  -3  -8    9.89    3.35
   2  -3   8   13.59    4.97
   2  -3   8   12.64    3.67
  -2   3  -8    4.44    5.67
  -2  -3  -8    1.39    3.13
   2  -3   8   14.12    4.24
   2   3   8   15.99    4.93
  -2  -3  -8    8.73    2.85
   2  -3   9    8.40    2.83
   2  -3   9   11.20    4.23
  -2  -3  -9   10.08    3.46
   2  -3   9    7.51    3.46
  -2  -3  -9    9.80    3.27
  -2  -3  -9    9.93    2.91
  -2  -3 -10   30.87    4.53
   2  -3  10   32.59    4.13
   2  -3  10   35.09    5.35
   2  -3  10   42.96    5.74
  -2  -3 -10   38.57    5.79
  -2  -3 -10   32.24    4.84
  -2  -3 -11   63.92    6.07
  -2  -3 -11   91.81    7.18
   2  -3  11   95.60    7.81
   2  -3  11   85.03    7.55
  -2   3 -11   74.54    6.92
  -2  -3 -11   82.63    7.60
   2  -3  11   48.33    5.10
  -2  -3 -12    8.75    2.94
   2  -3  12    4.61    2.89
  -2  -3 -12    9.64    3.24
  -2   3 -12   16.00    3.67
   2  -3  12    7.50    3.85
  -2  -3 -13   30.85    3.89
  -2   3 -13   30.18    3.65
  -2  -3 -13   26.71    3.92
   2   3  13   22.43    3.59
   2  -3  13   24.45    3.82
   2  -3  14   30.79    4.27
  -2  -3 -14   37.16    4.29
   2   3  14   35.41    3.68
  -2  -3 -14   41.35    4.03
  -2   3 -14   40.49    3.64
   2   3  15   34.36    3.42
  -2   3 -15   30.11    3.26
  -2  -3 -15   33.71    3.53
   2   3  15   32.09    3.19
  -2   3 -15   43.18    3.28
   2  -3  15   32.11    3.78
  -2   3 -16   -0.47    1.40
   2   3  16    4.73    1.89
  -2  -3 -16    2.85    2.10
  -2   3 -16    2.21    1.36
   2   3  16    1.50    1.44
   2  -3  16    3.35    1.89
   2  -4 -12    1.85    1.76
  -2  -4  12    1.40    1.58
  -2   4  12    2.63    1.87
  -2  -4  11    7.23    1.99
   2  -4 -11    6.96    1.37
  -2   4  11    4.05    1.82
   2  -4 -11    8.89    2.45
   2  -4 -10    1.85    1.21
   2  -4 -10    4.88    2.37
  -2  -4  10    0.70    1.94
  -2  -4  10    4.33    2.04
  -2  -4   9   36.12    3.95
   2  -4  -9   41.77    4.32
   2  -4  -9   29.06    2.58
   2  -4  -8    9.63    2.56
  -2  -4   8   10.41    2.70
   2  -4  -8    7.43    1.91
   2  -4  -7    1.97    1.79
   2  -4  -7    6.26    2.71
   2  -4  -6   -2.66    2.10
  -2  -4   6    2.26    2.17
   2  -4  -6    0.09    2.14
   2  -4  -5    5.99    2.84
   2  -4  -5    9.13    2.33
  -2  -4   5    9.39    2.78
   2  -4  -4    2.40    2.77
  -2  -4   4    3.37    2.07
  -2  -4   3   15.65    3.14
   2  -4  -3   14.69    3.48
  -2  -4   2    9.69    2.76
   2  -4  -2   10.80    3.63
   2  -4  -2   55.41    4.86
  -2  -4   2   42.32    3.98
   2  -4  -1   33.52    4.18
  -2  -4   1   27.68    3.49
  -2  -4   0    5.19    2.16
   2  -4   0    2.60    2.82
   2  -4   1   40.06    5.23
  -2  -4  -1   36.29    3.27
   2  -4   2   -0.86    2.55
  -2  -4  -2   -6.86    2.60
  -2  -4  -3   20.09    2.56
   2  -4   3   29.42    4.53
  -2  -4  -4   -3.64    2.31
   2  -4   4    0.10    2.52
   2  -4   4   -0.15    2.41
  -2  -4  -5   -0.03    2.19
   2  -4   5    3.32    2.16
   2  -4   5    3.24    2.19
   2  -4   6    2.82    2.05
  -2  -4  -6   -1.70    2.31
   2  -4   6    2.24    2.37
   2  -4   7   11.20    2.78
   2  -4   7    8.64    2.72
  -2  -4  -8   -3.74    2.10
   2  -4   8    2.11    2.20
  -2  -4  -9   19.57    2.09
   2  -4   9   22.47    2.54
  -2  -4 -10   -0.28    1.42
   2  -4  10    5.53    1.58
   2  -4  10    1.48    1.85
  -2  -4 -11    1.33    1.28
   3   0 -23    0.59    1.28
  -3   0  22    4.14    2.25
   3   0 -22    5.13    1.43
  -3   0  22    2.34    1.99
   3   0 -21    0.50    1.34
  -3   0  21    1.59    3.25
  -3   0  21    1.19    2.40
   3   0 -20   63.04    5.03
  -3   0  20   62.17    5.73
   3   0 -20   61.08    4.95
  -3   0  20   70.93    6.29
  -3   0  19    5.07    3.89
   3   0 -19   -0.47    1.66
  -3   0  19   -1.69    3.05
   3   0 -19   -0.99    2.02
   3   0 -18  206.18    9.94
   3   0 -18  211.27    9.64
  -3   0  18  220.04   11.23
  -3   0  18  215.77   11.47
   3   0 -17    0.97    1.84
  -3   0  17   -2.07    3.42
   3   0 -17    2.62    2.03
  -3   0  17    0.53    3.10
  -3   0  17   -0.12    3.30
  -3   0  17    2.37    2.09
   3   0 -17   -1.61    2.21
  -3   0  17   -2.38    3.03
  -3   0  16   64.36    8.15
  -3   0  16   62.32    8.79
  -3   0  15    2.12    2.91
  -3   0  15    1.38    3.39
   3   0 -15    1.58    3.80
  -3   0  14  991.14   29.43
   3   0 -14  910.37   33.68
  -3   0  14  972.64   30.59
  -3   0  13   -1.48    3.18
   3   0 -13   -0.44    3.35
  -3   0  12  400.95   17.89
   3   0 -12  423.75   21.44
   3   0 -12  386.13   18.20
  -3   0  11    1.62    2.70
   3   0 -11    3.19    4.09
   3   0 -11   -1.39    3.39
   3   0 -10  422.69   20.42
  -3   0  10  453.41   16.54
   3   0  -9   -2.44    3.69
  -3   0   9    0.64    2.49
  -3   0   9   -0.80    2.30
   3   0  -9   -1.67    3.09
  -3   0   8 1514.63   25.80
  -3   0   8 1476.06   26.79
   3   0  -8 1534.23   33.55
  -3   0   8 1579.09   28.80
  -3   0   7    0.55    2.40
   3   0  -7   -0.82    2.79
  -3   0   7    0.40    2.17
  -3   0   7   -0.66    2.23
   3   0  -7   -2.65    3.22
  -3   0   7    0.31    2.00
  -3   0   7   -0.41    2.01
  -3   0   6 8519.75   58.92
  -3   0   6 8754.85   86.02
  -3   0   5    0.08    2.35
  -3   0   5    2.35    2.63
  -3   0   4  153.94   11.72
   3   0  -4  157.37    9.37
  -3   0   3    0.50    2.27
   3   0  -3    1.39    2.28
   3   0  -2 2185.60   33.89
   3   0  -1    0.00    2.30
   3   0  -1   -0.48    2.36
   3   0   0 3056.78   43.55
  -3   0   0 3118.28   39.55
   3   0   1    1.49    2.80
  -3   0  -1    0.84    2.21
   3   0   2  299.88   14.74
  -3   0  -2  323.67   12.70
   3   0   2  273.79   11.29
   3   0   3    3.06    3.03
  -3   0  -3    1.05    1.83
   3   0   4 8798.16   60.33
  -3   0  -4 8611.07   70.94
  -3   0  -4 8812.50   62.99
   3   0   5    1.83    2.40
   3   0   5    0.49    2.58
   3   0   5    1.31    1.87
  -3   0  -5    1.75    2.76
   3   0   6 2829.01   35.48
   3   0   6 2839.71   38.23
  -3   0  -6 2875.84   41.68
  -3   0  -6 2937.11   41.27
   3   0   7   -0.41    2.06
  -3   0  -7    0.58    2.55
  -3   0  -7    2.32    4.01
   3   0   7   -2.95    3.10
  -3   0  -8  236.20   13.54
   3   0   8  234.41   12.02
   3   0   8  227.21   13.82
  -3   0  -8  228.61   13.73
  -3   0  -9    0.03    2.97
   3   0   9    1.49    2.50
   3   0   9    0.61    2.69
   3   0  10 1580.29   38.74
  -3   0 -10 1573.64   37.92
   3   0  10 1533.64   34.36
  -3   0 -11   -4.60    4.14
   3   0  11   -0.09    2.61
   3   0  11    0.67    2.69
   3   0  12 2773.52   51.56
  -3   0 -12 2797.10   54.67
   3   0  12 2751.65   56.42
  -3   0 -13    1.13    3.82
   3   0  13   -0.74    2.85
   3   0  13   -2.62    2.95
   3   0  14   21.39    5.58
   3   0  14   22.15    5.65
  -3   0 -14   25.07    6.34
   3   0  15    0.64    2.66
  -3   0 -15   -0.69    1.94
   3   0  15   -6.25    4.40
   3   0  15    5.87    4.12
   3   0  15   -5.54    3.74
   3   0  16 1016.04   22.37
  -3   0 -16  984.97   21.26
  -3   0 -17    1.84    1.87
  -3   0 -17   -1.08    1.81
   3   0  17    4.19    3.35
  -3   0 -18  497.68   13.06
   3   0  18  473.25   13.99
  -3   0 -18  513.62   13.46
  -3   0 -19   -0.94    1.58
  -3   0 -19   -1.08    1.31
   3   0  19   -0.06    2.32
   3   0  20    5.41    2.19
  -3   0 -20    6.84    1.61
  -3   1  22   55.44    4.07
   3  -1 -22   43.37    2.81
   3  -1 -22   47.90    3.12
   3   1 -22   45.97    2.95
   3  -1 -22   51.62    3.40
   3  -1 -21    1.18    1.44
   3  -1 -21    0.07    1.55
  -3  -1  21   -0.25    1.82
   3   1 -21   -0.82    1.66
  -3  -1  21    0.98    2.54
  -3   1  21    2.61    2.72
  -3   1  21   -3.15    2.11
   3  -1 -21   -0.15    1.34
   3  -1 -20  111.52    6.26
  -3   1  20  108.54    6.84
  -3  -1  20  108.10    7.44
   3   1 -20  111.64    6.01
  -3  -1  20  124.49    5.91
   3   1 -20  113.69    6.15
  -3   1  20  125.02    7.76
   3  -1 -20  122.58    7.18
   3  -1 -20  133.06    7.34
   3   1 -20   98.80    5.65
   3   1 -20  109.74    5.80
  -3   1  19    0.92    2.32
   3  -1 -19    0.75    1.70
   3   1 -19    1.00    1.75
  -3   1  19    0.18    3.42
  -3  -1  19   -2.02    3.50
   3   1 -19    0.76    1.92
  -3  -1  19    4.19    3.30
   3   1 -19    1.38    1.85
  -3  -1  19    0.47    1.29
   3  -1 -18    2.31    2.32
   3   1 -18    0.05    1.82
  -3  -1  18   -0.31    1.50
  -3   1  18    2.59    3.13
   3   1 -18    2.59    2.27
  -3  -1  18    2.04    3.39
   3   1 -18    1.99    2.14
  -3  -1  18    6.80    3.81
  -3  -1  17    1.13    1.63
   3   1 -17    1.46    2.07
  -3  -1  17   -0.42    3.56
  -3  -1  17    0.37    3.27
   3  -1 -17    2.24    2.08
  -3   1  17   -1.42    2.88
  -3  -1  16  469.78   16.57
   3  -1 -16  434.76   24.68
  -3  -1  16  494.18   16.95
  -3   1  16  589.56   17.95
  -3  -1  16  489.35   14.60
   3   1 -16  494.41   14.58
  -3   1  16  503.52   15.80
   3   1 -16  449.52   24.63
   3  -1 -16  486.92   15.80
  -3  -1  16  514.42   25.11
  -3   1  16  471.29   23.19
  -3   1  16  543.72   17.86
   3   1 -15    3.19    4.32
  -3   1  15    6.33    4.76
   3  -1 -15    0.43    3.97
  -3  -1  15    1.45    3.09
   3  -1 -14  162.09   15.96
  -3   1  14  160.49   12.55
  -3  -1  14  206.60   14.96
   3   1 -14  171.77   15.42
   3   1 -13  397.58   22.07
  -3  -1  13  418.69   20.79
  -3   1  13  382.05   18.35
   3  -1 -13  366.94   23.71
   3   1 -12   42.30    7.85
  -3  -1  12   47.54    7.22
   3  -1 -12   43.30    9.00
  -3   1  12   29.19    4.03
  -3  -1  11  199.61   13.35
  -3   1  11  221.83   14.03
   3   1 -11  214.83   15.13
   3  -1 -11  204.58   16.95
  -3   1  10  847.05   23.12
   3  -1 -10  863.19   30.22
  -3   1  10  595.57   22.12
   3   1 -10  748.01   26.32
  -3  -1  10  687.43   22.87
   3  -1  -9  483.05   21.25
  -3   1   9  428.74   17.21
  -3  -1   9  451.61   17.19
   3   1  -9  469.13   18.32
   3   1  -9  459.97   19.19
   3  -1  -8 1485.18   35.68
   3   1  -8 1407.00   32.42
  -3  -1   8 1353.77   27.28
  -3   1   8 1332.13   28.02
   3  -1  -8 1379.05   28.87
   3   1  -8 1437.53   30.49
   3   1  -7   65.81    6.63
   3  -1  -7   70.48    8.09
  -3  -1   7   64.54    6.05
   3  -1  -7   65.25    6.64
   3   1  -7   73.52    7.73
  -3   1   7   62.58    5.88
  -3   1   7   62.14    5.01
   3  -1  -6  762.08   23.67
   3   1  -6  745.09   18.88
   3   1  -6  767.94   21.71
  -3  -1   6  724.35   17.18
   3  -1  -6  785.82   21.48
  -3   1   6  727.85   17.41
   3  -1  -5  357.66   14.22
   3   1  -5  315.39   11.78
  -3   1   5  283.35   16.17
  -3   1   5  309.70   10.95
   3  -1  -5  331.47   14.46
  -3  -1   5  271.43   10.27
  -3  -1   4 2710.61   39.03
   3   1  -4 2469.42   33.73
  -3   1   4 2645.16   30.11
   3  -1  -4 2470.96   50.20
   3  -1  -4 2824.47   39.24
   3   1  -4 2453.26   39.18
   3   1  -4 3134.58   45.52
  -3   1   4 2949.93   49.00
   3  -1  -4 3074.45   39.85
   3  -1  -3  151.96    6.43
  -3  -1   3  173.74    9.43
   3   1  -3  192.18   12.24
  -3   1   3  176.54   12.39
   3  -1  -3  162.84   13.11
   3  -1  -3  192.69   10.10
  -3  -1   3  161.24   13.20
  -3   1   2  120.41    7.78
   3  -1  -2   96.90    5.17
   3  -1  -2   92.69   10.27
  -3  -1   2  100.07    6.59
   3  -1  -2  104.40    6.48
   3   1  -2  105.49    9.73
   3   1  -2  108.98    9.47
  -3  -1   2  101.23    6.81
  -3  -1   2   99.86    9.47
   3  -1  -2  109.09    7.70
   3   1  -1 1125.12   28.04
  -3  -1   1  974.76   19.28
  -3  -1   1 1004.10   19.81
  -3   1   1  983.95   19.37
   3   1  -1 1045.07   31.38
   3  -1  -1 1084.19   22.56
  -3  -1   1  969.01   27.58
  -3  -1   0   36.07    4.24
   3  -1   0   46.16    4.46
  -3  -1   0   40.70    4.41
  -3   1   0   48.18    5.00
  -3  -1   0   38.97    5.82
  -3   1   0   46.87    7.08
   3   1   0   46.40    7.62
   3  -1   0   50.04    5.29
  -3  -1  -1   73.45    5.57
   3   1   1   70.42    4.55
  -3   1  -1   77.91    8.77
  -3   1  -1   83.73    6.40
  -3   1  -1   74.12    9.31
   3  -1   1   80.80    6.10
  -3  -1  -1   84.90    6.06
   3  -1   1   77.51    6.45
  -3  -1  -1   78.24    7.16
   3   1   2 3462.88   35.97
  -3   1  -2 3305.15   35.20
  -3  -1  -2 3564.45   39.11
   3  -1   2 3430.94   39.29
   3  -1   2 3597.84   40.89
   3  -1   2 3364.98   35.06
  -3  -1  -2 3305.34   35.72
  -3   1  -3  266.55   14.91
   3   1   3  269.13   11.08
  -3  -1  -3  243.17   10.25
  -3   1  -3  260.56   10.23
  -3   1  -3  258.70   11.31
   3  -1   3  260.04   10.42
   3  -1   3  253.12   11.46
  -3  -1  -3  277.37   11.74
   3  -1   3  252.72   11.62
  -3  -1  -4 1139.88   24.44
   3  -1   4 1272.20   24.39
  -3   1  -4 1173.17   21.82
  -3  -1  -4 1313.04   27.12
   3   1   4 1237.59   25.40
   3   1   4 1284.53   22.22
   3  -1   4 1314.18   27.58
  -3   1  -4 1248.03   25.59
   3  -1   4 1051.39   23.41
  -3  -1  -5  210.05   12.27
  -3  -1  -5  212.74   12.13
  -3   1  -5  208.05    9.87
  -3  -1  -5  207.86   10.89
   3  -1   5  217.67   10.75
   3   1   5  216.31   10.55
   3  -1   5  228.99   12.45
  -3   1  -5  211.85   11.68
   3   1   5  198.55   11.09
   3  -1   6 1553.93   29.97
  -3  -1  -6 1330.00   31.82
   3   1   6 1210.36   28.39
   3   1   6 1213.38   26.58
  -3  -1  -6 1458.56   29.65
  -3  -1  -6 1651.29   34.81
   3  -1   6 1577.17   34.61
  -3   1  -6 1586.37   33.00
  -3  -1  -7  622.37   22.11
   3  -1   7  596.12   19.96
   3  -1   7  560.75   21.86
  -3  -1  -7  591.39   19.66
  -3   1  -7  632.37   22.39
   3   1   7  597.41   19.63
   3   1   7  594.03   20.99
   3   1   8 2040.78   40.27
   3   1   8 2122.38   38.32
  -3  -1  -8 1963.14   37.17
  -3   1  -8 2166.96   43.00
   3  -1   8 1625.37   39.38
  -3  -1  -8 1871.35   41.73
   3  -1   8 1958.65   38.24
   3   1   8 1776.84   37.85
  -3  -1  -8 1878.67   40.39
  -3  -1  -9  330.28   15.79
   3  -1   9  312.22   16.34
  -3  -1  -9  362.69   19.60
  -3  -1  -9  271.89   16.50
   3   1   9  301.30   16.28
   3  -1   9  312.59   18.38
   3   1   9  361.61   18.40
  -3   1  -9  362.72   19.04
   3   1   9  363.64   16.73
   3   1  10  337.74   16.69
   3  -1  10  298.15   16.65
   3  -1  10  316.81   19.20
  -3   1 -10  325.78   18.98
   3  -1  11  709.16   26.63
  -3   1 -11  743.18   29.01
   3   1  11  778.25   26.22
  -3   1 -11  759.14   29.86
   3  -1  11  762.24   30.89
  -3   1 -12  619.40   26.73
   3   1  12  676.13   25.27
   3  -1  12  626.59   26.38
   3  -1  12  631.12   29.14
  -3   1 -12  635.75   28.26
  -3   1 -13   17.77    5.68
   3  -1  13   20.17    5.95
  -3   1 -13   26.52    7.43
   3   1  13   21.92    5.10
   3  -1  13   24.97    6.37
   3  -1  14 1556.00   30.01
   3   1  14 1433.10   28.26
  -3   1 -14 1486.80   25.01
  -3  -1 -14 1497.80   26.94
  -3  -1 -14 1617.81   29.56
  -3   1 -14 1629.45   43.82
   3   1  14 1587.80   28.55
   3   1  14 1682.01   41.52
   3  -1  14 1638.25   47.40
   3   1  14 1678.88   46.89
   3  -1  14 1632.96   43.86
  -3   1 -14 1611.20   28.27
  -3   1 -14 1684.79   28.67
  -3   1 -14 1473.22   26.92
  -3  -1 -14 1536.28   27.73
   3   1  15   20.28    4.48
  -3  -1 -15   14.69    3.05
  -3  -1 -15   11.20    3.00
  -3   1 -15   14.76    3.43
  -3   1 -15   14.37    3.08
   3   1  15   12.64    3.46
  -3  -1 -15   15.89    3.45
   3  -1  15   13.97    4.30
  -3   1 -15   13.54    3.19
   3   1  15   14.26    4.16
  -3  -1 -16   65.04    5.76
  -3   1 -16   65.62    5.52
  -3  -1 -16   65.77    5.58
   3   1  16   63.94    5.65
   3  -1  16   62.26    6.89
  -3   1 -16   58.09    5.10
   3   1  16   61.92    6.16
  -3   1 -16   65.79    5.28
   3   1  16   66.39    6.40
  -3   1 -17   80.27    5.72
  -3   1 -17   75.98    5.43
   3   1  17   72.93    5.61
  -3  -1 -17   82.99    5.94
   3   1  17   94.46    6.66
  -3   1 -18  348.90   10.47
  -3  -1 -18  336.17   10.46
   3  -1  18  353.85   11.73
   3   1  18  332.74   10.04
   3   1  18  340.78   10.90
   3   1  18  300.52   10.03
  -3   1 -18  292.21    9.14
  -3   1 -19    2.18    1.46
   3  -1  19    1.88    2.64
   3   1  19    0.87    1.78
   3   1  19    4.11    2.37
  -3  -1 -19    3.57    1.62
  -3   1 -20  460.30    8.60
  -3  -1 -20  412.73    8.15
   3   1  20  498.74    9.47
   3   1  20  364.00    7.85
   3  -1  20  383.09    8.68
   3  -2 -20   33.13    2.94
  -3   2  20   31.40    3.43
  -3  -2  20   36.81    3.58
  -3   2  20   28.71    3.38
  -3  -2  20   33.70    2.61
  -3   2  20   24.99    2.74
   3  -2 -20   29.40    2.68
   3   2 -20   30.56    2.65
   3   2 -20   33.04    2.77
  -3   2  19    2.70    2.57
  -3   2  19   -0.14    2.49
  -3   2  19    3.03    2.13
  -3  -2  19   -1.63    1.58
   3   2 -19    0.33    1.53
  -3  -2  19    0.25    2.49
   3  -2 -19    1.24    1.46
   3  -2 -19    1.60    1.75
   3   2 -19    0.92    1.86
   3  -2 -18   98.89    6.39
  -3   2  18   82.51    5.52
  -3   2  18  108.36    6.95
   3   2 -18   95.54    5.58
  -3  -2  18   91.86    5.43
   3  -2 -18   99.75    6.52
  -3  -2  18   83.22    5.90
  -3  -2  18  105.94    7.06
   3  -2 -18  103.50    6.64
  -3   2  18   97.25    6.91
  -3  -2  18  107.59    7.48
  -3   2  18   86.79    6.16
   3  -2 -17   39.50    4.58
  -3   2  17   33.74    5.02
  -3   2  17   38.58    5.16
  -3  -2  17   36.65    4.03
  -3  -2  17   38.70    5.23
  -3   2  17   34.29    4.65
  -3  -2  17   23.74    4.11
   3  -2 -17   40.00    4.63
  -3   2  17   43.93    4.74
   3  -2 -17   43.19    4.86
  -3  -2  17   36.66    5.70
   3  -2 -16    2.98    2.26
  -3   2  16    3.45    2.96
   3  -2 -16    9.80    3.10
  -3  -2  16   10.16    2.96
   3  -2 -16    6.29    2.53
  -3   2  16   18.76    4.15
  -3   2  16   -0.55    3.12
  -3  -2  16   -1.43    3.22
  -3  -2  16    2.60    3.72
   3  -2 -15  129.93    8.98
   3  -2 -15  119.23    8.23
   3  -2 -15  110.56    7.48
  -3  -2  15  109.90    7.21
  -3   2  15  114.29    8.46
  -3  -2  15  116.56    8.25
   3  -2 -15  118.25    8.42
  -3   2  15  114.12    8.58
  -3  -2  15   88.72    8.95
  -3  -2  15  111.53    9.04
   3  -2 -14  132.71    8.78
  -3  -2  14  101.54   13.50
   3   2 -14  144.53   15.76
  -3   2  14  167.87   10.19
  -3  -2  14  141.68    8.36
   3  -2 -14  145.00    8.78
   3  -2 -14  111.40   14.19
  -3   2  14  102.61   10.18
   3  -2 -14  143.86    9.46
  -3  -2  14  140.60    9.78
   3   2 -14  143.74   13.24
  -3  -2  14  144.68   14.06
   3  -2 -14  148.45    9.79
  -3   2  14  149.59    9.81
  -3  -2  14  155.31   10.59
  -3  -2  13   81.89   10.36
   3   2 -13   96.66   12.35
   3   2 -13   89.42   11.41
   3  -2 -13   92.52   11.85
  -3   2  13   94.80   11.62
   3   2 -12  315.17   20.38
   3  -2 -12  302.85   20.73
  -3  -2  12  305.80   18.85
  -3   2  12  304.61   19.97
   3   2 -12  338.80   21.81
  -3  -2  11  386.06   21.23
   3  -2 -11  354.43   21.89
  -3   2  11  428.54   22.32
   3   2 -11  436.10   24.05
  -3   2  10    4.49    3.61
   3  -2 -10    0.98    2.70
   3   2 -10   -5.75    5.46
  -3  -2  10    0.55    3.55
   3  -2 -10   -3.29    3.68
  -3  -2   9  328.77   20.70
  -3   2   9  326.58   16.27
   3  -2  -9  292.73   18.38
   3   2  -9  350.10   20.71
  -3   2   9  313.33   17.01
   3  -2  -9  275.70   17.86
  -3  -2   9  346.73   18.37
   3  -2  -8  590.55   25.77
  -3  -2   8  639.62   27.39
  -3   2   8  647.94   22.64
  -3  -2   8  708.85   25.04
   3   2  -8  670.02   26.70
   3   2  -7   10.23    5.35
   3  -2  -7    1.88    2.91
  -3   2   7    4.04    3.05
  -3  -2   7    6.06    3.41
   3  -2  -6  526.48   18.72
  -3   2   6  568.42   19.98
   3  -2  -6  568.47   24.41
  -3  -2   6  563.12   23.74
   3   2  -6  585.67   23.49
  -3  -2   5   46.83    7.42
   3  -2  -5   50.50    6.16
  -3   2   5   50.80    6.21
   3  -2  -5   45.35    7.64
   3   2  -5   27.21    5.65
   3   2  -4   -5.89    4.61
   3  -2  -4    4.57    3.97
  -3   2   4    2.21    2.62
   3  -2  -4    2.43    2.78
  -3  -2   4    1.98    2.72
   3  -2  -3 1951.67   33.93
  -3  -2   3 1955.13   35.36
   3  -2  -3 2067.03   44.57
  -3  -2   3 1960.38   36.36
   3  -2  -2 1344.40   28.05
   3  -2  -2 1371.06   32.70
  -3  -2   2 1328.22   28.23
  -3   2   2 1263.55   30.98
  -3  -2   2 1354.40   28.77
  -3  -2   2 1299.75   25.33
   3  -2  -1    8.53    3.98
  -3  -2   1    8.13    2.49
  -3  -2   1    4.59    3.06
  -3   2   1   10.31    5.66
  -3  -2   1    7.70    2.53
   3  -2  -1    9.25    3.26
  -3  -2   1    8.16    2.86
  -3  -2   0 1463.66   31.54
   3  -2   0 1518.34   34.11
   3  -2   0 1539.14   37.36
   3  -2   1 1957.68   41.74
  -3  -2  -1 1946.40   37.52
   3  -2   1 2011.27   39.05
   3   2   1 2060.08   33.36
   3  -2   2    3.09    2.73
  -3   2  -2    6.17    4.46
   3  -2   2    6.81    2.92
  -3  -2  -2    5.02    3.29
   3  -2   2    8.06    3.54
   3   2   2    4.34    1.65
  -3   2  -3  215.90   13.05
   3  -2   3  216.53   13.31
   3   2   3  215.18   12.17
   3   2   3  216.60   11.06
  -3  -2  -3  198.12   12.87
   3  -2   3  212.81   14.02
   3  -2   4  911.96   30.01
   3   2   4  919.39   26.00
  -3   2  -4  841.30   25.86
  -3  -2  -4  898.70   27.73
   3  -2   4  891.81   27.36
   3   2   4  891.76   23.22
  -3  -2  -5    3.13    3.70
   3   2   5    0.89    3.61
  -3   2  -5   -0.86    5.11
   3  -2   5   -0.44    2.79
   3  -2   5    1.80    2.15
   3   2   5    0.11    2.43
   3  -2   6 1212.98   33.98
   3   2   6 1256.23   33.59
   3  -2   6 1192.58   33.43
  -3  -2  -6 1206.90   34.29
   3   2   6 1277.71   30.46
  -3   2  -6 1141.96   31.13
   3  -2   6 1166.05   36.41
  -3  -2  -7  667.78   26.19
  -3   2  -7  651.79   24.02
   3   2   7  643.72   25.42
   3  -2   7  655.44   25.56
   3  -2   7  656.96   25.85
   3  -2   7  644.75   28.11
   3   2   7  692.81   23.85
   3  -2   8   15.42    5.07
  -3  -2  -8    9.39    4.57
   3  -2   8   10.77    3.48
  -3   2  -8    7.79    4.15
   3   2   8    0.44    5.87
   3  -2   8    9.71    4.69
   3   2   8   12.37    4.49
   3   2   9  684.66   27.41
   3  -2   9  755.53   28.83
   3   2   9  695.41   26.21
   3  -2   9  727.97   29.14
  -3  -2  -9  677.42   27.58
   3   2  10  526.94   25.50
  -3  -2 -10  663.04   27.85
   3  -2  10  595.69   28.92
   3  -2  10  680.38   28.74
   3   2  10  769.50   29.48
  -3  -2 -11   41.25    7.42
   3  -2  11   50.90    8.40
   3  -2  11   41.43    8.18
   3   2  11   23.86    6.12
  -3  -2 -12  436.67   15.37
  -3  -2 -12  432.14   15.03
   3  -2  12  429.92   23.53
  -3   2 -12  371.43   14.85
   3  -2  12  439.49   25.66
   3  -2  12  440.78   17.17
  -3  -2 -12  379.85   14.86
  -3   2 -13  385.04   12.66
  -3  -2 -13  412.21   14.51
  -3  -2 -13  400.30   14.22
  -3   2 -13  370.42   13.96
  -3  -2 -14   11.53    2.87
   3  -2  14    5.92    4.17
  -3  -2 -14    7.28    3.17
   3   2  14    6.05    3.16
  -3   2 -14    6.64    2.19
  -3   2 -14   11.82    3.01
   3  -2  14    9.39    3.96
  -3  -2 -15  322.17   11.67
  -3  -2 -15  318.78   11.74
   3   2  15  328.13   11.41
  -3  -2 -15  365.49   13.05
  -3   2 -15  337.86   10.92
  -3   2 -15  321.20   10.90
   3  -2  15  352.44   12.91
  -3   2 -15  307.29   11.49
  -3  -2 -16  376.26   11.51
  -3   2 -16  383.95   10.73
  -3  -2 -16  400.88   11.92
   3   2  16  375.45   11.21
  -3   2 -16  366.45   11.39
  -3  -2 -16  421.13   12.65
   3  -2  16  381.98   12.80
  -3  -2 -17    1.87    1.64
  -3   2 -17    1.20    1.17
  -3   2 -17    1.24    1.76
  -3  -2 -17    1.81    1.84
  -3   2 -17   -1.41    1.80
   3   2  17    3.15    2.17
   3   2  17    0.10    2.33
   3  -2  17    1.84    2.80
  -3  -2 -18  198.87    6.23
  -3   2 -18  175.24    5.93
   3   2  18  168.83    5.43
   3   2  18  164.64    5.92
  -3  -2 -18  248.77    7.18
   3   2  18  202.71    6.89
   3  -2  18  217.25    7.55
   3   3 -18   11.61    1.72
  -3  -3  17   16.66    2.42
  -3  -3  17   19.75    2.81
  -3   3  17   17.33    2.65
   3   3 -17   23.74    2.13
   3  -3 -17   21.77    2.69
  -3  -3  17   14.28    2.19
  -3  -3  17   26.88    2.43
  -3   3  17   14.31    2.29
  -3   3  17   20.03    2.55
  -3   3  17   22.84    2.91
  -3   3  16    1.47    2.10
  -3  -3  16   11.81    2.52
  -3  -3  16    3.37    2.03
  -3   3  16    2.88    2.02
  -3  -3  16    1.64    2.01
   3  -3 -16    5.84    2.59
  -3  -3  16    2.61    2.10
   3  -3 -16    4.58    2.62
  -3   3  16    5.65    2.40
  -3   3  15    5.55    3.01
  -3  -3  15   29.63    4.02
  -3  -3  15    5.80    2.64
  -3   3  15    6.14    2.48
   3  -3 -15   22.94    4.20
   3  -3 -15    9.96    3.80
  -3   3  15   16.37    3.68
  -3  -3  15    7.85    2.74
  -3  -3  15    4.34    2.71
  -3  -3  14   15.62    3.89
  -3  -3  14   14.24    3.49
  -3   3  14   27.20    4.38
   3  -3 -14   18.82    4.42
  -3  -3  14   15.89    3.58
  -3   3  14   17.47    3.92
  -3   3  13  310.53   12.51
   3  -3 -13  390.28   13.39
  -3  -3  13  322.86   12.08
  -3  -3  13  311.95   13.16
  -3  -3  13  375.64   12.46
   3  -3 -12    2.85    3.64
  -3   3  12    3.27    2.98
  -3  -3  12   -1.91    2.80
  -3  -3  12   -1.65    3.01
  -3   3  11  145.86    9.44
  -3  -3  11  132.00    8.49
  -3  -3  11  158.48   10.09
  -3  -3  10   97.91    8.25
   3  -3 -10   81.39    7.31
  -3  -3  10   79.24    7.40
  -3   3   9  146.40   12.29
  -3  -3   9  163.91   14.94
   3   3  -9  196.53   16.55
  -3  -3   9  151.19    9.95
  -3   3   9  218.85   16.26
   3  -3  -9  156.38    9.64
  -3  -3   9  135.10    8.90
  -3  -3   9  168.70   10.89
   3  -3  -8   -0.03    4.43
  -3   3   8   -4.34    4.28
  -3  -3   8    2.29    2.61
  -3  -3   8    4.48    3.53
   3   3  -8    3.23    5.24
  -3  -3   8   -0.56    2.84
  -3   3   8    0.88    3.68
   3  -3  -8   -2.35    3.95
  -3  -3   8    5.65    3.13
  -3  -3   7  596.74   27.63
   3  -3  -7  682.32   27.00
   3   3  -7  534.14   26.88
  -3   3   7  646.30   26.33
   3  -3  -7  492.85   27.47
   3  -3  -6    0.39    3.90
   3  -3  -6    1.46    4.17
   3   3  -6    9.15    5.23
  -3  -3   6   -0.97    3.17
  -3   3   6   -4.05    5.16
   3  -3  -5  265.29   20.05
   3   3  -5  314.12   18.33
  -3  -3   5  329.40   19.89
   3   3  -5  265.15   18.27
  -3   3   5  328.77   18.55
  -3  -3   4  142.40   12.93
   3   3  -4  134.78   11.96
  -3   3   4  163.07   13.32
   3  -3  -4  125.60   14.17
  -3  -3   3  157.90   13.37
   3  -3  -3  141.29   14.80
  -3   3   3  157.13   13.25
  -3   3   2  320.44   23.87
   3  -3  -2  207.71   17.26
   3  -3  -1 1315.64   43.18
  -3  -3   0  270.90   16.09
   3  -3   0  227.76   17.55
  -3  -3  -1  306.26   17.19
  -3   3  -1  282.64   18.45
   3  -3   1  262.37   18.85
   3   3   2  204.82   14.33
  -3  -3  -2  226.60   15.36
  -3   3  -2  234.66   17.50
   3  -3   2  211.61   17.00
   3   3   3  324.89   18.41
  -3   3  -3  357.28   20.73
   3  -3   3  345.33   21.63
  -3  -3  -3  363.53   19.47
  -3  -3  -3  325.66   19.61
  -3  -3  -4    7.87    4.13
  -3  -3  -4   -1.64    3.57
   3   3   4    3.16    4.41
  -3   3  -4    4.86    5.45
   3  -3   4   -0.04    2.80
   3   3   5 1148.45   35.23
  -3  -3  -5 1207.07   36.15
  -3   3  -5 1235.12   38.22
   3  -3   5 1161.59   39.64
  -3  -3  -6   12.54    4.65
  -3  -3  -6   11.85    5.22
   3  -3   6    8.12    3.32
  -3   3  -6    8.59    5.44
   3   3   6    9.89    3.90
   3  -3   6    7.05    3.35
   3  -3   6   11.08    4.09
  -3  -3  -6   10.34    3.21
  -3  -3  -6   10.77    3.53
  -3   3  -7  384.33   21.92
   3  -3   7  334.61   13.83
   3   3   7  340.92   19.33
   3  -3   7  381.40   22.94
   3  -3   7  390.04   15.67
   3  -3   7  346.38   14.87
  -3  -3  -7  310.73   13.80
  -3  -3  -7  325.08   14.37
  -3  -3  -8  145.27    9.02
  -3   3  -8  126.73    8.44
  -3  -3  -8  101.55    7.54
   3  -3   8  134.31    8.40
   3  -3   8  166.08   10.55
  -3  -3  -8  116.26    8.55
   3  -3   8  132.64    9.52
  -3  -3  -8  131.80    8.99
  -3  -3  -9  245.03   11.38
  -3  -3  -9  236.47   10.89
  -3  -3  -9  240.78   11.98
  -3  -3 -10    7.87    2.56
   3  -3  10    8.45    4.16
  -3  -3 -10    5.56    2.77
   3  -3  10    5.96    3.83
  -3  -3 -10    8.58    3.43
  -3  -3 -11  680.62   18.77
  -3  -3 -11  746.28   19.31
   3  -3  11  689.64   19.18
  -3  -3 -11  729.21   17.97
  -3   3 -11  658.05   17.19
   3  -3  12   41.67    5.65
  -3  -3 -12   56.97    5.90
  -3   3 -12   36.51    4.30
   3  -3  12   33.41    4.49
  -3  -3 -12   52.77    5.25
   3   3  12   39.50    4.30
  -3   3 -13  111.48    5.74
  -3  -3 -13  105.03    6.59
   3  -3  13   81.60    5.74
  -3   3 -13   75.31    4.98
   3   3  13  100.63    5.99
  -3   3 -14   82.90    4.54
   3  -3  14   58.53    5.05
  -3   3 -14   57.77    4.51
   3   3  14   69.42    4.55
  -3  -3 -14   69.21    4.66
  -3   3 -14   51.95    3.59
   3  -3  14   51.55    4.02
   3  -3  15  104.05    5.58
  -3  -3 -15   99.41    4.68
   3   3  15  113.50    5.20
   3   3  15  109.83    4.78
   3  -4 -12    5.94    2.02
  -3  -4  12    4.40    1.76
  -3   4  12   41.43    4.56
  -3  -4  12   32.87    2.92
  -3   4  12   10.13    2.49
   3  -4 -11  110.83    5.47
  -3  -4  11  110.27    5.44
  -3   4  11  118.39    6.21
   3  -4 -10   41.24    2.62
  -3  -4  10   35.18    3.61
   3  -4 -10   19.78    2.71
   3  -4 -10   19.69    2.94
  -3  -4  10   21.01    2.86
  -3   4  10   20.84    3.31
   3  -4  -9  175.67    7.68
   3  -4  -9  179.46    8.19
  -3  -4   9  170.78    7.17
  -3  -4   9  179.01    7.64
  -3   4   9  179.14    8.58
   3  -4  -8   12.69    2.92
  -3  -4   8   15.29    2.84
  -3   4   8   16.53    3.34
   3  -4  -7    1.86    2.28
   3  -4  -7   12.22    2.43
   3  -4  -6   30.06    3.43
   3  -4  -6   12.35    3.43
   3  -4  -5  348.05    9.30
   3  -4  -5  335.49   13.59
  -3  -4   4    0.86    2.09
   3  -4  -4    2.33    2.84
   3  -4  -3  351.01    9.51
   3  -4  -3  369.26   14.81
   3  -4  -2   97.73    5.72
   3  -4  -2   21.15    4.62
  -3  -4   1   22.01    3.07
   3  -4  -1    2.77    2.83
  -3  -4   0   21.00    2.81
   3  -4   0   18.42    4.18
  -3  -4  -1  286.50    8.32
   3  -4   1  342.39   13.88
  -3  -4  -2   -4.18    2.26
   3  -4   2   -0.70    2.60
  -3  -4  -3  414.21    9.93
   3  -4   3  487.42   15.45
  -3  -4  -4    3.54    1.81
   3  -4   4    9.05    2.94
   3  -4   4    5.93    2.70
  -3  -4  -5   -4.72    2.32
   3  -4   5    0.32    2.03
   3  -4   5   -3.19    2.49
   3  -4   6    7.00    2.64
  -3  -4  -6    1.09    1.84
   3  -4   6    7.99    2.38
   3  -4   7  327.40    9.77
   3  -4   7  379.58   11.51
  -3  -4  -8    1.03    1.57
   3  -4   8   -1.01    1.87
   3  -4   8    3.47    2.16
  -3  -4  -9  255.93    6.28
   3  -4   9  250.37    6.47
   3  -4   9  274.88    8.67
  -3   4  -9  253.40    7.44
  -3   4 -10    4.25    1.49
  -3  -4 -10    3.05    1.27
   3  -4  10    3.31    2.06
   4   0 -23    0.93    1.32
  -4   0  22    2.61    2.15
  -4   0  22   -1.32    2.12
  -4   0  21    6.79    2.86
  -4   0  21    3.57    2.77
  -4   0  20  552.46   15.75
  -4   0  20  601.72   14.67
   4   0 -20  545.26   13.98
  -4   0  20  568.26   15.61
   4   0 -19   34.89    4.57
  -4   0  19   23.64    4.66
  -4   0  19   24.53    3.61
  -4   0  19   23.22    5.13
   4   0 -19   20.42    3.44
  -4   0  18 1460.29   28.75
  -4   0  18 1463.74   26.11
   4   0 -18 1421.52   25.63
   4   0 -18 1400.27   24.93
  -4   0  17   12.83    4.24
   4   0 -17    7.97    2.68
  -4   0  17    7.09    2.75
   4   0 -17    9.35    3.00
  -4   0  17   10.43    4.54
   4   0 -17    9.44    3.01
  -4   0  17   12.03    4.17
   4   0 -16   59.35   10.02
  -4   0  16   76.33    9.10
  -4   0  16   81.88    9.31
  -4   0  15   14.59    5.44
   4   0 -15    6.58    4.76
  -4   0  14 2080.90   43.03
  -4   0  14 2045.11   43.63
   4   0 -13   65.14   11.17
  -4   0  13  257.97   15.67
   4   0 -12 3022.46   58.52
  -4   0  12 3006.29   47.40
   4   0 -11    7.26    4.13
  -4   0  11    5.99    3.05
   4   0 -11    7.18    4.36
  -4   0  10   40.42    5.95
   4   0 -10   47.32    7.46
   4   0 -10   44.03    6.32
  -4   0  10   45.42    5.99
  -4   0  10   47.86    5.41
   4   0  -9  145.97   13.11
  -4   0   9  134.01   12.80
  -4   0   9  154.12   10.57
  -4   0   9  162.70   11.56
   4   0  -9  131.98    9.53
  -4   0   9  117.44   11.59
  -4   0   8 3869.48   48.21
  -4   0   8 3481.94   50.90
  -4   0   8 3832.37   45.95
   4   0  -8 3424.55   42.38
  -4   0   8 3596.39   38.94
   4   0  -8 3682.05   52.12
  -4   0   7  141.46   12.21
  -4   0   7  245.16   15.23
   4   0  -7  213.75   12.79
   4   0  -7  117.17    8.02
  -4   0   7  207.96   11.33
  -4   0   6 3026.39   38.35
  -4   0   6 3153.57   50.44
   4   0  -6 3068.72   41.57
  -4   0   6 3124.52   42.48
  -4   0   6 3133.77   36.58
  -4   0   6 3144.57   38.68
  -4   0   5   14.17    3.36
  -4   0   5   11.14    4.26
  -4   0   5   15.70    5.68
  -4   0   5   19.74    4.73
   4   0  -5   10.40    4.30
  -4   0   5   14.80    3.47
  -4   0   5   13.15    4.86
   4   0  -5    9.91    4.29
  -4   0   4   15.03    3.11
   4   0  -4   13.72    2.68
  -4   0   4   17.17    4.00
   4   0  -4   19.34    3.58
  -4   0   4   17.57    4.93
  -4   0   4   23.30    4.66
  -4   0   4   24.18    3.35
   4   0  -4   19.99    4.44
   4   0  -3  341.74   12.19
   4   0  -3  366.74   18.91
   4   0  -3  409.93   20.71
  -4   0   3  410.10   13.03
  -4   0   3  353.00   19.77
   4   0  -2 9635.27   85.02
  -4   0   2 9604.14   85.67
   4   0  -1  758.94   27.65
   4   0  -1  547.38   15.71
  -4   0   0 5033.63   41.04
   4   0   0 5119.60   45.10
  -4   0  -1    2.05    1.96
   4   0   1    0.37    2.16
  -4   0  -1    2.43    1.79
   4   0   1    2.19    2.73
   4   0   1    1.55    2.75
  -4   0  -1    1.95    2.30
   4   0   2  305.85   14.00
   4   0   2  349.60   18.65
  -4   0  -2  324.96   13.04
   4   0   2  271.73   11.74
  -4   0  -2  249.93    9.88
  -4   0  -2  330.00   14.91
   4   0   3  147.65    9.45
   4   0   3  143.01   11.04
  -4   0  -4 3173.40   41.28
   4   0   4 3137.27   40.94
  -4   0  -5  228.56   14.00
   4   0   5  186.04   13.32
  -4   0  -6 3050.00   45.26
   4   0   6 2956.96   45.11
   4   0   6 3042.05   43.82
   4   0   7    0.90    2.47
  -4   0  -7    0.54    3.01
   4   0   7    2.47    2.70
  -4   0  -8  175.34   12.34
   4   0   8  172.32   10.48
   4   0   8  170.90   12.43
   4   0   9  128.77   10.88
   4   0   9   94.94   10.46
  -4   0 -10 3800.18   61.94
   4   0  10 3795.17   63.99
   4   0  10 3737.76   54.83
  -4   0 -11  119.34   12.86
   4   0  11   66.52   10.19
  -4   0 -12  862.01   31.55
   4   0  12  856.69   32.43
  -4   0 -13    3.64    3.64
   4   0  13   -0.22    2.85
  -4   0 -14  494.73   25.37
  -4   0 -14  425.72   14.23
   4   0  14  417.65   15.59
  -4   0 -14  378.73   15.36
   4   0  14  433.11   14.99
   4   0  14  471.38   25.36
   4   0  14  432.51   15.09
  -4   0 -15   75.90    6.97
  -4   0 -15   87.98    7.59
   4   0  15   81.52    8.75
   4   0  15   67.14    6.67
  -4   0 -16 1084.46   20.81
   4   0  16 1043.94   23.44
  -4   0 -16 1168.32   23.23
   4   0  16 1118.04   22.29
   4   0  16 1127.35   22.34
  -4   0 -17   34.78    4.45
   4   0  17   25.08    4.28
   4   0  17   19.26    3.77
  -4   0 -17   25.86    3.53
  -4   0 -18  246.53    8.44
   4   0  18  247.32    9.29
  -4   0 -18  225.39    8.32
  -4   0 -19    0.64    1.34
  -4   0 -19   -0.71    1.14
   4   0  19   -0.48    2.08
   4   0  20   25.05    2.72
   4  -1 -22  412.87    9.37
   4   1 -22  392.49    8.35
   4  -1 -22  413.99    9.27
   4  -1 -21   65.15    4.70
  -4   1  21   63.84    5.18
  -4  -1  21   45.49    3.69
  -4   1  21   53.53    4.41
   4  -1 -21   63.77    4.76
  -4  -1  21   45.52    4.65
  -4  -1  21   30.20    3.61
   4   1 -21   40.90    3.39
   4   1 -21   62.15    4.17
  -4   1  20  141.91    8.33
  -4  -1  20  107.54    6.70
  -4   1  20  121.40    7.20
  -4  -1  20  119.47    7.74
  -4  -1  20  135.76    6.52
   4  -1 -20  139.54    7.70
   4   1 -20  130.41    6.61
   4  -1 -20  145.08    7.93
   4   1 -20  111.67    6.19
  -4  -1  19  256.92    9.59
  -4   1  19  246.17   11.00
   4   1 -19  249.41    9.62
  -4  -1  19  267.61   10.84
   4   1 -19  254.53    9.77
  -4  -1  19  249.31   11.40
  -4   1  19  284.09   12.10
  -4   1  18  436.69   15.60
  -4   1  18  393.99   14.56
  -4  -1  18  393.53   12.69
   4   1 -18  379.14   12.43
  -4  -1  18  355.62   14.59
   4   1 -18  395.17   12.79
  -4  -1  18  332.21   13.61
  -4   1  17   73.90    7.55
  -4  -1  17   57.30    5.52
   4   1 -17   66.39    6.12
  -4  -1  17   54.63    6.67
  -4   1  17   59.13    6.57
   4   1 -17   74.70    6.49
  -4   1  17   82.28    7.29
  -4  -1  17   55.04    6.71
  -4   1  16 1224.42   27.38
   4  -1 -16 1200.70   41.67
   4   1 -16 1287.07   23.32
  -4  -1  16 1328.55   24.25
  -4  -1  16 1207.56   26.35
  -4  -1  16 1192.66   26.36
   4   1 -16 1148.08   39.59
  -4   1  16 1391.81   28.58
  -4   1  16 1252.66   36.91
   4   1 -15   70.23   10.92
  -4  -1  15   73.65    9.26
  -4   1  15   95.46   10.48
   4  -1 -14  242.43   19.28
  -4  -1  14  261.00   16.61
  -4   1  14  249.14   15.02
   4   1 -14  234.42   18.24
   4  -1 -13  180.58   17.07
  -4   1  13  165.48   11.13
   4   1 -13  182.22   15.30
  -4  -1  13  193.00   13.67
   4  -1 -12  985.01   36.28
  -4   1  12 1092.44   29.89
   4   1 -12  971.86   32.89
  -4  -1  12  960.89   28.61
  -4   1  12  984.93   29.61
   4   1 -11  408.66   21.40
  -4   1  11  443.12   19.04
  -4  -1  11  379.42   17.79
  -4   1  11  424.16   19.68
   4  -1 -11  417.29   23.18
  -4  -1  10 3997.68   51.57
   4   1 -10 4170.80   60.37
   4  -1 -10 4204.38   67.59
   4   1 -10 4040.66   60.76
   4   1  -9  120.95   11.64
  -4   1   9  265.77   14.90
   4  -1  -9  215.41   15.89
   4   1  -9  139.80   14.36
   4   1  -8 1366.96   31.14
   4  -1  -8 1386.89   36.15
   4   1  -8 1353.68   32.40
  -4   1   8 1368.78   28.12
  -4  -1   7 1076.08   30.15
   4   1  -7 1026.47   26.40
   4  -1  -7 1105.45   31.01
   4   1  -7 1083.53   27.66
  -4   1   7 1087.76   22.92
   4  -1  -7 1083.49   26.80
  -4  -1   6 1409.99   32.21
   4   1  -6 1356.17   28.52
   4  -1  -6 1329.17   32.76
   4  -1  -6 1433.10   29.99
  -4   1   6 1470.28   25.29
  -4   1   6 1346.33   23.81
  -4  -1   5  526.68   19.72
   4   1  -5  437.14   15.62
   4  -1  -5  555.80   20.86
  -4   1   5  456.44   15.06
  -4   1   5  523.95   14.78
  -4  -1   5  500.87   18.44
   4  -1  -5  536.90   18.30
  -4  -1   4 6458.76   60.74
   4  -1  -4 6689.28   62.95
   4  -1  -4 6138.55   60.91
  -4   1   4 6166.68   46.39
  -4   1   4 6900.18   58.37
  -4  -1   4 6453.61   61.13
   4   1  -4 6636.75   58.14
  -4  -1   3  873.60   22.34
  -4   1   3  880.80   16.95
  -4   1   3 1008.34   23.24
   4   1  -3  918.94   19.78
  -4  -1   3  896.98   22.32
   4   1  -3  925.72   29.18
   4  -1  -3  968.08   23.68
  -4  -1   2 1071.45   22.98
  -4  -1   2  985.43   32.51
   4   1  -2 1238.95   23.35
  -4  -1   2 1116.59   23.28
  -4   1   2 1186.16   25.56
   4  -1  -2 1157.63   25.60
   4  -1  -1  788.25   17.94
   4  -1  -1  812.86   18.38
  -4  -1   1  784.40   18.76
  -4  -1   1  770.33   20.03
   4   1  -1  865.66   20.58
  -4  -1   1  720.00   26.15
  -4   1   1  948.15   22.75
  -4  -1   1  802.58   19.08
   4  -1  -1  846.35   21.74
  -4   1   1  800.29   20.89
  -4  -1   0 2979.05   36.63
   4   1   0 3099.93   34.57
  -4  -1   0 3181.94   39.33
  -4   1   0 3161.58   39.23
   4  -1   0 2972.59   34.04
   4  -1   0 3111.22   36.68
   4   1   0 3329.22   42.20
  -4  -1   0 2963.68   50.29
  -4  -1   0 2687.34   33.59
  -4   1   0 3544.48   45.69
   4  -1   0 3078.47   42.11
   4   1   1  811.53   19.37
   4   1   1  963.98   20.21
  -4   1  -1  930.25   20.40
   4   1   1 1043.20   25.21
  -4  -1  -1  854.93   23.24
  -4  -1  -1  904.59   20.62
  -4   1  -1  904.67   24.25
   4  -1   1  925.39   21.01
   4  -1   1 1042.71   24.64
   4   1   2 4952.45   46.75
  -4   1  -2 4994.94   45.89
   4   1   2 5278.43   57.10
   4  -1   2 5295.61   51.98
  -4  -1  -2 5492.33   53.98
   4  -1   2 5135.16   44.73
   4  -1   2 5365.41   55.39
   4   1   2 5155.69   43.94
  -4  -1  -2 5087.52   49.48
   4   1   3  507.43   16.93
   4   1   3  623.97   20.56
  -4  -1  -3  592.58   19.47
   4  -1   3  592.51   18.63
  -4   1  -3  567.10   16.07
   4  -1   3  508.00   17.70
   4  -1   3  621.44   16.85
   4  -1   4  405.64   14.52
   4   1   4  378.48   18.23
  -4  -1  -4  372.64   16.60
   4   1   4  397.69   17.22
   4  -1   4  375.02   15.96
  -4  -1  -5  821.63   23.28
  -4  -1  -5  840.89   25.46
   4   1   5  798.34   22.85
  -4  -1  -5  903.37   26.65
   4   1   5  921.07   26.70
   4  -1   5  931.36   26.61
   4  -1   5  962.65   23.38
  -4   1  -5  900.72   24.46
  -4  -1  -6 2192.91   38.28
   4   1   6 2242.45   39.50
  -4  -1  -6 2363.86   44.87
  -4   1  -6 2302.34   41.62
   4   1   6 2315.19   43.62
   4  -1   6 2310.21   44.75
   4  -1   6 2277.84   37.72
  -4  -1  -7  214.38   14.95
  -4  -1  -7  276.94   17.99
   4   1   7  224.37   14.95
  -4  -1  -7  263.19   16.31
   4   1   7  297.48   17.55
  -4   1  -7  335.46   18.11
   4  -1   7  248.83   16.17
   4  -1   7  389.62   17.04
  -4  -1  -8 3481.23   51.59
   4   1   8 3588.04   54.73
  -4  -1  -8 3211.03   56.52
   4   1   8 3222.56   53.92
  -4   1  -8 3615.53   58.27
   4  -1   8 3103.94   57.10
   4  -1   8 3396.05   51.71
  -4  -1  -8 3499.30   59.83
  -4  -1  -9  185.99   13.49
  -4  -1  -9  244.56   16.91
  -4  -1  -9  154.59   13.45
   4   1   9  184.96   13.87
   4  -1   9  208.76   13.77
   4  -1   9  180.05   15.10
  -4   1  -9  234.38   16.55
  -4   1 -10  347.53   20.43
   4  -1  10  312.89   20.07
   4  -1  10  313.23   17.48
  -4   1 -11  136.49   13.38
  -4  -1 -11  107.56   12.04
   4  -1  11  132.90   13.63
   4  -1  11  135.73   12.10
   4  -1  12  584.11   25.08
  -4   1 -12  581.54   26.53
   4  -1  12  610.82   29.01
  -4   1 -13  144.71    9.13
   4   1  13  121.65    9.32
  -4  -1 -13  111.64    8.47
  -4   1 -13  147.09    9.69
  -4  -1 -13  126.95    8.78
   4   1  13   94.34   11.62
   4   1  13  116.34    9.11
   4  -1  13   80.48   11.09
  -4   1 -13  102.94    8.77
  -4   1 -13  100.64   11.76
  -4   1 -13  124.89    7.90
   4  -1  13  115.89    9.16
  -4   1 -14 1132.91   23.08
  -4  -1 -14 1111.26   22.83
  -4   1 -14 1231.16   24.57
   4   1  14 1197.86   24.91
  -4   1 -14 1089.99   21.14
  -4  -1 -14 1124.29   23.28
  -4   1 -14 1194.63   24.33
   4  -1  14 1181.85   25.88
   4   1  14 1171.58   24.34
  -4  -1 -14 1202.17   25.46
  -4  -1 -15  126.70    7.59
  -4   1 -15  133.99    7.90
   4   1  15  124.14    8.52
  -4   1 -15  124.68    7.25
  -4   1 -15  144.64    8.55
  -4  -1 -15  127.27    7.88
   4   1  15  106.24    7.15
   4  -1  15  125.97    9.02
   4   1  15  134.54    9.02
  -4   1 -15  143.12    8.38
  -4  -1 -15  125.11    8.21
  -4   1 -16  116.83    6.81
  -4  -1 -16  116.83    7.42
   4   1  16  126.05    8.19
   4  -1  16  108.57    8.17
  -4   1 -16  108.89    6.41
  -4  -1 -16  113.68    6.79
   4   1  16  117.89    7.57
  -4  -1 -16  117.89    6.88
   4   1  16  101.84    6.38
  -4   1 -17  226.15    8.58
  -4  -1 -17  228.25    8.56
  -4  -1 -18  236.01    7.61
  -4   1 -18  237.79    7.61
   4   1  18  223.94    7.47
   4   1  18  247.70    8.60
   4  -1  18  245.97    9.06
  -4  -1 -19    8.22    1.44
  -4   1 -19   20.44    2.09
   4   1  19   16.77    2.67
   4  -1  19    9.06    2.49
   4   2 -21   85.46    3.47
  -4   2  21   51.79    3.63
   4  -2 -20  354.42    8.10
  -4   2  20  331.79    9.77
  -4  -2  20  377.68    8.52
   4   2 -20  355.47    7.93
   4  -2 -20  368.96    9.54
   4   2 -20  388.42    8.79
  -4  -2  20  399.43   10.13
   4  -2 -19   13.54    2.35
  -4   2  19   25.04    3.75
  -4  -2  19    6.87    1.81
   4   2 -19   17.38    2.52
  -4  -2  19   18.71    3.73
   4  -2 -19   24.50    3.43
  -4   2  19   17.19    3.60
  -4   2  19    8.88    2.34
   4   2 -19   13.57    2.72
  -4   2  19   13.14    2.86
  -4   2  18  403.02   12.33
   4  -2 -18  403.39   13.25
  -4   2  18  319.07   11.41
  -4  -2  18  373.09   10.99
   4   2 -18  374.17   10.46
   4  -2 -18  387.12   12.59
  -4  -2  18  413.41   13.30
  -4   2  18  313.92   10.40
  -4   2  18  380.64   13.25
   4  -2 -18  359.97   11.16
  -4  -2  18  307.89   10.85
   4  -2 -17  328.46   11.71
  -4   2  17  328.54   12.59
  -4   2  17  346.77   12.59
  -4   2  17  346.87   13.57
  -4  -2  17  347.87   11.43
   4   2 -17  347.47   10.76
   4  -2 -17  358.18   13.11
  -4  -2  17  387.51   13.68
  -4   2  17  342.53   11.73
   4  -2 -17  378.23   13.84
  -4  -2  17  284.30   11.97
   4  -2 -16   23.35    3.87
  -4   2  16   30.92    5.05
  -4  -2  16   29.49    4.28
   4  -2 -16   36.35    5.16
  -4   2  16   27.12    5.12
   4  -2 -16   32.07    5.08
  -4  -2  16   25.78    5.14
  -4   2  16   20.68    4.48
  -4  -2  16   25.58    5.57
  -4  -2  16   21.57    4.17
   4  -2 -16   36.21    5.19
  -4  -2  16   22.90    4.76
   4  -2 -15  487.11   15.75
  -4   2  15  579.41   18.08
  -4  -2  15  550.38   17.70
  -4  -2  15  569.54   15.91
   4  -2 -15  567.33   18.05
  -4  -2  15  478.29   17.22
  -4   2  15  589.52   18.72
  -4   2  15  593.54   17.10
  -4  -2  15  574.92   18.79
  -4  -2  15  531.23   18.25
   4  -2 -15  589.88   19.11
  -4   2  14  430.35   16.00
   4  -2 -14  370.88   14.98
   4   2 -14  375.98   21.97
  -4  -2  14  389.00   15.08
   4  -2 -14  406.42   16.19
   4   2 -14  362.31   25.23
  -4   2  14  378.52   19.72
  -4   2  14  425.76   16.10
  -4  -2  14  414.30   14.03
  -4   2  14  426.66   15.13
   4  -2 -14  385.54   13.45
   4  -2 -14  332.13   22.62
   4  -2 -14  326.43   13.17
  -4  -2  14  398.08   16.13
  -4  -2  14  373.57   15.46
  -4  -2  14  455.53   16.32
   4   2 -13   35.23    8.86
   4  -2 -13   62.60   10.80
  -4  -2  13   44.34    9.51
   4  -2 -13   49.83    5.62
  -4   2  13   71.56   10.08
  -4  -2  12  599.44   30.53
  -4   2  12  662.80   28.30
   4  -2 -12  678.33   30.61
   4   2 -12  720.31   32.40
  -4  -2  11 1330.98   44.59
   4  -2 -11 1404.35   42.68
   4   2 -11 1563.82   45.54
   4  -2 -11 1204.70   37.42
  -4   2  11 1549.26   41.03
  -4  -2  10  139.63   14.78
   4  -2 -10  149.52   14.38
   4   2 -10  171.36   15.57
  -4  -2   9 1655.68   46.25
  -4   2   9 1710.60   38.38
   4  -2  -9 1368.72   40.02
   4  -2  -9 1419.61   40.27
   4   2  -9 1728.10   45.05
  -4  -2   8 1376.30   40.38
  -4   2   8 1387.79   33.11
   4   2  -8 1444.18   40.33
  -4  -2   7  169.00   14.57
   4  -2  -7  142.72   13.02
  -4   2   7  157.87   11.55
   4   2  -7  126.55   14.47
  -4  -2   6 1683.56   40.34
   4  -2  -6 1492.85   31.06
  -4   2   6 1585.75   33.70
   4   2  -6 1676.22   40.85
   4  -2  -6 1443.41   39.37
  -4  -2   5 1344.18   34.89
   4  -2  -5 1238.19   27.89
  -4   2   5 1349.21   30.57
   4   2  -5 1378.69   35.17
   4  -2  -5 1246.59   36.31
  -4  -2   4  217.63   13.85
   4  -2  -4  209.04   11.58
  -4  -2   4  171.22   10.96
  -4   2   4  201.96   11.98
   4  -2  -4  207.26   14.88
  -4  -2   3  892.48   26.25
   4  -2  -3  871.46   30.00
  -4  -2   2 1393.92   30.73
  -4  -2   2 1249.34   29.43
   4  -2  -2 1313.38   33.07
  -4   2   2 1164.86   31.33
   4  -2  -2 1390.82   37.54
  -4  -2   1  123.22   10.29
  -4   2   1  100.72   10.33
  -4  -2   1  125.89   10.48
   4  -2  -1  132.06   10.75
   4  -2  -1  141.32   12.26
  -4  -2   0 1096.24   26.27
  -4  -2   0 1045.80   28.26
  -4   2   0 1134.02   29.36
   4  -2   0 1098.70   29.78
   4  -2   0 1059.21   32.58
   4  -2   1 1121.10   33.31
   4   2   1 1262.80   27.97
  -4  -2  -1 1159.47   30.53
  -4   2  -1 1228.74   31.04
   4  -2   1 1199.92   31.34
  -4  -2  -2   87.03   10.22
  -4   2  -2  119.43   10.59
   4  -2   2  116.12   10.36
   4  -2   2   90.94   10.39
   4  -2   2  118.59   10.74
   4   2   2  114.45    9.28
  -4  -2  -3 1019.73   30.52
   4   2   3 1092.08   28.31
  -4   2  -3 1018.76   28.60
   4  -2   3 1023.18   29.52
   4  -2   3 1049.40   32.45
  -4   2  -4 1904.74   39.10
   4  -2   4 1888.57   40.68
  -4  -2  -4 1907.54   42.36
   4   2   4 1981.65   39.65
   4  -2   4 1875.43   45.18
  -4  -2  -5  362.89   19.41
   4  -2   5  344.73   17.92
   4   2   5  364.93   18.31
  -4   2  -5  349.21   17.46
   4  -2   5  349.27   20.02
  -4  -2  -6  774.59   28.68
   4  -2   6  735.10   30.05
   4   2   6  710.10   26.45
  -4   2  -6  777.51   25.87
  -4  -2  -7 1862.39   44.66
   4   2   7 1516.03   39.64
   4   2   7 1396.72   41.13
   4  -2   7 1757.42   48.12
  -4  -2  -8  331.31   20.41
   4   2   8  272.78   17.33
   4  -2   8  296.57   20.24
   4   2   8  240.84   18.06
   4  -2   8  367.92   20.55
  -4  -2  -9  896.39   32.17
   4  -2   9  868.43   31.88
   4   2   9  678.21   29.40
   4  -2   9  677.53   31.37
   4   2   9 1009.76   33.45
   4  -2  10  442.60   25.69
  -4  -2 -10  495.61   24.05
   4  -2  10  443.05   23.26
   4   2  11   24.46    6.26
   4  -2  11   42.19    6.42
   4  -2  11   42.86    6.44
  -4  -2 -11   45.63    5.86
  -4  -2 -11   46.88    5.85
  -4   2 -11   31.07    5.28
   4  -2  11   53.15    8.75
   4  -2  11   36.23    7.70
  -4   2 -11   38.13    6.99
  -4  -2 -12  322.12   13.16
  -4   2 -12  310.41   12.80
   4  -2  12  336.91   14.65
   4   2  12  338.69   12.82
  -4   2 -12  263.66   12.88
   4  -2  12  276.97   13.45
  -4   2 -13  552.29   14.68
  -4  -2 -13  573.84   16.71
  -4   2 -13  533.91   16.20
  -4   2 -13  613.57   16.44
   4  -2  13  596.42   18.50
   4   2  13  595.32   15.90
  -4  -2 -14   35.20    4.08
  -4   2 -14   31.27    3.99
  -4   2 -14   35.65    4.25
  -4   2 -14   38.28    4.23
  -4  -2 -14   32.58    4.94
   4  -2  14   20.94    4.99
   4  -2  14   35.41    5.41
   4   2  14   30.71    4.55
   4   2  14   32.23    4.50
  -4   2 -15  183.63    8.23
  -4   2 -15  189.32    7.87
  -4  -2 -15  194.43    8.79
  -4  -2 -15  223.43    9.74
  -4  -2 -15  196.92    8.20
   4  -2  15  149.45    8.73
   4   2  15  185.29    8.15
   4   2  15  188.84    8.04
  -4   2 -15  179.13    8.02
   4  -2  15  188.70    9.41
  -4  -2 -16  527.36   11.69
  -4   2 -16  460.09   11.28
  -4   2 -16  440.65   10.81
  -4   2 -16  533.19   11.68
  -4  -2 -16  508.85   12.27
  -4  -2 -16  567.64   13.75
   4   2  16  512.69   11.94
   4   2  16  547.38   11.77
   4  -2  16  551.47   13.64
  -4   2 -17   35.27    2.88
  -4   2 -17   21.91    2.48
   4   2  17   23.33    2.63
   4   2  17   31.25    3.27
   4   2  17   31.71    3.21
  -4  -2 -17   38.64    3.40
   4  -2  17   33.15    3.89
   4   2  18   48.79    3.18
   4   2  18  123.31    4.65
  -4   3  17  248.26    7.85
  -4  -3  17  317.36    7.81
  -4   3  17  298.37    7.87
   4  -3 -17  291.82    8.43
  -4   3  17  260.13    7.49
  -4   3  17  292.83    8.58
  -4  -3  17  235.75    7.34
  -4  -3  17  284.56    8.44
  -4   3  16  123.41    6.40
  -4  -3  16  156.04    6.40
   4  -3 -16  135.11    6.92
  -4  -3  16  137.18    6.40
  -4  -3  16  131.37    6.62
  -4   3  16  116.55    6.21
  -4   3  16  145.12    6.49
  -4  -3  16  136.17    6.83
  -4   3  16  143.69    7.37
  -4   3  15  105.84    6.47
   4  -3 -15  115.46    7.25
  -4  -3  15  115.65    6.54
  -4  -3  15  106.04    6.70
  -4   3  15  114.43    6.72
  -4  -3  15  110.81    6.99
  -4   3  14   95.75    6.92
  -4  -3  14   97.48    6.93
   4  -3 -14  107.26    7.32
  -4   3  14  112.98    7.18
   4  -3 -14  116.07    8.16
  -4  -3  14   90.45    7.06
  -4  -3  14  105.86    7.76
  -4   3  13  878.47   19.78
  -4  -3  13  854.16   19.39
  -4   3  13 1003.04   20.70
   4  -3 -13 1014.91   20.50
  -4  -3  13  840.09   20.88
  -4  -3  13  986.48   19.94
  -4  -3  13  899.35   21.63
  -4   3  12   58.62    5.96
  -4  -3  12   74.27    6.42
  -4  -3  12   65.70    6.12
  -4  -3  12   51.55    6.19
  -4   3  12   74.82    7.11
   4  -3 -12   75.74    6.84
  -4  -3  12   65.63    6.59
   4  -3 -11  164.06    9.54
  -4  -3  11  169.32    9.07
  -4   3  11  161.35   10.31
  -4  -3  11  168.09   10.31
   4  -3 -10  127.66    8.44
  -4   3  10  112.94    8.91
  -4  -3  10  127.15    9.00
   4  -3  -9  306.38   12.83
  -4  -3   9  272.89   11.81
  -4  -3   9  320.87   13.96
  -4  -3   8   52.66    5.84
  -4  -3   8   70.31    9.46
   4   3  -8   81.60   11.96
   4  -3  -8   60.03    5.80
  -4   3   8   74.55   10.35
   4  -3  -8   59.78    9.90
   4  -3  -8   50.30    6.03
  -4  -3   8   79.41    7.56
  -4  -3   7 1177.03   25.61
   4  -3  -7 1040.76   22.82
   4  -3  -7 1056.93   24.30
  -4   3   7 1249.55   36.40
   4   3  -7 1082.88   37.03
   4  -3  -7 1003.86   38.91
   4   3  -6  439.58   23.11
   4  -3  -6  442.63   26.17
  -4   3   5  449.05   21.42
   4  -3  -5  380.34   24.48
  -4   3   4  568.26   24.37
   4  -3  -4  458.09   26.77
   4  -3  -3  500.56   27.74
  -4   3   3  627.91   25.56
  -4   3   2  363.28   30.33
   4  -3  -2  215.59   18.54
   4  -3  -1 1822.22   51.78
  -4   3   0   95.01   11.25
   4  -3   0  107.87   12.91
   4  -3   1  189.76   16.04
  -4   3  -1  115.18   12.79
   4  -3   2  636.54   29.23
  -4  -3  -2  611.28   26.90
  -4  -3  -3  823.54   28.89
   4  -3   3  819.80   33.01
  -4  -3  -3  750.19   30.41
   4  -3   4  286.49    9.23
   4   3   4  428.08   21.69
  -4  -3  -4  453.27   21.69
   4  -3   4  383.08   15.59
  -4   3  -4  444.47   23.61
   4  -3   4  387.86   15.65
   4  -3   4  435.34   24.10
  -4  -3  -4  387.47   15.52
   4  -3   4  273.81   13.32
  -4   3  -4  273.14   21.04
  -4  -3  -4  362.64   14.76
  -4  -3  -4  434.88   23.66
   4   3   5  825.00   30.47
  -4  -3  -5  953.92   31.75
   4  -3   5  800.19   21.94
  -4   3  -5 1057.07   35.50
   4  -3   5  831.48   22.62
   4  -3   5  905.08   34.86
   4   3   5  575.70   28.46
  -4   3  -5  553.45   30.15
  -4  -3  -5  735.09   20.70
  -4  -3  -5  759.91   21.53
  -4  -3  -5  893.34   33.65
  -4  -3  -6   59.81    6.91
   4  -3   6   54.46    6.80
   4   3   6   47.09    7.45
   4   3   6   46.52    8.77
  -4  -3  -6   50.12    6.41
   4  -3   7  137.89    9.40
   4  -3   7  114.90    8.85
  -4  -3  -7  119.84    9.00
  -4  -3  -7  102.32    8.08
  -4  -3  -8  117.69    7.67
  -4   3  -8  125.30    8.50
   4  -3   8  119.32    9.23
  -4  -3  -8  114.45    8.29
  -4  -3  -8  137.31    9.39
  -4  -3  -9  400.07   13.49
  -4   3  -9  352.12   12.97
   4  -3   9  510.65   17.05
  -4  -3  -9  263.32   11.83
  -4  -3  -9  400.02   14.85
  -4  -3 -10   56.08    6.08
  -4   3 -10   58.97    5.32
  -4  -3 -10   85.81    7.59
   4  -3  10   80.38    7.66
  -4  -3 -10   90.25    8.11
   4  -3  10   49.33    6.68
  -4   3 -10  123.61    9.34
  -4  -3 -11  745.58   18.40
  -4   3 -11  748.50   16.28
   4  -3  11  801.45   19.12
  -4   3 -11  754.49   17.55
  -4   3 -12   82.29    5.56
   4  -3  12   98.28    7.31
  -4  -3 -12   86.08    6.64
   4  -3  12   75.41    5.62
  -4  -3 -12  102.01    6.58
  -4   3 -13   11.18    2.40
   4   3  13    7.06    2.27
   4  -3  13    6.96    2.22
  -4   3 -13    2.34    1.86
  -4   3 -14   80.46    4.15
  -4  -3 -14  106.57    4.88
  -4   3 -14  126.80    5.05
   4   3  14  106.68    4.88
  -4   3 -14   80.64    4.14
   4  -3  14   91.43    5.55
  -4   3 -15  214.76    5.44
   4   3  15  211.58    5.86
  -4   4  12   10.17    2.94
  -4   4  12    8.34    2.38
  -4  -4  11  388.56    8.36
   4  -4 -11  298.29    8.10
  -4  -4  11  313.85    8.43
   4  -4 -11  360.27    8.84
  -4   4  11  380.92   10.43
  -4  -4  10   55.97    4.20
   4  -4 -10   23.02    3.13
   4  -4 -10   30.76    3.34
  -4  -4  10   28.86    3.29
  -4   4  10   24.13    3.55
  -4   4  10   68.07    7.02
   4  -4  -9  260.73    9.77
  -4   4   9  279.47   12.20
  -4   4   9  283.54   10.21
   4  -4  -8    5.36    1.82
  -4  -4   8    6.60    2.31
   4  -4  -8    2.13    2.05
  -4   4   8    5.46    2.60
   4  -4  -7   28.43    2.88
  -4  -4   7   19.34    2.44
   4  -4  -7   24.08    3.75
   4  -4  -6   72.09    5.54
   4  -4  -6   71.29    4.08
  -4   4   6   79.82    8.00
   4  -4  -5  817.78   13.01
   4  -4  -5  821.73   20.77
   4  -4  -5  818.96   17.92
   4  -4  -4  167.56    6.43
  -4   4   4  181.88   10.50
   4  -4  -3  884.43   14.03
   4  -4  -3  907.47   22.51
   4  -4  -2  193.77    7.86
   4  -4  -2   12.59    4.15
   4  -4  -1  168.32    7.52
   4  -4  -1   27.50    4.56
   4  -4   0  289.46    9.03
   4  -4   0   91.42    7.35
   4  -4   1 1337.64   25.75
  -4  -4  -2  104.47    4.70
   4  -4   2  116.92    7.78
  -4  -4  -3  514.28   10.23
   4  -4   3  547.39   15.16
  -4   4  -3  457.90   10.96
   4  -4   3  473.74   13.67
   4  -4   4    1.47    1.86
   4  -4   4    6.23    2.91
  -4  -4  -5    1.40    1.77
   4  -4   5    7.97    2.14
  -4   4  -5    4.98    2.26
   4  -4   5    4.25    2.21
  -4  -4  -6   14.52    1.91
  -4   4  -6   18.53    2.67
   4  -4   6   22.62    3.37
  -4  -4  -7  250.27    6.38
   4  -4   7  272.95    7.52
  -4  -4  -8   30.18    2.29
   4  -4   8   26.62    3.19
  -4  -4  -9  244.82    5.20
   4  -4   9  197.79    6.84
   5   0 -23   -0.78    1.29
   5   0 -23   -0.42    1.17
  -5   0  22    2.67    2.22
  -5   0  21    1.01    2.59
  -5   0  21   -1.62    1.50
   5   0 -21    0.35    1.40
  -5   0  21    0.31    2.38
  -5   0  20  993.43   19.78
   5   0 -20 1041.91   18.64
  -5   0  20  998.80   20.18
   5   0 -20  993.97   18.78
  -5   0  20 1025.68   21.15
  -5   0  19    1.90    3.06
  -5   0  19    2.23    2.32
   5   0 -19    0.58    1.93
   5   0 -19    0.45    2.24
  -5   0  19   -3.12    3.22
  -5   0  18  117.53    8.71
  -5   0  18  124.90    7.92
  -5   0  18  115.58    8.61
   5   0 -18  123.55    7.73
   5   0 -18  116.88    7.43
   5   0 -17    0.14    1.87
   5   0 -17   -1.56    2.31
  -5   0  17   -0.70    1.94
  -5   0  17   -0.56    3.48
  -5   0  17   -0.46    3.04
   5   0 -17    1.59    2.06
   5   0 -17    6.33    5.30
  -5   0  17    0.87    3.32
   5   0 -16  326.85   22.44
  -5   0  16  433.74   20.68
  -5   0  15   -1.39    3.88
   5   0 -15   -2.58    4.07
   5   0 -14 1307.99   42.60
  -5   0  14 1397.01   35.67
   5   0 -13   -2.05    4.39
   5   0 -12 2101.22   51.53
   5   0 -11    3.21    4.74
  -5   0  11   -0.43    2.07
   5   0 -10  179.90   14.28
  -5   0  10  166.36   13.24
  -5   0  10  148.76   12.08
   5   0  -9   -1.17    2.96
  -5   0   9   -0.08    2.29
   5   0  -9   -1.13    2.22
  -5   0   9    0.16    3.40
   5   0  -9    1.53    3.68
  -5   0   9    0.25    2.47
  -5   0   9    1.92    3.09
  -5   0   8 4288.89   56.49
   5   0  -8 4563.06   50.14
  -5   0   8 4329.67   60.00
   5   0  -8 4610.58   61.16
   5   0  -8 4364.70   49.98
  -5   0   8 4847.96   54.32
  -5   0   8 4729.77   57.29
  -5   0   7   -0.31    2.17
   5   0  -7   -0.55    1.79
  -5   0   7    1.17    3.92
   5   0  -7    2.92    3.55
  -5   0   7   -0.11    2.74
  -5   0   7    2.51    2.45
  -5   0   6 2666.71   37.58
   5   0  -6 2683.60   41.37
  -5   0   6 2772.72   44.06
  -5   0   6 2698.82   38.86
  -5   0   6 2784.08   37.62
   5   0  -6 2613.82   36.66
   5   0  -5   -0.05    2.12
  -5   0   5   -0.23    3.27
  -5   0   5   -0.16    2.03
  -5   0   5    0.90    1.91
   5   0  -5   -0.58    2.51
  -5   0   5   -0.91    2.39
   5   0  -5   -1.42    2.08
   5   0  -4   21.68    3.71
  -5   0   4   21.01    4.51
   5   0  -4   24.44    4.11
  -5   0   4   20.93    3.67
  -5   0   4   19.28    3.22
   5   0  -4   16.67    3.16
   5   0  -3    0.64    2.58
  -5   0   3    2.00    2.08
   5   0  -3    0.36    1.76
  -5   0   3    0.34    1.45
  -5   0   3    2.85    2.53
  -5   0   2 3051.55   35.43
   5   0  -2 3163.92   37.90
   5   0  -2 3071.34   37.97
  -5   0   2 2972.76   35.01
   5   0  -2 3080.53   38.41
  -5   0   1   -1.35    1.99
   5   0  -1   -0.89    2.11
   5   0  -1    1.12    2.13
  -5   0   1    0.39    1.52
  -5   0   1    0.78    2.02
  -5   0   0  330.23   12.56
  -5   0   0  360.03   13.32
   5   0   0  327.12   13.22
  -5   0   0  330.09   12.09
   5   0   1    0.47    2.10
  -5   0  -1    1.02    2.07
  -5   0  -1    1.34    2.23
  -5   0  -1    1.39    2.06
  -5   0  -2 1367.68   29.49
  -5   0  -2 1355.49   26.35
   5   0   2 1281.24   27.76
   5   0   2 1266.22   23.26
   5   0   3    1.66    2.48
  -5   0  -3    3.13    2.62
  -5   0  -3    0.28    2.45
  -5   0  -3    0.90    2.10
   5   0   3    0.36    1.60
  -5   0  -4 2540.35   39.46
   5   0   4 2501.84   38.17
   5   0   4 2558.65   41.86
   5   0   5    1.04    2.84
  -5   0  -5   -0.28    2.44
  -5   0  -5   -1.03    2.97
   5   0   5   -0.19    1.86
  -5   0  -6  833.39   25.74
   5   0   6  849.43   25.22
   5   0   6  910.55   26.66
  -5   0  -7   -2.27    3.74
   5   0   7   -0.01    2.18
  -5   0  -8  605.72   23.53
   5   0   8  572.94   23.42
  -5   0  -9   -7.34    4.73
   5   0   9   -0.01    2.70
  -5   0 -10  613.14   25.73
   5   0  10  635.67   27.01
  -5   0 -11   -1.17    2.89
  -5   0 -11    1.79    2.95
   5   0  11    0.41    2.57
  -5   0 -12  344.23   20.63
   5   0  12  343.05   21.23
  -5   0 -13    3.29    3.73
   5   0  13   -1.77    2.76
  -5   0 -13    1.03    3.25
   5   0  13    0.54    3.41
  -5   0 -13   -2.40    2.50
   5   0  13    1.20    3.21
   5   0  13   -0.12    2.95
   5   0  13   -0.56    3.43
  -5   0 -14  125.15    8.80
   5   0  14  129.01    8.38
   5   0  14  143.00    8.92
   5   0  14  130.34    8.67
  -5   0 -15    2.13    2.25
   5   0  15    0.23    2.81
   5   0  15   -6.06    3.60
   5   0  15   -2.08    3.22
  -5   0 -16  102.22    5.93
   5   0  16  103.17    7.32
  -5   0 -16  113.98    7.15
   5   0  16  117.39    7.23
   5   0  16  107.86    6.97
  -5   0 -17    0.40    1.40
  -5   0 -17    1.86    1.77
   5   0  17   -1.78    2.64
   5   0  17    0.28    2.59
  -5   0 -18    5.73    1.70
   5   0  18    6.60    2.29
   5   0  19   -1.46    1.87
   5  -1 -22  703.82   12.04
   5  -1 -22  724.31   12.44
   5   1 -22  684.15   10.88
  -5   1  22  742.19   12.78
  -5  -1  21    3.02    1.46
   5  -1 -21    5.42    2.12
   5  -1 -21    4.33    1.94
  -5   1  21    1.42    1.93
  -5   1  21    3.83    2.96
   5   1 -21    2.86    1.68
   5   1 -21    3.58    1.65
  -5   1  20  167.32    9.02
  -5  -1  20  164.06    7.46
   5  -1 -20  176.78    8.48
   5   1 -20  167.86    7.29
   5   1 -20  156.19    7.64
  -5   1  20  157.44    8.09
   5  -1 -20  192.41    9.10
  -5   1  19    8.57    3.64
  -5  -1  19    9.82    2.58
   5   1 -19    7.28    2.31
   5  -1 -19    8.87    2.98
  -5  -1  19    9.70    3.05
  -5  -1  19    5.70    3.72
  -5   1  19    5.74    2.95
   5   1 -19    6.01    2.41
  -5   1  18  379.66   14.59
  -5   1  18  361.00   13.33
  -5  -1  18  374.30   12.58
   5   1 -18  350.03   11.72
   5   1 -18  355.13   11.95
  -5  -1  18  370.82   13.25
  -5   1  18  352.01   13.84
  -5  -1  18  332.57   13.61
   5  -1 -18  383.33   12.58
  -5   1  17   59.98    7.04
  -5   1  17   70.98    6.57
  -5  -1  17   62.44    5.55
   5   1 -17   58.96    5.19
  -5  -1  17   59.62    6.19
  -5  -1  17   53.56    6.50
   5  -1 -17   61.00    5.60
  -5   1  17   59.63    6.33
   5   1 -17   61.64    5.58
  -5   1  16 1111.71   25.79
  -5   1  16 1244.30   26.32
  -5   1  16 1016.06   24.92
  -5  -1  16 1064.71   22.15
   5  -1 -16  902.69   36.53
   5   1 -16 1014.40   20.55
   5  -1 -16 1079.87   22.87
  -5  -1  16  973.76   23.65
   5   1 -16  975.79   36.01
  -5   1  16 1124.88   26.10
   5   1 -16 1088.79   21.90
  -5  -1  16  991.96   23.75
   5  -1 -15  429.96   25.44
   5   1 -15  433.08   24.33
  -5  -1  14  317.94   21.91
   5   1 -14  357.88   22.45
   5  -1 -14  372.14   24.41
  -5  -1  13  502.29   26.69
   5  -1 -13  556.66   28.86
  -5   1  13  502.37   28.40
   5   1 -13  502.91   26.06
  -5  -1  12  482.69   25.94
   5  -1 -12  540.25   27.58
  -5   1  12  574.12   23.26
   5   1 -12  558.75   26.66
   5   1 -12  526.32   24.95
   5   1 -11    1.53    4.04
  -5   1  11    1.13    2.65
   5   1 -11    3.44    3.66
   5  -1 -11    3.65    4.05
  -5  -1  11   -0.56    3.33
   5   1 -10 2071.31   44.94
   5  -1 -10 1953.71   47.70
   5   1 -10 1996.84   43.85
  -5  -1   9  124.15   12.24
   5   1  -9  126.78   11.01
   5  -1  -9  132.28   12.56
   5   1  -9  132.14   11.01
   5  -1  -8   18.28    4.35
  -5  -1   8   26.50    6.03
   5   1  -8   21.09    4.80
   5  -1  -8   17.53    5.51
   5   1  -8   22.66    5.57
  -5  -1   7  740.74   25.74
   5   1  -7  693.88   22.96
   5  -1  -7  665.08   25.60
   5  -1  -7  734.33   23.32
  -5   1   7  667.73   19.60
  -5  -1   6  876.96   25.56
   5   1  -6  826.83   23.88
   5  -1  -6  782.39   26.65
  -5   1   6  842.13   21.81
  -5  -1   6  814.10   25.57
   5  -1  -6  834.89   24.47
  -5  -1   5  198.13   11.88
   5   1  -5  200.31   11.47
   5  -1  -5  196.22   12.65
  -5   1   5  206.05   11.44
   5  -1  -5  199.09   12.05
  -5  -1   5  212.34   12.25
  -5  -1   4 2019.46   35.65
   5   1  -4 1896.49   35.48
   5  -1  -4 1925.64   35.58
  -5   1   4 1984.41   40.14
  -5   1   4 2170.52   36.66
  -5  -1   4 2111.95   37.07
   5  -1  -4 2064.10   37.51
   5  -1  -3    5.72    3.09
  -5  -1   3    4.75    2.73
  -5   1   3    8.16    4.73
  -5  -1   3    5.91    2.94
   5   1  -3   10.81    3.32
  -5   1   3    5.68    2.98
  -5  -1   2  133.64    8.70
   5   1  -2  136.39    8.49
  -5   1   2  165.88   10.77
   5   1  -2  156.68    9.43
  -5  -1   2  150.60    9.48
   5  -1  -2  139.45    9.96
  -5   1   2  138.34   10.18
   5  -1  -1    6.89    3.61
   5   1  -1    4.19    2.78
  -5  -1   1    2.78    2.39
   5   1  -1    2.78    1.95
  -5   1   1    0.50    2.94
   5  -1  -1    0.59    1.63
  -5  -1   1    4.52    2.60
  -5  -1   1    4.61    2.60
  -5  -1   0 1345.36   27.36
   5   1   0 1381.46   26.20
  -5   1   0 1346.36   27.75
  -5  -1   0 1404.34   29.12
  -5   1   0 1472.79   32.17
   5   1   0 1460.88   30.47
   5  -1   0 1383.60   26.23
   5  -1   0 1433.14   31.25
  -5  -1  -1   43.56    5.32
   5   1   1   46.88    5.22
  -5  -1  -1   40.82    5.40
  -5   1  -1   40.70    6.26
   5   1   1   42.62    5.77
   5  -1   1   41.57    4.99
   5  -1   1   44.52    6.02
   5   1   2  703.72   19.12
   5  -1   2  692.04   24.10
  -5  -1  -2  825.33   23.53
  -5   1  -2  799.87   25.62
   5   1   2  861.00   25.03
   5  -1   2  806.64   22.09
  -5  -1  -2  800.33   21.50
   5  -1   3  421.92   18.76
   5   1   3  505.60   17.06
  -5  -1  -3  605.57   20.87
  -5   1  -3  493.93   21.00
   5   1   3  599.24   21.54
   5  -1   3  563.43   19.70
   5   1   4   80.82    7.38
  -5  -1  -4   81.26    8.22
  -5   1  -4   61.36    8.15
   5   1   4   76.24    8.25
   5  -1   4   76.32    7.93
   5   1   5  119.55   10.70
   5   1   5  126.61    9.42
  -5  -1  -5  124.71   10.78
   5  -1   5   98.24    9.28
  -5   1  -5   85.73    9.48
   5  -1   5  114.61   10.16
  -5  -1  -6  437.99   20.65
   5   1   6  441.76   20.44
  -5  -1  -6  389.09   17.25
   5  -1   6  397.03   19.39
  -5  -1  -6  363.39   18.33
   5   1   7   26.38    5.66
  -5  -1  -7   24.06    5.07
  -5  -1  -7   21.16    4.94
  -5  -1  -7   22.00    5.63
  -5   1  -7   15.35    5.21
   5  -1   7   22.39    5.31
  -5  -1  -8  515.93   21.01
  -5  -1  -8  460.83   22.75
   5   1   8  535.63   23.79
   5  -1   8  452.80   23.05
  -5   1  -9  147.34   14.05
   5  -1   9  118.99   12.30
   5   1   9  134.80   12.43
  -5   1 -10   66.29    9.72
  -5  -1 -10   42.74    7.64
   5  -1  10   51.17    8.49
  -5   1 -11  481.53   24.33
   5   1  11  504.37   24.97
   5  -1  11  463.11   25.32
   5   1  12  263.65   12.00
  -5   1 -12  258.34   10.32
  -5   1 -12  294.26   19.06
   5   1  12  309.78   19.92
  -5   1 -12  290.94   12.62
  -5  -1 -12  223.86   17.02
   5  -1  12  282.49   13.09
  -5  -1 -12  279.58   12.61
   5  -1  12  230.52   14.04
  -5  -1 -12  253.49   11.58
   5   1  12  277.22   12.63
   5  -1  12  277.06   19.79
  -5   1 -12  304.94   12.69
  -5   1 -13   -2.09    2.18
  -5  -1 -13    1.28    2.09
   5   1  13    8.75    3.92
   5   1  13    2.26    3.02
  -5   1 -13    1.98    2.13
  -5  -1 -13   -0.83    2.76
  -5   1 -13   -1.21    2.66
  -5  -1 -13    2.60    2.38
  -5   1 -13    0.95    2.59
   5  -1  13    1.58    3.20
  -5   1 -14   80.29    5.85
  -5  -1 -14   95.34    7.02
  -5   1 -14   83.85    5.84
   5   1  14   90.02    7.23
  -5  -1 -14   81.83    6.66
  -5   1 -14  102.73    7.43
  -5   1 -14   98.65    7.01
   5   1  14   94.29    7.37
   5  -1  14   85.57    7.41
  -5  -1 -14   88.12    6.59
  -5   1 -15   -2.79    2.22
   5   1  15    0.36    3.00
  -5   1 -15    1.11    1.98
  -5  -1 -15    0.31    2.09
  -5   1 -15   -2.29    2.12
  -5  -1 -15   -0.59    2.01
  -5   1 -15    0.20    2.25
   5   1  15    1.81    2.43
   5  -1  15   -0.36    3.59
   5   1  15   -2.09    3.18
  -5   1 -16    0.96    1.69
   5   1  16    0.26    2.59
  -5  -1 -16    0.05    1.79
   5   1  16    0.43    2.08
   5   1  16   -1.10    3.32
   5  -1  16    2.84    3.27
  -5   1 -17   44.83    3.40
  -5  -1 -17   52.57    3.84
  -5   1 -17   45.83    3.88
   5   1  17   45.24    3.72
  -5   1 -18   61.45    3.28
  -5   1 -18   58.69    3.55
   5  -1  18   80.98    4.87
   5   1  18   62.48    3.58
   5   1  18   90.88    4.75
  -5  -2  20  170.69    5.83
  -5   2  20  153.34    6.62
   5   2 -20  172.18    5.76
  -5  -2  20  184.30    6.76
   5   2 -20  103.33    5.15
   5  -2 -20  160.66    6.44
  -5   2  20  103.24    5.11
  -5   2  19    3.05    2.34
  -5  -2  19   -1.54    1.72
   5   2 -19    1.70    1.36
  -5  -2  19    0.68    2.42
  -5   2  19    0.02    2.36
   5  -2 -19    2.19    1.91
  -5   2  19    2.41    1.66
   5   2 -19    1.16    1.55
  -5   2  18  338.23   11.60
  -5  -2  18  352.72   10.73
   5   2 -18  356.48    9.64
   5  -2 -18  381.93   12.40
  -5  -2  18  408.53   12.86
  -5   2  18  360.24   11.38
  -5   2  18  347.30   10.71
  -5   2  18  350.99   12.59
   5   2 -18  381.75   10.83
   5  -2 -18  382.63   12.85
  -5  -2  18  310.30   10.45
  -5  -2  17  478.45   14.06
  -5   2  17  451.10   14.61
  -5  -2  17  485.97   13.36
   5   2 -17  475.46   12.00
   5  -2 -17  490.29   15.13
   5  -2 -17  511.69   16.14
   5  -2 -17  451.05   14.22
  -5  -2  17  539.02   15.75
  -5   2  17  469.70   15.53
  -5   2  17  435.99   13.33
  -5  -2  17  446.22   14.13
  -5   2  16   -0.29    3.10
   5  -2 -16    1.04    2.12
  -5   2  16   -1.51    2.99
  -5  -2  16    4.22    2.43
   5  -2 -16   -0.05    2.37
  -5  -2  16    1.23    2.53
   5  -2 -16    4.03    3.00
  -5  -2  16    2.69    2.99
  -5   2  16   -0.39    2.58
  -5  -2  16   -0.58    2.44
  -5   2  15  394.97   15.07
  -5  -2  15  421.43   13.65
   5  -2 -15  385.53   14.90
   5  -2 -15  395.77   15.40
  -5  -2  15  404.60   14.98
  -5   2  15  388.52   15.28
  -5   2  15  405.13   14.58
   5  -2 -15  404.07   15.71
  -5  -2  15  444.35   15.51
  -5  -2  15  386.97   15.07
  -5   2  14  799.71   21.58
  -5  -2  14  793.34   19.08
   5  -2 -14  688.19   20.21
  -5  -2  14  886.60   22.56
   5  -2 -14  787.22   22.21
  -5  -2  14  714.15   20.33
   5  -2 -14  757.44   21.94
  -5   2  14  769.44   21.90
  -5   2  14  785.03   20.36
  -5  -2  14  815.69   22.37
  -5  -2  13   20.11    7.41
   5  -2 -13   24.71    4.40
  -5   2  13   30.58    4.99
  -5  -2  13   46.30    5.31
   5  -2 -13   21.79    4.05
   5  -2 -13   24.12    6.79
  -5  -2  13   25.37    4.51
   5  -2 -13   27.37    4.81
   5  -2 -13   23.70    3.92
  -5   2  13   21.42    4.76
  -5   2  13   33.53    5.42
  -5  -2  13   24.09    5.08
   5   2 -13   24.31    7.89
  -5  -2  13   26.19    5.10
  -5   2  13    9.96    5.50
  -5  -2  12  195.59   17.81
   5  -2 -12  198.88   16.61
   5   2 -12  222.43   18.47
  -5   2  12  246.81   17.06
  -5  -2  11  195.55   17.43
   5  -2 -11  184.25   15.92
   5   2 -11  207.02   17.27
  -5   2  11  236.72   17.32
  -5  -2  10  176.91   16.01
   5  -2 -10  143.11   13.41
   5   2 -10  181.75   15.92
  -5  -2   9  446.24   24.03
  -5   2   9  470.11   20.79
   5   2  -9  466.06   24.07
  -5  -2   8  693.02   28.69
  -5   2   8  670.68   23.41
   5   2  -8  696.68   29.13
   5  -2  -7   26.64    6.32
  -5  -2   7   22.21    5.81
  -5   2   7   16.19    3.09
   5   2  -7   27.62    6.75
  -5  -2   6  447.63   21.41
   5   2  -6  435.84   22.15
  -5   2   6  417.21   17.11
   5  -2  -6  389.22   21.75
  -5  -2   5 1441.96   36.61
   5   2  -5 1264.67   35.60
   5  -2  -5 1260.80   38.52
  -5   2   5 1415.23   32.40
  -5  -2   4  156.51   12.23
   5   2  -4  123.84   11.70
  -5   2   4  171.48   12.03
  -5   2   4  134.61   10.97
   5  -2  -4  134.09   13.05
  -5  -2   3  261.13   14.43
  -5   2   3  242.00   13.08
  -5   2   3  213.30   14.06
   5  -2  -3  242.61   16.84
  -5  -2   2 1935.15   38.67
  -5   2   2 2096.57   47.22
  -5  -2   1   54.63    6.84
   5   2  -1   41.92    6.36
   5  -2  -1   63.50    9.03
  -5   2   1   41.24    7.37
  -5  -2   0  729.63   23.53
  -5  -2   0  656.20   24.28
   5  -2   0  658.64   23.94
   5   2   0  509.15   22.64
  -5   2   0  536.93   24.81
   5  -2   0  655.03   27.06
  -5  -2  -1  884.21   28.51
   5  -2   1  882.83   27.61
   5   2   1  719.26   27.43
  -5   2  -1  675.33   27.83
   5  -2   1  780.07   29.55
  -5  -2  -1  901.68   26.08
  -5  -2  -2   97.65   10.36
   5   2   2   81.27   10.02
  -5   2  -2   73.07   10.28
  -5  -2  -2  108.19    9.12
   5  -2   2   91.73   10.26
   5  -2   2   73.62    9.20
  -5  -2  -3  262.78   16.13
   5   2   3  223.38   13.66
  -5   2  -3  252.19   15.01
   5   2   3  183.77   15.04
  -5   2  -3  188.83   16.13
   5  -2   3  234.38   16.32
  -5  -2  -4  319.55   18.17
   5   2   4  274.31   15.98
  -5   2  -4  311.80   16.73
   5   2   4  208.75   16.35
  -5   2  -4  236.71   17.76
   5  -2   4  283.10   18.34
  -5  -2  -5  206.57   15.12
   5   2   5  153.58   12.63
  -5   2  -5  185.18   13.53
   5   2   5  145.38   13.86
  -5   2  -5  138.91   14.51
   5  -2   5  191.24   15.58
  -5  -2  -6  244.67   16.66
   5   2   6  217.68   14.98
  -5   2  -6  167.81   15.81
   5   2   6  169.71   15.03
   5  -2   6  208.93   16.87
  -5  -2  -7   51.85    8.50
   5   2   7   42.29    6.92
   5   2   7   39.86    8.15
  -5   2  -7   35.16    8.21
   5  -2   7   37.08    7.82
  -5  -2  -8    2.56    4.21
   5   2   8   11.04    6.30
  -5   2  -8    4.70    3.98
   5  -2   8    4.40    3.82
   5   2   8    1.56    3.33
   5   2   9    2.70    3.02
  -5  -2  -9    2.71    3.88
  -5  -2  -9   13.88    4.11
   5   2   9   38.13    8.98
  -5   2  -9   10.81    3.65
   5  -2   9    5.81    3.37
  -5   2  -9    8.24    5.05
  -5   2  -9   46.96    7.13
   5  -2   9    4.93    2.96
  -5  -2  -9    9.38    3.30
  -5  -2 -10  324.64   13.27
  -5   2 -10  315.01   13.66
   5  -2  10  335.77   14.85
  -5  -2 -10  283.16   12.44
   5  -2  10  286.45   21.21
  -5   2 -10  314.39   13.82
  -5  -2 -11   25.47    4.17
  -5   2 -11   28.50    4.67
   5  -2  11   30.53    5.48
  -5   2 -11   24.93    4.89
   5  -2  11   24.75    4.85
  -5  -2 -11   29.99    4.38
  -5   2 -12   18.62    3.27
  -5  -2 -12   19.46    3.96
  -5   2 -12   18.08    3.96
   5  -2  12   13.43    4.26
   5  -2  12   16.56    4.73
   5   2  12   26.52    4.84
  -5   2 -12   14.36    3.19
  -5   2 -13  186.06    9.15
  -5   2 -13  166.94    7.76
  -5  -2 -13  171.84    8.96
  -5   2 -13  185.19    9.01
   5  -2  13  164.78   10.11
   5   2  13  181.65    8.70
  -5   2 -14   89.37    6.01
  -5  -2 -14   88.49    6.12
  -5   2 -14   91.84    5.53
  -5   2 -14  100.01    6.27
   5  -2  14   78.39    6.64
   5   2  14   87.69    5.83
   5   2  14   92.28    5.99
  -5  -2 -14   99.99    6.64
   5  -2  14   92.91    6.81
  -5   2 -15   -0.87    1.69
  -5   2 -15    1.39    1.74
  -5   2 -15    1.94    1.75
  -5  -2 -15    0.96    2.10
  -5   2 -15    0.50    1.58
   5  -2  15   -0.54    2.83
   5   2  15    2.65    2.27
   5   2  15    0.40    2.42
  -5  -2 -15    1.74    2.05
   5  -2  15    1.47    2.84
  -5   2 -16    4.28    1.29
  -5   2 -16    7.33    1.77
  -5  -2 -16    8.56    2.04
   5   2  16    7.58    2.08
   5   2  16   13.28    2.51
  -5  -2 -16    8.93    2.05
   5  -2  16    9.76    2.81
   5   2  17   19.48    2.45
  -5  -2 -17   23.57    2.35
   5  -2  17   16.88    2.72
  -5  -3  17    8.19    1.95
  -5  -3  17   11.47    1.64
   5  -3 -17    8.23    1.98
  -5   3  17    7.64    2.08
  -5   3  17    8.38    1.96
   5   3 -17   10.80    1.77
  -5  -3  16  116.75    6.09
  -5  -3  16  134.23    5.71
   5  -3 -16  124.26    6.38
  -5   3  16  118.86    5.76
  -5  -3  16  108.88    5.89
  -5   3  16  128.07    6.73
  -5   3  15  226.42    9.05
  -5  -3  15  308.05    9.48
   5  -3 -15  276.51   10.48
  -5   3  15  275.76    9.50
  -5  -3  15  250.68    9.85
  -5  -3  15  252.95    9.89
  -5   3  15  276.59   11.01
  -5  -3  14    0.10    2.43
  -5   3  14    2.75    2.71
   5  -3 -14    1.11    2.64
  -5  -3  14    0.99    2.54
  -5  -3  14    1.31    2.76
  -5   3  14    0.97    2.58
  -5   3  14    3.31    2.72
  -5   3  13  445.62   13.85
  -5  -3  13  536.66   14.27
   5  -3 -13  485.16   15.89
  -5  -3  13  444.88   14.82
  -5   3  13  504.84   14.56
  -5  -3  13  455.38   14.28
  -5  -3  13  472.10   15.19
  -5   3  12   43.39    4.84
   5  -3 -12   54.70    6.24
  -5  -3  12   35.15    4.84
  -5   3  12   50.56    5.74
  -5  -3  12   43.43    5.43
  -5  -3  12   45.02    5.27
  -5  -3  11   96.41    7.54
  -5  -3  11  118.46    7.77
   5  -3 -11  102.63    8.32
  -5  -3  11   94.30    7.13
  -5   3  11   87.38    7.73
  -5  -3  11  101.69    7.74
   5  -3 -10   79.52    6.82
  -5  -3  10   80.39    6.45
   5  -3 -10   79.37    7.73
  -5   3  10   71.28    6.95
  -5  -3  10   76.80    7.01
  -5  -3  10   75.39    6.84
  -5  -3   9  432.46   14.66
   5  -3  -9  424.11   16.31
  -5  -3   9  404.13   15.44
  -5   3   9  387.18   14.85
  -5  -3   9  450.92   15.94
   5  -3  -8  118.20    8.65
   5  -3  -8  121.02    9.19
  -5  -3   8  129.13    8.92
  -5  -3   8  131.65    8.96
   5  -3  -7 1115.04   25.15
   5  -3  -7 1059.44   25.18
  -5   3   7 1321.34   36.35
  -5  -3   7 1245.34   26.05
  -5  -3   7 1088.65   24.94
   5  -3  -7 1006.65   39.15
   5  -3  -6   30.30    7.51
   5  -3  -6   40.39    5.46
   5  -3  -5    4.92    4.54
   5  -3  -5    0.14    2.84
  -5   3   4  143.74   11.88
   5  -3  -4  124.05   14.20
  -5   3   3  532.90   23.71
   5  -3  -3  408.57   25.43
   5  -3  -2   10.32    6.03
  -5   3   2   21.81   18.28
  -5   3   1  440.20   22.07
   5  -3  -1  323.41   22.31
   5  -3   0   40.88    8.19
  -5   3   0   28.14    7.04
   5  -3   1  109.05    8.34
   5  -3   1   75.15    5.06
   5  -3   1   87.93    7.84
   5  -3   1  100.09    8.16
  -5   3  -1   57.63    9.59
  -5  -3  -2   84.94   10.16
   5  -3   2   80.31    7.34
   5  -3   2   92.37   11.17
   5  -3   2   91.72    7.80
   5  -3   2   59.72    4.56
   5   3   2   58.35    8.64
  -5   3  -2   62.16    9.72
   5  -3   2   88.48    7.98
  -5  -3  -2   83.19    7.35
  -5  -3  -3  470.53   24.28
   5  -3   3  405.67   16.00
   5  -3   3  428.13   16.28
   5   3   3  302.45   20.52
  -5   3  -3  308.85   21.29
   5  -3   3  460.15   16.88
  -5  -3  -3  421.40   16.10
   5   3   4   25.51    6.85
   5  -3   4   27.71    5.41
  -5   3  -4   26.67    7.20
  -5  -3  -4   41.13    5.55
   5  -3   4   37.90    5.36
   5  -3   5  585.73   18.73
  -5   3  -5  454.29   13.54
  -5  -3  -5  503.09   16.72
  -5  -3  -5  552.79   18.18
   5  -3   6   30.18    5.50
   5  -3   6   42.28    5.67
  -5  -3  -6   32.74    4.65
  -5  -3  -6   39.96    5.60
  -5   3  -7   11.86    3.81
   5  -3   7   13.02    4.11
  -5  -3  -7    7.97    3.12
  -5  -3  -7   12.73    3.97
   5  -3   7    9.77    4.24
  -5  -3  -8   11.97    2.98
  -5   3  -8   12.84    3.63
   5  -3   8   13.99    3.97
  -5  -3  -8   15.35    3.92
   5  -3   8    6.12    3.81
  -5  -3  -8    8.38    2.80
  -5  -3  -9   94.25    6.48
  -5   3  -9   84.97    6.65
  -5  -3  -9   77.76    6.21
  -5  -3  -9   97.44    7.21
  -5  -3 -10   23.74    3.50
  -5   3 -10   20.14    3.36
   5  -3  10   31.68    5.09
  -5  -3 -10   26.46    4.08
  -5  -3 -10   23.12    3.44
   5  -3  10   24.62    4.09
  -5   3 -11   76.97    5.13
   5  -3  11   87.40    6.46
  -5  -3 -11   78.98    5.74
   5  -3  11   62.71    5.29
  -5  -3 -11   77.05    6.00
  -5   3 -11   80.70    5.57
  -5   3 -12   16.40    2.93
   5  -3  12    8.29    2.26
  -5   3 -12   15.14    2.68
  -5   3 -12   14.11    2.25
   5  -3  12   14.27    3.51
  -5   3 -12    9.60    2.16
   5   3  13   28.72    2.73
  -5   3 -13   23.70    2.57
  -5   3 -14    5.86    1.61
   5  -3  14    5.39    1.95
   5  -4 -11  270.03    7.63
  -5   4  11  367.94    9.50
   5  -4 -10    4.08    1.98
  -5  -4  10    2.30    1.46
  -5   4  10   -1.36    1.94
   5  -4  -9  158.51    7.44
  -5   4   9  168.39    8.81
   5  -4  -8   10.27    2.68
  -5   4   8   14.74    2.77
   5  -4  -7   41.38    4.09
  -5   4   7   50.01    6.22
   5  -4  -6    5.74    2.99
   5  -4  -6    5.32    2.70
   5  -4  -5  342.35    7.78
   5  -4  -5  303.82   12.30
   5  -4  -5  320.39   11.18
   5  -4  -4   70.93    6.35
   5  -4  -4   76.25    6.30
  -5   4   4   54.35    5.93
   5  -4  -3  109.84    7.62
   5  -4  -3  124.22    7.87
   5  -4  -2    5.15    2.96
  -5   4   1   23.07    3.75
   5  -4  -1   25.96    4.11
  -5   4   0   48.64    4.75
   5  -4   0   45.92    4.94
   5  -4   1  177.26    8.74
  -5   4  -1  207.06    8.16
   5  -4   2   64.77    5.15
   5  -4   2   51.80    4.78
   5  -4   3  114.61    6.19
  -5   4  -3  107.91    5.45
   5  -4   3  105.96    6.45
   5  -4   4   18.30    2.58
  -5   4  -4    8.05    2.55
  -5   4  -4    7.93    1.86
   5  -4   4   19.41    3.18
  -5  -4  -5   30.56    2.19
   5  -4   5   32.98    3.01
   5  -4   5   35.59    3.80
   5  -4   6   -2.22    2.08
  -5  -4  -6   -3.00    1.51
  -5   4  -6   -0.48    1.50
  -5  -4  -7  183.45    4.48
   5  -4   7  207.74    7.18
  -5   4  -7  202.15    7.15
  -5   4  -8   -0.97    1.69
   5  -4   8    2.31    1.98
   6   0 -22   10.15    2.10
   6   0 -22   10.80    1.63
  -6   0  21   -0.91    2.53
   6   0 -21   -0.98    1.31
  -6   0  20   26.43    4.33
  -6   0  20   17.93    3.49
  -6   0  20   19.52    3.65
   6   0 -20   25.47    3.24
  -6   0  19    0.48    3.11
  -6   0  19   -0.18    2.02
   6   0 -19   -0.20    1.50
  -6   0  19    1.53    3.15
   6   0 -19    0.55    1.83
   6   0 -19    0.40    2.09
  -6   0  18  384.39   13.91
   6   0 -18  408.27   12.92
   6   0 -18  420.90   14.32
   6   0 -18  388.05   13.27
  -6   0  18  401.39   15.28
  -6   0  17    1.43    3.22
   6   0 -17    1.28    1.92
  -6   0  17    0.06    1.73
   6   0 -17    1.75    1.95
  -6   0  17    0.13    3.23
   6   0 -17    0.80    2.46
  -6   0  16    0.78    3.13
  -6   0  16    1.86    2.14
  -6   0  16   -0.82    3.54
   6   0 -16   -3.04    3.98
  -6   0  16   -4.98    4.06
   6   0 -16    0.26    1.87
   6   0 -16   -1.67    2.40
  -6   0  15    0.11    3.62
   6   0 -15    1.03    3.83
   6   0 -14  246.96   20.14
  -6   0  14  277.31   15.92
  -6   0  13    1.76    3.31
   6   0 -13    1.35    4.79
   6   0 -12    3.70    4.32
  -6   0  11   -1.78    5.08
   6   0 -11    1.19    4.92
  -6   0  11    1.47    2.51
  -6   0  10    4.83    3.44
  -6   0  10    3.26    4.73
   6   0 -10    7.65    5.52
  -6   0  10    2.82    3.00
  -6   0   9    0.41    3.19
   6   0  -9   -0.85    2.35
  -6   0   9   -1.08    3.74
   6   0  -9    1.36    3.57
  -6   0   9    0.09    2.14
  -6   0   8   16.49    4.29
   6   0  -8   29.26    4.95
  -6   0   8   27.01    6.65
   6   0  -8   25.88    5.67
  -6   0   8   32.58    5.22
  -6   0   8   32.47    5.61
  -6   0   7   -0.27    2.09
   6   0  -7    0.10    2.26
  -6   0   7   -0.59    2.21
  -6   0   7   -0.24    3.70
   6   0  -7    0.78    3.31
  -6   0   7   -0.07    2.97
  -6   0   6   20.81    4.39
   6   0  -6   17.77    3.78
  -6   0   6   14.73    4.65
   6   0  -6   18.62    4.58
  -6   0   6   20.06    3.89
  -6   0   6   15.11    3.74
   6   0  -6   17.00    3.77
  -6   0   5   -0.46    2.51
   6   0  -5   -0.22    2.17
  -6   0   5    0.90    2.21
   6   0  -5   -0.86    3.09
  -6   0   5    0.22    2.05
   6   0  -5   -2.02    2.36
  -6   0   4    2.82    2.15
  -6   0   4    0.88    2.29
   6   0  -4    3.81    3.38
   6   0  -4   -0.04    2.13
  -6   0   4   -0.20    2.37
   6   0  -4   -1.43    2.46
  -6   0   3    1.81    2.26
   6   0  -3    0.42    2.23
   6   0  -3   -1.34    2.61
  -6   0   3    1.82    1.72
  -6   0   3    0.83    2.31
  -6   0   2  173.11    9.46
   6   0  -2  176.41   10.21
  -6   0   2  148.12    8.94
  -6   0   2  176.91   10.13
  -6   0   1    0.43    2.00
  -6   0   1   -0.96    2.31
   6   0  -1    1.06    2.24
   6   0  -1   -0.40    2.52
  -6   0   1    0.45    1.93
  -6   0   0   33.25    4.72
  -6   0   0   37.80    4.77
   6   0   0   36.15    5.46
  -6   0   0   34.04    4.70
   6   0   1    2.58    3.06
  -6   0  -1    0.66    1.93
  -6   0  -1    0.63    2.24
   6   0   2   25.81    5.15
  -6   0  -2   26.71    4.90
  -6   0  -2   23.86    4.36
   6   0   3    1.31    3.21
  -6   0  -3   -0.97    2.85
  -6   0  -3   -0.22    2.45
   6   0   3   -0.58    1.84
  -6   0  -3   -0.76    1.88
  -6   0  -4  649.90   21.19
  -6   0  -4  705.39   25.32
   6   0   4  696.32   21.73
   6   0   4  660.95   23.64
   6   0   5    3.90    4.48
  -6   0  -5   -2.93    3.45
  -6   0  -5    0.76    2.56
   6   0   5   -0.48    2.32
  -6   0  -6  183.68   12.64
  -6   0  -6  173.04   14.40
   6   0   6  196.93   13.14
   6   0   6  223.62   15.16
   6   0   7    6.10    4.77
  -6   0  -7   -5.31    4.81
  -6   0  -7    0.52    2.97
   6   0   7   -1.11    2.33
  -6   0  -8  243.20   15.70
   6   0   8  252.72   16.64
  -6   0  -9    1.15    3.25
  -6   0  -9    1.62    3.11
   6   0   9    1.21    2.72
  -6   0 -10   63.71    9.07
  -6   0 -10   43.54    8.62
   6   0  10   64.92    9.39
  -6   0 -11    4.62    3.78
  -6   0 -11    1.41    3.44
   6   0  11   -0.34    2.99
   6   0  12  208.69   10.64
  -6   0 -12  229.76   17.72
   6   0  12  176.07   11.49
   6   0  12  202.43   10.90
  -6   0 -12  187.46   10.66
   6   0  12  224.88   17.53
   6   0  12  209.14   10.64
   6   0  13    1.60    2.90
   6   0  13    1.83    3.94
   6   0  13    3.74    3.58
   6   0  13    1.73    3.10
  -6   0 -13    1.32    2.23
  -6   0 -14   24.14    3.97
   6   0  14   23.09    4.34
   6   0  14   13.91    4.41
  -6   0 -14   17.80    3.61
   6   0  14   18.97    4.20
   6   0  14   20.89    4.48
  -6   0 -15    1.60    2.44
   6   0  15   -0.40    2.60
   6   0  15   -4.50    3.28
   6   0  15    2.10    2.92
  -6   0 -16  535.39   13.83
   6   0  16  552.70   13.21
   6   0  16  541.58   13.51
  -6   0 -17    0.22    1.38
   6   0  17    2.89    2.07
   6   0  17   -1.94    2.24
   6   0  18    4.27    1.79
  -6   1  22   12.61    2.69
  -6  -1  22    9.91    1.61
   6  -1 -22    8.76    1.76
   6  -1 -22   11.35    1.96
   6   1 -22    6.29    1.44
  -6   1  21  108.31    6.13
  -6  -1  21   94.42    5.17
   6  -1 -21  100.49    5.41
   6   1 -21   86.11    4.06
   6   1 -21   80.29    4.87
   6   1 -21   96.50    4.76
   6  -1 -21  104.63    5.76
  -6   1  20    2.51    3.17
  -6  -1  20    1.81    1.67
   6  -1 -20   -1.25    1.99
   6   1 -20    2.42    1.51
   6  -1 -20    0.46    1.41
   6  -1 -20    0.90    2.03
   6   1 -20   -0.14    1.69
  -6   1  20    0.60    2.38
   6   1 -20   -0.99    1.95
  -6   1  19   35.92    5.24
  -6  -1  19   33.02    3.98
   6  -1 -19   36.51    4.58
   6   1 -19   33.19    4.40
   6  -1 -19   35.04    3.76
  -6   1  19   31.98    4.44
   6   1 -19   33.86    3.75
   6  -1 -19   38.38    4.66
  -6   1  18   65.64    7.01
  -6  -1  18   58.51    5.02
   6   1 -18   63.77    4.88
   6  -1 -18   69.48    6.20
   6  -1 -18   66.11    5.52
  -6  -1  18   65.23    6.03
  -6   1  18   67.71    6.37
   6   1 -18   64.21    5.29
  -6   1  17   31.31    5.81
  -6   1  17   34.88    4.92
  -6  -1  17   31.21    3.84
   6   1 -17   28.55    3.64
   6  -1 -17   36.29    5.17
  -6  -1  17   35.59    4.97
  -6  -1  17   22.93    4.75
   6  -1 -17   34.14    4.51
  -6   1  17   34.68    5.25
   6   1 -17   31.34    4.08
  -6   1  16   62.66    7.24
   6  -1 -16   66.15    6.15
  -6   1  16   83.59    7.22
  -6  -1  16   63.12    5.60
   6  -1 -16   62.84    5.60
  -6  -1  16   58.45    6.38
  -6  -1  16   48.97    6.03
  -6   1  16   70.38    7.19
   6   1 -16   67.83    5.67
  -6   1  15   32.77    5.34
  -6  -1  15   12.32    5.31
   6   1 -15   25.39    6.45
  -6   1  15   26.57    5.38
  -6   1  15   31.80    4.86
  -6   1  15   17.12    4.27
  -6  -1  15   25.91    3.68
   6  -1 -15   24.27    3.76
   6  -1 -15   19.86    6.89
  -6  -1  15   20.10    4.77
  -6  -1  15   24.46    4.75
   6  -1 -15   26.52    4.00
  -6   1  15   25.22    4.32
   6   1 -15   31.10    4.27
  -6  -1  14   47.84    8.99
   6  -1 -14   56.89    9.78
  -6   1  14   59.50   10.30
  -6   1  14   82.01    9.48
   6   1 -14   66.70    9.79
   6   1 -13    2.45    4.34
  -6  -1  13   -3.28    4.99
  -6   1  13    5.75    3.07
  -6   1  13    7.52    6.97
   6   1 -13    9.52    5.63
   6  -1 -13    6.41    5.86
  -6  -1  12   92.74   11.45
  -6   1  12  100.83   10.33
   6   1 -12   98.13   12.08
   6  -1 -12   86.57   11.91
  -6   1  12   89.16   12.60
   6   1 -12  100.03   11.46
   6   1 -11   42.59    7.56
  -6  -1  11   42.33    8.29
   6   1 -11   42.90    8.11
  -6   1  11   55.21   10.16
   6  -1 -11   40.84    8.31
  -6   1  11   46.52    6.91
  -6  -1  10   74.45    9.75
  -6   1  10   74.59    8.56
   6   1 -10   77.26    9.69
   6  -1 -10   63.47    9.87
  -6   1  10   74.28   11.92
   6   1 -10   64.96    9.02
  -6  -1   9   10.88    4.53
  -6   1   9   15.99    6.57
   6   1  -9   11.37    4.42
   6  -1  -9    8.71    4.86
   6   1  -9    7.75    4.57
  -6  -1   8   44.15    7.07
   6   1  -8   56.87    7.95
   6  -1  -8   39.41    8.38
  -6   1   8   60.72    9.35
  -6   1   8   48.84    6.42
   6  -1  -8   53.84    7.15
   6  -1  -7    1.28    2.52
  -6  -1   7    0.85    2.92
  -6   1   7    3.99    5.27
   6   1  -7    2.53    3.50
   6  -1  -7    1.04    3.18
  -6  -1   7    5.40    3.28
  -6   1   7    0.99    2.29
   6  -1  -6   19.82    4.57
  -6  -1   6   24.71    5.37
  -6   1   6   24.08    6.63
   6   1  -6   25.31    5.54
   6  -1  -6   16.30    5.59
  -6   1   6   23.60    4.56
  -6  -1   6   25.40    5.48
   6  -1  -5    9.54    3.88
  -6  -1   5    7.88    3.35
  -6   1   5    8.10    4.93
   6   1  -5    9.97    3.92
   6  -1  -5    9.19    4.23
  -6  -1   5   10.02    4.14
  -6   1   5    7.78    3.62
   6  -1  -4    1.60    2.68
  -6  -1   4    3.98    2.86
   6   1  -4    2.70    2.48
  -6   1   4    1.37    3.74
   6   1  -4    1.68    2.87
  -6  -1   4    4.61    3.13
  -6   1   4    3.39    2.90
   6  -1  -3    0.03    2.57
  -6  -1   3    2.97    2.77
   6   1  -3    2.59    2.62
   6   1  -3    1.39    2.08
  -6   1   3    1.98    3.36
   6   1  -3    2.47    2.91
  -6  -1   3    2.81    2.65
  -6   1   3    2.26    2.78
   6  -1  -2    1.25    2.63
  -6  -1   2    2.56    2.47
   6   1  -2    0.03    2.28
   6   1  -2   -0.64    2.16
  -6   1   2   -0.47    3.15
  -6   1   2    2.03    3.01
  -6  -1   2    3.15    2.84
  -6  -1   1    6.04    2.78
   6   1  -1   10.23    3.77
   6   1  -1    6.46    2.68
  -6   1   1    1.22    2.99
  -6   1   1    6.35    3.25
  -6  -1   1    6.05    2.74
  -6  -1   1    7.24    2.79
   6  -1  -1    5.14    3.50
  -6  -1   0    4.02    2.84
   6   1   0    3.17    3.15
   6   1   0    4.64    2.81
  -6   1   0    6.55    3.59
  -6  -1   0    2.03    1.95
   6  -1   0    3.20    2.87
  -6  -1  -1    0.38    2.18
   6   1   1    0.03    2.52
  -6  -1  -1    0.57    2.47
  -6   1  -1    1.97    3.13
   6  -1   1    0.87    1.85
   6  -1   1    0.83    3.02
  -6  -1  -2   65.52    6.97
   6   1   2   68.87    7.95
  -6  -1  -2   69.48    7.76
  -6   1  -2   59.95    7.86
   6  -1   2   62.30    6.91
   6  -1   2   59.74    8.20
   6   1   3   31.90    6.02
  -6   1  -3   16.79    5.02
  -6  -1  -3   25.55    5.16
   6  -1   3   25.39    4.98
  -6   1  -3   21.98    5.12
   6  -1   3   19.00    4.80
   6   1   4  133.66   11.91
  -6   1  -4   81.03   10.21
  -6  -1  -4  132.33   11.20
  -6   1  -4   93.78   10.20
   6  -1   4  117.80   10.24
   6  -1   4   89.47    9.62
   6   1   5   10.55    4.22
  -6   1  -5    6.14    3.29
  -6  -1  -5    7.36    3.48
  -6   1  -5    6.78    3.78
   6  -1   5   11.41    3.95
   6  -1   5    9.52    3.81
  -6  -1  -6  105.76   10.84
  -6   1  -6   72.53    9.20
  -6  -1  -6  107.27   10.01
   6  -1   6  110.24   10.85
   6   1   6  118.83   11.83
  -6  -1  -7   74.31    8.37
  -6  -1  -7   69.31    9.27
   6  -1   7   72.60    9.31
   6   1   7   83.74    9.87
   6   1   8   29.92    4.28
  -6  -1  -8   37.76    6.95
   6  -1   8   50.16    8.27
   6   1   9   28.37    5.52
  -6   1  -9   51.80    8.86
  -6  -1  -9   33.86    6.91
   6  -1   9   39.42    7.72
  -6   1 -10   88.55   10.61
  -6  -1 -10   67.55    9.53
   6   1  10   99.57   11.28
   6  -1  10   87.81   11.34
  -6  -1 -11  193.47   10.51
  -6   1 -11  201.68   10.47
   6   1  11  189.23   10.42
  -6   1 -11  182.95    8.59
  -6   1 -11  206.59   10.78
  -6  -1 -11  154.79   14.21
   6  -1  11  199.46   10.90
  -6   1 -11  194.13   15.48
   6  -1  11  171.10   11.87
  -6   1 -11  176.76   10.73
  -6  -1 -11  181.83    9.86
   6   1  11  210.42   16.20
   6  -1  11  188.92   16.53
  -6   1 -12  136.28    8.81
   6   1  12  119.77    8.27
  -6   1 -12  116.73    6.76
  -6   1 -12  133.64    8.59
   6  -1  12  101.47    9.72
  -6  -1 -12  128.27    8.35
  -6  -1 -12  121.03    8.05
   6   1  12  134.74    8.84
   6  -1  12  118.84    8.83
  -6  -1 -13   60.25    5.79
   6   1  13   60.97    6.12
  -6   1 -13   54.37    4.60
  -6  -1 -13   52.89    5.62
  -6   1 -13   70.00    6.22
  -6  -1 -13   58.15    5.55
  -6   1 -13   66.47    6.16
   6  -1  13   55.92    6.23
   6   1  13   59.11    6.22
  -6  -1 -14  154.62    8.62
   6   1  14  163.12    8.85
  -6   1 -14  148.83    7.09
  -6  -1 -14  156.59    8.24
  -6   1 -14  171.22    8.99
  -6  -1 -14  148.62    8.04
   6   1  14  157.52    8.48
   6  -1  14  146.40    9.05
  -6   1 -14  156.87    8.51
   6   1  15    3.30    2.70
  -6  -1 -15    3.15    2.38
   6   1  15    1.45    2.02
   6   1  15    2.46    3.01
   6  -1  15    3.94    3.16
  -6   1 -16   16.21    2.81
   6   1  16   14.11    3.15
  -6  -1 -16   17.78    2.55
   6   1  16   15.40    2.46
   6   1  16   13.93    2.64
   6  -1  16   15.22    3.66
   6  -1  17    9.02    2.62
  -6   1 -17    6.37    1.70
  -6  -1 -17    7.35    1.62
   6   1  17    4.38    1.55
   6   1  17   11.65    2.50
   6   1  18  280.65    6.34
  -6  -1 -18  200.10    5.82
  -6  -2  20  115.73    4.73
   6   2 -20   74.53    4.08
   6   2 -20  109.76    4.27
  -6   2  20   86.06    5.00
   6  -2 -20  103.65    5.11
  -6  -2  19   41.82    3.54
  -6   2  19   40.68    3.70
  -6  -2  19   55.56    4.57
  -6   2  19   46.46    4.44
   6   2 -19   49.03    3.46
   6  -2 -19   47.46    4.23
  -6  -2  18    4.78    1.71
  -6   2  18    0.34    2.19
  -6  -2  18   10.38    3.38
  -6   2  18    7.37    3.10
   6  -2 -18    7.72    2.50
   6   2 -18    7.28    2.02
  -6  -2  18    6.48    2.22
  -6   2  17    3.73    2.76
  -6  -2  17    6.89    2.04
   6  -2 -17    6.74    2.61
   6  -2 -17    4.53    2.43
  -6  -2  17    5.05    3.11
  -6   2  17    6.38    3.46
  -6   2  17   -0.06    2.76
   6   2 -17    9.62    2.66
  -6  -2  17    7.93    2.56
  -6  -2  17    7.25    2.50
   6  -2 -17    6.76    2.58
  -6   2  16   -0.03    3.54
  -6   2  16    1.56    2.87
  -6  -2  16    4.58    2.21
   6  -2 -16    1.18    2.58
   6  -2 -16    3.18    2.64
  -6  -2  16    0.73    3.31
   6  -2 -16    0.85    1.96
  -6   2  16   -0.16    2.67
   6  -2 -16    1.77    2.32
  -6  -2  16    2.06    2.40
  -6  -2  16    1.33    2.31
  -6   2  15   -2.80    3.25
  -6  -2  15   10.03    3.12
   6  -2 -15    1.79    2.60
   6  -2 -15    2.26    3.41
  -6  -2  15    4.06    3.40
   6  -2 -15    0.30    1.94
  -6   2  15    1.18    3.33
  -6   2  15    1.54    2.85
  -6   2  15    0.95    2.65
   6  -2 -15    0.53    2.39
  -6  -2  15    1.39    2.52
  -6  -2  15    2.59    2.78
  -6   2  14   -0.87    3.19
   6  -2 -14   -0.08    2.46
   6  -2 -14    4.62    3.42
  -6  -2  14   -1.62    3.24
   6  -2 -14   -0.06    2.09
  -6   2  14   -1.37    3.14
  -6   2  14    4.86    4.02
   6  -2 -14   -1.09    2.53
  -6  -2  14   -0.26    2.85
  -6  -2  14    0.33    3.00
   6   2 -13   29.72    8.61
  -6   2  13   36.94    5.18
   6  -2 -13   31.71    4.81
   6  -2 -13   41.09    5.75
  -6  -2  13   29.45    4.81
  -6   2  13   33.20    4.99
  -6   2  13   33.43    5.34
   6  -2 -13   30.63    4.88
   6  -2 -13   27.70    4.64
  -6  -2  13   45.93    5.74
  -6  -2  13   43.77    6.03
   6   2 -12   39.65    8.92
  -6  -2  12   43.47    8.35
  -6   2  12   37.30    6.60
  -6   2  12   57.21    6.24
  -6  -2  12   70.71    6.51
  -6   2  12   56.56   11.75
   6  -2 -12   45.54    5.69
   6  -2 -12   56.69    6.57
  -6  -2  12   39.32    5.31
   6  -2 -12   34.24    4.95
   6  -2 -12   30.94    4.64
  -6   2  12   50.50    6.27
  -6   2  12   57.22    6.08
   6  -2 -12   42.58    5.66
  -6  -2  12   46.50    5.92
  -6  -2  12   51.22    6.31
  -6  -2  11  319.37   21.51
   6   2 -11  334.50   22.42
   6   2 -10   14.55    5.76
   6  -2 -10    5.46    3.90
  -6  -2  10    8.39    5.05
   6   2  -9    4.21    4.94
   6  -2  -9    8.22    3.48
  -6  -2   9    4.28    3.76
   6  -2  -8    8.65    4.85
  -6  -2   8   12.12    4.56
   6   2  -8   10.11    5.22
   6  -2  -7   -0.73    2.98
  -6  -2   7    0.59    3.62
   6   2  -7   -6.76    5.50
   6  -2  -6    3.51    3.50
  -6  -2   6    2.53    3.36
  -6   2   6    5.15    5.00
   6   2  -6   11.65    4.83
  -6  -2   5   52.82    7.74
   6   2  -5   50.56    7.43
  -6   2   5   40.73    9.14
  -6   2   5   49.23    7.09
   6  -2  -5   42.77    8.22
   6  -2  -4    3.40    4.40
  -6  -2   4    3.18    3.30
  -6   2   4    1.02    3.68
   6   2  -4    2.73    2.81
  -6   2   4    4.08    2.93
   6  -2  -3   14.54    5.36
  -6  -2   3   16.08    4.43
   6   2  -3    9.35    2.48
   6   2  -3    6.94    2.83
  -6   2   3   13.95    4.71
  -6  -2   2   80.62    8.93
   6   2  -2   80.86    8.01
   6  -2  -2   78.05   10.38
  -6   2   2   60.83    9.19
   6   2  -1    1.42    3.22
   6  -2  -1   -0.33    3.36
  -6  -2   1    2.67    3.46
  -6   2   1   -1.77    3.68
   6  -2   0    7.75    3.84
  -6  -2   0   13.66    3.99
  -6  -2   0   14.34    4.88
  -6   2   0    2.70    3.37
   6   2   0    8.53    3.88
  -6  -2  -1  173.67   14.04
  -6   2  -1  117.65   13.34
   6   2   1  155.85   13.31
   6  -2   1  147.83   13.83
  -6  -2  -1  199.33   13.10
   6  -2   2    5.45    3.72
  -6  -2  -2    7.36    3.97
   6  -2   2    9.21    4.01
  -6   2  -2    5.14    4.32
   6   2   2    9.31    4.42
  -6  -2  -3   27.41    6.05
  -6   2  -3   12.06    4.54
   6  -2   3   24.08    5.95
   6   2   3   15.28    5.21
  -6  -2  -4   57.22    8.40
   6   2   4   43.03    8.15
  -6   2  -4   39.78    7.92
   6  -2   4   43.44    7.94
  -6  -2  -5    2.91    3.76
  -6   2  -5    6.20    4.30
   6  -2   5    5.81    3.89
   6   2   5    0.51    3.32
  -6  -2  -6   89.02   10.53
  -6   2  -6   54.86    9.41
   6   2   6   69.43    9.71
   6  -2   6   79.90   11.11
   6   2   7   23.25    6.24
  -6  -2  -7   29.90    6.66
   6  -2   7   24.85    6.74
  -6   2  -7   22.23    7.10
   6   2   8    9.87    5.00
  -6  -2  -8    5.19    3.59
  -6  -2  -8    2.93    2.82
  -6   2  -8   -3.03    4.31
  -6   2  -8    7.36    3.24
   6  -2   8    3.32    3.39
  -6  -2  -8    6.68    2.79
   6  -2   8    4.44    3.50
   6  -2   8    1.09    3.28
  -6  -2  -9   15.03    3.85
  -6   2  -9   10.99    3.27
   6  -2   9    8.89    3.81
   6  -2   9   12.69    4.82
  -6  -2  -9   14.96    3.59
  -6  -2 -10  205.95   10.58
  -6   2 -10  231.81   11.32
   6  -2  10  209.86   12.12
  -6  -2 -10  199.53   10.08
  -6   2 -10  218.91   11.19
  -6   2 -11   66.31    5.21
  -6  -2 -11   70.72    6.27
  -6   2 -11   79.84    6.80
   6  -2  11   74.31    7.36
  -6  -2 -11   54.75    5.33
  -6   2 -11   70.25    6.26
   6  -2  11   64.07    6.45
  -6   2 -12   21.53    3.19
  -6  -2 -12   21.45    3.75
  -6   2 -12   24.10    4.07
   6  -2  12   20.93    5.06
   6   2  12   32.22    4.67
  -6   2 -12   21.66    3.76
   6  -2  12   18.79    4.29
  -6   2 -13  157.85    7.61
  -6   2 -13  146.25    6.63
  -6  -2 -13  145.54    7.66
  -6   2 -13  157.89    7.87
  -6  -2 -13  147.61    7.97
   6   2  13  154.86    7.54
  -6   2 -14   39.94    3.42
  -6  -2 -14   43.71    4.09
  -6   2 -14   46.49    4.02
  -6  -2 -14   46.42    4.24
   6   2  14   39.83    3.93
   6   2  14   42.71    4.12
  -6   2 -14   42.93    3.95
   6  -2  14   38.37    4.30
  -6   2 -15    3.04    1.49
  -6  -2 -15    4.49    1.91
   6  -2  15    3.39    2.19
   6   2  15    2.82    1.89
   6   2  15    0.37    2.15
  -6  -2 -15    6.58    1.97
  -6   2 -15    4.76    1.80
   6  -2  15    4.39    2.27
  -6   2 -16    8.23    1.61
  -6  -2 -16   29.29    2.55
   6   2  16   13.80    2.17
   6   2  16   25.20    2.61
  -6  -3  17   14.13    1.72
  -6   3  17   20.86    2.59
  -6  -3  17   16.81    2.26
  -6  -3  16    2.01    1.32
   6  -3 -16    3.42    1.95
  -6   3  16    2.49    1.90
   6   3 -16    2.04    1.19
  -6  -3  16    0.03    1.73
  -6   3  16    1.12    1.96
   6  -3 -15    9.15    2.74
  -6   3  15    6.14    2.33
  -6  -3  15   12.35    2.66
  -6  -3  15    9.45    2.62
  -6   3  15    8.04    2.76
   6  -3 -14   39.83    4.63
  -6  -3  14   35.10    4.03
  -6   3  14   37.49    4.20
  -6   3  14   51.43    6.22
  -6  -3  14   37.61    4.32
  -6   3  14   38.54    4.84
   6  -3 -13   37.18    4.75
  -6   3  13   38.19    4.39
  -6  -3  13   34.41    4.42
  -6  -3  13   35.99    4.35
  -6   3  13   38.69    5.27
   6  -3 -12    0.31    2.33
   6  -3 -12   -0.17    2.88
  -6   3  12   -3.49    3.17
  -6  -3  12   -0.65    2.48
  -6  -3  12   -2.25    2.89
  -6   3  12    1.13    3.06
   6  -3 -11    4.19    2.76
  -6   3  11    1.72    2.67
  -6  -3  11    3.72    2.75
  -6  -3  11    3.24    2.50
  -6   3  11    1.96    2.99
   6  -3 -10    2.90    2.95
  -6   3  10    1.74    3.44
  -6   3  10    3.60    2.86
  -6  -3  10    3.17    2.47
  -6  -3  10    1.41    2.58
   6  -3  -9    1.78    2.76
  -6  -3   9    1.24    2.58
  -6  -3   9   -1.32    2.30
  -6   3   9   -0.06    3.14
   6  -3  -8  105.13    8.12
  -6  -3   8  125.58    8.42
  -6  -3   8  114.77    8.12
  -6   3   8  125.82    9.93
   6  -3  -7    9.53    3.83
   6  -3  -7    6.43    3.21
  -6  -3   7   13.56    3.48
  -6  -3   7    8.29    2.71
  -6   3   7    9.57    4.20
   6  -3  -6   17.25    4.12
  -6   3   6   17.52    5.01
   6  -3  -5    5.11    4.41
   6  -3  -5    6.14    3.17
  -6   3   5    3.49    3.22
   6  -3  -4    4.78    4.46
   6  -3  -4    1.90    2.82
   6  -3  -3    1.14    3.90
   6  -3  -3    4.59    3.48
  -6   3   3    5.69    4.42
   6  -3  -2    2.04    3.53
   6  -3  -2   -0.32    2.91
   6  -3  -2    2.43    3.23
  -6   3   2    0.54    3.17
   6  -3  -1   12.35    4.85
   6  -3  -1    8.33    3.23
   6  -3  -1   14.56    4.32
   6  -3  -1   21.76    4.48
  -6   3   1   10.45    4.83
   6  -3   0   -0.83    1.65
   6  -3   0   -0.95    2.70
   6  -3   0   -0.12    3.42
   6  -3   0    3.92    3.76
  -6   3   0   -0.14    3.96
   6  -3   1   15.95    4.23
  -6   3  -1   13.54    5.41
   6  -3   1   23.33    4.92
  -6   3  -1   19.76    4.57
  -6  -3  -1   13.23    3.16
  -6   3  -2   10.15    3.73
   6  -3   2    6.97    4.06
  -6  -3  -2   10.85    3.16
   6  -3   2   15.16    4.62
  -6   3  -3   84.94    7.50
   6  -3   3   97.48    8.36
  -6  -3  -3   82.64    7.19
  -6   3  -3   81.28    7.07
   6  -3   4  136.75    9.60
  -6  -3  -4  126.26    8.67
  -6   3  -4  126.71    8.02
  -6   3  -5   60.60    5.70
  -6  -3  -5   66.56    6.77
   6  -3   5   75.52    7.01
   6  -3   5   66.83    6.90
  -6  -3  -6   35.28    4.95
  -6   3  -6   36.31    5.03
   6  -3   6   41.63    5.31
  -6  -3  -6   29.33    4.07
   6  -3   6   36.39    5.58
  -6   3  -6   20.70    3.50
  -6   3  -7    0.97    2.67
   6  -3   7    4.65    3.65
  -6  -3  -7   -0.09    2.01
  -6  -3  -7    7.19    3.27
   6  -3   7    0.47    3.52
  -6   3  -8   21.67    3.99
   6  -3   8   23.25    4.45
  -6  -3  -8   18.76    3.26
  -6  -3  -8   29.33    4.51
   6  -3   8   21.47    4.74
  -6  -3  -9   43.45    4.02
  -6   3  -9   41.03    4.66
   6  -3   9   46.01    5.57
  -6  -3  -9   35.03    4.19
  -6  -3  -9   34.49    4.15
  -6   3 -10   25.53    3.32
   6  -3  10   19.80    3.91
  -6  -3 -10   18.52    3.35
   6  -3  10   21.21    3.63
  -6   3 -10   20.64    3.41
  -6   3 -11  135.74    5.56
  -6   3 -11  128.69    5.75
   6  -3  11  115.44    6.71
  -6  -3 -11  110.23    6.10
   6  -3  11   91.96    5.39
  -6   3 -11  108.80    5.68
  -6   3 -12   29.34    2.58
  -6   3 -12   26.07    2.40
   6  -3  12   22.60    3.40
  -6   3 -12   18.75    2.34
   6  -4 -10    1.84    1.92
  -6   4  10   -2.01    1.90
   6  -4  -9    3.20    1.88
  -6   4   9    1.60    1.71
   6  -4  -8    4.24    2.15
   6  -4  -8    8.92    2.50
  -6   4   8    6.78    2.13
   6  -4  -7    7.11    2.30
   6  -4  -7    8.54    2.47
   6  -4  -6   12.98    3.08
   6  -4  -6   12.67    2.87
   6  -4  -5   31.43    4.09
   6  -4  -5   36.74    4.42
  -6   4   4   31.35    4.34
   6  -4  -4   25.82    3.96
   6  -4  -4   27.45    4.11
  -6   4   4   15.64    2.94
   6  -4  -3    1.58    2.28
  -6   4   3    4.60    2.73
  -6   4   2    1.44    2.06
   6  -4  -2    1.91    2.21
  -6   4   1    3.04    2.22
   6  -4  -1    2.24    1.93
  -6   4   0   18.63    3.00
   6  -4   0   15.50    2.77
   6  -4   1    0.81    1.64
  -6   4  -1   23.83    3.44
   6  -4   2    1.42    1.44
  -6   4  -2    4.54    2.37
  -6   4  -2    7.08    2.22
   6  -4   2    2.13    2.03
   6  -4   3    0.04    1.30
  -6   4  -3    0.23    1.88
   6  -4   3   -0.94    1.87
  -6   4  -4    2.25    1.72
  -6   4  -4   -1.65    1.89
   6  -4   5   21.42    2.79
  -6   4  -5    6.63    1.89
   6  -4   6   -0.24    1.92
  -6   4  -6    9.20    2.50
  -7   0  22   13.42    2.67
   7   0 -22    5.82    1.49
   7   0 -22   12.10    1.76
   7   0 -22    9.42    1.89
  -7   0  21   54.96    5.04
   7   0 -21   54.39    4.06
  -7   0  20  378.62   12.53
   7   0 -20  355.06    9.95
   7   0 -20  351.03   10.93
  -7   0  19   58.55    6.76
   7   0 -19   58.37    5.48
  -7   0  19   69.65    6.41
   7   0 -19   50.15    4.60
   7   0 -19   61.92    5.30
  -7   0  18  310.79   13.50
   7   0 -18  331.19   12.58
  -7   0  18  298.13   12.44
   7   0 -18  320.24   11.52
   7   0 -18  304.06   11.34
  -7   0  17   -2.11    3.36
  -7   0  17    1.20    2.03
   7   0 -17    1.58    2.06
   7   0 -17   -0.71    1.91
   7   0 -17   -0.95    2.52
  -7   0  16   12.22    4.13
  -7   0  16   11.24    3.02
  -7   0  16    9.76    4.11
   7   0 -16   17.37    7.10
   7   0 -16   13.37    3.11
   7   0 -16   13.84    3.45
   7   0 -16   11.32    2.86
  -7   0  15   77.72    8.25
  -7   0  15   95.58    7.69
   7   0 -15   92.35    8.57
   7   0 -15   98.91    7.41
   7   0 -14  567.99   30.51
  -7   0  14  577.13   22.75
   7   0 -13   95.03   13.97
  -7   0  13   56.61    8.23
   7   0 -12  271.28   21.67
  -7   0  12  266.23   14.33
  -7   0  12  251.38   18.24
   7   0 -11   16.05    7.30
  -7   0  11    8.29    4.88
  -7   0  10  372.39   20.02
   7   0 -10  312.35   21.21
  -7   0  10  372.46   19.76
   7   0  -9  225.97   15.51
   7   0  -9  250.46   17.98
  -7   0   9  197.18   14.23
   7   0  -8 1651.71   41.65
  -7   0   8 1732.23   37.33
   7   0  -8 1703.32   37.40
  -7   0   8 1641.97   37.60
  -7   0   7   35.48    5.98
  -7   0   7   22.44    6.08
   7   0  -7   35.09    7.08
   7   0  -7   39.66    8.48
  -7   0   7   38.51    6.64
  -7   0   6  140.66    9.97
  -7   0   6  144.19   10.71
   7   0  -6  150.99   10.87
   7   0  -6  148.22   11.60
  -7   0   6  156.02   10.79
   7   0  -6  145.05   10.41
  -7   0   5   82.53    8.31
  -7   0   5   57.82    7.78
   7   0  -5   83.91    8.73
   7   0  -5   91.92    9.43
  -7   0   5   82.23    8.72
   7   0  -5   76.22    7.79
  -7   0   4 1284.40   28.50
   7   0  -4 1261.51   31.39
  -7   0   4 1331.14   30.51
   7   0  -4 1275.08   30.10
  -7   0   3  259.60   13.68
  -7   0   3  202.68   11.67
   7   0  -3  299.68   15.14
  -7   0   3  218.16   12.92
  -7   0   3  252.02   14.43
   7   0  -3  230.57   14.31
   7   0  -2 2902.23   45.79
  -7   0   2 2943.86   45.01
  -7   0   2 2860.43   42.38
   7   0  -1  139.02   10.38
  -7   0   1  114.77    9.31
  -7   0   1   99.42    9.13
  -7   0   1  123.49    9.30
  -7   0   0  962.63   26.33
  -7   0   0 1024.02   26.53
   7   0   0 1069.19   27.73
   7   0   0 1005.45   29.13
   7   0   1   13.57    5.24
   7   0   1   10.51    3.99
  -7   0  -1    9.36    3.93
  -7   0  -1   11.62    3.56
  -7   0  -2  559.34   21.87
  -7   0  -2  533.69   19.24
   7   0   2  547.52   22.67
  -7   0  -3  109.17   12.40
   7   0   3  141.09   13.23
  -7   0  -4 2789.89   53.69
   7   0   4 2649.99   52.39
  -7   0  -5   10.28    4.08
  -7   0  -5   15.37    6.02
  -7   0  -6  251.16   15.32
  -7   0  -6  240.15   17.69
   7   0   6  256.85   15.90
   7   0   6  252.43   17.66
  -7   0  -7   12.21    4.33
   7   0   7   17.00    5.65
  -7   0  -7   10.70    5.63
   7   0   7   13.47    4.41
  -7   0  -8 1146.17   35.33
   7   0   8 1163.60   36.88
  -7   0  -9   25.98    6.59
  -7   0  -9   24.76    7.40
   7   0   9   25.91    6.65
  -7   0 -10 1277.68   27.36
   7   0  10 1286.17   26.18
  -7   0 -10 1482.23   41.73
  -7   0 -10  898.85   22.75
  -7   0 -10 1019.13   38.65
   7   0  10 1181.46   28.69
  -7   0 -10 1452.75   29.03
  -7   0 -10 1245.87   26.90
   7   0  10 1486.52   44.09
  -7   0 -10 1299.73   26.38
   7   0  10 1278.08   26.64
   7   0  11    3.22    2.84
  -7   0 -11    1.58    2.23
  -7   0 -11   -0.18    2.79
   7   0  11    2.45    3.39
  -7   0 -11    3.39    2.73
  -7   0 -11    0.63    2.50
   7   0  11    0.37    2.98
   7   0  11    0.36    2.45
   7   0  11   -0.48    3.70
   7   0  12    3.28    2.74
   7   0  12    7.67    4.04
  -7   0 -12    4.68    2.11
   7   0  12    5.84    3.74
  -7   0 -12    6.07    2.61
   7   0  12    7.62    3.51
  -7   0 -13   14.02    3.48
   7   0  13   16.29    3.59
   7   0  13   19.05    5.05
  -7   0 -13    8.59    2.96
   7   0  13   11.46    3.83
   7   0  13   18.49    4.67
  -7   0 -14  901.47   19.49
   7   0  14  929.87   20.01
   7   0  14  910.80   17.84
   7   0  14  877.29   18.98
  -7   0 -15   10.58    2.71
   7   0  15    8.42    2.96
   7   0  15   15.29    3.57
  -7   0 -16  875.88   15.28
   7   0  16  852.71   15.17
   7   0  16  856.49   13.96
  -7   0 -17    0.53    1.12
  -7   1  22   65.61    3.94
   7  -1 -22   89.87    3.99
  -7   1  21   52.78    4.33
  -7  -1  21   37.84    3.31
   7  -1 -21   46.48    3.48
   7   1 -21   43.14    2.94
   7  -1 -21   49.93    3.24
   7   1 -21   42.81    3.32
  -7  -1  21   30.33    3.37
   7   1 -21   44.64    3.11
   7  -1 -21   48.68    3.78
  -7   1  20   14.83    3.87
  -7  -1  20   12.60    2.62
   7  -1 -20   14.78    2.83
   7   1 -20   16.26    2.44
   7  -1 -20   13.82    2.44
   7   1 -20   14.94    2.60
   7  -1 -20   13.58    2.86
   7   1 -20   14.85    2.57
   7  -1 -19  110.21    7.34
  -7   1  19  101.94    7.39
  -7  -1  19  109.00    6.69
   7  -1 -19  106.59    6.93
   7   1 -19  105.43    6.12
   7  -1 -19  105.12    6.31
   7   1 -19  115.27    7.05
  -7   1  19   95.25    7.13
  -7   1  18  237.87   11.75
  -7  -1  18  241.27    9.94
   7  -1 -18  241.12   10.65
   7  -1 -18  265.84   11.80
   7  -1 -18  238.13   10.10
   7   1 -18  269.85   11.14
  -7   1  18  240.26   11.38
   7   1 -18  238.76    9.30
  -7   1  17   46.09    6.86
  -7  -1  17   56.15    5.58
   7  -1 -17   59.44    6.47
   7  -1 -17   59.97    6.06
  -7   1  17   54.42    6.60
  -7   1  17   56.45    5.88
   7   1 -17   57.66    5.55
  -7  -1  17   45.87    6.21
  -7   1  16  157.34   10.34
  -7  -1  16  154.58    8.42
   7  -1 -16  163.01    9.51
   7  -1 -16  140.89    8.54
   7  -1 -16  169.30    9.29
  -7  -1  16  127.24    9.23
  -7   1  16  169.70   10.27
  -7   1  16  154.95    9.11
   7   1 -16  156.89    8.12
   7   1 -15   -1.54    5.45
  -7   1  15    3.71    2.89
  -7  -1  15    4.89    3.32
  -7   1  15    9.31    4.97
  -7  -1  15    1.26    1.96
   7  -1 -15    5.97    2.63
   7  -1 -15    2.86    2.34
   7  -1 -15    3.47    4.45
   7  -1 -15    7.51    2.69
  -7   1  15    0.20    2.69
   7   1 -15    2.51    1.97
   7   1 -14    6.87    5.74
  -7  -1  14    6.50    4.55
  -7   1  14   10.15    4.23
  -7   1  14    9.91    4.65
  -7   1  14    1.11    4.79
   7  -1 -14   12.52    3.59
   7   1 -14    4.74    5.07
   7  -1 -14   10.27    6.29
  -7  -1  13   70.31   10.50
  -7   1  13   76.89   10.13
   7   1 -13   68.58   10.34
   7   1 -13   96.39   14.56
   7  -1 -13   89.93   13.35
  -7   1  13   86.94   13.02
   7   1 -13   68.18   11.01
  -7  -1  12  539.30   26.68
  -7   1  12  601.58   26.21
   7   1 -12  507.94   24.69
   7   1 -12  594.74   29.40
   7  -1 -12  514.01   29.02
  -7   1  12  542.65   29.40
   7   1 -12  562.96   26.48
  -7  -1  11  153.30   15.23
  -7   1  11  158.59   14.77
   7   1 -11  147.15   14.50
   7   1 -11  175.84   17.42
   7  -1 -11  172.32   18.21
  -7   1  11  159.91   17.14
   7   1 -11  151.26   15.79
  -7  -1  10 1074.59   35.64
  -7   1  10 1112.61   34.00
   7   1 -10 1033.20   33.50
   7   1 -10 1085.01   36.84
   7  -1 -10  967.60   36.51
  -7   1  10 1107.05   40.10
   7   1 -10 1068.36   34.87
  -7  -1   9  123.48   12.17
   7   1  -9  106.26   10.75
   7   1  -9  109.95   11.48
   7  -1  -9   89.30   11.67
  -7   1   9  112.89   13.28
   7   1  -9   99.53   11.06
  -7   1   9   92.88    9.09
  -7  -1   8   38.68    6.71
   7   1  -8   38.79    6.79
  -7   1   8   30.40    8.22
   7   1  -8   29.26    6.87
   7  -1  -8   26.43    7.38
  -7   1   8   24.25    5.55
   7  -1  -8   28.38    6.13
  -7  -1   8   25.11    7.06
  -7  -1   7  348.87   19.37
   7   1  -7  337.09   18.02
   7   1  -7  308.14   19.07
   7  -1  -7  341.75   21.03
  -7   1   7  356.72   22.69
  -7   1   7  323.62   16.70
  -7  -1   7  335.11   19.70
   7  -1  -7  335.06   18.73
  -7  -1   6 2358.93   45.76
   7   1  -6 2394.90   45.13
   7   1  -6 2298.24   47.42
  -7   1   6 2520.48   53.91
  -7   1   6 2282.13   43.24
  -7  -1   6 2370.82   48.96
   7  -1  -6 2198.49   46.37
  -7  -1   5  209.10   14.68
   7   1  -5  242.96   14.78
   7   1  -5  253.21   15.65
  -7   1   5  278.62   18.20
  -7   1   5  218.56   13.98
  -7  -1   5  217.19   15.82
   7  -1  -5  245.30   16.19
  -7  -1   4 1760.80   37.94
   7   1  -4 1846.15   37.96
   7   1  -4 1815.06   40.92
  -7   1   4 1890.22   43.88
  -7   1   4 1921.82   40.36
  -7  -1   4 1818.04   41.21
   7  -1  -4 1755.75   41.13
  -7  -1   3  676.98   23.30
   7   1  -3  710.82   23.24
   7   1  -3  698.96   25.22
  -7   1   3  722.63   26.55
  -7   1   3  753.65   25.93
  -7  -1   3  652.92   23.44
   7   1  -3  689.79   23.12
   7  -1  -3  658.17   25.46
  -7  -1   2   98.80    9.09
   7   1  -2   88.50    9.19
   7   1  -2  100.06    9.78
  -7   1   2   96.56   10.04
  -7  -1   2   83.17    8.85
   7   1  -2   68.99    8.31
   7  -1  -2   82.96   10.34
  -7  -1   1  801.77   25.31
   7   1  -1  810.25   24.57
  -7  -1   1  816.10   26.96
  -7   1   1  862.57   28.42
   7   1  -1  804.05   26.29
   7  -1  -1  807.25   28.82
  -7  -1   0 2574.29   48.03
  -7   1   0 2491.09   48.92
   7   1   0 2586.27   48.46
   7  -1   0 2456.42   50.38
  -7  -1   0 2506.26   44.57
  -7  -1  -1  208.57   15.01
  -7   1  -1  197.12   14.79
   7   1   1  189.20   14.26
   7  -1   1  229.63   16.62
  -7  -1  -1  182.31   13.45
  -7  -1  -2 2205.71   46.81
  -7   1  -2 1949.08   45.01
   7   1   2 2074.78   46.50
   7  -1   2 1846.49   44.93
  -7  -1  -3  247.71   16.46
  -7   1  -3  196.92   14.92
   7   1   3  249.14   16.37
   7  -1   3  201.82   15.02
  -7  -1  -4   77.13    9.61
  -7   1  -4   56.06    8.54
   7   1   4   58.09    8.07
   7  -1   4   66.60    8.27
   7  -1   4   61.41    8.99
  -7   1  -5   91.63   11.10
  -7  -1  -5  143.78   13.39
  -7   1  -5  116.67   12.59
   7   1   5  130.79   12.84
   7  -1   5  144.12   12.42
   7  -1   5  165.81   14.22
   7  -1   6 1885.48   45.93
  -7  -1  -6 1941.70   42.82
  -7   1  -6 1905.17   45.76
  -7  -1  -6 1851.15   46.78
   7   1   6 1999.21   49.24
   7   1   7   22.61    6.56
  -7  -1  -7   23.50    6.00
  -7   1  -7   41.72    8.30
  -7  -1  -7   33.11    7.45
  -7   1  -7   18.42    5.66
   7  -1   7   32.76    6.97
  -7   1  -8  841.08   31.94
  -7   1  -8  577.97   28.30
  -7  -1  -8  730.63   30.50
   7   1   8  961.85   33.11
   7   1   8  946.84   34.29
   7  -1   8  758.15   31.29
  -7   1  -9   96.41   11.08
  -7   1  -9  105.53    7.93
  -7   1  -9   59.16    9.95
  -7  -1  -9   80.64   10.32
   7  -1   9   83.94    8.04
  -7   1  -9  106.46    8.65
  -7   1  -9   88.15    7.28
   7  -1   9   86.20   11.05
   7   1   9  104.69   12.75
   7   1   9  106.57   11.42
  -7  -1 -10   28.30    4.21
  -7   1 -10   26.84    4.48
  -7   1 -10   16.71    5.39
  -7  -1 -10   13.83    4.96
   7  -1  10   12.69    3.95
  -7   1 -10   27.09    4.75
   7  -1  10   19.74    4.70
  -7  -1 -10   33.00    4.64
  -7   1 -10   15.53    2.90
   7   1  10   24.53    5.73
   7  -1  10   19.45    5.67
  -7   1 -10   17.01    3.01
   7  -1  10   27.03    5.15
  -7  -1 -11   47.38    5.21
   7   1  11   50.67    5.79
  -7   1 -11   51.15    5.81
   7  -1  11   40.68    6.52
  -7  -1 -11   48.39    5.49
  -7   1 -11   30.78    4.29
  -7   1 -11   57.60    5.81
   7  -1  11   45.54    6.18
  -7  -1 -12  816.37   19.86
   7   1  12  824.98   19.99
  -7  -1 -12  793.26   19.31
  -7   1 -12  917.27   21.43
   7  -1  12  689.69   22.42
  -7  -1 -12  791.27   19.48
   7   1  12  808.48   19.65
   7  -1  12  791.57   20.70
  -7   1 -12  925.75   20.56
  -7  -1 -13   46.39    4.75
   7   1  13   43.23    4.88
  -7  -1 -13   48.06    5.09
  -7   1 -13   47.62    5.21
   7   1  13   42.53    5.27
  -7  -1 -13   45.25    4.78
  -7   1 -13   44.57    4.80
   7  -1  13   43.84    5.66
   7   1  14  627.01   15.72
  -7  -1 -14  596.26   14.30
  -7   1 -14  609.94   15.57
   7   1  14  565.19   12.70
   7   1  14  616.11   14.72
  -7  -1 -14  573.69   14.42
   7  -1  14  606.44   15.94
   7   1  15  201.26    8.21
  -7  -1 -15  200.22    7.37
   7   1  15  180.83    6.62
   7   1  15  202.67    7.77
  -7   1 -16   20.60    2.47
  -7  -1 -16   23.56    2.48
   7   1  16   17.19    2.10
   7   2 -20   79.05    3.70
   7   2 -20   77.10    3.73
   7  -2 -20  100.38    4.56
  -7  -2  20   94.29    4.72
  -7  -2  19   10.57    1.94
  -7   2  19    4.97    1.89
   7   2 -19   13.93    2.26
   7   2 -19    8.45    1.65
   7  -2 -19    6.13    2.01
  -7  -2  18   30.82    3.14
  -7  -2  18   26.57    3.12
   7  -2 -18   36.17    3.54
  -7   2  18   32.89    4.36
  -7   2  18   30.60    3.74
   7   2 -18   38.44    3.28
   7  -2 -18   30.23    3.88
  -7  -2  17  144.75    6.94
   7  -2 -17  153.25    8.12
  -7  -2  17  174.01    8.85
   7  -2 -17  163.96    8.02
  -7  -2  17  125.15    7.03
  -7   2  17  138.07    8.55
  -7   2  17  163.04    7.89
   7  -2 -17  150.67    8.38
   7   2 -17  157.63    6.68
  -7  -2  16   82.64    5.70
   7  -2 -16   83.75    7.00
  -7  -2  16   94.95    7.39
   7  -2 -16   91.34    6.82
  -7   2  16   84.54    7.48
  -7   2  16   80.99    6.52
   7   2 -16   98.68    5.83
   7  -2 -16   83.18    6.87
  -7  -2  16   79.39    6.33
  -7  -2  15  123.01    7.32
   7  -2 -15  136.57    9.30
  -7  -2  15  142.93    9.13
   7  -2 -15  127.16    8.41
  -7   2  15  123.35    9.26
  -7   2  15  130.37    8.43
   7  -2 -15  126.60    8.78
  -7  -2  15  122.86    8.79
  -7  -2  15  118.64    8.51
  -7   2  15  108.82    8.31
  -7   2  14  182.10   10.64
  -7  -2  14  192.84    9.16
   7  -2 -14  184.19   10.85
  -7  -2  14  190.91   10.63
   7  -2 -14  173.06   10.22
   7  -2 -14  186.35   10.20
  -7   2  14  162.72   10.51
  -7   2  14  187.50   10.28
  -7  -2  14  223.00   11.19
  -7  -2  14  201.11   10.77
  -7   2  14  176.80   10.85
  -7   2  13  171.24   10.42
  -7  -2  13  196.35    9.65
   7  -2 -13  174.65   10.97
  -7  -2  13  175.91   10.41
   7  -2 -13  162.49   10.03
  -7   2  13  182.10   11.12
  -7   2  13  150.45    9.98
   7  -2 -13  157.30   10.09
  -7  -2  13  211.84   11.23
  -7  -2  13  182.09   10.65
  -7   2  13  165.55   10.95
  -7   2  12  229.27   16.20
  -7   2  12  303.07   13.68
  -7  -2  12  309.08   11.98
   7  -2 -12  299.30   14.32
  -7  -2  12  306.28   13.24
   7  -2 -12  257.04   12.81
   7  -2 -12  233.08   12.12
  -7   2  12  293.42   13.95
  -7   2  12  254.36   12.16
  -7   2  12  360.60   17.55
  -7  -2  12  291.28   13.65
  -7  -2  12  284.69   13.43
   7   2 -12  290.73   21.30
  -7   2  12  267.21   14.37
  -7  -2  11  441.80   25.14
  -7   2  11  485.61   16.82
  -7   2  11  391.00   26.82
   7  -2 -11  455.17   17.36
  -7  -2  11  427.64   15.83
   7  -2 -11  379.47   15.40
  -7   2  11  481.87   17.30
  -7   2  11  426.07   15.34
   7   2 -11  453.12   26.23
  -7   2  11  546.19   22.20
  -7  -2  11  517.11   17.96
   7  -2 -11  429.06   16.24
  -7  -2  11  500.78   17.22
  -7   2  11  443.28   18.15
  -7  -2  10   77.70   10.93
  -7   2  10   59.15   11.81
   7   2 -10   83.82   11.64
   7  -2 -10   60.33    9.93
  -7  -2   9  137.88   13.93
  -7   2   9  107.10   15.81
   7   2  -9   98.40   14.43
   7  -2  -9  100.02   13.34
  -7  -2   8  848.66   32.53
  -7   2   8  654.35   32.97
   7   2  -8  832.10   33.87
   7  -2  -8  637.58   30.00
  -7  -2   7  280.41   18.50
   7   2  -7  260.99   17.18
   7   2  -7  253.71   17.95
  -7   2   7  228.85   19.60
   7   2  -7  267.48   19.49
   7  -2  -7  214.24   17.94
  -7  -2   6  241.13   16.71
   7   2  -6  214.26   15.23
   7   2  -6  223.70   17.48
  -7   2   6  218.66   18.57
   7  -2  -6  203.71   17.60
  -7  -2   5  844.92   30.44
   7   2  -5  794.30   28.41
   7   2  -5  803.16   32.15
  -7   2   5  702.75   30.82
  -7   2   5  729.97   27.54
   7  -2  -5  733.14   32.10
  -7  -2   4  199.36   14.49
   7   2  -4  185.39   13.33
   7   2  -4  185.46   15.54
  -7   2   4  156.24   15.01
  -7   2   4  162.98   13.83
   7  -2  -4  158.43   16.15
  -7  -2   3  314.79   17.81
   7   2  -3  305.18   16.94
   7   2  -3  285.87   19.87
  -7   2   3  236.96   17.07
   7  -2  -3  273.86   20.39
  -7  -2   2  610.28   24.69
   7   2  -2  636.14   24.14
   7   2  -2  593.97   27.35
  -7   2   1  286.43   19.43
   7   2  -1  350.39   19.87
   7  -2  -1  339.88   22.14
  -7   2   0  155.83   14.59
   7   2   0  147.77   13.53
   7  -2   0  178.65   16.57
  -7  -2   0  200.96   14.26
  -7  -2  -1 1008.32   33.75
  -7   2  -1  785.12   32.53
   7   2   1  800.93   32.31
   7  -2   1  743.25   32.31
  -7  -2  -1 1096.06   32.13
  -7   2  -2  396.76   23.08
   7   2   2  425.06   23.32
   7  -2   2  347.01   22.02
  -7  -2  -3  213.73   16.28
  -7   2  -3  168.86   15.66
   7   2   3  171.34   15.26
   7  -2   3  188.66   15.35
   7  -2   4  827.32   32.78
   7   2   4  754.04   32.14
  -7  -2  -5  226.32   16.42
   7  -2   5  196.39   16.67
   7   2   5  184.08   16.03
  -7  -2  -6   52.13    8.60
   7  -2   6   50.38    6.11
  -7  -2  -6   48.22    5.68
  -7   2  -6   57.19    6.32
  -7   2  -6   46.00    9.70
   7  -2   6   55.51    7.17
   7   2   6   36.65    8.52
   7  -2   6   50.80    8.84
  -7   2  -6   21.72    3.80
  -7  -2  -7  816.06   20.47
   7  -2   7  691.14   19.43
  -7   2  -7  789.41   21.58
  -7   2  -7  608.82   29.53
   7  -2   7  840.50   23.77
   7   2   7  729.17   31.52
   7  -2   7  697.21   31.82
  -7  -2  -7  810.16   21.18
  -7   2  -7  759.55   20.82
  -7   2  -7  704.47   18.42
  -7  -2  -8  343.42   13.42
  -7   2  -8  375.55   14.62
   7  -2   8  388.21   15.86
  -7  -2  -8  354.13   13.78
  -7   2  -8  389.36   14.70
  -7  -2  -9  121.66    8.04
  -7   2  -9  130.73    8.64
   7  -2   9  126.74    9.32
  -7   2  -9  115.31    8.45
  -7   2  -9  126.97    8.44
  -7  -2  -9  114.03    7.74
  -7   2 -10  458.52   12.32
  -7  -2 -10  459.01   14.56
  -7   2 -10  536.10   16.07
   7  -2  10  470.65   16.46
  -7  -2 -10  419.74   13.63
  -7   2 -10  498.35   15.34
  -7   2 -11  354.64   10.30
  -7  -2 -11  365.58   12.39
  -7   2 -11  416.47   13.30
   7  -2  11  380.01   14.02
  -7  -2 -11  364.92   12.41
   7   2  11  389.65   12.94
  -7   2 -11  407.69   13.18
  -7   2 -12   68.07    4.39
  -7  -2 -12   70.63    5.43
  -7   2 -12   84.40    5.84
   7  -2  12   63.78    6.23
  -7  -2 -12   66.38    5.12
   7   2  12   77.62    5.94
  -7   2 -12   75.55    5.53
  -7   2 -13  360.53    8.78
  -7  -2 -13  368.93   10.50
  -7   2 -13  437.17   11.53
   7  -2  13  276.12   10.10
  -7  -2 -13  354.40   10.48
   7   2  13  342.87    9.56
   7   2  13  380.10   10.17
  -7   2 -13  398.47   10.86
   7  -2  13  366.36   10.45
  -7   2 -14  131.83    4.60
  -7  -2 -14  145.55    6.10
  -7  -2 -14  150.92    6.04
   7   2  14  142.23    5.54
   7   2  14  150.88    5.80
  -7   2 -14  145.37    5.88
   7  -2  14  137.54    5.82
  -7  -2 -15    3.28    1.66
  -7  -2 -15    2.05    1.41
   7   2  15    0.52    1.63
  -7  -3  16   37.39    2.54
  -7  -3  16   45.59    3.54
  -7   3  16   46.52    3.52
  -7   3  16   40.84    3.72
  -7  -3  15  188.51    6.11
   7  -3 -15  187.88    7.96
  -7   3  15  180.00    6.89
  -7  -3  15  172.18    7.09
  -7   3  15  163.90    7.69
  -7  -3  14   41.60    4.67
  -7   3  14   48.00    5.39
  -7  -3  14   41.49    3.51
   7  -3 -14   30.29    3.54
   7  -3 -14   54.07    5.31
  -7   3  14   50.17    4.65
  -7   3  14   43.14    4.72
  -7  -3  14   42.36    4.46
  -7  -3  13  296.00    8.97
   7  -3 -13  304.44   10.35
   7  -3 -13  276.92   11.16
  -7  -3  13  258.38   10.15
  -7   3  13  267.09    9.85
  -7  -3  13  264.15   10.53
  -7   3  13  272.73   11.94
   7  -3 -12  123.06    7.37
   7  -3 -12  117.75    7.84
  -7   3  12  101.30    6.50
  -7   3  12  121.33    9.58
  -7  -3  12  111.59    7.30
  -7  -3  12  115.63    7.29
  -7   3  12  127.37    8.80
  -7  -3  11   12.93    3.49
   7  -3 -11   22.33    4.24
   7  -3 -11   13.42    3.69
  -7   3  11    9.15    3.10
  -7  -3  11   11.99    3.21
  -7   3  11   14.16    4.48
   7  -3 -10   98.10    7.69
  -7   3  10   86.35    6.80
  -7  -3  10   94.34    7.18
  -7  -3  10   99.96    7.19
  -7   3  10  107.32    8.92
   7  -3  -9  143.45    8.99
  -7  -3   9  163.47    9.16
  -7  -3   9  160.47    8.91
  -7   3   9  159.89   10.85
   7  -3  -8   63.16    6.89
   7  -3  -8   56.64    6.41
  -7  -3   8   65.13    6.17
  -7  -3   8   67.19    6.23
  -7   3   8   77.40    8.38
   7  -3  -7  383.44   14.78
  -7  -3   7  403.64   13.91
  -7   3   7  387.63   16.54
   7  -3  -6  120.14    8.76
  -7   3   6  133.73   13.38
  -7   3   6  118.37    9.69
   7  -3  -5   24.20    5.07
  -7   3   5   37.08    8.17
  -7   3   5   23.17    5.27
   7  -3  -4  103.54    8.53
  -7   3   4  130.38   11.66
   7  -3  -4  101.65    8.05
  -7   3   4  108.66    8.84
   7  -3  -3  743.95   20.90
   7  -3  -3  753.72   20.76
  -7   3   2   91.83    8.90
   7  -3  -2   72.88    7.23
   7  -3  -2   62.39    7.55
   7  -3  -2   74.20    7.71
  -7   3   1  493.39   18.65
   7  -3  -1  481.03   16.87
   7  -3  -1  524.75   17.40
  -7   3   0  150.95   10.52
   7  -3   0  133.31    9.03
   7  -3   0  157.90    9.97
  -7  -3   0  132.16    8.73
  -7   3  -1   78.04    7.82
   7  -3   1   45.95    6.34
   7  -3   1   77.77    7.44
  -7   3  -1  105.92    7.81
  -7  -3  -1   71.65    6.52
  -7   3  -2  166.68   10.69
   7  -3   2  187.13   11.01
  -7  -3  -2  176.62    9.98
  -7   3  -2  198.86    9.87
  -7   3  -3  492.78   17.23
   7  -3   3  517.44   17.46
  -7  -3  -3  529.15   16.99
  -7   3  -3  535.60   15.24
  -7   3  -4   13.64    3.77
  -7   3  -4   17.43    4.27
  -7  -3  -4   15.44    3.66
   7  -3   4   15.90    4.77
  -7   3  -4   10.27    3.16
  -7   3  -5  362.10   13.83
   7  -3   5  399.13   14.21
  -7  -3  -5  350.78   13.51
  -7   3  -5  355.47   12.17
   7  -3   5  341.65   13.76
  -7   3  -6  162.15    8.99
   7  -3   6  173.42    9.46
  -7  -3  -6  157.55    9.02
   7  -3   6  156.06    9.34
  -7   3  -6  141.32    7.50
  -7   3  -7   16.86    3.79
   7  -3   7   14.45    3.92
  -7  -3  -7   22.10    4.13
   7  -3   7   15.67    4.12
  -7   3  -8  174.92    8.44
   7  -3   8  167.05    8.55
  -7  -3  -8  161.99    8.37
  -7   3  -8  177.15    8.52
  -7   3  -9  612.71   13.90
   7  -3   9  597.11   15.00
  -7  -3  -9  569.85   14.00
  -7   3  -9  595.66   13.74
  -7   3 -10   15.37    2.26
  -7   3 -10   18.27    2.65
   7  -3  10   12.63    3.15
  -7  -3 -10   12.35    2.55
   7   3  10   11.02    2.05
   7  -3  10    9.96    2.52
  -7   3 -10   11.50    2.29
  -7   3 -11  239.26    5.92
   7  -3  11  227.06    7.70
  -7   3 -11  218.90    6.64
   7  -4  -9   23.33    2.94
  -7   4   9    6.57    2.30
  -7   4   8    2.78    2.09
   7  -4  -8    2.71    1.81
   7  -4  -8    4.64    2.19
  -7   4   7   45.93    4.15
   7  -4  -7   44.10    3.82
  -7   4   6   64.05    5.09
   7  -4  -6   53.45    4.45
   7  -4  -6   52.46    4.40
  -7   4   5  569.14   13.98
   7  -4  -5  390.97   11.42
   7  -4  -5  535.31   12.62
  -7   4   5  574.95   10.99
  -7   4   5  335.85   10.53
  -7   4   4   70.09    5.61
   7  -4  -4   32.99    3.70
  -7   4   3  119.57    6.63
   7  -4  -3   84.72    5.31
  -7   4   2   13.89    3.09
   7  -4  -2   10.25    2.21
  -7   4   1  258.63    9.21
  -7   4   1  297.95    8.42
  -7   4   0   66.30    4.95
   7  -4   0   55.87    3.74
  -7   4  -1  381.66    9.06
  -7   4  -1   60.15    4.88
  -7   4  -2    2.69    2.01
  -7   4  -2   -1.63    1.97
  -7   4  -3    8.72    2.14
   7  -4   3   34.23    3.20
  -7   4  -3   39.88    3.97
  -7   4  -3   11.85    1.74
  -7   4  -4    3.89    1.75
   8   0 -22  234.04    6.04
  -8   0  22  226.31    6.83
  -8   0  21    0.36    2.44
   8   0 -21    0.30    1.33
   8   0 -21    0.46    1.36
  -8   0  20 1221.32   20.97
   8   0 -20 1183.25   19.00
  -8   0  19   -0.58    3.22
   8   0 -19    1.66    2.20
  -8   0  19    0.84    1.96
   8   0 -19    0.66    1.77
  -8   0  18  217.17   10.92
  -8   0  18  181.14    9.74
   8   0 -18  196.79    9.13
   8   0 -18  204.60    9.68
  -8   0  17    0.03    3.50
  -8   0  17    3.60    2.29
   8   0 -17    1.39    2.00
   8   0 -17    0.31    2.13
   8   0 -17    0.45    1.87
  -8   0  16  794.10   21.77
  -8   0  16  753.97   19.93
   8   0 -16  841.64   20.08
   8   0 -16  834.16   21.10
   8   0 -16  763.56   17.93
  -8   0  15    1.24    3.49
  -8   0  15   -1.01    1.91
   8   0 -15    3.14    4.29
   8   0 -15    1.05    2.48
   8   0 -15   -1.19    1.94
   8   0 -14 1008.07   41.08
   8   0 -14 1078.50   24.48
   8   0 -13   -0.36    4.56
   8   0 -12  285.24   22.32
  -8   0  12  330.63   20.14
   8   0 -11    2.26    4.23
  -8   0  11   -1.88    2.81
  -8   0  10 1121.27   35.08
  -8   0  10 1201.71   36.90
   8   0  -9    1.74    3.17
  -8   0   9    0.23    3.18
   8   0  -9   -0.26    4.12
  -8   0   9    2.02    3.43
   8   0  -8 6106.92   73.34
  -8   0   8 5520.41   74.00
   8   0  -8 5726.08   82.88
  -8   0   8 5911.96   75.99
  -8   0   7   -0.76    3.27
  -8   0   7   -1.99    3.26
   8   0  -7    4.46    4.44
  -8   0   6   38.17    6.35
   8   0  -6   91.63   11.53
  -8   0   6   83.53    9.46
   8   0  -6   38.98    6.25
  -8   0   5    1.83    2.26
  -8   0   5    2.07    2.62
   8   0  -5    2.13    3.20
  -8   0   5    0.91    2.72
   8   0  -5    1.61    2.74
  -8   0   4 4114.26   56.70
   8   0  -4 3964.80   61.46
  -8   0   4 4071.04   58.09
   8   0  -4 3981.03   58.71
  -8   0   3    0.88    2.49
   8   0  -3    0.27    2.79
  -8   0   3    0.34    2.42
   8   0  -3   -1.13    2.57
   8   0  -2 4972.34   66.59
  -8   0   2 5103.91   64.35
   8   0  -2 5128.35   69.06
  -8   0   2 5100.29   62.73
   8   0  -1    0.88    2.90
  -8   0   1    0.16    2.04
  -8   0   1    1.91    2.74
   8   0   0 1048.86   30.25
  -8   0   0  984.72   29.39
  -8   0   0  996.60   28.46
  -8   0  -1    2.24    2.54
  -8   0  -1    1.51    2.60
  -8   0  -2 3026.78   54.87
  -8   0  -3   -0.37    2.21
  -8   0  -4 2960.07   57.24
  -8   0  -5    2.67    3.00
  -8   0  -6    6.14    4.51
  -8   0  -7   -0.68    2.85
  -8   0  -8  541.36   27.37
  -8   0  -9   -0.38    2.54
   8   0   9    4.36    2.78
  -8   0  -9    3.06    2.73
  -8   0  -9    1.30    2.78
  -8   0  -9   -2.36    2.91
   8   0   9    1.11    3.13
  -8   0  -9    0.14    2.67
   8   0   9   -0.86    3.39
   8   0  10 1178.90   24.67
  -8   0 -10 1281.87   26.77
  -8   0 -10 1060.59   24.16
   8   0  10 1171.34   25.05
   8   0  10 1054.44   26.54
  -8   0 -10 1148.23   25.65
  -8   0 -11    1.74    2.10
  -8   0 -11    0.53    2.16
   8   0  11   -0.75    2.38
   8   0  11    0.22    3.50
  -8   0 -11    0.47    2.57
   8   0  11   -0.77    3.39
  -8   0 -12   27.95    3.98
   8   0  12   34.50    4.65
   8   0  12   25.74    5.24
  -8   0 -12   31.65    4.61
  -8   0 -12   30.94    4.14
   8   0  12   29.95    4.98
  -8   0 -13    0.24    1.68
   8   0  13    0.52    2.55
   8   0  13    1.81    3.19
   8   0  13    2.19    2.82
  -8   0 -13   -0.95    2.65
  -8   0 -14  755.09   15.54
  -8   0 -14  762.01   14.17
   8   0  14  757.53   15.77
  -8   0 -15    0.28    1.38
   8   0  15    1.43    2.37
   8   0  16  491.68    9.33
  -8   1  21  132.42    5.68
   8   1 -21  122.73    4.97
  -8  -1  21  106.66    4.93
   8   1 -21  118.52    4.53
   8  -1 -21  136.45    4.95
  -8  -1  21   96.06    4.85
   8  -1 -21  119.78    5.02
  -8   1  20    5.26    2.84
   8  -1 -20    2.44    1.64
  -8  -1  20    1.49    1.62
   8  -1 -20    0.27    1.46
   8   1 -20    2.19    1.47
   8   1 -20    4.34    1.76
   8   1 -20    3.90    1.41
  -8  -1  20    1.16    2.05
   8  -1 -20    0.42    1.37
  -8  -1  19  105.32    6.46
  -8   1  19   91.63    6.78
  -8  -1  19   79.60    5.74
   8  -1 -19   91.21    5.53
   8   1 -19   93.10    5.65
   8  -1 -19  102.25    6.10
   8   1 -19   99.57    6.06
   8   1 -19   91.48    5.01
   8  -1 -19   96.63    6.22
  -8  -1  18  980.61   20.72
  -8   1  18  975.53   21.08
  -8  -1  18  921.44   18.92
   8  -1 -18  929.86   18.90
   8   1 -18 1034.98   20.20
   8  -1 -18 1001.96   20.16
   8   1 -18  905.17   16.57
   8  -1 -18 1041.11   21.44
  -8  -1  17   19.79    4.44
  -8   1  17   20.05    4.90
  -8  -1  17   18.84    3.38
   8  -1 -17   22.17    3.49
   8   1 -17   27.40    3.96
  -8   1  17   20.99    4.39
  -8   1  17   20.22    3.80
   8  -1 -17   23.46    3.71
   8  -1 -17   23.91    3.96
  -8  -1  16  764.71   20.35
  -8   1  16  711.46   20.19
  -8  -1  16  765.79   18.19
   8  -1 -16  765.60   19.02
   8   1 -16  815.72   20.72
  -8   1  16  856.89   22.71
   8  -1 -16  783.30   19.76
  -8   1  16  788.76   19.40
   8  -1 -16  835.34   21.24
  -8  -1  15  141.85    9.82
  -8   1  15  127.96    9.59
  -8  -1  15  147.84    8.21
   8  -1 -15  156.98    9.21
  -8   1  15  178.82   10.88
  -8   1  15  160.40    9.50
   8  -1 -15  159.20    9.56
   8   1 -14   29.35    8.35
  -8   1  14   30.87    6.67
  -8  -1  14   30.22    5.30
  -8   1  14   19.30    4.58
  -8  -1  14   18.80    2.72
   8   1 -14   23.45    7.56
   8  -1 -14   20.48    3.96
   8  -1 -14   17.27    7.32
   8  -1 -14   30.26    4.37
  -8   1  14   35.90    5.62
  -8   1  14   28.36    4.77
  -8  -1  13  247.24   18.62
  -8   1  13  314.10   19.66
   8   1 -13  280.00   18.41
   8   1 -13  280.75   21.59
   8  -1 -13  251.29   21.09
  -8   1  13  280.27   21.86
   8  -1 -13  238.85   11.76
   8  -1 -13  295.14   14.23
   8   1 -13  282.10   19.44
   8  -1 -13  251.36   11.84
  -8   1  13  304.56   14.29
  -8  -1  12 1305.24   41.09
  -8   1  12 1397.56   41.14
   8   1 -12 1453.92   40.90
   8   1 -12 1330.83   44.99
   8  -1 -12 1241.25   44.35
  -8   1  12 1339.02   46.85
   8   1 -12 1341.32   41.60
  -8  -1  11  186.81   15.53
  -8   1  11  170.43   14.39
   8   1 -11  173.22   14.65
   8   1 -11  183.96   16.80
   8  -1 -11  159.63   16.36
  -8   1  11  180.50   17.80
   8   1 -11  164.49   15.07
  -8  -1  10 1958.70   48.18
  -8   1  10 1812.38   46.13
   8   1 -10 2059.88   47.81
   8   1 -10 1926.21   52.29
   8  -1 -10 1771.57   51.49
  -8   1  10 2062.97   56.30
   8   1 -10 1879.51   47.58
  -8  -1   9  326.58   19.42
  -8   1   9  297.86   18.32
   8   1  -9  319.92   18.76
   8   1  -9  315.60   20.43
   8  -1  -9  261.67   19.43
  -8   1   9  328.16   22.12
  -8   1   9  287.18   16.21
  -8  -1   8  269.42   18.37
   8   1  -8  307.29   18.50
   8   1  -8  289.23   20.04
   8  -1  -8  270.41   19.71
  -8   1   8  337.64   22.51
  -8  -1   8  271.45   19.35
  -8   1   8  254.74   15.73
   8  -1  -8  211.57   15.69
  -8  -1   7   83.17    9.55
   8   1  -7   82.48    9.42
   8   1  -7   73.68    9.69
  -8   1   7   88.51   11.62
  -8   1   7   76.69    8.53
   8  -1  -7   63.33    8.60
  -8  -1   7   77.12   10.13
  -8  -1   6 3667.33   60.05
   8   1  -6 3692.76   61.00
   8   1  -6 3449.79   63.00
  -8   1   6 3971.20   71.42
  -8   1   6 3468.33   57.49
  -8  -1   6 3678.47   64.26
   8  -1  -6 3155.85   60.28
   8  -1  -5   27.54    6.48
  -8  -1   5   30.46    7.01
   8   1  -5   37.52    7.57
   8   1  -5   27.46    7.80
  -8   1   5   32.93    8.71
  -8   1   5   26.76    6.65
  -8  -1   5   37.51    7.24
  -8  -1   4  817.44   27.59
   8   1  -4  882.41   28.99
   8   1  -4  826.06   29.85
  -8   1   4  784.21   28.03
  -8  -1   4  815.54   29.53
   8  -1  -4  782.55   29.99
  -8  -1   3 1296.04   34.95
   8   1  -3 1321.99   34.87
   8   1  -3 1342.65   37.99
  -8   1   3 1340.96   36.71
  -8  -1   3 1236.07   34.44
   8  -1  -3 1262.41   38.11
   8   1  -3 1230.36   33.79
  -8  -1   2  135.04   11.59
   8   1  -2  124.52   12.93
  -8   1   2  108.79   11.12
  -8  -1   2   70.45    8.55
   8   1  -2   81.54    9.63
   8  -1  -2  108.19   12.11
   8   1  -1  345.42   19.43
  -8  -1   1  346.82   18.89
  -8   1   1  342.98   19.42
   8   1  -1  339.91   18.74
   8  -1  -1  327.04   20.09
  -8  -1   1  355.73   18.08
  -8   1   0 2633.84   53.79
   8   1   0 2666.55   54.49
   8  -1   0 2837.09   58.11
  -8  -1   0 2779.24   51.68
   8   1   1   16.38    4.65
  -8  -1  -1   24.23    6.18
  -8   1  -1   22.23    5.82
   8  -1   1   23.67    6.29
  -8  -1  -2 1906.43   46.89
  -8   1  -2 1517.68   42.24
   8   1   2 1758.65   45.66
   8  -1   2 1599.91   45.04
  -8  -1  -3  206.69   16.50
  -8   1  -3  172.77   14.13
   8   1   3  188.54   15.33
   8  -1   3  175.31   15.33
  -8   1  -4  464.64   22.97
   8   1   4  548.19   26.72
   8  -1   4  500.41   25.74
  -8  -1  -5  365.18   19.68
  -8  -1  -5  374.94   21.94
   8   1   5  378.30   22.68
   8  -1   5  356.26   21.87
  -8  -1  -6 1774.74   42.90
  -8  -1  -6 1689.43   46.91
  -8   1  -7   38.82    7.75
  -8  -1  -7   41.37    7.92
   8   1   7   60.54   10.61
  -8   1  -8  370.89   14.74
  -8   1  -8  374.09   14.38
  -8   1  -8  221.19   17.14
  -8  -1  -8  295.32   19.92
   8  -1   8  341.43   14.65
   8  -1   8  310.53   15.28
  -8   1  -8  358.26   16.12
  -8  -1  -8  327.79   14.78
   8   1   8  423.19   23.76
  -8   1  -8  402.61   14.33
   8  -1   8  362.27   14.15
   8   1   8  368.07   14.17
  -8  -1  -9  261.77   11.55
  -8   1  -9  291.37   12.81
  -8   1  -9  295.20   12.73
   8  -1   9  266.74   12.45
   8  -1   9  236.39   13.43
  -8   1  -9  308.24   14.25
  -8   1  -9  263.24   12.18
  -8   1  -9  291.02   12.12
   8  -1   9  279.02   12.68
   8   1   9  273.92   11.96
  -8  -1 -10  191.06    9.66
  -8   1 -10  200.35   10.16
  -8  -1 -10  185.75    9.95
   8   1  10  188.62   10.11
  -8   1 -10  217.27   10.71
   8  -1  10  166.59    9.70
  -8   1 -10  203.37   10.98
   8  -1  10  156.82   11.30
  -8   1 -10  187.70   10.17
  -8   1 -10  205.22   10.26
   8  -1  10  194.35   10.70
   8   1  10  189.04    9.78
  -8  -1 -11    4.84    2.27
   8   1  11    8.20    3.93
  -8   1 -11    1.39    2.20
   8   1  11    3.78    2.79
  -8   1 -11    1.18    2.33
  -8  -1 -11    5.58    2.89
   8  -1  11    4.30    3.74
  -8   1 -11    3.34    2.48
  -8   1 -11    3.77    2.42
   8  -1  11    2.26    3.14
   8   1  11    3.38    2.77
  -8  -1 -12  969.10   19.66
   8   1  12 1042.86   20.76
  -8  -1 -12  996.80   19.86
  -8   1 -12 1136.57   22.51
   8  -1  12  857.09   23.38
  -8  -1 -12  997.38   20.33
   8   1  12 1003.94   19.85
  -8   1 -12 1096.79   20.48
   8  -1  12 1014.37   21.20
   8   1  13   61.49    5.31
  -8  -1 -13   61.87    4.95
  -8  -1 -13   57.52    4.71
  -8   1 -13   63.48    5.37
   8   1  13   59.61    5.00
   8  -1  13   60.01    5.50
  -8   1 -14  141.74    6.53
   8   1  14  151.79    7.04
  -8  -1 -14  151.85    6.42
   8   1  14  133.13    5.37
   8   1  14  137.24    6.31
   8  -1  14  130.82    7.09
  -8   1 -15  101.50    4.75
   8   1  15  103.88    5.18
  -8  -1 -15  119.84    4.80
   8   1  15  120.63    5.09
   8  -2 -19  105.41    4.40
  -8  -2  19  105.47    4.58
   8   2 -19   92.85    4.37
   8   2 -19   72.31    4.01
  -8   2  19   68.87    4.06
  -8  -2  19   91.05    4.89
   8  -2 -19   89.37    4.62
  -8  -2  18   14.02    2.12
   8  -2 -18   11.11    2.22
   8   2 -18   11.50    2.10
  -8   2  18   11.54    2.60
  -8  -2  18   11.71    2.69
   8  -2 -18   11.08    2.27
  -8  -2  17  337.63    9.74
   8  -2 -17  363.10   11.46
   8   2 -17  309.96   10.22
  -8   2  17  358.69   10.91
  -8  -2  17  308.33   11.22
   8  -2 -17  329.94   11.19
  -8  -2  17  270.26    9.31
   8  -2 -16  304.31   11.39
   8  -2 -16  264.53   10.80
  -8  -2  16  275.58    9.31
  -8   2  16  293.34   10.89
  -8  -2  15  190.76    8.25
   8  -2 -15  205.82   10.60
   8  -2 -15  215.84   10.48
  -8   2  15  200.84    9.93
  -8   2  15  193.15   10.66
  -8  -2  15  186.41    9.48
  -8   2  15  166.15    9.65
   8  -2 -15  186.82    9.61
  -8  -2  14  758.02   16.77
   8  -2 -14  689.60   18.98
   8  -2 -14  788.23   21.35
   8  -2 -14  768.84   20.50
  -8   2  14  675.30   19.91
  -8   2  14  754.01   19.25
  -8  -2  14  780.42   19.80
  -8   2  14  683.29   20.38
  -8  -2  13  320.41   11.46
   8  -2 -13  361.64   15.00
   8  -2 -13  308.36   13.40
  -8   2  13  318.25   14.14
  -8   2  13  357.53   13.62
   8  -2 -13  305.45   13.03
  -8  -2  13  380.31   14.87
  -8  -2  13  375.17   14.40
  -8   2  13  326.61   14.86
   8  -2 -12  109.06    8.69
   8  -2 -12   86.84    7.57
  -8   2  12   95.34    8.37
  -8   2  12   97.13    7.64
  -8   2  12  108.82    9.40
   8  -2 -12   91.99    7.34
  -8  -2  12  124.98    8.57
  -8  -2  12  107.30    8.15
  -8   2  12   98.58    8.69
  -8   2  11  583.11   26.45
   8  -2 -11  750.31   21.93
   8   2 -11  800.19   34.57
   8  -2 -11  679.26   20.62
  -8   2  11  623.65   19.88
  -8   2  11  697.15   19.48
  -8   2  11  746.96   25.46
  -8  -2  11  862.62   22.34
  -8  -2  11  799.91   21.28
  -8   2  11  694.96   22.75
  -8  -2  10  795.26   32.76
   8   2 -10  729.23   30.55
  -8   2  10  590.86   31.96
   8  -2 -10  721.20   21.71
   8   2 -10  826.98   35.09
   8  -2 -10  676.36   20.98
  -8   2  10  698.11   19.85
  -8   2  10  829.26   27.59
  -8  -2  10  686.25   21.08
  -8  -2  10  854.71   22.78
   8  -2 -10  518.52   26.92
  -8  -2  10  805.53   21.78
  -8   2  10  736.35   23.48
   8  -2  -9   25.88    6.44
  -8  -2   9   40.82    7.54
   8   2  -9   27.76    6.29
  -8   2   9   25.69    7.98
   8  -2  -9   32.86    5.26
   8  -2  -9   33.06    5.25
  -8   2   9   26.28    4.76
  -8   2   9   40.73    7.59
  -8  -2   9   37.72    5.07
  -8   2   9   37.15    6.11
   8   2  -9   34.36    7.79
  -8  -2   8 1595.00   45.02
   8   2  -8 1521.75   42.70
   8   2  -8 1599.25   46.17
  -8   2   8 1212.02   44.71
   8   2  -8 1622.54   48.26
   8  -2  -8 1103.09   40.40
  -8  -2   7  240.06   17.67
   8   2  -7  227.86   16.59
   8   2  -7  219.86   16.99
  -8   2   7  178.93   17.27
   8  -2  -7  183.33   16.85
  -8  -2   6   98.02   11.33
   8   2  -6   91.70   10.55
   8   2  -6   94.52   11.96
  -8   2   6   72.20   10.96
  -8   2   6   67.64    8.55
   8  -2  -6   62.67   10.35
  -8  -2   5 2147.59   50.06
   8   2  -5 2105.67   48.07
   8   2  -5 2013.27   52.18
  -8   2   5 1542.16   46.52
  -8   2   5 1503.61   41.56
   8  -2  -5 1696.85   50.88
  -8  -2   4  874.36   31.33
   8   2  -4  876.15   30.91
   8   2  -4  808.50   34.60
  -8   2   4  640.71   27.65
   8  -2  -4  693.12   33.15
  -8  -2   3  212.17   15.40
   8   2  -3  212.18   15.00
   8   2  -3  188.12   16.73
  -8   2   3  149.53   13.91
   8  -2  -3  154.69   15.92
   8   2  -2 1379.10   43.31
  -8   2   2  908.32   34.66
   8  -2  -2 1060.29   40.51
  -8  -2   2 1340.70   38.26
   8   2  -1 1868.49   51.12
  -8   2   1 1287.00   41.22
   8   2  -1 1498.95   42.05
   8  -2  -1 1419.59   46.70
  -8  -2   1 1757.23   43.22
  -8  -2   0  108.65   11.63
  -8   2   0   69.67   10.42
   8   2   0   81.87   10.33
   8  -2   0   82.41   11.59
  -8  -2   0  112.72   11.25
  -8   2  -1  462.88   25.03
   8  -2   1  418.56   25.29
  -8   2  -2  566.19   27.77
   8   2   2  654.11   30.04
   8  -2   2  578.68   29.49
  -8   2  -3   16.22    4.21
   8   2   3    3.53    3.09
  -8  -2  -3   19.02    6.25
  -8  -2  -3    5.53    4.99
  -8   2  -3    9.51    3.17
   8  -2   3   12.03    4.14
  -8   2  -3   10.74    5.06
  -8   2  -4 1103.17   27.59
  -8  -2  -4 1399.44   41.36
  -8   2  -4 1307.44   27.84
  -8   2  -4  902.51   36.85
   8  -2   4 1412.78   30.62
   8  -2   4 1178.26   25.51
   8   2   4 1177.15   40.17
  -8  -2  -4 1175.02   23.73
  -8  -2  -4 1306.67   30.92
  -8   2  -4  971.52   22.05
  -8   2  -5  333.26   13.95
  -8   2  -5  217.68   17.87
   8  -2   5  342.11   15.43
  -8   2  -5  278.75   11.82
   8   2   5  268.76   18.94
   8  -2   5  290.16   12.78
  -8   2  -5  335.53   13.86
  -8  -2  -6   20.41    4.09
  -8   2  -6   18.50    4.05
   8  -2   6   24.61    5.37
  -8  -2  -6   14.98    3.74
   8  -2   6   18.52    4.03
  -8  -2  -7  694.43   18.14
  -8   2  -7  703.68   19.54
   8  -2   7  732.11   21.44
  -8  -2  -7  686.32   18.90
  -8   2  -7  703.76   18.93
  -8   2  -8  514.77   15.95
  -8  -2  -8  539.85   15.71
  -8   2  -8  565.05   16.89
   8  -2   8  550.19   18.18
  -8  -2  -8  502.06   15.53
  -8   2  -8  527.73   15.85
  -8   2  -8  530.93   17.99
   8   2   9    7.57    3.21
  -8  -2  -9    7.04    3.07
  -8   2  -9    2.38    2.50
   8  -2   9    3.89    4.21
  -8  -2  -9    6.85    3.18
  -8   2  -9    1.83    2.39
  -8   2  -9    5.20    3.09
  -8  -2  -9    4.66    2.84
   8   2  10  540.94   13.77
  -8  -2 -10  489.89   13.69
  -8   2 -10  542.20   14.81
   8  -2  10  523.58   15.67
  -8  -2 -10  450.34   12.77
  -8   2 -10  485.86   14.19
  -8  -2 -10  475.34   13.08
  -8   2 -10  540.26   14.31
   8   2  11  316.30    9.93
  -8  -2 -11  317.13   10.27
  -8   2 -11  353.47   11.17
   8  -2  11  318.65   11.35
   8   2  11  343.98   10.66
  -8  -2 -11  305.07    9.70
  -8   2 -11  326.59   10.47
   8   2  12   40.86    3.70
  -8  -2 -12   40.06    3.71
  -8   2 -12   54.65    4.28
   8  -2  12   37.28    4.25
  -8  -2 -12   39.37    3.40
   8   2  12   51.36    4.24
  -8   2 -12   48.74    3.92
  -8  -2 -13  177.10    6.22
  -8   2 -13  216.81    7.05
   8  -2  13  112.65    5.28
  -8  -2 -13  127.44    5.16
   8   2  13  171.39    5.69
   8   2  13  187.47    6.24
  -8   3  15  609.59   11.29
  -8  -3  15  594.10   11.49
  -8   3  15  568.99   12.64
   8  -3 -14    0.80    1.81
  -8   3  14    2.57    2.04
  -8  -3  14    2.15    2.09
  -8   3  14    1.02    2.28
  -8   3  13  422.01   11.13
  -8  -3  13  417.39   11.69
  -8   3  13  412.35   13.50
   8  -3 -12  187.50    8.47
   8  -3 -12  172.34    8.68
  -8   3  12  159.16    7.51
  -8  -3  12  160.27    7.80
  -8   3  12  158.90    9.15
   8  -3 -11  156.14    8.15
   8  -3 -11  143.60    8.29
  -8   3  11  155.62    7.53
  -8   3  11  120.00    8.99
  -8  -3  11  140.18    7.65
  -8   3  11  144.94    9.32
   8  -3 -10   59.58    5.84
   8  -3 -10   67.69    6.03
  -8   3  10   81.31    7.77
  -8  -3  10   72.11    5.73
  -8   3  10   73.36    7.04
   8  -3  -9  715.58   18.47
   8  -3  -9  672.88   18.06
  -8   3   9  796.42   24.52
  -8  -3   9  796.33   18.47
  -8   3   9  746.94   21.51
   8  -3  -8    3.34    3.15
   8  -3  -8    6.22    3.01
  -8   3   8   10.13    4.94
  -8  -3   8    4.47    2.58
  -8   3   8    8.49    3.98
   8  -3  -7  582.13   17.67
  -8  -3   7  579.86   16.74
  -8   3   7  632.59   23.85
  -8  -3   7  665.68   16.80
  -8   3   7  622.72   19.86
   8  -3  -6  146.68    9.18
  -8  -3   6  129.64    8.09
  -8   3   6  142.03   11.92
  -8   3   6  119.24    9.57
   8  -3  -5   63.19    6.42
   8  -3  -5   64.62    6.85
  -8  -3   5   63.89    5.91
  -8   3   5   72.71    9.14
  -8   3   5   45.37    6.49
  -8   3   4  263.48   13.49
   8  -3  -4  255.53   12.29
  -8  -3   4  268.37   11.15
  -8   3   4  279.04   15.13
   8  -3  -4  254.95   11.97
  -8   3   4  243.03   12.57
  -8   3   3 1809.85   34.44
   8  -3  -3 1849.83   31.09
   8  -3  -3 1842.34   31.08
  -8   3   2   97.25    9.18
   8  -3  -2   89.86    7.77
   8  -3  -2  102.69    9.04
  -8   3   2  108.86    9.15
  -8   3   1  540.88   18.94
   8  -3  -1  560.64   16.83
   8  -3  -1  573.49   17.77
  -8  -3   1  504.36   16.12
  -8   3   0  181.51   11.17
   8  -3   0  155.26    9.20
   8  -3   0  194.76   10.78
  -8  -3   0  180.14    9.81
  -8   3  -1  252.46   12.71
  -8  -3  -1  254.58   11.95
   8  -3   1  272.05   12.37
  -8   3  -2   10.19    3.52
  -8  -3  -2   13.70    3.26
  -8   3  -2   17.87    3.92
   8  -3   2   17.05    4.93
  -8   3  -3  691.37   19.40
   8  -3   3  752.61   19.57
  -8   3  -3  672.95   18.13
  -8  -3  -3  755.05   19.44
  -8   3  -3  694.82   16.65
  -8   3  -4   15.60    3.79
   8  -3   4   18.96    4.52
   8  -3   4   13.80    4.41
  -8  -3  -4   17.16    3.78
  -8   3  -5  430.39   13.57
   8  -3   5  473.67   14.26
   8  -3   5  425.00   13.94
  -8  -3  -5  464.13   14.20
  -8   3  -5  411.67   12.29
  -8   3  -5  382.82   12.76
  -8   3  -6  170.73    8.41
   8  -3   6  183.83    8.91
  -8  -3  -6  191.95    9.02
  -8   3  -6  172.86    8.25
  -8   3  -7   71.98    5.40
   8  -3   7   76.76    5.95
  -8  -3  -7   76.27    6.16
  -8   3  -7   80.58    5.96
  -8   3  -7   69.80    5.09
  -8   3  -8   35.97    2.82
  -8   3  -8   34.05    3.61
   8  -3   8   29.73    3.87
  -8  -3  -8   30.68    3.43
  -8   3  -8   27.31    2.98
  -8   3  -9  792.39   10.18
  -8   3  -9  822.28   13.53
   8  -3   9  722.88   13.60
  -8  -3  -9  755.40   13.55
   8   3   9  853.03   11.47
   8  -3   9  653.35   12.18
  -8   3  -9  711.23   12.39
  -8   3 -10   18.01    2.24
   8  -3  10   13.35    2.80
  -8   3 -10    9.78    1.94
  -8   4   7  171.72    6.32
  -8   4   6   16.46    2.74
  -8   4   5  418.03   10.43
  -8   4   5  304.80    7.24
  -8   4   4   64.44    5.44
  -8   4   4    4.63    1.87
  -8   4   3   49.75    4.01
  -8   4   3   35.80    2.97
  -8   4   2    1.12    1.71
  -8   4   2    1.23    1.72
  -8   4   1    8.98    2.33
  -8   4   1  232.59    6.92
  -8   4   0    5.42    2.04
  -8   4   0    2.66    1.90
  -8   4  -1  323.39    7.29
  -9   0  21    2.98    2.51
   9   0 -21    0.04    1.26
  -9   0  20  858.81   16.58
   9   0 -20  846.28   15.15
  -9   0  19    4.19    3.39
   9   0 -19   -1.04    1.84
   9   0 -19    0.51    1.39
   9   0 -19    0.89    1.93
  -9   0  18   -0.33    1.96
   9   0 -18    3.58    2.18
   9   0 -18    2.48    1.71
   9   0 -18    1.03    1.98
  -9   0  17    2.79    3.50
  -9   0  17   -2.00    2.14
   9   0 -17    1.54    2.17
   9   0 -17   -1.34    1.91
   9   0 -17   -0.89    2.16
  -9   0  16  309.42   13.51
  -9   0  16  283.66   12.60
   9   0 -16  323.78   12.22
   9   0 -16  324.63   12.48
  -9   0  16  280.13   12.72
  -9   0  15    4.39    4.18
  -9   0  15   -0.03    1.81
   9   0 -15    0.16    2.02
   9   0 -15    0.85    2.22
  -9   0  15    1.01    2.38
  -9   0  14 1079.38   25.43
   9   0 -14 1127.95   43.84
   9   0 -14 1123.01   23.95
   9   0 -14 1153.61   24.21
  -9   0  14 1123.95   26.66
  -9   0  13    1.77    3.67
  -9   0  13    0.22    1.71
   9   0 -13   -0.82    4.66
   9   0 -13    1.34    2.40
  -9   0  13    0.37    3.09
   9   0 -13    0.85    2.37
  -9   0  13    2.38    2.60
   9   0 -12  175.59   17.99
  -9   0  12  167.57   16.72
   9   0 -11    0.06    4.34
  -9   0  11    3.97    3.80
   9   0 -10 1411.83   46.39
  -9   0  10 1617.86   45.15
  -9   0   9    1.00    3.37
   9   0  -9    7.42    4.42
  -9   0   9    2.47    2.98
  -9   0   8 1290.59   37.70
   9   0  -8 1312.44   43.12
  -9   0   8 1427.66   39.20
  -9   0   7   -0.58    2.82
   9   0  -7    0.04    4.13
  -9   0   7    0.37    3.08
  -9   0   6    7.75    3.22
   9   0  -6    3.79    4.17
  -9   0   6    5.02    3.63
   9   0  -6    5.38    3.36
   9   0  -5   10.08    5.48
  -9   0   5    1.69    2.68
   9   0  -5    0.42    3.22
   9   0  -4  569.66   25.04
  -9   0   4  592.83   23.88
   9   0  -4  570.11   24.65
  -9   0   4  590.41   22.47
   9   0  -3   -3.72    3.43
  -9   0   3    1.99    3.13
   9   0  -3    4.80    3.93
   9   0  -2  496.18   22.86
  -9   0   2  474.24   21.30
  -9   0   2  478.70   21.20
   9   0  -2  489.90   23.65
  -9   0   1    0.53    2.17
  -9   0   1   -1.72    2.95
   9   0  -1    1.13    3.77
  -9   0   0   48.35    7.40
  -9   0   0   55.00    7.44
   9   0   0   64.32    9.13
  -9   0  -1    1.90    2.86
  -9   0  -1    0.38    2.43
   9   0   1    2.70    3.78
  -9   0  -2  567.38   25.11
  -9   0  -3   -0.11    2.70
  -9   0  -4  823.32   31.52
   9   0   4 1024.02   37.01
  -9   0  -5   -0.99    2.86
   9   0   5    3.24    4.23
  -9   0  -6  105.37   11.82
   9   0   6  137.25   14.49
  -9   0  -7    1.72    2.41
  -9   0  -7    2.25    3.00
   9   0   7    3.16    2.44
  -9   0  -7    2.16    2.47
   9   0   7    3.38    3.76
   9   0   7    0.77    2.36
   9   0   7    8.37    4.74
  -9   0  -8  356.53   14.62
  -9   0  -8  340.90   13.38
  -9   0  -8  366.47   15.24
   9   0   8  319.98   14.29
  -9   0  -8  347.25   14.12
   9   0   8  327.20   13.63
  -9   0  -9    0.47    1.83
   9   0   9   -2.26    2.51
   9   0   9    0.18    3.13
  -9   0  -9    0.55    2.56
  -9   0  -9    2.28    2.29
   9   0   9    2.30    3.50
  -9   0 -10   10.57    2.55
   9   0  10    8.65    3.09
   9   0  10    6.35    3.72
  -9   0 -10   11.58    3.33
  -9   0 -10   12.17    3.34
   9   0  10    8.07    3.68
  -9   0 -11   -0.44    1.59
  -9   0 -11    1.94    2.18
   9   0  11    0.24    2.25
   9   0  11   -4.60    3.19
  -9   0 -11   -0.45    2.38
   9   0  11    0.18    3.27
  -9   0 -12   13.89    2.64
   9   0  12   12.65    2.95
   9   0  12   12.33    3.51
  -9   0 -12   13.67    3.21
   9   0  12   13.15    3.46
  -9   0 -13    1.43    1.40
   9   0  13    1.22    1.95
  -9   0 -13    1.30    1.90
   9   0  13    1.16    2.51
  -9   0 -14  112.41    5.01
  -9   0 -14  120.71    4.72
   9   0  14  118.08    5.55
  -9   1  20  126.51    6.06
  -9  -1  20  110.42    5.20
   9   1 -20  136.52    5.44
   9   1 -20   90.03    4.64
   9  -1 -20  147.96    5.94
   9   1 -20  133.91    5.40
  -9  -1  20  118.59    5.58
   9  -1 -20  112.02    4.87
  -9  -1  19   90.44    6.01
  -9   1  19   95.91    5.93
  -9  -1  19   87.04    5.15
   9   1 -19   95.94    5.35
   9  -1 -19   94.59    5.60
   9   1 -19   91.48    5.20
  -9  -1  19   86.96    5.71
   9  -1 -19   82.29    4.91
  -9  -1  18  647.11   16.14
  -9   1  18  579.79   15.44
  -9  -1  18  601.81   14.05
   9   1 -18  613.32   14.48
   9  -1 -18  628.23   15.32
   9   1 -18  611.18   14.70
  -9   1  18  619.58   14.30
  -9  -1  18  560.96   15.88
   9  -1 -18  601.49   14.46
  -9  -1  17    7.62    3.40
  -9   1  17    7.92    3.50
  -9  -1  17    7.42    2.06
   9   1 -17    9.60    3.02
   9  -1 -17    7.96    2.68
   9   1 -17    9.96    2.64
  -9   1  17   10.01    3.21
  -9  -1  17    4.94    3.24
   9  -1 -17    8.41    2.23
  -9  -1  16  213.23   11.17
  -9   1  16  198.43   10.66
  -9  -1  16  218.95    9.75
   9  -1 -16  234.52   10.67
   9   1 -16  236.98   10.31
  -9   1  16  230.15   10.47
  -9  -1  16  204.20   11.41
  -9  -1  15  246.34   12.06
  -9   1  15  246.48   11.67
  -9  -1  15  255.56   10.45
   9  -1 -15  282.56   11.52
   9  -1 -15  260.87   11.68
   9   1 -15  277.40   11.37
  -9   1  15  259.97   11.50
  -9  -1  15  240.56   12.74
  -9  -1  14   26.33    5.03
  -9   1  14   25.10    5.12
  -9  -1  14   34.77    3.93
   9   1 -14   29.22    4.09
   9  -1 -14   29.68    4.41
  -9   1  14   30.93    4.77
   9  -1 -14   40.23    4.87
  -9   1  13    3.85    3.29
  -9  -1  13    5.50    4.02
   9   1 -13    7.73    4.95
   9  -1 -13    4.67    5.08
   9  -1 -13    4.10    2.40
   9  -1 -13    5.74    2.45
  -9   1  13    7.53    3.36
  -9  -1  13    4.89    3.11
  -9  -1  12  901.50   33.55
  -9   1  12  969.19   34.75
   9   1 -12 1062.51   35.76
  -9  -1  12  825.42   22.97
   9   1 -12  999.58   39.60
   9  -1 -12  861.38   37.70
   9   1 -12  969.48   35.50
   9  -1 -12  863.58   22.32
   9  -1 -12  816.09   21.40
  -9   1  12  868.22   21.93
  -9  -1  12  812.98   24.37
  -9  -1  12  918.83   22.18
  -9  -1  11    8.81    4.29
  -9   1  11    9.36    4.31
   9   1 -11   10.92    4.48
  -9   1  11   13.05    5.79
   9   1 -11   13.42    6.03
   9  -1 -11   11.92    5.56
   9   1 -11    8.97    4.79
  -9  -1  10  420.34   22.72
  -9   1  10  361.88   21.26
   9   1 -10  448.22   23.30
   9   1 -10  419.33   25.90
   9  -1 -10  374.51   24.31
  -9   1  10  460.27   27.74
   9   1 -10  405.47   23.08
  -9   1  10  393.67   21.11
  -9  -1   9   98.79   11.04
  -9   1   9   63.74    9.45
   9   1  -9   93.95   11.08
   9   1  -9   84.88   11.56
  -9   1   9   77.48    9.45
  -9  -1   8  499.88   24.00
  -9   1   8  397.28   22.06
   9   1  -8  545.06   25.75
   9   1  -8  456.23   25.63
  -9   1   8  450.29   22.11
  -9  -1   8  489.14   25.84
   9  -1  -8  398.88   22.24
  -9  -1   7  292.63   18.35
   9   1  -7  304.64   19.00
   9   1  -7  271.76   19.08
  -9   1   7  260.52   16.96
  -9  -1   7  289.13   19.48
   9  -1  -7  242.89   17.66
  -9  -1   6 2033.62   47.06
   9   1  -6 2084.27   47.82
   9   1  -6 1891.78   49.75
  -9   1   6 1944.04   45.34
  -9  -1   6 2022.19   49.94
   9  -1  -6 1782.32   47.76
   9  -1  -5   14.52    4.71
  -9  -1   5   17.64    5.44
   9   1  -5   15.84    5.19
   9   1  -5   19.43    5.50
  -9   1   5   10.80    4.52
  -9  -1   5   16.57    5.10
  -9  -1   4  452.00   21.75
   9   1  -4  412.58   23.02
  -9   1   4  421.42   21.60
  -9  -1   4  444.49   22.80
   9  -1  -4  414.43   23.58
   9   1  -3  402.47   22.48
  -9   1   3  372.77   20.39
  -9  -1   3  384.30   20.72
   9  -1  -3  368.38   22.13
   9   1  -3  382.12   20.34
  -9  -1   3  389.89   19.91
   9   1  -2  384.46   21.94
  -9   1   2  331.07   19.34
   9  -1  -2  336.86   21.18
   9   1  -2  352.14   20.13
  -9  -1   2  363.89   19.37
   9  -1  -1   10.43    5.66
  -9  -1   1   17.92    4.90
   9   1  -1   16.45    5.29
   9   1  -1   20.26    5.98
  -9   1   1   16.73    5.47
   9   1   0 1185.07   38.79
  -9  -1   0 1188.57   38.21
   9  -1   0 1122.23   39.55
   9   1   0 1198.48   38.39
   9   1   1  229.18   16.98
  -9  -1  -1  229.40   16.90
  -9   1  -1  179.35   15.07
   9  -1   1  187.55   16.91
   9   1   1  232.89   17.71
  -9  -1  -2  516.13   25.58
   9  -1   2  438.90   25.05
   9   1   2  501.74   26.10
   9  -1   3   13.21    5.96
   9   1   3   25.50    7.79
  -9   1  -3    8.77    4.08
  -9  -1  -3   18.56    5.33
  -9  -1  -4  121.20   12.76
   9  -1   4  108.90   13.05
   9   1   4  145.22   15.26
   9  -1   5    4.68    3.60
  -9  -1  -5    2.69    3.02
   9   1   5   15.32    8.47
  -9   1  -5    2.25    2.52
  -9  -1  -5    0.99    2.61
  -9  -1  -5    2.19    2.13
   9  -1   5    2.69    2.86
  -9  -1  -5   -0.52    3.15
   9   1   5   -0.66    2.34
  -9  -1  -5    2.43    3.28
  -9   1  -5   -0.15    2.46
   9  -1   5    2.15    2.45
  -9   1  -6  393.06   15.78
  -9  -1  -6  356.88   15.24
  -9   1  -6  408.37   14.77
  -9  -1  -6  356.55   22.09
   9  -1   6  344.54   15.60
   9   1   6  404.18   14.82
  -9   1  -6  434.01   18.00
  -9  -1  -6  371.35   16.06
   9   1   6  427.90   25.12
   9  -1   6  375.05   14.36
   9  -1   6  300.02   14.85
  -9   1  -7    1.67    2.62
  -9   1  -7    2.52    2.47
   9  -1   7    3.59    3.80
   9  -1   7    2.47    3.18
   9   1   7    8.28    3.20
  -9   1  -7    1.98    2.78
  -9  -1  -7    5.85    3.28
  -9   1  -7    1.52    2.73
   9  -1   7    2.36    3.45
  -9   1  -8    1.39    3.17
  -9   1  -8    0.13    2.21
   9  -1   8   -1.38    3.40
   9  -1   8    4.06    3.44
  -9   1  -8    0.63    2.88
  -9  -1  -8    2.77    2.91
  -9   1  -8    1.17    1.97
   9  -1   8    0.74    3.20
   9   1   8   -1.82    3.91
  -9   1  -9  130.44    8.11
  -9   1  -9  124.56    8.08
   9  -1   9  111.20    8.19
   9  -1   9  102.22    8.68
  -9   1  -9  127.40    8.92
  -9  -1  -9  118.03    7.94
  -9   1  -9  128.93    7.59
   9  -1   9  127.65    8.39
   9   1   9  108.67    7.49
  -9  -1 -10   11.55    2.45
  -9   1 -10   14.42    3.18
   9   1  10   13.29    3.45
  -9   1 -10   17.65    3.30
  -9   1 -10   14.25    3.16
   9  -1  10   11.66    4.15
  -9  -1 -10   16.44    3.43
  -9   1 -10   12.05    2.88
   9  -1  10   14.88    4.14
   9   1  10   14.65    3.81
   9   1  11    1.53    2.71
  -9  -1 -11    2.84    2.55
  -9   1 -11   -1.28    2.39
   9  -1  11    2.22    2.81
  -9  -1 -11    5.25    2.39
   9   1  11    6.15    3.21
   9  -1  11    1.96    2.99
   9   1  11    0.95    2.49
  -9   1 -11    0.25    1.78
   9   1  12   76.18    5.33
  -9  -1 -12   70.86    4.94
  -9   1 -12   75.47    4.77
  -9  -1 -12   76.67    5.26
   9   1  12   78.53    5.46
   9  -1  12   75.21    5.68
   9   1  12   71.65    4.71
  -9   1 -13   29.31    2.94
   9   1  13   32.60    3.50
  -9  -1 -13   35.10    3.28
  -9  -1 -13   22.85    2.83
   9   1  13   31.50    2.72
   9   1  13   31.31    3.40
   9  -1  13   30.23    3.68
  -9   1 -14   66.63    3.58
   9   1  14   68.22    4.08
  -9  -1 -14   74.98    3.82
   9   1  14   73.20    3.71
   9  -2 -18   47.65    3.57
  -9  -2  18   46.20    2.99
   9   2 -18   44.82    3.21
   9   2 -18   32.98    2.61
  -9   2  18   40.49    3.52
  -9  -2  18   41.11    3.54
  -9  -2  17  595.14   11.62
   9   2 -17  533.92   11.07
   9  -2 -17  616.83   14.12
  -9   2  17  589.78   12.94
  -9  -2  17  540.40   13.03
   9  -2 -17  523.49   12.04
  -9  -2  16  250.01    8.09
   9  -2 -16  214.63    8.57
   9  -2 -16  256.17   10.07
  -9   2  16  259.09    9.50
  -9  -2  16  225.30    9.35
  -9  -2  16  221.30    8.56
  -9  -2  15   16.99    2.33
   9  -2 -15   23.78    4.02
  -9   2  15   26.85    4.09
  -9  -2  15   23.20    4.01
   9  -2 -15   21.89    3.33
  -9  -2  15   20.76    3.74
  -9   2  15   21.50    3.97
   9  -2 -14  353.67   13.49
  -9   2  14  375.28   13.03
  -9  -2  14  316.54   12.80
  -9  -2  14  399.60   13.21
  -9   2  14  327.77   13.56
   9  -2 -13  247.68   11.84
  -9   2  13  280.54   11.76
  -9  -2  13  222.78   11.49
  -9  -2  13  297.54   11.97
  -9   2  13  244.17   12.54
   9  -2 -12   10.92    3.41
  -9   2  12   15.25    4.02
  -9  -2  12    9.52    3.30
  -9  -2  12   11.24    3.58
  -9   2  12    7.79    3.82
   9  -2 -11  134.96    9.32
   9  -2 -11  110.83    8.65
  -9   2  11  102.33    8.57
  -9   2  11  108.70    9.76
  -9  -2  11  104.40    8.29
  -9  -2  11  133.54    8.96
  -9   2  11  118.32    9.30
   9  -2 -10  128.82    9.28
   9  -2 -10  110.63    8.69
  -9   2  10  116.15    8.43
  -9   2  10  106.47   10.23
  -9  -2  10  104.99    8.28
  -9  -2  10  144.75    9.05
  -9   2  10  128.40   10.02
   9  -2  -9   16.75    4.12
  -9   2   9   20.93    4.60
  -9   2   9    9.33    4.18
  -9  -2   9   25.93    4.32
  -9   2   9   22.87    5.10
   9   2  -8  478.04   27.04
   9   2  -8  504.18   27.26
   9  -2  -8  385.50   15.97
  -9   2   8  411.83   14.58
  -9   2   8  446.26   20.91
   9  -2  -8  382.95   24.55
  -9  -2   8  476.08   16.03
  -9   2   8  418.36   17.81
  -9  -2   7  606.14   27.71
   9   2  -7  614.59   27.73
  -9   2   7  483.71   17.99
   9   2  -7  560.93   28.24
  -9   2   7  447.89   26.75
   9  -2  -7  423.51   16.65
  -9   2   7  547.86   22.71
   9  -2  -7  431.07   26.33
  -9  -2   7  532.49   16.98
  -9   2   7  520.44   19.83
   9  -2  -6   25.49    6.74
  -9  -2   6   38.67    7.22
   9  -2  -6   24.35    4.72
   9   2  -6   47.61    8.19
  -9   2   6   34.00    5.45
   9   2  -6   31.89    7.84
  -9   2   6   16.65    4.73
  -9   2   6   31.46    6.07
  -9  -2   6   35.95    4.94
  -9   2   6   32.44    5.92
  -9  -2   5  590.38   26.79
   9   2  -5  562.00   25.59
  -9   2   5  451.22   17.92
   9   2  -5  511.02   28.10
  -9   2   5  433.91   22.32
   9  -2  -5  349.12   14.90
  -9  -2   5  417.54   16.87
  -9   2   5  519.20   21.41
   9  -2  -5  430.98   26.54
  -9   2   5  496.37   19.93
  -9  -2   4  438.09   23.05
   9   2  -4  445.99   22.26
   9   2  -4  410.39   24.77
  -9   2   4  305.20   19.22
   9  -2  -4  375.58   14.91
   9  -2  -4  251.69   12.58
  -9  -2   4  359.67   14.58
  -9   2   4  438.35   20.10
   9  -2  -4  343.06   23.98
  -9   2   4  368.44   16.69
   9  -2  -3    3.82    4.42
  -9  -2   3   11.33    4.87
   9   2  -3    5.99    6.16
   9  -2  -3   21.35    4.99
  -9   2   3    4.46    3.46
  -9   2   3    8.02    5.12
  -9   2   3    4.88    3.63
  -9   2   2  286.62   14.67
   9   2  -2  340.96   22.71
  -9   2   2  236.73   17.61
  -9   2   2  342.50   16.61
  -9   2   2  305.71   11.81
   9  -2  -2  297.55   13.35
  -9  -2   2  286.00   12.38
   9  -2  -2  264.69   20.96
  -9   2   2  263.42   14.38
  -9  -2   2  334.06   19.60
  -9   2   1  494.99   18.68
   9   2  -1  486.32   27.89
  -9   2   1  358.34   22.43
  -9   2   1  413.59   13.60
  -9  -2   1  446.47   14.99
  -9  -2   1  370.18   15.97
  -9   2   1  560.31   20.11
   9  -2  -1  423.15   26.39
   9  -2  -1  437.04   15.79
   9  -2   0    3.36    4.59
  -9   2   0    5.17    3.31
   9   2   0    4.74    3.13
  -9  -2   0    7.94    4.61
   9   2   0   11.40    5.78
  -9   2   0    3.04    3.11
  -9   2   0   15.39    4.05
   9  -2   0   16.38    4.84
  -9  -2   0    5.90    2.39
  -9  -2   0    5.05    3.43
  -9   2   0    4.78    3.71
  -9  -2   0    1.03    9.00
  -9   2  -1  427.62   17.33
   9   2   1  448.01   26.58
  -9  -2  -1  439.73   23.25
  -9   2  -1  426.70   15.34
  -9   2  -1  335.50   21.71
   9  -2   1  395.21   14.95
  -9   2  -1  318.40   12.51
  -9  -2  -1  410.78   13.81
   9   2   1  396.35   23.04
  -9  -2  -1  404.72   17.01
   9  -2   1  302.27   21.95
  -9   2  -2  165.25   11.56
  -9   2  -2  174.46   10.12
  -9   2  -2  108.72   13.27
   9  -2   2  160.61    9.81
  -9   2  -2  125.41    7.82
  -9  -2  -2  165.79    8.90
   9   2   2  151.55   14.37
  -9  -2  -2  163.39   10.89
   9  -2   2  135.77   14.82
  -9   2  -3    6.19    2.95
   9  -2   3    7.98    4.34
  -9  -2  -3    0.43    4.52
  -9   2  -3   -6.30    4.67
   9  -2   3    3.25    3.56
  -9  -2  -3    8.99    2.57
  -9  -2  -3    9.17    3.55
  -9   2  -4   74.02    7.07
   9  -2   4   90.99    8.56
   9  -2   4   81.13    7.23
  -9  -2  -4   83.63    6.33
  -9   2  -5    4.26    2.73
   9  -2   5    8.88    3.91
   9  -2   5    4.57    3.13
  -9   2  -5    4.55    2.64
  -9   2  -6    0.57    2.37
   9  -2   6    1.46    4.12
  -9  -2  -6   -2.70    2.83
  -9   2  -6   -7.80    3.18
  -9   2  -7   92.81    6.87
  -9  -2  -7   87.42    6.34
  -9   2  -7   95.07    6.83
   9  -2   7   88.18    7.80
  -9   2  -7   77.78    7.30
  -9  -2  -7   89.41    6.49
  -9   2  -7   81.15    6.11
  -9   2  -8   73.23    5.54
  -9  -2  -8   79.74    5.73
   9   2   8   77.58    5.78
  -9  -2  -8   82.02    5.74
  -9   2  -8   83.23    6.19
   9  -2   8   82.25    7.22
  -9   2  -8   81.08    6.50
  -9   2  -8   68.76    5.28
   9   2   9    3.68    2.26
  -9  -2  -9    2.23    1.90
  -9   2  -9    2.09    2.03
   9  -2   9    2.30    3.21
  -9   2  -9    2.78    2.24
  -9  -2  -9    5.93    2.13
  -9  -2  -9    3.84    1.86
  -9   2  -9    2.01    1.76
   9   2  10   43.01    3.92
  -9  -2 -10   45.28    3.93
  -9   2 -10   40.34    4.19
   9  -2  10   37.99    4.61
   9   2  10   51.03    4.94
  -9   2 -10   38.73    3.59
  -9   2 -10   43.11    3.79
   9   2  11  248.88    7.49
  -9  -2 -11  249.87    7.60
  -9   2 -11  276.01    8.48
   9  -2  11  243.16    8.38
   9   2  11  260.25    7.81
  -9   2 -11  231.60    7.23
  -9  -2 -12    7.49    1.82
  -9   2 -12    9.09    1.93
   9  -2  12    3.11    2.06
   9   2  12    6.16    1.92
   9   2  12    8.51    2.22
   9  -3 -14  112.68    5.18
  -9  -3  14   75.61    4.49
  -9   3  14   89.68    4.37
  -9   3  14  109.92    5.88
  -9   3  13  204.24    6.82
  -9   3  13  199.66    8.59
  -9   3  12  204.39    7.21
  -9   3  12  196.99    9.29
   9  -3 -11   39.01    4.39
  -9  -3  11   28.64    3.61
  -9   3  11   40.44    5.18
  -9   3  10   73.34    5.70
   9  -3 -10   74.07    5.88
  -9  -3  10   68.09    5.35
  -9   3  10   59.44    5.79
  -9   3  10   80.99    6.94
  -9   3   9  409.94   13.80
   9  -3  -9  412.12   13.31
  -9  -3   9  379.00   12.52
  -9   3   9  412.12   15.31
  -9   3   8    3.95    3.07
   9  -3  -8    3.75    3.50
  -9  -3   8    0.37    1.72
  -9   3   8    0.33    3.18
  -9   3   7  125.60    8.49
   9  -3  -7  129.24    8.33
  -9  -3   7  136.16    7.66
  -9   3   7  130.96    9.72
  -9   3   7  124.61    9.03
  -9   3   6   48.86    6.01
   9  -3  -6   40.84    5.78
   9  -3  -6   42.86    5.11
  -9  -3   6   51.80    4.95
  -9   3   6   40.09    5.87
  -9   3   6   45.14    5.74
  -9   3   5   48.50    6.16
   9  -3  -5   38.14    5.74
   9  -3  -5   40.82    5.26
  -9  -3   5   49.02    4.66
  -9   3   5   28.47    5.66
  -9   3   5   43.44    5.62
  -9   3   4   17.85    4.24
   9  -3  -4   21.00    4.58
   9  -3  -4   28.08    5.14
  -9  -3   4   26.18    3.66
  -9   3   4   25.69    5.00
  -9   3   4   17.32    3.86
  -9   3   3  330.27   14.40
   9  -3  -3  289.93   12.32
   9  -3  -3  326.57   12.91
  -9  -3   3  332.59   11.25
  -9   3   3  312.56   14.45
  -9   3   2    3.90    3.46
   9  -3  -2    0.31    2.86
   9  -3  -2    6.00    4.25
  -9  -3   2    1.14    1.56
  -9   3   2    4.15    2.86
  -9  -3   2   -4.31    3.06
  -9   3   1   86.18    7.56
   9  -3  -1   85.78    6.41
  -9  -3   1   85.04    6.38
   9  -3  -1   88.78    7.38
  -9   3   0   48.47    5.76
  -9   3   0   32.45    4.50
  -9  -3   0   40.24    4.48
   9  -3   0   45.62    5.93
  -9   3   0   46.30    5.04
  -9   3  -1  142.58    9.32
   9  -3   1  157.02    9.22
  -9  -3  -1  155.38    8.35
  -9   3  -1  158.01    7.94
  -9   3  -2    3.48    2.74
  -9  -3  -2    3.57    2.36
  -9   3  -2   -5.27    3.28
   9  -3   2    4.13    3.41
  -9   3  -3  166.98    8.27
   9  -3   3  186.40    9.53
  -9   3  -3  178.78    8.09
  -9   3  -4   37.41    4.06
   9  -3   4   40.09    4.56
  -9  -3  -4   46.29    4.53
   9  -3   4   38.05    4.90
  -9   3  -4   34.88    3.98
  -9   3  -5    9.32    2.58
   9  -3   5    5.94    2.93
  -9  -3  -5   13.64    3.03
   9  -3   5    7.87    3.32
  -9   3  -5    1.69    1.98
  -9   3  -6   96.17    5.41
   9  -3   6   89.26    5.42
   9  -3   6   74.71    5.24
  -9  -3  -6  108.90    5.97
  -9   3  -6   98.11    6.02
  -9   3  -6   71.85    4.28
  -9   3  -7   29.49    2.94
   9  -3   7   23.23    3.10
  -9  -3  -7   25.61    2.82
  -9   3  -7   22.80    2.78
  -9   3  -7   17.29    2.10
  -9   3  -8  102.03    4.51
  -9  -3  -8  101.17    4.59
 -10   0  20  109.48    5.85
  10   0 -20  112.22    5.00
 -10   0  19    0.13    2.93
  10   0 -19   -1.77    1.43
  10   0 -19    0.61    1.60
 -10   0  18    5.23    3.44
  10   0 -18    3.87    1.90
  10   0 -18    5.82    2.00
  10   0 -18    6.76    2.27
 -10   0  17    0.47    3.61
  10   0 -17    0.60    1.98
  10   0 -17    0.05    1.80
  10   0 -17    1.71    2.03
 -10   0  17   -1.08    2.07
 -10   0  16   -0.67    3.95
 -10   0  16   -0.69    1.87
  10   0 -16    0.23    2.19
  10   0 -16    0.28    2.05
  10   0 -16    0.96    2.11
 -10   0  16   -0.27    2.09
 -10   0  15    5.82    4.22
 -10   0  15   -0.26    1.86
  10   0 -15    0.25    2.10
  10   0 -15    0.70    2.16
  10   0 -15   -0.22    1.99
 -10   0  15   -0.46    2.69
 -10   0  15    0.94    2.32
 -10   0  14    5.53    3.73
 -10   0  14    5.20    2.30
  10   0 -14    5.78    2.76
 -10   0  14    9.45    3.70
  10   0 -14    4.65    2.68
  10   0 -14    5.69    2.38
 -10   0  14    4.68    2.76
 -10   0  13    2.58    3.88
  10   0 -13    1.83    2.41
  10   0 -13   -0.71    1.77
 -10   0  13    2.90    3.14
 -10   0  13   -1.52    2.88
 -10   0  12   14.81    4.50
  10   0 -12    3.69    5.93
  10   0 -12   12.05    3.18
 -10   0  12    8.80    4.58
  10   0 -12   11.79    2.87
 -10   0  12    9.95    3.75
 -10   0  12   10.52    3.72
 -10   0  11    0.28    3.73
  10   0 -11    2.86    6.27
  10   0 -11    1.35    1.97
 -10   0  11    1.11    3.66
 -10   0  11    0.62    2.87
 -10   0  11    0.49    3.05
  10   0 -10    3.89    5.41
 -10   0  10    3.41    3.59
  10   0  -9    7.59    6.26
 -10   0   9    2.50    3.34
  10   0  -8   15.06    6.75
 -10   0   8   18.74    5.60
 -10   0   7    2.62    2.76
  10   0  -7   -3.05    4.14
 -10   0   7   -0.58    3.35
  10   0  -6   54.31    9.63
 -10   0   6   52.30    8.20
  10   0  -5   -4.29    4.28
 -10   0   5   -3.77    4.03
  10   0  -5   -4.36    4.36
  10   0  -4  244.77   18.19
 -10   0   4  247.14   16.78
  10   0  -4  244.93   17.85
 -10   0   3    4.18    4.39
  10   0  -3    1.21    3.76
 -10   0   2   10.07    4.09
  10   0  -2    8.11    4.40
 -10   0   1    0.35    2.37
 -10   0   1    1.79    2.74
  10   0  -1    1.33    3.75
 -10   0   0    8.06    4.03
 -10   0   0   10.39    4.12
  10   0   0   13.76    5.29
 -10   0  -1   -0.61    2.41
  10   0   1   -1.21    3.27
 -10   0  -2  289.43   18.90
  10   0   2  284.39   20.47
 -10   0  -3   -1.41    2.38
  10   0   3    4.10    4.45
 -10   0  -4   98.58    7.94
 -10   0  -4   88.67   10.89
  10   0   4  103.68    8.12
 -10   0  -4  108.88    8.67
 -10   0  -4  111.22    8.53
  10   0   4   93.05   12.73
  10   0   4   94.20    7.95
 -10   0  -5    2.65    2.93
 -10   0  -5    3.62    2.73
 -10   0  -5   -0.26    2.82
  10   0   5   -0.31    2.75
 -10   0  -5   -0.56    2.67
  10   0   5    1.10    2.31
  10   0   5    5.55    4.47
 -10   0  -6   23.80    4.31
  10   0   6   23.38    4.67
 -10   0  -6   22.93    4.20
 -10   0  -6   18.46    3.72
  10   0   6   21.67    4.59
  10   0   6   15.57    4.01
 -10   0  -7    2.65    2.39
  10   0   7   -0.88    2.90
 -10   0  -7    2.28    2.55
 -10   0  -7    1.25    2.50
  10   0   7   -0.47    3.31
  10   0   7    0.61    2.34
  10   0   8  335.31   12.46
  10   0   8  342.11   14.27
 -10   0  -8  356.97   13.33
 -10   0  -8  377.80   14.16
  10   0   8  349.69   13.35
  10   0   9   -3.29    2.50
  10   0   9    3.20    2.97
 -10   0  -9    2.33    2.44
 -10   0  -9    1.71    2.49
  10   0   9    3.31    3.41
 -10   0 -10  273.02    9.40
  10   0  10  288.57   10.22
  10   0  10  275.02   12.29
 -10   0 -10  293.62   11.34
 -10   0 -10  291.25   11.22
  10   0  10  288.76   11.10
 -10   0 -11    0.85    1.31
  10   0  11    2.05    1.95
  10   0  11    2.47    2.41
 -10   0 -11   -0.77    1.97
  10   0  11   -3.32    2.96
 -10   0 -12    0.95    1.18
  10   0  12   -0.04    1.84
  10   0  12    0.71    2.16
  10   0  12    2.46    2.29
 -10   0 -13   -0.38    1.31
  10   0  13   -0.22    1.94
  10   1 -20    7.27    1.69
  10  -1 -20   11.16    1.98
 -10  -1  19   26.36    3.62
 -10   1  19   34.64    3.68
 -10  -1  19   27.71    2.71
  10   1 -19   36.95    3.09
  10   1 -19   31.09    3.20
  10  -1 -19   37.79    3.38
  10   1 -19   39.39    3.09
 -10  -1  19   31.77    3.20
 -10  -1  18   34.31    4.25
 -10   1  18   31.91    4.05
 -10  -1  18   28.36    3.12
  10   1 -18   29.88    3.21
  10  -1 -18   33.99    3.65
  10   1 -18   29.60    3.06
 -10   1  18   28.73    3.46
 -10  -1  18   29.06    3.67
 -10  -1  17   10.90    3.46
 -10   1  17    9.47    3.03
 -10  -1  17    9.02    2.32
  10   1 -17    8.76    2.41
  10  -1 -17   11.34    2.78
  10   1 -17    6.92    1.93
 -10   1  17    9.07    2.65
 -10  -1  17    8.73    2.93
 -10  -1  16    5.46    3.41
 -10   1  16    4.51    3.09
 -10  -1  16    5.87    1.82
  10   1 -16    5.79    2.39
  10  -1 -16    6.19    2.10
  10  -1 -16    3.68    2.43
  10   1 -16    7.33    2.41
 -10   1  16    5.54    2.76
 -10  -1  16    6.57    2.88
 -10  -1  15    1.69    3.42
 -10   1  15    2.58    3.33
  10   1 -15    4.15    2.45
  10  -1 -15    4.88    2.17
  10   1 -15    4.15    1.94
 -10   1  15    4.74    2.96
 -10  -1  15    3.07    3.09
  10  -1 -15    3.28    2.49
 -10  -1  14   -1.87    3.64
  10  -1 -14   -0.21    1.88
  10  -1 -14    0.19    2.37
 -10   1  14    3.11    2.89
 -10  -1  14    0.73    2.78
 -10  -1  13    2.07    3.65
  10  -1 -13    0.65    2.14
  10  -1 -13   -0.23    2.52
 -10   1  13    2.82    3.32
 -10  -1  13    1.77    2.81
 -10  -1  12   27.03    5.08
  10  -1 -12   27.11    4.40
 -10   1  12   26.92    4.92
  10  -1 -12   26.98    4.32
 -10  -1  12   26.86    4.55
  10   1 -11    4.40    5.50
 -10   1  11    4.69    4.04
 -10  -1  11   11.49    4.30
  10   1 -11   17.45    6.87
  10  -1 -11    9.55    2.89
 -10   1  11   12.11    3.55
  10  -1 -11    8.83    3.00
 -10  -1  11    7.77    2.93
 -10   1  11   11.52    4.02
 -10  -1  10    5.45    3.42
 -10   1  10    1.78    3.34
  10   1 -10   10.60    4.53
 -10  -1  10    1.70    3.60
  10   1 -10   11.51    6.08
  10  -1 -10    6.45    2.83
 -10   1  10    4.31    3.54
  10  -1 -10    8.56    2.84
 -10   1  10    9.49    3.22
 -10  -1  10   10.75    4.31
 -10   1  10   11.59    3.59
 -10  -1  10    6.67    3.23
 -10   1  10    4.21    3.13
  10   1 -10   -1.29    5.62
  10  -1 -10    7.54    2.72
 -10  -1   9    1.42    3.43
 -10   1   9    2.36    3.31
  10   1  -9    1.46    3.26
 -10  -1   9    8.03    4.09
  10   1  -9   12.92    6.51
  10  -1  -9    2.83    2.58
 -10   1   9   -3.20    3.62
 -10   1   9    2.95    2.52
  10  -1  -9   -0.66    2.14
 -10  -1   9    7.22    4.19
 -10   1   9    0.69    3.22
 -10  -1   9    2.06    3.04
  10   1  -9   -2.99    5.45
 -10   1   9   -2.17    3.22
  10  -1  -9    0.44    1.95
 -10  -1   8    2.53    3.79
 -10   1   8   -0.84    3.06
  10   1  -8    1.08    3.00
  10   1  -8    3.31    4.63
 -10   1   8    0.78    2.89
 -10  -1   7  227.85   17.15
 -10   1   7  134.38   13.14
  10   1  -7  219.39   18.31
 -10   1   7  214.23   15.89
 -10  -1   7  195.35   17.19
  10  -1  -7  161.65   15.73
 -10  -1   6   84.33   10.60
 -10   1   6   54.71    8.31
  10   1  -6   85.89   12.25
 -10   1   6   83.35   10.15
 -10  -1   6   80.23   10.68
  10  -1  -6   64.57   10.16
 -10   1   5   22.48    5.90
  10   1  -5   47.59    8.98
 -10   1   5   44.56    7.77
 -10  -1   5   50.22    8.65
  10  -1  -5   49.56    9.41
 -10  -1   5   57.28    8.96
  10   1  -4   44.68    8.83
 -10   1   4   41.42    7.52
 -10  -1   4   45.40    7.88
  10  -1  -4   41.69    8.59
 -10  -1   4   53.40    8.09
  10  -1  -3    7.37    5.40
 -10  -1   3    1.92    4.39
  10   1  -3    0.63    4.18
 -10   1   3    0.29    3.30
  10   1  -2   86.38   11.72
 -10   1   2   71.39    9.84
  10  -1  -2   76.71   11.47
  10   1  -1  149.08   14.29
 -10   1   1  106.26   12.26
  10  -1  -1  130.04   14.44
  10   1   0  265.15   19.55
  10  -1   0  242.57   19.57
  10   1   0  252.49   18.97
  10  -1   1   36.65    8.01
  10   1   1   44.57    8.40
 -10   1  -1   37.01    7.46
  10   1   1   60.50    9.86
  10  -1   2   17.33    5.87
  10   1   2   34.68    8.21
  10   1   2   29.03    6.84
 -10  -1  -2   29.37    6.58
  10  -1   2   25.10    4.39
 -10   1  -2   17.57    5.35
 -10  -1  -2   22.26    3.70
 -10  -1  -2   28.33    4.81
 -10  -1  -2   13.78    5.30
 -10   1  -2   20.64    4.09
  10  -1   2   25.68    4.49
  10  -1   3    3.19    3.64
  10   1   3   18.57    7.30
  10   1   3    5.99    3.80
 -10  -1  -3   12.68    4.44
  10  -1   3   12.73    3.94
 -10  -1  -3    2.54    3.84
 -10  -1  -3    6.65    2.63
 -10   1  -3   10.43    4.17
 -10  -1  -3    9.91    2.97
 -10  -1  -3    5.38    2.91
 -10   1  -3    6.98    3.00
  10  -1   3    6.92    3.00
 -10  -1  -4    7.27    4.54
  10  -1   4   13.83    3.94
 -10  -1  -4   13.53    3.49
 -10   1  -4   13.17    4.31
  10   1   4   16.00    3.95
 -10  -1  -4    7.56    3.45
  10  -1   4   10.98    3.36
 -10   1  -5    8.29    3.19
  10  -1   5    5.27    3.33
  10   1   5    5.33    2.61
 -10   1  -5   10.06    3.62
 -10  -1  -5    5.70    3.59
 -10  -1  -5    5.12    3.67
  10  -1   5    5.57    2.68
 -10   1  -6  124.25    8.74
 -10   1  -6  129.86    8.04
  10  -1   6  106.58    8.97
  10  -1   6  118.51    9.38
  10   1   6  133.62    8.40
 -10   1  -6  130.79    9.74
 -10  -1  -6  112.90    9.03
  10  -1   6  119.81    8.12
 -10   1  -7   39.91    5.18
 -10   1  -7   34.67    4.75
  10  -1   7   40.43    5.62
  10  -1   7   34.23    5.52
  10   1   7   38.70    4.91
 -10   1  -7   43.38    5.74
 -10  -1  -7   37.47    5.27
  10  -1   7   35.21    5.00
  10   1   7   38.79    5.40
 -10   1  -8   75.06    6.35
 -10   1  -8   80.99    6.82
 -10   1  -8   74.75    5.85
  10  -1   8   65.26    6.28
  10  -1   8   57.09    6.61
  10   1   8   67.77    6.07
 -10  -1  -8   55.55    5.80
  10  -1   8   63.52    6.03
  10   1   8   75.79    6.38
 -10   1  -9   82.39    6.30
  10   1   9   76.69    5.87
 -10   1  -9   93.02    6.34
  10  -1   9   76.46    6.10
  10  -1   9   76.07    7.05
 -10   1  -9   80.50    6.36
 -10  -1  -9   83.55    6.16
  10  -1   9   81.65    6.19
  10   1   9   89.75    6.22
  10   1  10   76.45    5.42
 -10  -1 -10   76.66    5.33
 -10   1 -10   78.60    5.63
  10  -1  10   69.35    6.43
 -10   1 -10   77.55    5.49
 -10  -1 -10   76.98    5.50
  10   1  10   81.83    5.72
  10  -1  10   79.76    5.94
  10   1  10   75.85    5.21
 -10   1 -11   32.45    3.02
  10   1  11   36.26    3.69
 -10  -1 -11   33.00    3.36
 -10  -1 -11   36.58    3.65
  10   1  11   44.28    4.11
 -10   1 -11   37.34    3.38
  10  -1  11   35.72    3.88
  10   1  11   38.45    3.39
 -10   1 -12  150.95    5.38
  10   1  12  187.80    6.62
 -10  -1 -12  188.64    6.25
 -10  -1 -12  157.02    6.18
  10   1  12  178.17    5.88
  10  -1  12  165.92    6.43
  10   1  12  182.36    5.73
  10   2 -18   30.81    2.61
  10   2 -17    6.36    1.55
 -10  -2  17    1.52    1.50
 -10   2  17    5.56    2.14
 -10  -2  17    4.88    1.80
  10   2 -16    6.93    1.64
  10  -2 -16    6.54    2.18
 -10   2  16    9.69    2.67
 -10  -2  16    6.97    2.09
  10  -2 -15    6.72    2.59
 -10   2  15    5.86    2.87
 -10  -2  15    6.45    2.38
 -10   2  15    6.43    2.58
  10  -2 -14   10.97    3.22
 -10   2  14   10.98    3.24
 -10  -2  14   11.08    2.77
 -10   2  14   10.22    3.07
  10  -2 -13    8.52    3.10
 -10   2  13    9.40    3.42
 -10  -2  13    9.94    2.80
 -10   2  13    6.66    2.99
  10  -2 -12   14.59    3.68
 -10   2  12   14.94    4.05
 -10   2  12   13.80    3.60
 -10  -2  12    9.64    2.97
 -10   2  12    9.10    3.51
  10  -2 -11    3.92    2.80
 -10   2  11    4.86    3.33
 -10   2  11   -5.93    4.13
 -10  -2  11    3.07    2.30
 -10   2  11    4.77    3.20
  10  -2 -10   77.73    7.25
 -10   2  10   75.50    6.82
 -10  -2  10   77.59    6.45
 -10   2  10   74.92    7.81
  10  -2  -9   16.41    4.12
 -10   2   9   15.00    3.87
 -10   2   9    5.10    3.94
 -10   2   9   16.77    4.53
  10  -2  -8    3.07    3.22
 -10  -2   8    6.98    3.18
 -10   2   8   -1.54    5.17
 -10   2   8    9.71    4.61
  10  -2  -7    9.44    3.40
 -10  -2   7   13.35    3.67
 -10   2   7   13.27    4.51
 -10   2   6   23.75    4.62
  10  -2  -6   17.05    3.97
 -10  -2   6   18.20    3.97
 -10   2   6   13.02    4.14
 -10   2   6   20.02    4.80
 -10   2   5    4.12    3.13
  10  -2  -5    8.05    3.93
 -10  -2   5    2.69    2.29
 -10   2   5    5.01    3.96
 -10  -2   5    0.63    3.89
 -10   2   5    0.98    3.22
 -10   2   4  121.13    9.25
  10  -2  -4  115.56    8.63
 -10  -2   4  125.04    8.56
 -10   2   4  141.63   10.65
 -10   2   3   11.08    3.86
 -10   2   3   -3.28    3.19
  10  -2  -3    6.27    3.84
 -10  -2   3    8.29    2.99
 -10   2   3    7.74    4.36
 -10  -2   3    0.51    3.37
 -10   2   2   42.01    6.00
  10  -2  -2   32.30    5.14
 -10  -2   2   36.15    4.57
 -10   2   2   27.25    5.90
 -10   2   1    8.82    3.65
 -10  -2   1    0.44    3.78
 -10   2   1   -3.42    4.11
  10  -2  -1   10.49    4.34
 -10  -2   1    6.77    2.72
 -10  -2   1    7.36    3.73
 -10   2   1    3.49    3.31
 -10   2   0   19.09    4.40
 -10  -2   0    5.77    4.04
 -10   2   0    3.91    3.54
  10  -2   0   14.87    4.11
 -10  -2   0   13.25    2.86
 -10  -2   0   23.65    4.62
 -10   2   0   19.42    4.25
 -10   2  -1  144.16   10.14
  10  -2   1  117.01    8.42
 -10   2  -1   76.21    6.01
 -10  -2  -1  117.23    7.40
 -10  -2  -1   50.22    8.49
 -10  -2  -1  119.80    9.06
 -10   2  -1  117.79    8.55
 -10   2  -2    0.72    2.35
  10  -2   2    5.69    3.82
 -10   2  -2   -9.48    4.33
  10  -2   2    0.34    3.17
 -10  -2  -2    3.42    4.03
 -10  -2  -2    2.61    2.44
 -10  -2  -2   -0.40    2.84
 -10   2  -3   26.23    4.79
  10  -2   3   41.56    6.09
  10  -2   3   37.54    5.20
 -10  -2  -3   40.14    4.45
 -10   2  -4   11.08    2.95
  10  -2   4   18.60    4.72
  10  -2   4    8.66    3.13
 -10   2  -5   81.15    7.51
 -10   2  -5   76.49    6.03
  10  -2   5   76.62    7.19
 -10  -2  -5   72.30    5.91
 -10   2  -6    8.27    2.94
 -10   2  -6    7.79    2.62
  10  -2   6    4.53    3.71
 -10  -2  -6    3.57    1.93
 -10   2  -6    8.13    3.31
 -10   2  -7   29.46    3.69
 -10  -2  -7   28.68    3.24
 -10   2  -7   28.39    3.81
  10  -2   7   25.00    4.52
 -10   2  -7   30.12    4.19
 -10  -2  -7   26.80    3.36
 -10   2  -7   25.42    3.12
 -10   2  -8   73.85    4.96
  10   2   8   76.83    5.00
 -10  -2  -8   75.22    4.58
 -10   2  -8   74.82    5.03
  10  -2   8   65.15    5.63
 -10  -2  -8   70.63    4.69
 -10   2  -8   71.51    5.28
 -10  -2  -8   78.93    4.90
 -10   2  -8   62.41    4.17
 -10   2  -9   13.46    2.04
  10   2   9   15.59    2.48
 -10  -2  -9   13.35    2.26
 -10   2  -9   15.25    2.49
  10  -2   9   13.20    3.17
 -10   2  -9    9.36    2.10
 -10  -2  -9   15.90    2.17
  10   2   9   20.18    3.38
 -10   2  -9   10.31    1.92
  10   2  10   16.21    2.24
 -10  -2 -10   12.85    2.01
 -10   2 -10   14.70    2.22
  10  -2  10    9.95    2.46
  10   2  10   16.61    2.58
  10  -3 -13   25.42    2.91
 -10  -3  13   17.73    2.40
  10  -3 -12   10.97    2.34
 -10  -3  12    4.70    1.60
 -10   3  12    4.42    2.19
 -10   3  12    7.33    2.49
  10  -3 -11   10.42    2.63
 -10  -3  11    8.18    1.91
 -10   3  11    6.62    2.57
 -10   3  11    9.44    2.83
  10  -3 -10    8.45    3.04
 -10  -3  10    6.04    2.12
 -10   3  10   11.19    2.99
 -10   3  10    6.58    3.30
 -10   3   9   20.45    3.21
  10  -3  -9   23.25    3.89
 -10  -3   9   20.44    2.92
 -10   3   9   22.43    4.22
 -10   3   9   25.02    4.07
 -10   3   8    1.01    2.25
  10  -3  -8   -0.82    2.60
  10  -3  -8   -2.57    2.65
 -10  -3   8   -0.77    1.64
 -10   3   8   -1.17    2.74
 -10   3   8    1.31    2.59
 -10   3   7    7.64    2.67
  10  -3  -7    7.52    3.10
  10  -3  -7    4.62    2.78
 -10  -3   7    7.25    2.24
 -10   3   7    5.82    3.27
 -10   3   6    2.71    2.48
  10  -3  -6    2.30    2.74
 -10   3   6   -4.67    2.51
  10  -3  -6    3.58    2.91
 -10  -3   6   -0.21    1.52
 -10   3   6    2.30    2.73
 -10   3   5    1.52    2.72
  10  -3  -5    0.55    2.58
 -10   3   5   -4.74    2.54
  10  -3  -5    0.27    3.27
 -10  -3   5    1.91    1.64
 -10   3   5    1.11    2.82
 -10   3   4    0.22    2.46
  10  -3  -4   -0.57    2.41
 -10   3   4   -5.70    2.62
  10  -3  -4    1.58    2.91
 -10  -3   4    3.66    1.86
 -10   3   4   -0.86    2.45
 -10   3   3   13.40    3.56
  10  -3  -3   10.44    2.89
  10  -3  -3    9.98    3.51
 -10  -3   3   14.88    2.46
 -10   3   3   12.20    3.18
 -10   3   2    2.06    2.68
  10  -3  -2    2.45    2.32
 -10  -3   2   -1.54    2.20
 -10   3   2   -4.65    2.84
  10  -3  -2    2.56    3.02
 -10  -3   2    4.89    2.00
 -10   3   2    4.69    2.39
 -10   3   1   33.00    4.74
 -10   3   1   14.90    2.76
 -10  -3   1   40.83    4.01
  10  -3  -1   38.71    4.93
 -10   3   1   22.78    3.15
 -10  -3   1   43.90    3.71
 -10   3   0    0.97    1.90
 -10  -3   0   -0.90    2.07
  10  -3   0    3.03    3.54
 -10  -3   0    3.70    1.65
 -10   3  -1    0.52    1.79
 -10  -3  -1    5.70    2.05
  10  -3   1    6.62    3.12
 -10   3  -2    5.88    2.10
 -10  -3  -2   12.59    2.71
  10  -3   2    7.51    3.10
 -10  -3  -3  143.78    6.76
  10  -3   3  123.84    6.54
 -10   3  -4    2.58    1.85
 -10   3  -4    9.16    2.10
  10  -3   4    7.83    2.33
 -10  -3  -4   14.39    2.73
 -10   3  -4    8.77    2.58
  10  -3   4    6.66    2.59
 -10   3  -5    1.76    1.53
  10  -3   5    3.52    2.29
 -10  -3  -5    4.16    1.91
 -10   3  -5    1.07    1.72
  10  -3   5    2.99    2.19
 -10  -3  -6   83.49    4.11
 -11   0  19    0.45    2.60
  11   0 -19    0.28    1.18
  11   0 -19    1.35    1.43
  11   0 -19    0.38    1.16
 -11   0  18   34.72    4.43
  11   0 -18   37.61    3.47
  11   0 -18   38.47    3.36
 -11   0  17    1.07    3.15
  11   0 -17   -0.51    1.73
  11   0 -17    0.28    1.67
 -11   0  17    1.08    1.60
 -11   0  16  668.86   17.64
  11   0 -16  626.10   15.42
  11   0 -16  666.01   15.15
  11   0 -16  716.30   17.30
 -11   0  16  606.72   14.93
 -11   0  15    1.66    4.12
  11   0 -15    2.48    2.20
  11   0 -15    0.74    2.10
  11   0 -15    0.94    2.03
 -11   0  15    5.27    3.02
 -11   0  15    2.17    2.14
 -11   0  14  396.21   15.21
  11   0 -14  414.12   13.24
  11   0 -14  389.40   12.81
 -11   0  14  408.86   14.86
 -11   0  14  388.97   14.19
 -11   0  13    1.22    4.10
  11   0 -13   -0.12    1.89
  11   0 -13    1.19    2.56
 -11   0  13    0.36    2.91
 -11   0  13    0.07    2.49
 -11   0  12  330.19   14.15
  11   0 -12  300.59   11.51
  11   0 -12  308.06   13.63
 -11   0  12  304.60   13.44
 -11   0  12  334.32   13.60
 -11   0  11    3.16    4.82
  11   0 -11    1.49    1.88
  11   0 -11    3.10    2.77
 -11   0  11   -0.55    2.87
 -11   0  11   -0.32    2.86
 -11   0  10  483.03   17.33
  11   0 -10  490.62   17.02
 -11   0  10  495.84   17.35
 -11   0  10  534.89   17.12
 -11   0   9    2.32    3.99
  11   0  -9    3.07    5.01
  11   0  -9    1.76    2.53
 -11   0   9    2.39    3.67
 -11   0   9    0.66    3.02
 -11   0   9    1.13    3.26
  11   0  -8  904.63   38.30
  11   0  -8  829.81   21.61
 -11   0   8  836.00   22.41
 -11   0   8  843.22   21.81
 -11   0   7   -0.30    3.92
  11   0  -7   -3.83    5.23
  11   0  -7   -0.41    2.14
 -11   0   7    1.67    3.73
 -11   0   7    0.86    2.69
 -11   0   7    1.05    2.23
  11   0  -6   89.50   12.38
 -11   0   6   95.92   11.38
  11   0  -6   87.91    7.07
  11   0  -6   95.63    7.85
  11   0  -5   -0.06    3.02
 -11   0   5    2.04    3.35
 -11   0   4 4501.82   74.14
  11   0  -4 4638.57   80.11
 -11   0   3   -3.35    3.66
  11   0  -3    4.40    3.84
  11   0  -2  920.27   23.77
 -11   0   2  906.56   32.57
  11   0  -2  947.68   37.35
  11   0  -2  858.04   21.92
  11   0  -1   -0.15    2.16
 -11   0   1    1.59    2.98
 -11   0   1    2.40    2.59
  11   0  -1    2.05    1.77
  11   0  -1   -1.31    4.33
  11   0   0  493.04   17.40
 -11   0   0  550.35   19.28
  11   0   0  538.82   28.21
  11   0   0  506.28   17.37
 -11   0  -1   -1.50    2.66
  11   0   1    0.81    2.20
 -11   0  -1    4.20    3.23
 -11   0  -1   -1.97    2.81
 -11   0  -1    3.34    3.04
  11   0   1    2.38    2.10
  11   0   1   -1.62    3.73
 -11   0  -2  917.19   23.25
  11   0   2  804.50   21.98
 -11   0  -2  843.24   32.53
  11   0   2  935.15   23.94
 -11   0  -2  946.69   24.15
 -11   0  -2  940.97   24.87
  11   0   2  930.54   37.01
  11   0   2  880.90   22.78
 -11   0  -3    0.49    2.43
 -11   0  -3   -3.50    2.66
 -11   0  -3    2.55    3.13
  11   0   3    0.72    2.39
  11   0   3    2.88    2.48
 -11   0  -4 1057.44   24.83
 -11   0  -4 1104.13   25.54
  11   0   4 1083.41   25.32
 -11   0  -4 1071.53   25.69
  11   0   4 1091.93   24.23
 -11   0  -5    0.34    2.37
  11   0   5    3.60    2.83
 -11   0  -5    1.31    2.32
 -11   0  -5    1.23    2.26
  11   0   5    4.77    4.11
  11   0   5   -0.56    2.30
 -11   0  -6  100.70    7.36
  11   0   6  102.25    7.87
 -11   0  -6  110.43    7.83
 -11   0  -6  108.75    7.41
 -11   0  -6  100.24    7.36
  11   0   6  102.07    7.62
  11   0   6   76.51    7.11
  11   0   7    3.48    2.47
  11   0   7   -0.35    2.63
 -11   0  -7    0.39    2.30
 -11   0  -7    1.20    2.16
  11   0   7    4.60    3.83
  11   0   8 1471.70   22.25
  11   0   8 1457.25   26.92
 -11   0  -8 1546.41   25.60
 -11   0  -8 1460.31   23.92
  11   0   8 1467.66   23.94
  11   0   9    2.06    2.11
  11   0   9    1.33    2.57
 -11   0  -9    0.76    1.73
  11   0   9   -0.20    2.73
  11   0  10  261.19    7.91
  11   0  10  246.76    9.92
 -11   0 -10  240.68    8.43
  11   0  10  268.89    8.94
  11   0  11   -0.17    1.54
  11   0  11   -0.87    1.98
  11   0  11   -0.07    2.02
  11   1 -19    6.42    1.63
  11  -1 -19    7.03    1.77
 -11  -1  19    7.40    1.80
 -11  -1  18  270.55    9.34
 -11   1  18  237.36    7.66
  11   1 -18  297.20    7.96
  11   1 -18  292.75    8.70
  11  -1 -18  336.20    9.29
  11   1 -18  280.48    6.95
 -11   1  18  246.29    7.77
 -11  -1  18  286.54    8.38
 -11  -1  17   33.99    4.22
 -11   1  17   27.80    3.67
  11   1 -17   41.54    3.44
  11   1 -17   39.69    4.06
  11  -1 -17   40.33    3.98
 -11   1  17   37.87    4.03
 -11  -1  17   38.36    4.00
 -11  -1  16  147.16    8.58
  11   1 -16  145.68    6.79
  11  -1 -16  157.32    7.75
 -11   1  16  155.58    7.72
 -11  -1  16  151.80    7.81
 -11  -1  15   13.74    4.29
  11   1 -15   15.52    2.71
  11  -1 -15   18.20    3.23
 -11   1  15   11.07    3.05
 -11  -1  15   18.73    3.93
 -11  -1  14  500.70   16.63
  11   1 -14  527.78   13.71
  11  -1 -14  564.87   15.80
  11  -1 -14  525.03   15.28
 -11   1  14  515.67   15.57
 -11  -1  14  560.99   16.43
 -11  -1  13   80.59    7.67
  11   1 -13   73.47    5.32
  11  -1 -13   79.81    6.40
  11  -1 -13   73.40    6.15
 -11   1  13   79.20    6.77
 -11  -1  13   81.39    6.79
  11  -1 -13   75.19    6.31
 -11  -1  12  803.69   22.04
  11  -1 -12  753.57   20.39
 -11   1  12  856.68   20.65
  11  -1 -12  762.71   19.09
 -11   1  12  800.37   20.31
 -11  -1  12  850.60   21.12
  11  -1 -12  820.34   21.06
 -11  -1  11  103.21    8.55
  11  -1 -11   82.61    7.12
 -11   1  11   86.04    7.00
  11  -1 -11   89.80    6.87
 -11  -1  11   81.85    7.84
 -11   1  11   92.07    7.35
 -11  -1  11   93.31    7.46
  11  -1 -11   90.01    7.40
 -11  -1  10   76.86    7.85
  11  -1 -10   69.19    6.71
 -11   1  10   66.33    6.45
 -11  -1  10   69.26    6.58
 -11  -1  10   69.60    7.37
 -11   1  10   74.85    6.80
 -11  -1  10   67.50    6.71
  11  -1 -10   74.66    6.82
 -11  -1   9  372.35   15.74
 -11   1   9  359.10   14.93
 -11  -1   9  385.72   14.63
 -11  -1   9  367.74   15.66
 -11   1   9  357.25   14.06
  11  -1  -9  353.35   14.69
 -11   1   9  385.66   16.26
 -11  -1   9  386.24   14.49
  11  -1  -9  389.56   15.48
  11  -1  -8  129.99    8.87
 -11   1   8  126.32    9.09
 -11  -1   8  135.18    8.89
 -11  -1   8  126.06    9.72
 -11   1   8  128.84    8.85
 -11   1   8  135.82    9.98
 -11  -1   8  130.46    8.60
  11  -1  -8  136.87    9.24
  11   1  -7  113.55   13.86
  11  -1  -7  110.85    8.40
 -11   1   7  115.52   12.08
 -11   1   7  106.96    8.53
 -11  -1   7  101.43    7.61
 -11  -1   7  111.59    8.88
 -11   1   7   99.90    7.72
 -11   1   7  107.48    9.30
 -11  -1   7  108.24    7.89
  11  -1  -7   90.42   12.16
  11  -1  -7  109.37    8.49
  11   1  -6 1192.33   42.74
  11  -1  -6 1083.17   26.25
 -11   1   6 1096.11   36.96
 -11  -1   6 1167.53   40.36
 -11   1   6 1061.87   26.12
 -11  -1   6 1068.24   24.78
 -11   1   6  967.94   23.16
 -11   1   6 1187.00   30.28
 -11  -1   6 1030.70   23.32
  11  -1  -6  936.17   37.32
  11  -1  -6 1092.51   26.12
  11   1  -5   87.26   11.62
  11  -1  -5   80.22    7.36
 -11   1   5   76.66   10.07
 -11  -1   5   80.41   10.56
 -11   1   5   72.19    6.96
 -11  -1   5   77.47    6.69
 -11   1   5   81.08    8.18
 -11  -1   5   72.00    6.17
  11  -1  -5   60.44    9.60
  11  -1  -5   77.24    7.19
  11   1  -4  185.94   16.48
  11  -1  -4  166.19   10.52
 -11   1   4  168.64   14.51
 -11   1   4  163.38   10.34
 -11  -1   4  168.70    9.46
 -11  -1   4  148.34   10.17
 -11   1   4  189.49   12.04
 -11  -1   4  159.64    8.86
  11  -1  -4  171.14   16.73
  11  -1  -4  158.99   10.09
 -11  -1   3   62.68    5.75
  11   1  -3   72.56   10.59
  11  -1  -3   58.30    6.50
 -11   1   3   50.89    8.56
 -11   1   3   54.46    6.09
 -11  -1   3   57.36    6.45
 -11   1   3   68.20    7.33
 -11  -1   3   60.54    5.40
  11  -1  -3   61.65   10.39
  11  -1  -3   61.76    6.25
  11  -1  -3   54.19    6.17
  11   1  -2 1009.68   38.27
  11  -1  -2  861.96   23.90
 -11   1   2  796.07   31.62
 -11   1   2  788.72   22.40
 -11  -1   2  828.76   20.07
 -11  -1   2  874.96   24.62
 -11   1   2  951.78   25.85
  11   1  -2  956.90   35.59
  11  -1  -2  869.99   37.53
  11  -1  -2  898.12   23.11
  11  -1  -2  802.12   22.99
  11   1  -1  347.80   22.37
  11  -1  -1  301.09   14.30
 -11   1   1  268.86   18.49
 -11   1   1  269.95   13.89
 -11  -1   1  308.36   12.23
 -11  -1   1  320.63   14.81
 -11   1   1  345.84   15.48
  11   1  -1  359.29   22.10
  11  -1  -1  299.33   22.32
  11  -1  -1  308.44   13.81
  11  -1   0  552.70   19.44
 -11  -1   0  647.23   25.91
 -11   1   0  543.99   19.90
 -11  -1   0  553.98   16.59
 -11  -1   0  624.58   20.78
 -11   1   0  624.70   20.62
  11  -1   0  593.84   19.14
  11   1   0  599.48   17.77
  11  -1   1  207.80   11.14
 -11  -1  -1  249.38   16.14
 -11   1  -1  214.10   12.54
 -11  -1  -1  182.82    9.70
 -11  -1  -1  221.38   12.26
 -11   1  -1  217.65   12.07
  11  -1   1  203.36   11.53
  11   1   1  209.18   10.38
  11  -1   2   30.03    4.91
 -11  -1  -2   35.82    7.45
 -11   1  -2   32.89    5.50
 -11   1  -2   30.80    5.02
 -11  -1  -2   33.96    5.26
  11  -1   2   31.67    4.95
 -11   1  -3  384.88   15.08
  11  -1   3  369.13   14.90
  11   1   3  404.03   14.78
 -11   1  -3  382.67   16.17
 -11  -1  -3  392.43   15.85
 -11   1  -3  391.63   14.74
  11  -1   3  341.54   14.65
 -11   1  -4  751.56   20.50
  11  -1   4  734.13   20.85
  11   1   4  764.74   19.79
 -11   1  -4  787.62   22.70
 -11  -1  -4  764.14   21.64
 -11  -1  -4  744.66   28.79
 -11   1  -5   22.52    4.33
  11  -1   5   17.67    4.68
  11  -1   5   16.19    3.98
  11   1   5   18.60    3.59
 -11   1  -5   16.67    4.02
 -11  -1  -5   20.29    4.30
 -11   1  -6 1474.52   26.69
  11  -1   6 1397.77   25.61
  11  -1   6 1358.19   27.83
  11   1   6 1484.50   26.06
 -11  -1  -6 1394.71   26.86
  11   1   6 1368.92   24.45
 -11   1  -7   56.44    5.30
 -11   1  -7   54.17    4.67
  11  -1   7   42.18    4.86
  11  -1   7   48.98    5.56
  11   1   7   54.92    5.21
 -11   1  -7   49.40    5.34
 -11  -1  -7   52.57    4.87
  11  -1   7   52.88    5.13
  11   1   7   56.84    5.55
 -11   1  -8   27.84    3.64
  11   1   8   26.01    3.68
 -11   1  -8   25.66    3.34
  11  -1   8   21.74    3.72
  11   1   8   29.60    3.96
  11  -1   8   26.33    4.32
 -11   1  -8   23.80    3.72
 -11  -1  -8   30.30    3.65
  11  -1   8   24.81    3.60
  11   1   8   24.99    3.66
  11   1   9   98.34    5.58
 -11  -1  -9   98.14    5.36
  11  -1   9   92.20    6.44
 -11   1  -9   99.46    5.73
 -11  -1  -9   96.71    5.71
  11   1   9  102.59    5.53
  11  -1   9   96.03    5.65
  11   1   9  103.74    5.54
  11   1  10  580.36   11.46
 -11  -1 -10  576.06   11.12
 -11   1 -10  575.26   11.50
 -11  -1 -10  564.35   11.82
  11   1  10  537.41   10.14
  11  -1  10  549.48   11.06
  11   1  10  584.31   10.80
  11   1  11    5.84    1.95
 -11  -1 -11    6.20    1.85
 -11  -1 -11    3.62    1.56
  11   2 -16  112.93    4.89
  11  -2 -16  164.03    6.59
 -11  -2  16   95.34    4.37
 -11   2  16  142.64    5.93
 -11  -2  16  142.42    5.40
  11  -2 -15   27.75    3.25
 -11  -2  15   18.75    2.55
 -11   2  15   27.54    3.39
 -11  -2  15   25.66    2.83
  11  -2 -14  133.00    7.25
 -11   2  14  148.22    7.04
 -11  -2  14  137.61    6.38
  11  -2 -13  167.76    7.34
  11  -2 -13  165.84    8.28
 -11   2  13  168.07    7.84
 -11  -2  13  154.13    7.12
  11  -2 -12   53.79    5.03
  11  -2 -12   44.70    4.88
 -11  -2  12   39.44    4.37
 -11   2  12   36.89    4.67
 -11   2  12   37.46    4.48
 -11  -2  12   50.15    4.52
  11  -2 -11  691.91   18.29
 -11  -2  11  648.75   16.96
 -11   2  11  693.29   18.54
 -11   2  11  686.65   19.78
  11  -2 -10  571.31   16.79
 -11  -2  10  549.90   16.27
 -11   2  10  593.37   15.78
 -11   2  10  657.22   19.48
 -11  -2  10  632.77   15.53
 -11   2  10  533.90   18.21
 -11  -2   9   28.95    4.24
  11  -2  -9   26.28    4.06
 -11   2   9   22.18    3.95
 -11   2   9   19.61    4.70
 -11   2   9   29.87    5.32
  11  -2  -8  174.60    9.72
  11  -2  -8  155.40    9.21
 -11  -2   8  189.08    9.88
 -11   2   8  209.25   12.25
  11  -2  -7  435.01   14.87
 -11  -2   7  467.43   15.45
  11  -2  -6  114.70    8.28
 -11  -2   6  126.63    8.20
 -11   2   6  135.72   10.03
 -11   2   5   48.64    5.96
  11  -2  -5   59.03    6.31
 -11  -2   5   62.69    5.99
 -11   2   5   62.23    7.18
  11  -2  -4  443.33   15.21
 -11  -2   4  460.00   14.74
 -11   2   4  473.49   18.53
 -11   2   3    4.47    3.07
 -11  -2   3    1.25    3.66
  11  -2  -3    8.82    4.30
 -11  -2   3    6.22    2.59
 -11   2   3    6.43    3.79
 -11   2   2  379.63   15.73
  11  -2  -2  402.06   14.38
 -11  -2   2  418.20   13.43
 -11  -2   2  348.82   14.06
 -11   2   2  440.76   17.37
  11  -2  -1  383.33   13.82
 -11  -2   1  399.04   13.06
 -11  -2   1  375.28   14.74
  11  -2   0   40.63    5.86
 -11  -2   0   23.06    6.38
  11  -2   0   34.23    5.19
 -11  -2   0   39.35    4.38
 -11  -2   0   40.30    5.11
 -11   2   0   32.46    5.04
  11  -2   1  217.28   11.50
 -11  -2  -1  182.65   14.29
  11  -2   1  207.52    9.84
 -11  -2  -1  218.31    9.35
 -11   2  -1  201.61   10.35
  11  -2   2  864.29   21.42
  11  -2   2  792.22   18.03
  11  -2   3  490.49   15.77
 -11   2  -3  466.29   16.40
 -11   2  -4  288.71   11.39
 -11   2  -4  288.05    9.69
  11  -2   4  300.66   11.76
 -11  -2  -4  282.30   10.51
 -11   2  -4  280.30   12.24
 -11   2  -5  513.78   13.96
 -11   2  -5  509.91   12.12
  11  -2   5  507.57   14.55
 -11  -2  -5  518.65   13.11
 -11   2  -5  491.39   15.02
  11   2   5  487.61   12.26
 -11   2  -6   69.78    4.88
 -11   2  -6   68.28    4.41
  11  -2   6   64.17    5.33
 -11  -2  -6   67.03    4.53
 -11   2  -6   60.25    5.22
 -11   2  -7  148.24    6.26
  11   2   7  155.15    6.11
 -11   2  -7  145.86    5.85
  11  -2   7  149.63    7.03
 -11  -2  -7  150.37    5.83
 -11   2  -7  144.97    6.66
 -11  -2  -7  167.86    6.30
 -11   2  -8  325.92    8.24
  11   2   8  370.37    8.17
 -11   2  -8  310.77    7.59
  11  -2   8  345.93    9.14
 -11  -2  -8  383.58    8.21
  11   2   8  268.51    7.63
  11  -3 -11  119.71    5.18
 -11  -3  11   94.65    4.15
  11  -3 -10    8.11    2.32
 -11  -3  10    5.54    1.71
 -11   3  10    5.74    2.11
  11  -3  -9  421.26    9.93
 -11  -3   9  361.52    8.81
 -11   3   8  146.37    6.44
  11  -3  -8  178.89    6.80
  11  -3  -8  187.16    6.65
 -11  -3   8  177.34    6.42
 -11   3   8  157.61    7.27
 -11   3   7   19.25    2.95
  11  -3  -7   23.38    3.15
  11  -3  -7   21.64    3.22
 -11  -3   7   28.29    2.96
 -11   3   7   27.19    3.52
 -11   3   6   75.76    5.34
  11  -3  -6   72.25    4.74
  11  -3  -6   73.82    5.09
 -11  -3   6   86.06    4.67
 -11   3   6   78.20    5.65
 -11   3   5  315.17   10.83
  11  -3  -5  272.35    8.44
  11  -3  -5  351.39   10.33
 -11  -3   5  401.26    9.72
 -11   3   5  349.42   11.18
  11  -3  -4    6.27    4.01
 -11  -3   4    6.21    1.68
 -11   3   4    5.95    2.39
  11  -3  -3  548.01   13.03
 -11   3   3  538.86   12.86
 -11  -3   2   41.54    3.51
  11  -3  -2   45.97    4.64
 -11  -3   2   47.45    3.38
 -11  -3   1   79.97    4.69
  11  -3  -1   73.11    5.18
 -11  -3   0  312.38    8.87
  11  -3   0  266.10    8.86
  11  -3   1  322.04    8.99
 -11   3  -1  318.88   10.15
 -11  -3  -2   14.69    2.39
 -11   3  -2   10.64    2.54
  11  -3   2    8.81    2.57
 -11  -3  -3  588.78   10.43
 -11   3  -3  474.45   10.51
 -12   0  18   61.04    4.67
  12   0 -18   59.44    3.65
 -12   0  17    3.72    3.11
  12   0 -17    2.59    1.72
  12   0 -17    2.45    1.46
  12   0 -17    3.13    1.70
 -12   0  16 1440.64   23.28
  12   0 -16 1399.95   19.14
 -12   0  16 1390.02   19.69
 -12   0  15    2.95    3.99
  12   0 -15    2.66    2.28
 -12   0  15    2.27    1.78
 -12   0  15    7.43    3.27
 -12   0  15    3.07    2.13
 -12   0  14  730.77   18.88
  12   0 -14  818.16   18.58
 -12   0  14  830.36   18.75
 -12   0  14  756.62   18.48
 -12   0  14  760.62   17.04
 -12   0  13    0.71    3.85
  12   0 -13    1.97    2.59
 -12   0  13    5.18    3.64
 -12   0  13    1.40    2.49
 -12   0  12  139.99    9.18
  12   0 -12  140.32    8.54
 -12   0  12  149.64    9.12
 -12   0  12  142.07    8.40
 -12   0  11   14.54    5.44
  12   0 -11    6.41    3.64
 -12   0  11   14.77    5.07
 -12   0  10 1665.22   31.15
  12   0 -10 1711.30   29.90
 -12   0  10 1736.69   31.64
 -12   0  10 1783.92   30.02
 -12   0   9    2.79    4.33
  12   0  -9    2.14    2.86
 -12   0   9    4.88    4.34
  12   0  -9    5.10    3.47
  12   0  -8  719.29   19.26
 -12   0   8  760.79   21.64
 -12   0   8  709.53   19.52
  12   0  -8  755.31   21.63
  12   0  -7    3.40    2.73
 -12   0   7    3.94    2.37
 -12   0   7    9.37    5.19
  12   0  -7    4.58    3.27
  12   0  -6  118.49    7.72
 -12   0   6  128.25    8.83
 -12   0   6  126.47    9.36
 -12   0   6  127.14    9.45
 -12   0   6  127.88    8.18
  12   0  -6  137.21    9.09
  12   0  -5   15.05    4.70
 -12   0   5    6.47    2.82
 -12   0   5   43.67    8.01
 -12   0   5   34.04    7.36
  12   0  -5   11.19    5.22
  12   0  -4 1145.48   26.45
 -12   0   4 1099.84   24.79
 -12   0   4 1121.38   27.55
  12   0  -4 1081.50   24.70
  12   0  -3    3.15    2.99
 -12   0   3    2.58    2.32
 -12   0   3    4.70    3.45
  12   0  -3    2.40    2.40
  12   0  -2  515.62   17.52
 -12   0   2  489.02   16.07
 -12   0   2  531.69   18.82
  12   0  -2  477.67   16.26
  12   0  -1   20.86    4.71
 -12   0   1   18.78    5.82
  12   0  -1   25.83    5.61
  12   0   0  454.07   16.14
 -12   0   0  498.44   18.01
  12   0   0  476.90   16.47
 -12   0  -1   41.52    6.68
  12   0   1   35.85    5.32
  12   0   1   46.65    8.49
 -12   0  -1   21.16    6.15
 -12   0  -1   37.31    6.69
  12   0   1   17.41    6.68
 -12   0  -2 1756.41   30.12
  12   0   2 1810.97   31.64
 -12   0  -2 1743.64   30.37
  12   0   2 1756.37   31.04
 -12   0  -3    2.43    2.54
  12   0   3   -0.40    2.62
 -12   0  -3    2.24    2.87
 -12   0  -3    2.76    3.30
  12   0   3    6.25    4.05
  12   0   3    2.76    2.36
 -12   0  -4  256.24   11.20
  12   0   4  265.87   11.85
 -12   0  -4  276.59   11.51
 -12   0  -4  273.04   10.83
 -12   0  -4  250.30   11.71
  12   0   4  251.74   10.72
  12   0   4  241.41   11.42
  12   0   5    4.82    3.53
 -12   0  -5    2.10    2.32
 -12   0  -5    4.89    2.64
 -12   0  -5    5.36    2.69
  12   0   5    5.77    4.02
  12   0   5    2.48    2.56
  12   0   6  351.80   10.49
  12   0   6  370.17   13.08
 -12   0  -6  371.96   12.25
 -12   0  -6  373.87   11.67
 -12   0  -6  379.49   12.03
  12   0   6  372.69   11.74
  12   0   7    5.69    2.17
  12   0   7    6.66    3.34
 -12   0  -7    3.45    2.19
 -12   0  -7    8.70    2.49
  12   0   7    6.67    3.44
  12   0   8 1175.64   21.45
 -12   0  -8 1161.16   17.52
  12   0   9    1.80    2.24
  12   0   9    1.58    2.04
  12   1 -17   89.21    4.62
  12  -1 -17   86.41    4.48
 -12  -1  17   82.47    4.52
  12   1 -16   17.94    2.23
  12   1 -16   21.23    2.79
  12  -1 -16   16.88    2.60
 -12   1  16   18.34    3.20
 -12  -1  16   18.63    3.01
  12   1 -15  164.03    6.26
  12   1 -15  169.89    7.77
  12  -1 -15  157.38    7.36
 -12   1  15  185.17    8.36
 -12  -1  15  175.27    7.83
  12   1 -14  651.08   15.76
  12  -1 -14  615.49   14.67
 -12   1  14  643.27   15.98
 -12  -1  14  679.91   16.02
  12  -1 -14  714.90   15.63
  12   1 -13   26.89    3.93
  12  -1 -13   26.86    3.58
 -12   1  13   34.15    4.88
 -12  -1  13   37.23    4.80
  12  -1 -13   30.44    3.98
  12   1 -12  999.48   20.57
 -12   1  12 1100.13   21.99
 -12   1  12 1053.60   22.28
 -12  -1  12 1056.28   21.56
  12  -1 -12 1053.50   21.87
  12   1 -11   80.04    6.23
 -12   1  11   79.22    6.47
 -12   1  11   88.13    7.07
 -12  -1  11   83.62    6.58
  12  -1 -11   80.58    6.51
  12   1 -10   32.40    4.18
 -12   1  10   33.68    4.68
 -12   1  10   34.40    5.40
 -12   1  10   36.33    4.98
 -12  -1  10   40.60    5.03
  12  -1 -10   35.44    4.70
  12  -1  -9  281.98   12.28
 -12   1   9  272.73   12.54
 -12  -1   9  322.11   12.43
 -12   1   9  310.93   13.15
 -12   1   9  309.52   13.61
 -12  -1   9  316.81   12.95
  12  -1  -9  292.51   12.89
  12  -1  -8 1080.10   24.66
 -12   1   8 1028.54   24.45
 -12  -1   8 1132.13   22.97
 -12   1   8 1084.06   23.57
 -12   1   8  987.83   26.30
 -12  -1   8 1058.13   22.72
  12  -1  -8 1084.95   24.95
  12  -1  -7  106.21    8.55
 -12   1   7  102.82    8.28
 -12  -1   7  120.85    9.47
 -12   1   7  141.27   10.48
 -12  -1   7  106.82    9.66
  12  -1  -7  113.36    8.97
  12   1  -7  104.39    7.69
  12  -1  -6 1582.40   31.04
 -12   1   6 1539.93   30.43
 -12  -1   6 1609.99   27.28
 -12   1   6 1524.97   28.41
 -12   1   6 1500.53   33.13
 -12  -1   6 1516.72   27.04
  12  -1  -6 1604.81   30.80
  12  -1  -5  145.16    9.69
 -12   1   5  135.08    9.15
 -12  -1   5  140.44    8.06
 -12   1   5  153.53   10.46
 -12  -1   5  135.42    8.04
  12  -1  -5  146.76    9.13
  12  -1  -5  136.54    9.37
  12  -1  -4   30.80    4.85
 -12   1   4   25.58    4.30
 -12  -1   4   35.86    4.55
 -12  -1   4   31.55    5.38
 -12   1   4   31.79    5.58
  12  -1  -4   36.10    4.82
  12  -1  -4   27.33    4.75
  12  -1  -3  196.97   11.61
  12   1  -3  163.81    9.36
 -12   1   3  167.55   10.44
 -12  -1   3  225.28   11.22
 -12  -1   3  225.68   13.03
 -12   1   3  250.63   13.03
  12  -1  -3  238.14   12.09
  12  -1  -2 1400.72   29.79
 -12  -1   2 1677.95   40.81
 -12  -1   2 1380.90   24.73
 -12  -1   2 1407.31   29.98
 -12   1   2 1592.13   31.71
  12  -1  -2 1462.79   28.72
 -12  -1   1   73.53   13.44
 -12   1   1  119.84    9.51
 -12  -1   1   60.79    6.99
 -12  -1   1   76.27    8.75
 -12   1   1   82.70    8.08
  12  -1  -1  104.22    8.36
  12   1  -1   96.81    7.11
 -12   1   0 1350.77   27.54
 -12  -1   0 1339.87   24.07
 -12  -1   0 1438.76   30.04
 -12   1   0 1423.38   29.45
  12  -1   0 1435.15   28.46
  12   1   0 1421.38   26.04
 -12   1  -1  173.99   10.05
  12  -1   1  188.08   10.10
 -12   1  -1  160.40    9.91
 -12  -1  -1  197.53   10.92
 -12   1  -1  178.74   10.36
  12  -1   1  172.49   10.22
  12   1   1  177.50    9.18
 -12   1  -2    3.97    2.99
  12  -1   2    0.32    2.32
  12   1   2    6.06    2.95
 -12  -1  -2    4.66    4.45
 -12   1  -2    2.96    2.82
 -12  -1  -2    1.84    3.16
 -12   1  -2    1.68    2.75
  12  -1   2    1.54    2.23
  12   1   2    4.58    2.33
 -12   1  -3  144.81    8.73
  12  -1   3  156.22    9.35
  12   1   3  147.44    8.95
 -12   1  -3  158.24    9.38
 -12  -1  -3  151.64    9.34
 -12   1  -3  140.36    8.30
  12  -1   3  135.34    9.00
 -12   1  -4  740.36   18.16
  12  -1   4  694.09   18.21
  12  -1   4  725.90   18.92
  12   1   4  726.96   17.52
 -12   1  -4  725.63   18.77
 -12  -1  -4  723.11   18.80
 -12   1  -5    8.38    3.04
  12  -1   5   10.86    3.94
  12  -1   5   10.33    3.53
  12   1   5    5.88    2.77
 -12   1  -5    7.49    2.98
 -12  -1  -5    6.53    3.40
  12   1   5   14.30    4.15
 -12   1  -6  794.38   16.83
  12  -1   6  702.20   15.53
  12  -1   6  745.51   17.81
  12   1   6  807.91   16.71
 -12   1  -6  769.35   16.77
 -12  -1  -6  788.57   16.31
  12   1   6  727.24   15.24
  12   1   7  149.12    6.48
 -12  -1  -7  148.93    6.09
  12  -1   7  145.52    6.55
  12   1   7  175.75    7.50
 -12   1  -7  155.79    6.96
 -12  -1  -7  160.98    6.92
  12   1   7  142.51    6.11
  12   1   7  160.64    6.83
  12   1   8    8.96    1.98
 -12  -1  -8    8.94    1.91
  12  -1   8    8.60    2.84
 -12   1  -8   10.92    2.11
 -12  -1  -8   12.15    2.15
  12   1   8    8.32    2.13
  12   1   8    9.31    2.19
  12   1   9   77.48    3.85
 -12  -1  -9   77.53    3.87
 -12   2  15   30.16    3.06
 -12   2  14  184.39    6.75
 -12  -2  14  172.40    5.75
  12  -2 -13  553.79   10.92
 -12   2  13  564.93   12.14
 -12  -2  13  528.89   10.79
  12  -2 -12   53.45    4.30
 -12  -2  12   38.42    3.58
 -12   2  12   46.29    4.30
 -12   2  12   31.30    3.48
 -12  -2  12   44.73    3.67
  12  -2 -11  210.83    8.39
 -12  -2  11  177.71    7.68
 -12   2  11  215.56    8.34
 -12   2  11  177.90    8.20
 -12  -2  11  215.01    7.74
  12  -2 -10  393.64   12.04
 -12  -2  10  407.38   11.98
 -12   2  10  434.34   12.01
 -12   2  10  414.14   13.24
 -12  -2  10  439.84   11.27
  12  -2  -9  126.88    7.37
 -12  -2   9  127.47    7.14
 -12   2   9  124.17    7.89
  12  -2  -8  270.12   10.83
 -12  -2   8  291.60   10.80
 -12   2   8  303.66   12.49
 -12  -2   7  709.51   16.48
 -12   2   7  716.90   19.45
  12  -2  -6   90.95    6.97
 -12  -2   6   86.66    6.16
 -12   2   6  101.01    7.80
  12  -2  -5  267.20   10.98
 -12  -2   5  274.34   10.68
 -12   2   5  272.89   12.40
  12  -2  -4  895.01   19.72
 -12  -2   4  951.37   18.84
 -12   2   4  953.66   23.18
  12  -2  -3  128.57    7.93
 -12  -2   3  136.52    7.29
 -12   2   3  124.20    8.73
  12  -2  -2  284.14   11.63
 -12  -2   2  253.46   16.94
 -12   2   2  229.62   11.19
  12  -2  -2  245.52   10.26
 -12  -2   2  260.36    9.93
 -12   2   2  247.26   11.66
  12  -2  -1  585.77   16.34
 -12  -2   1  558.13   22.64
  12  -2  -1  527.33   14.25
 -12  -2   1  544.85   13.94
 -12   2   1  566.19   16.13
  12  -2   0  157.00    8.99
 -12   2   0  135.30    8.37
  12  -2   0  137.93    7.46
 -12   2   0  133.93    7.79
  12  -2   1  316.25   11.58
  12  -2   1  269.22    9.52
 -12   2  -1  289.07   11.77
 -12   2  -1  297.17   10.22
 -12   2  -2  313.43   11.23
  12  -2   2  347.72   11.77
 -12   2  -2  323.60   11.85
 -12   2  -3   96.89    5.92
  12  -2   3  100.12    6.54
 -12  -2  -3   95.38    5.47
 -12   2  -3   95.58    6.17
 -12   2  -4  114.79    5.98
  12  -2   4  112.76    6.44
 -12  -2  -4  107.26    5.43
 -12   2  -4  111.73    6.47
  12   2   4  126.16    5.70
 -12   2  -5  634.79   12.41
  12   2   5  656.62   11.72
  12  -2   5  639.48   13.01
 -12  -2  -5  661.48   11.56
 -12   2  -5  614.80   12.92
 -12  -2  -5  677.81   12.11
 -12   2  -6   68.56    3.72
  12  -2   6   77.41    4.53
 -12   2  -6   63.56    3.81
 -12  -2  -6   71.58    3.63
  12  -3  -5  294.51    7.82
  12  -3  -4   30.26    3.88
  12  -3  -3  340.71    8.04
  12  -3  -2   71.90    4.13
  13   0 -16  511.68   11.13
  13   0 -15   -0.23    1.69
 -13   0  15    1.24    1.40
 -13   0  15   -0.34    2.30
 -13   0  15    0.27    1.49
  13   0 -15    2.05    1.69
  13   0 -14  157.43    7.50
  13   0 -14  165.00    7.44
 -13   0  14  178.90    7.70
 -13   0  14  151.17    7.85
 -13   0  14  162.33    7.05
  13   0 -14  166.61    7.95
  13   0 -13   -1.02    1.73
  13   0 -13   -0.46    1.92
 -13   0  13    0.52    1.64
 -13   0  13    1.18    2.92
 -13   0  13    0.17    1.92
  13   0 -13    1.68    2.13
  13   0 -12  144.27    8.02
  13   0 -12  130.34    7.28
 -13   0  12  153.13    8.18
 -13   0  12  153.23    8.64
 -13   0  12  138.56    7.35
  13   0 -12  130.44    8.01
  13   0 -11    2.73    2.25
  13   0 -11   -0.93    2.32
 -13   0  11    2.00    2.06
 -13   0  11    2.45    3.50
 -13   0  11    2.38    2.51
  13   0 -11    2.08    2.36
  13   0 -10 1083.40   23.26
 -13   0  10 1064.68   22.89
 -13   0  10 1099.16   23.83
 -13   0  10 1033.64   21.30
  13   0 -10 1076.15   23.23
  13   0  -9    1.71    2.29
 -13   0   9    1.44    2.14
 -13   0   9    1.64    4.08
  13   0  -9    1.44    2.52
  13   0  -8  243.93   11.49
 -13   0   8  233.84   11.06
 -13   0   8  224.25   11.46
  13   0  -8  239.55   11.17
  13   0  -7    0.19    2.05
 -13   0   7    1.77    2.21
 -13   0   7   -1.10    3.51
 -13   0   7    5.21    2.56
  13   0  -7    0.17    2.09
  13   0  -6  217.27   11.07
 -13   0   6  201.31   10.24
 -13   0   6  224.86   11.22
 -13   0   6  195.64   10.61
  13   0  -6  205.90   10.42
  13   0  -5    1.88    2.58
 -13   0   5    1.92    2.06
 -13   0   5    4.41    3.14
  13   0  -5    0.67    2.36
  13   0  -4  576.46   17.74
 -13   0   4  545.42   16.36
 -13   0   4  584.16   18.63
  13   0  -4  558.30   16.74
  13   0  -3    2.90    2.56
 -13   0   3    0.95    1.90
 -13   0   3    1.04    2.92
  13   0  -3    0.63    1.97
  13   0  -2   66.60    6.36
 -13   0   2   66.07    5.59
 -13   0   2   78.90    7.09
  13   0  -2   70.28    6.27
  13   0  -1   -0.76    2.45
  13   0  -1    2.48    2.43
 -13   0   1    1.40    2.78
  13   0  -1    2.23    2.27
  13   0   0  432.79   14.63
 -13   0   0  432.08   15.59
  13   0   0  429.00   14.64
  13   0   1    4.40    2.99
 -13   0  -1    2.77    2.98
  13   0   1    3.79    3.35
  13   0   1   -0.35    2.38
  13   0   2  404.74   13.70
 -13   0  -2  364.94   11.74
 -13   0  -2  397.00   13.88
  13   0   2  396.18   12.28
  13   0   2  386.14   13.41
  13   0   3    0.07    2.39
 -13   0  -3    2.04    1.80
 -13   0  -3   -2.03    2.48
  13   0   3    1.63    2.88
  13   0   3   -1.38    1.95
  13   0   4    5.45    2.53
 -13   0  -4    5.46    2.08
 -13   0  -4    3.64    2.16
  13   0   4    6.95    3.10
  13   0   5    1.90    2.38
 -13   0  -5    0.90    1.24
 -13   0  -5    2.67    1.93
  13   0   5    5.66    2.65
  13   0   6   39.09    4.29
 -13   0  -6   37.39    2.86
  13   0   6   43.94    3.73
  13   0   7    0.57    2.00
  13   0   7    3.43    2.43
 -13   1  16    2.87    2.33
 -13  -1  16    2.82    1.66
  13   1 -16    0.77    1.35
  13   1 -15  138.54    5.54
 -13  -1  15  133.04    5.99
 -13   1  15  127.20    6.30
 -13  -1  15  138.75    5.74
  13   1 -14  335.22    9.07
 -13   1  14  367.53   10.66
 -13  -1  14  349.16    9.78
  13  -1 -14  357.70    9.28
  13   1 -13    9.96    2.16
 -13   1  13   12.09    3.21
 -13  -1  13    7.05    2.36
  13  -1 -13    9.39    2.11
  13   1 -13    8.05    2.40
  13   1 -12  390.78   10.72
 -13   1  12  415.58   12.04
 -13   1  12  418.48   12.98
 -13  -1  12  417.69   11.91
  13  -1 -12  427.66   12.31
  13   1 -12  377.64   11.88
  13   1 -11   90.54    5.30
 -13   1  11   89.69    6.24
 -13   1  11   99.22    6.82
 -13  -1  11   99.68    6.22
  13  -1 -11   89.60    6.15
  13   1 -11   93.06    6.20
  13  -1 -10    2.13    1.79
 -13   1  10    0.97    1.83
 -13   1  10    2.90    3.29
 -13   1  10    1.22    2.24
 -13  -1  10    0.63    2.30
  13  -1 -10    1.90    2.22
  13   1 -10    3.39    2.02
  13  -1  -9   60.17    5.33
 -13   1   9   51.71    5.40
 -13   1   9   63.46    5.94
 -13   1   9   65.81    5.79
 -13  -1   9   58.87    5.23
  13  -1  -9   57.05    5.38
  13   1  -9   62.63    5.13
  13  -1  -8  340.67   12.85
 -13   1   8  333.49   12.95
 -13   1   8  352.21   12.94
 -13   1   8  354.88   13.31
 -13  -1   8  347.19   11.85
  13  -1  -8  363.40   13.31
  13   1  -8  364.19   11.95
  13  -1  -7    7.16    2.58
 -13   1   7    6.38    2.61
 -13  -1   7    8.08    2.88
 -13   1   7   10.33    3.94
 -13   1   7   10.50    3.47
  13  -1  -7    6.64    2.11
  13  -1  -7    5.77    2.66
  13  -1  -6  230.43   11.23
  13   1  -6  241.64   10.76
 -13   1   6  222.97   10.88
 -13  -1   6  231.82    9.89
 -13  -1   6  221.80    8.99
 -13   1   6  234.29   10.28
 -13   1   6  242.19   11.55
  13  -1  -6  234.97   10.27
  13  -1  -5   39.22    4.97
  13   1  -5   45.13    4.63
  13  -1  -5   37.63    4.73
 -13  -1   5   48.31    4.40
 -13  -1   5   43.14    4.19
 -13   1   5   46.65    5.70
  13  -1  -5   44.77    4.68
  13  -1  -4   -0.81    2.10
  13   1  -4    0.38    1.73
 -13  -1   4    0.81    3.62
  13  -1  -4    4.52    2.69
 -13  -1   4   -0.24    1.56
 -13  -1   4   -1.33    2.34
 -13   1   4    0.18    2.96
  13  -1  -4    0.85    1.95
  13   1  -3    7.20    1.92
 -13  -1   3    7.71    3.85
 -13  -1   3    6.96    2.78
 -13  -1   3    7.85    3.25
 -13   1   3    8.94    3.65
  13  -1  -3    7.26    2.62
  13   1  -3    7.21    2.37
 -13  -1   2  212.97    8.74
 -13  -1   2  209.00   10.84
 -13   1   2  229.58   11.31
  13  -1  -2  228.71   10.60
  13   1  -2  229.89    9.80
 -13   1   1    9.60    2.91
 -13  -1   1   12.75    5.02
 -13  -1   1   10.69    3.22
 -13   1   1   12.03    3.64
  13  -1  -1    8.17    2.82
  13   1  -1    7.75    2.30
 -13   1   0  156.10    8.36
  13   1   0  178.51    9.14
 -13   1   0  141.30    7.89
 -13  -1   0  163.21    9.56
 -13   1   0  164.09    9.20
  13  -1   0  165.40    8.88
  13   1   0  161.52    8.01
 -13   1  -1   34.52    4.12
  13  -1   1   35.93    4.38
  13   1   1   38.85    4.40
 -13   1  -1   28.90    3.62
 -13  -1  -1   37.81    4.80
 -13   1  -1   36.45    4.56
  13  -1   1   23.59    3.96
  13   1   1   30.41    3.66
 -13   1  -2   17.45    3.20
  13  -1   2   19.65    4.41
  13  -1   2   17.58    3.44
  13   1   2   23.68    3.46
 -13  -1  -2   25.88    5.01
 -13   1  -2   20.26    3.32
 -13  -1  -2   21.84    3.86
 -13   1  -2   16.75    3.07
  13   1   2   17.05    2.97
 -13   1  -3   74.31    5.35
  13  -1   3   82.26    6.34
  13  -1   3   64.78    5.74
  13   1   3   74.84    5.28
 -13   1  -3   64.29    4.98
 -13  -1  -3   80.06    5.81
 -13   1  -3   69.97    5.16
  13   1   3   70.43    5.55
 -13   1  -4  155.49    7.05
  13  -1   4  152.82    7.25
  13   1   4  163.35    7.10
 -13   1  -4  142.94    6.75
 -13  -1  -4  160.95    6.98
 -13  -1  -4  162.41    7.48
  13   1   4  158.63    7.00
  13   1   5    6.65    2.03
  13  -1   5    7.15    2.32
  13  -1   5    4.93    2.28
  13   1   5    8.60    2.25
 -13   1  -5    3.93    1.80
 -13  -1  -5    7.43    2.06
  13   1   5    9.22    2.78
  13   1   6   45.58    3.29
  13  -1   6   27.75    3.71
 -13   1  -6   37.26    3.15
 -13  -1  -6   54.64    3.48
  13   1   6   47.48    3.47
  13  -2 -12  110.79    4.69
  13  -2 -11   59.90    3.49
  13  -2 -11   59.38    4.22
 -13  -2  11   58.89    3.53
  13  -2 -10  192.23    7.06
 -13  -2  10  175.71    6.29
  13  -2  -9   19.80    3.29
 -13  -2   9   24.80    2.73
  13  -2  -8   41.05    4.42
 -13  -2   8   43.44    3.64
 -13   2   8   35.48    4.14
  13  -2  -7  210.65    8.51
 -13  -2   7  231.21    7.97
 -13   2   7  234.58    9.43
  13  -2  -6  141.23    7.04
 -13  -2   6  136.02    6.33
 -13   2   6  139.90    7.58
 -13  -2   5   71.12    6.99
  13  -2  -5   61.60    5.37
 -13  -2   5   56.81    4.66
 -13   2   5   57.08    5.26
  13  -2  -4  319.26   10.10
 -13  -2   4  330.04    9.57
 -13   2   4  343.53   11.46
  13  -2  -3  117.50    7.34
  13  -2  -3  119.86    6.46
 -13  -2   3  129.17    6.03
 -13   2   3  122.99    6.95
 -13   2   2   31.79    3.75
  13  -2  -2   41.40    5.03
  13   2  -2   43.65    3.85
  13  -2  -2   44.86    4.13
 -13   2   2   50.15    4.32
 -13   2   1   71.46    4.96
  13  -2  -1   83.78    5.71
  13   2  -1   96.86    4.91
 -13   2   1   68.48    4.75
  13  -2  -1   90.91    5.17
 -13   2   1   78.72    5.30
 -13   2   0   23.98    3.10
  13  -2   0   23.32    3.67
 -13   2   0   24.71    3.09
  13  -2   0   23.29    2.78
 -13   2   0   27.48    2.97
 -13   2  -1    1.60    1.76
  13  -2   1    1.58    2.40
 -13  -2  -1   -3.27    1.98
 -13   2  -1    0.36    1.55
 -13   2  -2  133.26    5.75
  13  -2   2  145.73    6.26
 -13  -2  -2  143.37    5.56
 -13   2  -2  121.51    5.54
  13   2   2  113.02    5.06
 -13   2  -3   42.25    3.23
 -13   2  -3   37.80    3.09
 -14   0  14    3.34    1.28
  14   0 -14    4.55    1.73
  14   0 -13    1.32    1.34
 -14   0  13   -0.45    1.36
  14   0 -13    0.69    1.52
  14   0 -12    8.08    2.24
 -14   0  12    5.51    2.00
  14   0 -12    6.54    2.24
  14   0 -11    1.15    1.72
 -14   0  11    0.51    1.62
  14   0 -11   -0.07    1.69
  14   0 -10  146.73    7.58
 -14   0  10  137.86    7.32
  14   0 -10  145.06    7.46
  14   0  -9    0.56    2.01
 -14   0   9    0.99    1.98
  14   0  -9    1.04    1.78
  14   0  -8    5.43    2.45
 -14   0   8    3.19    2.21
  14   0  -8    7.25    2.62
  14   0  -7    0.51    2.03
 -14   0   7   -1.08    1.91
 -14   0   7   -0.61    2.06
  14   0  -7   -0.16    1.85
  14   0  -6   12.94    3.26
 -14   0   6   11.11    2.59
 -14   0   6   14.46    3.38
  14   0  -6   13.79    3.02
  14   0  -6   11.00    2.60
  14   0  -5   -0.93    1.93
 -14   0   5   -0.56    1.62
 -14   0   5    1.02    2.31
  14   0  -5    0.53    1.91
  14   0  -4   37.56    4.42
  14   0  -4   43.47    4.63
 -14   0   4   39.08    4.00
 -14   0   4   40.99    4.80
  14   0  -4   38.29    4.34
  14   0  -3   -0.55    1.85
  14   0  -3    0.86    2.13
 -14   0   3    0.32    2.31
  14   0  -3    1.32    2.11
  14   0  -2   84.98    6.11
 -14   0   2   75.72    6.42
  14   0  -2   80.06    6.00
  14   0  -1   -0.59    2.22
 -14   0   1   -0.68    2.52
 -14   0   1    1.90    2.51
  14   0  -1    0.54    1.79
  14   0   0  235.00    9.34
 -14   0   0  235.14    9.70
  14   0   0  210.56    9.40
  14   0   1    1.36    2.07
 -14   0  -1    0.43    1.91
  14   0   1   -1.47    2.22
  14   0   1   -0.62    1.59
  14   0   2  138.92    7.19
 -14   0  -2  136.64    6.82
  14   0   2  144.83    6.01
  14   0   3    0.68    1.81
 -14   0  -3    1.83    1.74
  14   0   3    0.83    2.14
  14   0   4    3.48    2.17
  14   1 -13   36.40    3.33
  14  -1 -13   29.29    3.61
 -14  -1  13   34.72    3.14
 -14   1  13   35.61    3.57
  14   1 -13   24.61    2.53
  14   1 -12    2.02    1.54
 -14  -1  12    2.07    1.50
 -14   1  12   -1.41    2.41
  14   1 -12    1.50    1.27
  14   1 -11    1.87    1.55
 -14  -1  11   -0.54    1.92
 -14  -1  11    6.53    1.83
 -14   1  11    1.42    2.33
  14   1 -11    2.86    1.28
  14   1 -10    9.83    2.49
 -14  -1  10   10.81    3.32
 -14  -1  10    7.67    2.15
 -14   1  10    3.08    2.47
  14   1 -10    5.22    1.77
  14   1  -9    0.53    1.58
 -14  -1   9   -0.55    2.40
  14  -1  -9   -1.32    2.63
 -14  -1   9    0.22    1.33
 -14   1   9   -0.15    2.44
 -14   1   9    0.31    1.87
  14   1  -9    1.82    1.39
  14   1  -8   15.68    2.87
 -14  -1   8   10.40    3.84
  14  -1  -8   13.93    3.09
 -14  -1   8   19.83    2.82
 -14   1   8   10.65    2.90
 -14   1   8   16.01    3.08
  14   1  -7   26.68    3.40
 -14  -1   7   19.27    4.83
  14  -1  -7   22.36    3.37
 -14  -1   7   29.85    3.14
 -14   1   7   23.43    3.65
  14   1  -6   -0.34    1.41
 -14  -1   6   -0.12    2.70
  14  -1  -6    0.26    2.25
 -14  -1   6   -0.11    1.22
 -14   1   6   -0.81    2.10
  14  -1  -6    3.36    1.80
  14   1  -6    2.24    1.78
  14   1  -5   34.96    3.70
 -14  -1   5   34.13    5.69
  14  -1  -5   29.74    3.60
 -14   1   5   36.32    4.42
  14  -1  -5   43.02    3.96
  14   1  -5   41.34    4.06
  14   1  -4   10.73    2.29
 -14  -1   4   11.61    4.32
 -14  -1   4    6.86    2.55
 -14   1   4    9.49    2.87
  14  -1  -4    8.94    2.24
  14   1  -4   15.11    2.70
 -14  -1   3    2.26    2.94
 -14  -1   3    2.37    2.07
 -14   1   3    4.21    2.50
  14  -1  -3    3.01    2.06
  14   1  -3    2.37    1.51
  14   1  -2   47.96    4.60
 -14  -1   2   49.26    4.51
 -14   1   2   47.93    4.75
  14  -1  -2   39.63    4.32
  14   1  -2   46.86    3.87
 -14   1   1    2.27    1.54
  14   1  -1    0.42    1.94
 -14  -1   1   -0.75    2.65
 -14  -1   1    5.92    2.34
 -14   1   1    0.37    2.08
  14  -1  -1    0.03    1.50
  14   1  -1    2.08    1.46
 -14   1   0   77.60    4.73
  14  -1   0   72.20    6.01
  14   1   0  106.83    5.83
 -14  -1   0   96.63    5.80
 -14   1   0   92.51    5.74
  14   1   0   94.88    5.03
 -14   1  -1    0.10    1.48
  14  -1   1    3.66    2.57
  14   1   1    1.35    1.65
 -14   1  -1    0.88    1.34
 -14  -1  -1    0.54    1.76
 -14   1  -1    1.38    1.72
  14   1   1   -0.59    2.41
  14  -1   2    1.80    2.41
  14   1   2    2.80    1.60
 -14   1  -2   -0.15    1.25
 -14  -1  -2    4.57    1.80
 -14   1  -2    2.09    1.51
  14   1   2    4.43    2.42
  14  -1   3   73.67    4.36
  14   1   3   85.00    4.64
 -14  -1  -3   85.44    4.19
  14   1   3   84.80    4.39
  14  -2  -8    4.51    2.25
  14  -2  -7   58.18    3.85
 -14   2   7   55.27    3.79
  14  -2  -6   15.28    2.67
 -14   2   6   16.02    2.58
  14  -2  -5   10.15    2.39
 -14   2   5    8.44    2.20
 -14   2   4   45.28    3.50
 -14  -2   3   38.15    3.32
  15   0 -11   19.74    2.49
 -15   0  11   10.19    2.05
  15   0 -10  197.50    6.90
 -15   0  10  201.45    6.97
  15   0 -10  177.80    6.75
  15   0  -9    2.33    1.43
 -15   0   9    2.03    1.40
  15   0  -9    1.53    1.45
  15   0  -8   18.33    2.63
  15   0  -8   17.18    2.52
  15   0  -7  108.36    5.90
  15   0  -7  124.00    5.26
  15   0  -7  105.05    5.68
  15   0  -6  771.20   15.36
  15   0  -6  784.68   13.47
 -15   0   6  801.26   19.15
 -15   0   6  757.76   14.10
  15   0  -6  811.07   14.97
  15   0  -5   85.82    4.83
 -15   0   5   76.56    6.32
 -15   0   5   75.25    4.82
  15   0  -5   82.40    5.10
  15   0  -4 1107.18   16.31
 -15   0   4 1139.51   21.48
  15   0  -4 1158.74   18.09
  15   0  -3    2.45    1.75
 -15   0   3    1.91    1.92
 -15   0   3    1.12    1.81
  15   0  -3    1.37    1.48
  15   0  -2   19.93    2.72
 -15   0   2   22.20    2.96
  15   0  -2   20.82    2.72
  15   0  -1   16.56    2.78
  15   0  -1   16.57    2.64
  15   0   0  177.40    6.86
 -15   0   0  213.01    6.89
  15   1  -8  554.00   10.28
  15   1  -8  589.61   10.90
  15   1  -7  113.17    4.78
 -15  -1   7  112.92    7.03
 -15   1   7   98.68    4.98
  15   1  -7  115.82    4.96
  15   1  -6  381.51    9.50
  15   1  -6  374.95    8.73
 -15   1   5  169.08    6.55
  15   1  -5  181.03    5.99
  15   1  -4  201.00    6.58
 -15   1   4  177.90    6.62
  15  -1  -3  219.58    7.39
  15   1  -3  277.98    7.63
 -15  -1   3  295.25   10.52
 -15   1   3  244.28    7.56
  15   1  -2  741.60   11.81
 -15   1   2  707.73   11.99
   0   0   0    0.00    0.00
;
_shelx_hkl_checksum              69453
loop_
_space_group_symop_operation_xyz
'x, y, z'
'-x, y+1/2, -z+1/2'
'-x, -y, -z'
'x, -y-1/2, z-1/2'
loop_
_atom_site_label
_atom_site_type_symbol
_atom_site_fract_x
_atom_site_fract_y
_atom_site_fract_z
_atom_site_U_iso_or_equiv
_atom_site_adp_type
_atom_site_occupancy
_atom_site_site_symmetry_order
_atom_site_calc_flag
_atom_site_refinement_flags_posn
_atom_site_refinement_flags_adp
_atom_site_refinement_flags_occupancy
Se1 Se -0.10123(7) 0.3098(3) 0.08146(5) 0.0208(3) Uani 0.7 1 d . . P
S1 S -0.10123(7) 0.3098(3) 0.08146(5) 0.0208(3) Uani 0.3 1 d . . P
Se2 Se 0.15531(7) 0.3127(3) 0.08851(5) 0.0222(3) Uani 0.8 1 d . . P
S2 S 0.15531(7) 0.3127(3) 0.08851(5) 0.0222(3) Uani 0.2 1 d . . P
C1 C 0.0115(5) 0.424(2) 0.0346(4) 0.0187(14) Uani 1 1 d . . .
C2 C -0.0019(7) 0.148(2) 0.1654(4) 0.0232(16) Uani 1 1 d . . .
H2 H -0.0283 0.0612 0.2063 0.028 Uiso 1 1 calc R U .
C3 C 0.1071(6) 0.150(2) 0.1697(4) 0.0235(16) Uani 1 1 d . . .
H3 H 0.1588 0.0697 0.2135 0.028 Uiso 1 1 calc R U .
N1 N 0.3854(5) 1.094(2) 0.1899(4) 0.0272(15) Uani 1 1 d . . .
N2 N 0.7456(5) 1.122(2) 0.1880(4) 0.0287(16) Uani 1 1 d . . .
C4 C 0.5236(6) 0.706(2) 0.0668(4) 0.0196(15) Uani 1 1 d . . .
C5 C 0.6088(6) 0.604(2) 0.0313(4) 0.0198(15) Uani 1 1 d . . .
H5 H 0.6830 0.6791 0.0523 0.024 Uiso 1 1 calc R U .
C6 C 0.4124(6) 0.596(2) 0.0316(4) 0.0189(15) Uani 1 1 d . . .
H6 H 0.3528 0.6642 0.0525 0.023 Uiso 1 1 calc R U .
C7 C 0.5454(6) 0.913(2) 0.1313(4) 0.0189(15) Uani 1 1 d . . .
C8 C 0.4587(6) 1.015(2) 0.1659(4) 0.0197(15) Uani 1 1 d . . .
C9 C 0.6563(6) 1.029(2) 0.1657(4) 0.0206(15) Uani 1 1 d . . .
loop_
_atom_site_aniso_label
_atom_site_aniso_U_11
_atom_site_aniso_U_22
_atom_site_aniso_U_33
_atom_site_aniso_U_23
_atom_site_aniso_U_13
_atom_site_aniso_U_12
Se1 0.0137(5) 0.0260(6) 0.0233(5) 0.0018(4) 0.0058(4) 0.0011(4)
S1 0.0137(5) 0.0260(6) 0.0233(5) 0.0018(4) 0.0058(4) 0.0011(4)
Se2 0.0141(4) 0.0272(6) 0.0254(5) 0.0015(4) 0.0051(3) 0.0002(4)
S2 0.0141(4) 0.0272(6) 0.0254(5) 0.0015(4) 0.0051(3) 0.0002(4)
C1 0.009(3) 0.025(4) 0.022(3) 0.000(3) 0.004(2) 0.002(3)
C2 0.026(4) 0.022(4) 0.022(3) 0.001(3) 0.006(3) -0.001(3)
C3 0.025(4) 0.025(4) 0.022(4) -0.001(3) 0.008(3) -0.006(3)
N1 0.018(3) 0.037(4) 0.028(3) -0.005(3) 0.007(3) 0.001(3)
N2 0.019(3) 0.040(5) 0.027(3) 0.002(3) 0.003(3) -0.001(3)
C4 0.014(3) 0.024(4) 0.022(3) 0.003(3) 0.006(3) 0.000(3)
C5 0.012(3) 0.022(4) 0.026(4) -0.001(3) 0.005(3) -0.001(3)
C6 0.012(3) 0.023(4) 0.023(3) 0.001(3) 0.007(3) 0.000(3)
C7 0.012(3) 0.021(4) 0.024(3) 0.001(3) 0.005(3) 0.000(3)
C8 0.019(3) 0.020(4) 0.019(3) 0.000(3) 0.002(3) -0.001(3)
C9 0.018(3) 0.025(4) 0.019(3) 0.002(3) 0.006(3) 0.002(3)
loop_
_atom_type_symbol
_atom_type_description
_atom_type_scat_dispersion_real
_atom_type_scat_dispersion_imag
_atom_type_scat_source
C C 0.0181 0.0091 'International Tables Vol C Tables 4.2.6.8 and 6.1.1.4'
H H 0.0000 0.0000 'International Tables Vol C Tables 4.2.6.8 and 6.1.1.4'
N N 0.0311 0.0180 'International Tables Vol C Tables 4.2.6.8 and 6.1.1.4'
S S 0.3331 0.5567 'International Tables Vol C Tables 4.2.6.8 and 6.1.1.4'
Se Se -0.7943 1.1372 'International Tables Vol C Tables 4.2.6.8 and 6.1.1.4'
loop_
_geom_angle_atom_site_label_1
_geom_angle_atom_site_label_2
_geom_angle_atom_site_label_3
_geom_angle
_geom_angle_site_symmetry_1
C2 Se1 C1 92.6(3) .
C3 Se2 C1 92.9(3) .
C1 C1 Se1 121.6(7) 3_565
C1 C1 Se2 123.2(7) 3_565
Se1 C1 Se2 115.3(4) .
C3 C2 Se1 120.6(6) .
C3 C2 H2 119.7 .
Se1 C2 H2 119.7 .
C2 C3 Se2 118.5(6) .
C2 C3 H3 120.7 .
Se2 C3 H3 120.7 .
C7 C4 C5 122.2(7) .
C7 C4 C6 121.0(7) .
C5 C4 C6 116.7(7) .
C6 C5 C4 122.3(7) 3_665
C6 C5 H5 118.9 3_665
C4 C5 H5 118.9 .
C5 C6 C4 121.0(7) 3_665
C5 C6 H6 119.5 3_665
C4 C6 H6 119.5 .
C4 C7 C8 121.4(6) .
C4 C7 C9 121.0(7) .
C8 C7 C9 117.6(7) .
N1 C8 C7 176.4(8) .
N2 C9 C7 175.1(8) .
loop_
_geom_bond_atom_site_label_1
_geom_bond_atom_site_label_2
_geom_bond_distance
_geom_bond_site_symmetry_2
Se1 C2 1.834(8) .
Se1 C1 1.866(7) .
Se2 C3 1.850(7) .
Se2 C1 1.866(7) .
C1 C1 1.365(15) 3_565
C2 C3 1.334(11) .
C2 H2 0.9500 .
C3 H3 0.9500 .
N1 C8 1.146(10) .
N2 C9 1.139(10) .
C4 C7 1.395(11) .
C4 C5 1.427(10) .
C4 C6 1.435(10) .
C5 C6 1.357(11) 3_665
C5 H5 0.9500 .
C6 C5 1.357(11) 3_665
C6 H6 0.9500 .
C7 C8 1.432(10) .
C7 C9 1.435(10) .
loop_
_geom_torsion_atom_site_label_1
_geom_torsion_atom_site_label_2
_geom_torsion_atom_site_label_3
_geom_torsion_atom_site_label_4
_geom_torsion
_geom_torsion_site_symmetry_4
C2 Se1 C1 C1 -178.2(10) 3_565
C2 Se1 C1 Se2 2.2(5) .
C3 Se2 C1 C1 177.8(10) 3_565
C3 Se2 C1 Se1 -2.6(5) .
C1 Se1 C2 C3 -0.7(8) .
Se1 C2 C3 Se2 -1.1(10) .
C1 Se2 C3 C2 2.2(8) .
C7 C4 C5 C6 -179.8(8) 3_665
C6 C4 C5 C6 -1.9(13) 3_665
C7 C4 C6 C5 179.8(8) 3_665
C5 C4 C6 C5 1.9(13) 3_665
C5 C4 C7 C8 179.6(7) .
C6 C4 C7 C8 1.8(12) .
C5 C4 C7 C9 -1.0(12) .
C6 C4 C7 C9 -178.8(7) .
