#------------------------------------------------------------------------------
#$Date: 2019-11-23 23:20:01 +0200 (Sat, 23 Nov 2019) $
#$Revision: 235561 $
#$URL: file:///home/coder/svn-repositories/cod/cif/7/23/64/7236474.cif $
#------------------------------------------------------------------------------
#
# This file is available in the Crystallography Open Database (COD),
# http://www.crystallography.net/
#
# All data on this site have been placed in the public domain by the
# contributors.
#
data_7236474
loop_
_publ_author_name
'von Arx, Tobias'
'Szentkuti, Alexander'
'Zehnder, Thomas N.'
'Blacque, Olivier'
'Venkatesan, Koushik'
_publ_section_title
;
 Stable N-heterocyclic carbene (NHC) cyclometalated (C^C) gold(iii)
 complexes as blue--blue green phosphorescence emitters
;
_journal_issue                   15
_journal_name_full               'Journal of Materials Chemistry C'
_journal_page_first              3765
_journal_paper_doi               10.1039/C6TC05551F
_journal_volume                  5
_journal_year                    2017
_chemical_formula_moiety         'C16 H12 Au Cl N2 O'
_chemical_formula_sum            'C16 H12 Au Cl N2 O'
_chemical_formula_weight         480.69
_chemical_name_systematic
chloro[1-(dibenzo[b,d]furan-4-yl)-3-methyl-2,3-dihydro-1H-imidazol-2-yl]-gold(i)
_space_group_crystal_system      triclinic
_space_group_IT_number           2
_space_group_name_Hall           '-P 1'
_space_group_name_H-M_alt        'P -1'
_atom_sites_solution_hydrogens   geom
_audit_creation_date             2015-08-04
_audit_creation_method
;
Olex2 1.2
(compiled 2015.01.26 svn.r3150 for OlexSys, GUI svn.r4998)
;
_audit_update_record
;
2016-12-14 deposited with the CCDC.
2017-03-15 downloaded from the CCDC.
;
_cell_angle_alpha                75.0300(16)
_cell_angle_beta                 73.7053(17)
_cell_angle_gamma                69.5966(18)
_cell_formula_units_Z            2
_cell_length_a                   7.42395(15)
_cell_length_b                   9.71840(19)
_cell_length_c                   11.1571(2)
_cell_measurement_reflns_used    13148
_cell_measurement_temperature    183(1)
_cell_measurement_theta_max      32.6
_cell_measurement_theta_min      2.3
_cell_volume                     712.55(3)
_computing_cell_refinement
;
CrysAlisPro, Agilent Technologies,
Version 1.171.36.20 (release 27-06-2012 CrysAlis171 .NET)
(compiled Jul 11 2012,15:38:31)
;
_computing_data_collection
;
CrysAlisPro, Agilent Technologies,
Version 1.171.36.20 (release 27-06-2012 CrysAlis171 .NET)
(compiled Jul 11 2012,15:38:31)
;
_computing_data_reduction
;
CrysAlisPro, Agilent Technologies,
Version 1.171.36.20 (release 27-06-2012 CrysAlis171 .NET)
(compiled Jul 11 2012,15:38:31)
;
_computing_molecular_graphics    'Olex2 (Dolomanov et al., 2009)'
_computing_publication_material  'Olex2 (Dolomanov et al., 2009)'
_computing_structure_refinement  'ShelXL 2014/7 (Sheldrick, 2015)'
_computing_structure_solution    'ShelXS-97 (Sheldrick, 2008)'
_diffrn_ambient_temperature      183(1)
_diffrn_detector_area_resol_mean 10.3801
_diffrn_measured_fraction_theta_full 0.999
_diffrn_measured_fraction_theta_max 1.000
_diffrn_measurement_details
;
#__ type_ start__ end____ width___ exp.time_
  1 omega  -59.00   53.00   0.8000   10.0000
omega____ theta____ kappa____ phi______ frames
    -       19.6194  -77.0000  150.0000 140

#__ type_ start__ end____ width___ exp.time_
  2 omega  -14.00   98.00   0.8000   10.0000
omega____ theta____ kappa____ phi______ frames
    -       19.6194   77.0000    0.0000 140

#__ type_ start__ end____ width___ exp.time_
  3 omega  -57.00   45.40   0.8000   10.0000
omega____ theta____ kappa____ phi______ frames
    -       19.6194  -37.0000 -150.0000 128

#__ type_ start__ end____ width___ exp.time_
  4 omega  -14.00   98.00   0.8000   10.0000
omega____ theta____ kappa____ phi______ frames
    -       19.6194   77.0000   90.0000 140

#__ type_ start__ end____ width___ exp.time_
  5 omega -110.00  -58.00   0.8000   10.0000
omega____ theta____ kappa____ phi______ frames
    -      -20.2444 -178.0000  120.0000 65

#__ type_ start__ end____ width___ exp.time_
  6 omega  -54.00   48.40   0.8000   10.0000
omega____ theta____ kappa____ phi______ frames
    -       19.6194  -57.0000    0.0000 128

#__ type_ start__ end____ width___ exp.time_
  7 omega  -20.00   61.60   0.8000   10.0000
omega____ theta____ kappa____ phi______ frames
    -       19.6194  -99.0000  -30.0000 102

#__ type_ start__ end____ width___ exp.time_
  8 omega  -10.00   94.00   0.8000   10.0000
omega____ theta____ kappa____ phi______ frames
    -       19.6194   57.0000 -120.0000 130

#__ type_ start__ end____ width___ exp.time_
  9 omega  -67.00  -13.40   0.8000   10.0000
omega____ theta____ kappa____ phi______ frames
    -      -20.2444  107.0000   77.0000 67
;
_diffrn_measurement_device_type  'SuperNova, Dual, Cu at zero, Atlas'
_diffrn_measurement_method       '\w scans'
_diffrn_orient_matrix_UB_11      -0.0448235000
_diffrn_orient_matrix_UB_12      0.0283136000
_diffrn_orient_matrix_UB_13      0.0573211000
_diffrn_orient_matrix_UB_21      0.0675733000
_diffrn_orient_matrix_UB_22      -0.0597629000
_diffrn_orient_matrix_UB_23      0.0315355000
_diffrn_orient_matrix_UB_31      0.0655544000
_diffrn_orient_matrix_UB_32      0.0434735000
_diffrn_orient_matrix_UB_33      -0.0158425000
_diffrn_radiation_monochromator  mirror
_diffrn_radiation_type           MoK\a
_diffrn_radiation_wavelength     0.71073
_diffrn_reflns_av_R_equivalents  0.0235
_diffrn_reflns_av_unetI/netI     0.0196
_diffrn_reflns_Laue_measured_fraction_full 0.999
_diffrn_reflns_Laue_measured_fraction_max 1.000
_diffrn_reflns_limit_h_max       10
_diffrn_reflns_limit_h_min       -10
_diffrn_reflns_limit_k_max       13
_diffrn_reflns_limit_k_min       -13
_diffrn_reflns_limit_l_max       15
_diffrn_reflns_limit_l_min       -15
_diffrn_reflns_number            17387
_diffrn_reflns_point_group_measured_fraction_full 0.999
_diffrn_reflns_point_group_measured_fraction_max 1.000
_diffrn_reflns_theta_full        26.000
_diffrn_reflns_theta_max         30.507
_diffrn_reflns_theta_min         2.272
_diffrn_source                   'SuperNova (Mo) X-ray Source'
_exptl_absorpt_coefficient_mu    10.509
_exptl_absorpt_correction_T_max  0.708
_exptl_absorpt_correction_T_min  0.231
_exptl_absorpt_correction_type   analytical
_exptl_absorpt_process_details
;
CrysAlisPro, Agilent Technologies,
Version 1.171.36.20 (release 27-06-2012 CrysAlis171 .NET)
(compiled Jul 11 2012,15:38:31)
Analytical numeric absorption correction using a multifaceted crystal
model based on expressions derived by R.C. Clark & J.S. Reid.
(Clark, R. C. & Reid, J. S. (1995). Acta Cryst. A51, 887-897)
;
_exptl_crystal_colour            yellow
_exptl_crystal_density_diffrn    2.240
_exptl_crystal_description       plate
_exptl_crystal_F_000             452
_exptl_crystal_preparation       ', Luminescent'
_exptl_crystal_size_max          0.28
_exptl_crystal_size_mid          0.13
_exptl_crystal_size_min          0.03
_refine_diff_density_max         0.936
_refine_diff_density_min         -0.653
_refine_diff_density_rms         0.097
_refine_ls_extinction_method     none
_refine_ls_goodness_of_fit_ref   1.070
_refine_ls_hydrogen_treatment    constr
_refine_ls_matrix_type           full
_refine_ls_number_parameters     191
_refine_ls_number_reflns         4346
_refine_ls_number_restraints     0
_refine_ls_restrained_S_all      1.070
_refine_ls_R_factor_all          0.0183
_refine_ls_R_factor_gt           0.0166
_refine_ls_shift/su_max          0.002
_refine_ls_shift/su_mean         0.000
_refine_ls_structure_factor_coef Fsqd
_refine_ls_weighting_details
'w=1/[\s^2^(Fo^2^)+(0.0194P)^2^+0.3737P] where P=(Fo^2^+2Fc^2^)/3'
_refine_ls_weighting_scheme      calc
_refine_ls_wR_factor_gt          0.0401
_refine_ls_wR_factor_ref         0.0409
_reflns_Friedel_coverage         0.000
_reflns_number_gt                4125
_reflns_number_total             4346
_reflns_threshold_expression     'I > 2\s(I)'
_cod_data_source_file            c6tc05551f2.cif
_cod_data_source_block           B1_CCDC-1497786
_cod_database_code               7236474
_shelx_space_group_comment
;
The symmetry employed for this shelxl refinement is uniquely defined
by the following loop, which should always be used as a source of
symmetry information in preference to the above space-group names.
They are only intended as comments.
;
_olex2_refinement_description
;
1. Fixed Uiso
 At 1.2 times of:
  All C(H) groups
 At 1.5 times of:
  All C(H,H,H) groups
2.a Aromatic/amide H refined with riding coordinates:
 C2(H2), C3(H3), C6(H6), C7(H7), C8(H8), C13(H13), C14(H14), C15(H15), C16(H16)
2.b Idealised Me refined as rotating group:
 C4(H4A,H4B,H4C)
;
_shelx_res_file
;
    tva2702.res created by SHELXL-2014/7

TITL CF solution in P-1
CELL 0.71073 7.423947 9.718401 11.157147 75.03 73.7053 69.5966
ZERR 2 0.000149 0.000191 0.000197 0.0016 0.0017 0.0018
LATT 1
SFAC C H Au Cl N O
UNIT 32 24 2 2 4 2

L.S. 8
PLAN  25
MORE -1
BOND $H
CONF
fmap 2
acta 52.0
MERG 2
SHEL 100 0.7
OMIT 2 2 1
REM <olex2.extras>
REM <HklSrc "%.\\TVA2702.hkl">
REM </olex2.extras>

WGHT    0.019400    0.373700
FVAR       4.15381
AU1   3    0.721577    0.990613    0.581401    11.00000    0.02963    0.01863 =
         0.02367   -0.00123   -0.00466   -0.00775
CL1   4    0.704735    1.228044    0.588689    11.00000    0.04846    0.02214 =
         0.03111   -0.00815   -0.00084   -0.01623
O1    6    0.851045    0.437408    0.879836    11.00000    0.02792    0.02055 =
         0.01960   -0.00205   -0.00453   -0.00430
N1    5    0.771276    0.720611    0.478335    11.00000    0.03162    0.02368 =
         0.02277   -0.00281   -0.00803   -0.00620
N2    5    0.697000    0.676782    0.682191    11.00000    0.02520    0.01698 =
         0.02332   -0.00237   -0.00453   -0.00551
C1    1    0.730986    0.784774    0.580429    11.00000    0.02252    0.02245 =
         0.02345   -0.00154   -0.00492   -0.00553
C2    1    0.761154    0.576186    0.514894    11.00000    0.03645    0.02382 =
         0.02959   -0.00710   -0.00947   -0.00721
AFIX  43
H2    2    0.781887    0.510633    0.461237    11.00000   -1.20000
AFIX   0
C3    1    0.716114    0.547913    0.641485    11.00000    0.03198    0.01874 =
         0.03051   -0.00401   -0.00926   -0.00768
AFIX  43
H3    2    0.700509    0.458931    0.692662    11.00000   -1.20000
AFIX   0
C4    1    0.818111    0.793381    0.347199    11.00000    0.03978    0.03392 =
         0.02167    0.00019   -0.00606   -0.00744
AFIX 137
H4A   2    0.948617    0.741056    0.308083    11.00000   -1.50000
H4B   2    0.810807    0.894620    0.344780    11.00000   -1.50000
H4C   2    0.725840    0.792522    0.302130    11.00000   -1.50000
AFIX   0
C5    1    0.646008    0.691804    0.811941    11.00000    0.02214    0.02061 =
         0.02425   -0.00403   -0.00211   -0.00848
C6    1    0.514221    0.819901    0.853789    11.00000    0.02502    0.02085 =
         0.03224   -0.00443   -0.00231   -0.00628
AFIX  43
H6    2    0.458046    0.900117    0.795761    11.00000   -1.20000
AFIX   0
C7    1    0.464793    0.829718    0.982710    11.00000    0.02722    0.02581 =
         0.03741   -0.01363    0.00407   -0.00772
AFIX  43
H7    2    0.378397    0.917708    1.008274    11.00000   -1.20000
AFIX   0
C8    1    0.540698    0.712487    1.072865    11.00000    0.02817    0.03312 =
         0.02594   -0.01253    0.00374   -0.01305
AFIX  43
H8    2    0.506526    0.720583    1.158132    11.00000   -1.20000
AFIX   0
C9    1    0.669881    0.581753    1.032567    11.00000    0.02565    0.03049 =
         0.02131   -0.00478   -0.00204   -0.01331
C10   1    0.721701    0.573937    0.903139    11.00000    0.02170    0.02016 =
         0.02292   -0.00473   -0.00088   -0.00775
C11   1    0.880015    0.354721    0.998280    11.00000    0.02465    0.02778 =
         0.02089    0.00097   -0.00497   -0.01127
C12   1    0.774263    0.436832    1.094637    11.00000    0.02326    0.03038 =
         0.02324   -0.00318   -0.00376   -0.01257
C13   1    0.784468    0.367759    1.220691    11.00000    0.02829    0.04830 =
         0.02095   -0.00533   -0.00427   -0.01609
AFIX  43
H13   2    0.715430    0.419472    1.287160    11.00000   -1.20000
AFIX   0
C14   1    0.898413    0.222466    1.243575    11.00000    0.02884    0.04974 =
         0.02328    0.00629   -0.00912   -0.01493
AFIX  43
H14   2    0.906153    0.175550    1.326722    11.00000   -1.20000
AFIX   0
C15   1    1.003597    0.142897    1.144557    11.00000    0.02698    0.03590 =
         0.03371    0.00783   -0.00994   -0.00673
AFIX  43
H15   2    1.079957    0.044464    1.163166    11.00000   -1.20000
AFIX   0
C16   1    0.995680    0.208447    1.019475    11.00000    0.02815    0.02917 =
         0.02710   -0.00151   -0.00437   -0.00593
AFIX  43
H16   2    1.064801    0.156520    0.953148    11.00000   -1.20000
AFIX   0
HKLF 4

REM  CF solution in P-1
REM R1 =  0.0166 for    4125 Fo > 4sig(Fo)  and  0.0183 for all    4346 data
REM    191 parameters refined using      0 restraints

END

WGHT      0.0194      0.3738

REM Highest difference peak  0.936,  deepest hole -0.653,  1-sigma level  0.097
Q1    1   0.6792  1.0452  0.6299  11.00000  0.05    0.94
Q2    1   0.7704  1.2016  0.6194  11.00000  0.05    0.90
Q3    1   0.7013  1.2763  0.5797  11.00000  0.05    0.76
Q4    1   0.7066  0.9454  0.5435  11.00000  0.05    0.74
Q5    1   0.8409  0.9611  0.5571  11.00000  0.05    0.70
Q6    1   0.7060  1.2234  0.5555  11.00000  0.05    0.70
Q7    1   0.6493  1.2590  0.6019  11.00000  0.05    0.70
Q8    1   0.8207  0.9463  0.5275  11.00000  0.05    0.64
Q9    1   0.8048  0.5157  0.3597  11.00000  0.05    0.51
Q10   1   0.7570  0.9386  0.6239  11.00000  0.05    0.44
Q11   1   0.7194  0.5039  1.0860  11.00000  0.05    0.41
Q12   1   0.9585  0.1990  1.1853  11.00000  0.05    0.40
Q13   1   1.0002  0.1692  1.0814  11.00000  0.05    0.36
Q14   1   0.7035  0.6371  0.8411  11.00000  0.05    0.35
Q15   1   0.7938  0.3865  1.1550  11.00000  0.05    0.34
Q16   1   0.7946  0.6384  0.4785  11.00000  0.05    0.34
Q17   1   0.8461  0.3789  1.0535  11.00000  0.05    0.33
Q18   1   0.9783  0.2803  0.9849  11.00000  0.05    0.33
Q19   1   0.6803  0.6112  0.6621  11.00000  0.05    0.32
Q20   1   0.6641  0.5761  0.9657  11.00000  0.05    0.31
Q21   1   0.6351  0.7641  0.8290  11.00000  0.05    0.31
Q22   1   0.8713  0.1630  0.9591  11.00000  0.05    0.31
Q23   1   0.7099  0.8609  0.6065  11.00000  0.05    0.31
Q24   1   0.7624  0.4661  0.7213  11.00000  0.05    0.30
Q25   1   0.5409  0.7782  1.0222  11.00000  0.05    0.30
;
_shelx_res_checksum              57186
_shelx_hkl_file
;
   0   0  -2 261305. 4384.23   6
   0   0  -2 256199. 4269.05   1
   0   0   2 253443. 4351.07   8
   0   0  -2 252913. 4353.14   2
   0   0   2 250934. 4357.32   6
   0   0   2 267421. 4265.76   1
   0   0   3 288.057 83.1768   8
   0   0  -3 256.934 38.5351   4
   0   0  -3 138.595 73.8040   3
   0   0  -3 308.658 92.9702   2
   0   0  -3 275.641 74.7777   8
   0   0   3 396.598 98.5951   6
   0   0  -3 481.741 74.0894   1
   0   0   3 329.543 63.2589   1
   0   0  -3 113.974 67.0037   6
   0   0   4 89623.5 1948.58   6
   0   0  -4 92086.6 1828.17   1
   0   0   4 93825.6 1802.67   1
   0   0   4 90510.7 1965.35   8
   0   0  -4 92730.0 1640.50   4
   0   0  -4 94988.0 2028.55   6
   0   0  -4 93369.7 1951.40   8
   0   0  -4 91020.1 1963.76   2
   0   0  -4 95345.0 2000.41   3
   0   0   5 202180. 3511.41   1
   0   0   5 185981. 3713.26   6
   0   0  -5 188960. 3568.37   1
   0   0  -5 192449. 3300.91   4
   0   0  -5 197454. 3788.42   2
   0   0  -5 197267. 3786.28   3
   0   0  -5 201179. 3719.28   8
   0   0   5 189287. 3763.03   8
   0   0  -6 161596. 3175.17   1
   0   0  -6 164107. 2847.99   4
   0   0  -6 158439. 3399.11   3
   0   0   6 162122. 3353.03   6
   0   0  -6 161418. 3401.49   2
   0   0   6 162077. 3412.74   8
   0   0   6 171954. 3097.04   1
   0   0  -7 141414. 3161.06   2
   0   0  -7 139523. 3151.80   3
   0   0  -7 136704. 2891.55   1
   0   0  -7 143366. 2493.20   4
   0   0   7 138939. 3064.24   6
   0   0   7 137995. 3176.17   8
   0   0   8 26218.3 1147.23   8
   0   0  -8 25288.5 1091.54   2
   0   0  -8 24123.1 937.533   1
   0   0  -8 25213.0 600.731   4
   0   0  -8 24598.7 1089.95   3
   0   0   8 24157.8 1021.58   6
   0   0  -9 4908.01 197.861   4
   0   0  -9 4674.42 200.960   4
   0   0  -9 4926.45 508.809   2
   0   0  -9 5154.30 532.219   3
   0   0   9 5491.35 556.026   8
   0   0   9 4657.41 467.313   6
   0   0  -9 4723.53 426.954   1
   0   0 -10 20018.6 1124.06   3
   0   0 -10 21552.7 1137.85   2
   0   0  10 21990.6 1202.08   8
   0   0 -10 20031.9 983.073   1
   0   0  10 21421.6 1075.55   6
   0   0  11 44166.5 1813.40   8
   0   0 -11 41960.4 1590.49   1
   0   0  11 42364.4 1671.33   6
   0   0 -11 41139.4 1743.31   2
   0   0 -11 41133.5 1767.51   3
   0   0 -12 56328.7 2241.90   3
   0   0  12 60234.2 2262.59   8
   0   0  12 57386.1 2104.48   6
   0   0  13 29276.7 1478.19   6
   0   0 -13 28229.1 1648.84   3
   0   0  13 28704.4 1579.81   8
   0   0  14 9538.72 908.185   8
   0   0 -14 9043.07 979.762   3
   0   0  15 298.357 290.545   8
   0   0 -15-132.952 394.034   3
   0  -1  15-24.4291 276.295   8
   0  -1  14 17665.4 1311.29   8
   0   1 -14 15319.1 1234.26   3
   0  -1  13 18607.2 1326.21   8
   0   1 -13 19775.8 1330.85   3
   0  -1  12 46341.4 2057.16   8
   0   1 -12 40501.8 1853.33   3
   0  -1  12 45268.5 1619.82   6
   0   1 -11 36578.3 1627.17   3
   0  -1  11 37537.9 1403.89   6
   0  -1  11 38109.2 1768.92   8
   0   1 -10 8365.32 706.951   3
   0  -1  10 8652.07 595.520   6
   0  -1  10 8845.71 764.605   8
   0  -1   9 268.582 146.617   6
   0  -1   9 279.302 195.950   8
   0   1  -9 196.113 204.581   3
   0  -1   8 45016.5 1271.78   6
   0  -1   8 44348.3 1531.34   8
   0   1  -8 41940.4 1313.09   1
   0   1  -8 42589.2 1455.67   3
   0   1  -7 159329. 2771.11   4
   0   1  -7 165336. 3345.30   1
   0  -1   7 163557. 3244.09   6
   0  -1   7 161150. 3557.95   8
   0   1  -7 166122. 3523.38   3
   0   1  -6 166093. 3344.87   2
   0  -1   6 165693. 3392.21   8
   0  -1   6 161746. 3075.12   6
   0   1  -6 167048. 3361.43   3
   0   1  -6 165709. 3184.57   1
   0   1  -6 160686. 2719.49   4
   0   1  -5 195785. 3731.32   1
   0  -1   5 198096. 3887.50   8
   0   1  -5 207334. 3827.86   6
   0   1  -5 195560. 3878.46   2
   0  -1   5 195264. 3299.83   9
   0   1  -5 197114. 3376.45   4
   0   1  -5 210111. 3911.28   3
   0  -1   5 200799. 3622.84   6
   0   1  -5 200133. 3396.20   7
   0  -1   5 218132. 3691.28   1
   0   1  -4 60914.3 1149.56   4
   0   1  -4 62180.3 1395.38   1
   0  -1   4 61722.2 1131.21   4
   0  -1   4 60153.8 1468.42   8
   0   1  -4 62426.8 1390.89   6
   0   1  -4 62429.8 1479.03   3
   0  -1   4 60509.2 1284.22   6
   0   1  -4 62932.1 1220.47   7
   0  -1   3 18977.4 486.862   6
   0   1  -3 18911.2 429.885   4
   0   1  -3 19582.6 572.293   1
   0  -1   3 19507.6 421.451   4
   0   1  -3 18559.2 524.712   6
   0  -1   3 19535.8 557.214   1
   0   1  -3 19101.3 615.102   3
   0  -1   3 18767.8 606.326   8
   0  -1   2 162477. 2741.76   4
   0  -1   2 162162. 2734.82   6
   0  -1   2 163977. 2871.94   1
   0   1  -2 158438. 2911.08   3
   0   1  -2 165364. 2756.70   4
   0   1  -2 166677. 2766.15   6
   0  -1   2 160821. 2909.41   8
   0   1  -1 225795. 3633.67   4
   0  -1   1 212528. 3665.16   8
   0   1  -1 222272. 3692.87   3
   0  -1   1 216525. 3620.93   4
   0  -1   0 149997. 2448.01   8
   0   1   0 150117. 2543.09   4
   0   1   0 148118. 2498.84   3
   0  -1   0 146258. 2448.20   5
   0   1   0 143526. 2559.17   7
   0  -1  -1 491072. 8261.86   1
   0  -1  -1 498315. 8319.31   2
   0   1   2 12252.3 414.980   8
   0  -1  -2 11811.9 420.551   8
   0  -1  -2 11432.2 348.075   7
   0   1   2 11466.7 362.235   1
   0  -1  -2 11990.0 377.572   1
   0  -1  -2 11349.9 423.442   2
   0   1   2 11573.9 352.340   7
   0   1   2 11682.2 477.040   6
   0   1   3 18178.0 460.719   7
   0  -1  -3 17713.7 607.686   2
   0  -1  -3 17752.8 516.022   1
   0  -1  -3 19377.8 468.988   7
   0   1   3 17593.6 587.329   8
   0   1   3 19175.0 520.543   1
   0  -1  -3 19143.7 597.761   8
   0   1   3 18967.9 709.233   6
   0   1   4 41702.9 812.934   7
   0   1   4 42115.4 1241.93   6
   0  -1  -4 41908.2 1136.56   2
   0   1   4 40442.3 1105.51   8
   0  -1  -4 39838.6 969.704   1
   0  -1  -4 41779.7 1086.85   8
   0   1   4 42350.6 961.432   1
   0  -1  -5 261411. 4569.12   1
   0   1   5 271008. 4760.09   2
   0   1   5 247904. 4211.19   7
   0  -1  -5 268560. 4760.61   8
   0   1   5 257104. 4789.74   8
   0   1   5 265294. 4524.77   1
   0   1   5 255571. 4983.00   6
   0  -1  -5 257220. 4818.89   2
   0  -1  -6 171562. 3568.62   2
   0  -1  -6 173321. 3448.35   8
   0   1   6 178431. 3220.13   1
   0  -1  -6 165362. 3282.81   1
   0   1   6 170276. 3542.79   8
   0   1   6 169235. 3682.79   6
   0   1   7 130907. 3164.41   6
   0  -1  -7 134655. 3094.06   2
   0   1   7 131078. 3034.94   8
   0  -1  -7 138106. 2564.04   4
   0   1   7 136409. 2662.20   1
   0  -1  -7 132298. 2792.40   1
   0  -1  -8 46723.3 1589.34   2
   0  -1  -8 45382.3 1605.65   3
   0   1   8 45466.1 1578.36   8
   0  -1  -8 45397.2 1361.89   1
   0   1   8 45203.8 1624.86   6
   0  -1  -8 47414.4 1102.78   4
   0  -1  -9 483.325 214.783   3
   0  -1  -9 519.309 98.6049   4
   0  -1  -9 330.980 83.8327   4
   0   1   9 338.712 174.455   6
   0  -1  -9 122.011 106.736   1
   0   1   9 512.334 212.889   8
   0  -1  -9 566.226 238.072   2
   0   1  10 995.549 289.498   6
   0  -1 -10 1718.24 268.908   1
   0   1  10 1332.39 316.678   8
   0  -1 -10 1688.50 349.926   2
   0  -1 -10 778.013 272.301   3
   0  -1 -10 1604.82 143.311   4
   0  -1 -10 1592.99 147.430   4
   0  -1 -11 32801.5 1389.70   1
   0   1  11 35344.8 1629.95   6
   0  -1 -11 35919.5 1619.85   2
   0   1  11 35630.7 1525.41   8
   0  -1 -11 33495.2 1642.23   3
   0  -1 -12 33692.3 1478.67   1
   0  -1 -12 32156.9 1700.67   3
   0  -1 -12 35424.6 1697.44   2
   0   1  12 35828.7 1747.68   6
   0   1  12 35126.3 1595.57   8
   0  -1 -13 21937.2 1394.60   2
   0   1  13 21168.1 1260.07   8
   0   1  13 22106.7 1415.91   6
   0  -1 -13 18729.7 1382.87   3
   0   1  14 5505.75 683.274   8
   0   1  14 4281.93 637.771   6
   0  -1 -14 5198.55 770.105   3
   0  -1 -15-49.7420 360.177   3
   0   1  15 266.097 298.932   8
   0  -2  14 4832.21 743.554   8
   0   2 -14 2831.55 586.268   3
   0   2 -13 23174.1 1457.91   3
   0  -2  13 22785.1 1550.05   8
   0  -2  12 15869.7 1222.29   8
   0   2 -12 17757.0 1175.47   3
   0   2 -11 20879.0 1206.97   3
   0  -2  11 21025.9 869.186   6
   0  -2  11 19055.4 1246.32   8
   0  -2  10 15182.4 706.621   6
   0  -2  10 16126.0 1054.43   8
   0   2 -10 15881.4 986.341   3
   0  -2   9 4200.76 504.350   8
   0   2  -9 4557.85 499.033   3
   0  -2   9 4135.37 329.694   6
   0  -2   8 3846.19 451.263   8
   0  -2   8 3101.42 266.043   6
   0   2  -7 67750.5 1331.61   7
   0   2  -7 66052.1 1873.23   3
   0  -2   7 64294.1 1900.01   8
   0  -2   7 64658.2 1218.47   9
   0   2  -7 68110.7 1318.86   4
   0  -2   7 65053.0 1495.18   6
   0  -2   6 160682. 2816.50   9
   0  -2   6 160112. 2963.48   6
   0   2  -6 162643. 3427.31   3
   0  -2   6 161566. 2799.37   4
   0  -2   6 163171. 3441.92   8
   0   2  -6 160253. 2939.17   7
   0   2  -6 161647. 2869.20   4
   0   2  -5 80126.7 1665.55   7
   0  -2   5 79190.9 1494.31   4
   0   2  -5 81987.9 1932.24   3
   0  -2   5 79525.0 1929.40   8
   0   2  -5 80352.0 1723.36   6
   0  -2   5 77187.8 1551.13   6
   0   2  -5 79870.3 1547.56   4
   0   2  -4 97287.0 1852.11   4
   0   2  -4 99435.0 1900.89   6
   0  -2   4 95446.8 2137.29   8
   0  -2   4 97569.0 1805.02   4
   0   2  -4 98919.5 2143.00   3
   0  -2   4 104543. 2059.90   1
   0   2  -4 98014.8 2021.80   7
   0  -2   4 98199.7 1783.64   6
   0  -2   3 1870.37 99.0251   6
   0  -2   3 1850.78 135.308   4
   0   2  -3 2002.22 193.138   7
   0   2  -3 1929.45 196.874   3
   0   2  -3 1814.72 140.671   4
   0  -2   3 2216.80 205.292   8
   0  -2   3 2040.09 185.054   1
   0   2  -3 2057.67 119.793   6
   0  -2   2 115114. 2108.84   4
   0   2  -2 115616. 2246.14   3
   0   2  -2 115320. 1940.31   6
   0   2  -2 112380. 2141.58   4
   0   2  -2 118021. 2206.97   8
   0  -2   2 113992. 2202.91   8
   0   2  -2 116528. 2293.69   7
   0  -2   1 169784. 3020.06   4
   0   2  -1 167036. 2974.97   5
   0   2  -1 169187. 2990.63   8
   0   2  -1 173202. 3054.51   3
   0   2  -1 171082. 3151.21   7
   0   2  -1 168879. 3049.86   4
   0  -2   1 170444. 2984.47   8
   0   2   0 87035.6 1591.98   8
   0   2   0 87343.6 1588.49   5
   0   2   0 87588.5 1803.13   7
   0  -2   0 88996.2 1595.89   5
   0   2   0 87938.1 1760.12   4
   0  -2   0 89660.7 1584.60   8
   0   2   0 87435.6 1681.70   3
   0   2   1 135418. 2631.70   7
   0  -2  -1 135835. 2497.34   2
   0   2   1 143397. 2513.15   2
   0   2   2 26877.7 768.559   7
   0  -2  -2 27204.2 716.522   1
   0   2   2 27079.3 861.614   6
   0  -2  -2 26685.4 774.058   2
   0   2   2 27959.0 808.005   2
   0   2   3 29370.9 845.198   8
   0   2   3 30635.5 833.466   1
   0  -2  -3 31276.1 949.523   2
   0   2   3 29742.0 1000.12   6
   0   2   3 30892.5 823.642   7
   0  -2  -3 30629.9 847.106   1
   0   2   3 32537.0 966.440   2
   0  -2  -4 38142.1 1187.68   2
   0   2   4 38863.8 1021.72   1
   0   2   4 38317.7 966.760   7
   0   2   4 37587.5 1064.82   8
   0   2   4 39529.3 1267.83   6
   0   2   4 42257.6 1209.68   2
   0  -2  -4 41742.1 1097.38   1
   0   2   5 38247.7 1326.87   6
   0   2   5 43070.3 1237.42   2
   0  -2  -5 40601.5 1267.21   2
   0   2   5 38100.9 983.341   7
   0  -2  -5 39083.6 1091.80   1
   0   2   5 40691.7 1054.52   1
   0   2   5 38937.0 1153.66   8
   0  -2  -6 128144. 2385.16   9
   0  -2  -6 123510. 2882.66   2
   0   2   6 129013. 2574.66   1
   0  -2  -6 130475. 2797.78   8
   0  -2  -6 124158. 2626.85   1
   0   2   6 128119. 2777.86   8
   0   2   6 125477. 3027.17   6
   0   2   6 124524. 2385.68   7
   0   2   7 79125.4 2035.88   8
   0   2   7 73045.3 2201.76   6
   0  -2  -7 77414.6 1911.33   1
   0   2   7 82299.5 1801.42   1
   0   2   7 78670.3 1526.36   7
   0  -2  -7 77669.2 2146.66   2
   0  -2  -7 78178.8 1553.70   9
   0   2   8 61650.6 2018.94   6
   0   2   8 62492.3 1820.71   8
   0  -2  -8 62956.6 1739.19   1
   0  -2  -8 64891.0 1519.02   4
   0  -2  -8 65510.0 2002.65   2
   0  -2  -9 700.317 134.036   4
   0   2   9 471.887 186.077   8
   0  -2  -9 1033.03 265.113   2
   0  -2  -9 572.616 153.160   4
   0   2   9 447.185 219.317   6
   0  -2  -9 508.864 156.285   1
   0  -2 -10 1668.91 362.240   2
   0   2  10 1241.92 299.629   6
   0  -2 -10 1289.82 193.321   4
   0   2  10 1641.35 304.625   8
   0  -2 -10 1052.58 241.331   1
   0  -2 -10 1001.25 325.237   3
   0  -2 -10 1318.89 167.788   4
   0   2  11 15222.7 915.963   8
   0  -2 -11 15219.2 610.289   4
   0   2  11 14260.2 1016.81   6
   0  -2 -11 13230.1 857.235   1
   0  -2 -11 13351.2 1062.35   3
   0  -2 -11 12903.8 968.734   2
   0  -2 -12 19806.4 1264.74   2
   0   2  12 18855.4 1083.86   8
   0  -2 -12 17039.6 1013.46   1
   0   2  12 17988.3 1206.95   6
   0  -2 -12 15475.9 1224.40   3
   0  -2 -13 24831.0 1519.06   2
   0   2  13 23129.5 1417.48   6
   0   2  13 24621.8 1302.94   8
   0  -2 -13 22066.0 1142.34   1
   0  -2 -13 23642.8 1605.48   3
   0   2  14 7670.35 825.176   6
   0   2  14 9180.04 816.284   8
   0  -2 -14 7664.39 1007.99   3
   0  -2 -14 8775.65 965.249   2
   0   2  15 4156.79 566.271   8
   0  -2 -15 3715.94 688.629   2
   0   2  15 2949.15 540.174   6
   0  -2 -15 3138.25 751.868   3
   0   2  16 420.106 260.479   8
   0  -3  14 3793.40 712.756   8
   0   3 -14 1519.18 458.538   3
   0   3 -13 9558.94 965.824   3
   0  -3  13 10467.5 1082.38   8
   0  -3  12 21976.6 1453.36   8
   0   3 -12 20568.2 1319.11   3
   0   3 -11 30192.2 1505.15   3
   0  -3  11 28454.4 1557.65   8
   0  -3  10 14328.9 578.934   6
   0   3 -10 12140.5 894.841   3
   0  -3  10 13820.8 992.331   8
   0   3  -9 3156.83 433.608   3
   0  -3   9 2738.23 438.475   8
   0  -3   9 3191.77 253.023   6
   0   3  -9 3057.97 166.690   7
   0  -3   8 39493.1 859.070   9
   0   3  -8 39929.8 983.072   7
   0   3  -8 40490.3 1497.44   3
   0  -3   8 40266.6 1522.85   8
   0  -3   8 39368.4 998.490   6
   0  -3   7 37785.3 896.640   9
   0  -3   7 37939.8 920.656   6
   0   3  -7 39593.0 1043.05   7
   0  -3   7 38785.4 848.110   4
   0  -3   7 37034.4 1377.30   8
   0   3  -7 40174.4 1398.21   3
   0   3  -6 116893. 2439.29   7
   0   3  -6 120376. 2771.79   3
   0   3  -6 122140. 2351.45   4
   0  -3   6 116353. 2193.73   4
   0  -3   6 118639. 2173.00   6
   0  -3   6 119709. 2775.94   8
   0   3  -5 128549. 2679.86   7
   0  -3   5 131763. 2278.95   6
   0   3  -5 127867. 2526.00   4
   0  -3   5 126144. 2399.03   4
   0  -3   5 128973. 2818.62   8
   0   3  -5 129453. 2447.33   6
   0   3  -5 129439. 2841.15   3
   0  -3   4 45316.7 1265.09   8
   0  -3   4 46340.6 1059.94   4
   0   3  -4 43519.0 1125.75   4
   0   3  -4 46020.6 954.865   6
   0   3  -4 49710.2 1315.87   7
   0  -3   4 45711.7 874.892   6
   0   3  -4 45838.8 1295.81   3
   0   3  -3 28958.2 861.394   8
   0  -3   3 26598.6 851.281   8
   0   3  -3 27541.3 811.158   4
   0  -3   3 27594.2 762.522   4
   0   3  -3 31082.4 987.188   7
   0   3  -3 27821.1 569.896   6
   0   3  -3 28234.0 890.827   3
   0   3  -2 2002.51 235.649   7
   0  -3   2 2334.37 199.109   8
   0  -3   2 2094.73 183.629   4
   0   3  -2 2476.25 215.995   4
   0   3  -2 2073.15 209.446   3
   0   3  -2 1897.94 181.955   5
   0   3  -2 2226.96 99.5755   6
   0   3  -2 2365.19 199.061   8
   0   3  -1 115334. 2475.00   7
   0  -3   1 115437. 2316.25   4
   0   3  -1 116544. 2192.99   5
   0  -3   1 116557. 2199.46   8
   0   3  -1 113793. 2351.92   4
   0   3  -1 116302. 2213.53   8
   0   3  -1 118931. 2319.98   3
   0   3   0 158328. 3250.22   7
   0   3   0 167235. 2925.46   8
   0  -3   0 173144. 3191.04   4
   0   3   0 172049. 3082.59   3
   0   3   0 160155. 2907.61   5
   0  -3   0 161647. 2903.02   8
   0  -3   0 166485. 2933.80   5
   0  -3  -1 369648. 6279.83   2
   0   3   1 368726. 6352.11   3
   0  -3  -1 359892. 6150.40   5
   0   3   1 375774. 6098.89   8
   0  -3  -2 156834. 3020.85   2
   0   3   2 153513. 3135.75   7
   0  -3  -3 79538.4 1806.16   4
   0  -3  -3 71520.2 1721.85   2
   0   3   3 77434.0 1800.53   2
   0  -3  -3 68132.3 1582.80   1
   0   3   3 67470.4 1646.16   7
   0   3   3 67230.8 1812.30   6
   0  -3  -4 597.250 138.638   1
   0  -3  -4 502.743 139.758   4
   0   3   4 600.867 124.357   7
   0  -3  -4 695.058 177.905   2
   0   3   4 381.578 133.599   2
   0  -3  -5 72919.2 1934.46   2
   0   3   5 73707.0 1708.28   7
   0   3   5 73087.3 1732.17   8
   0  -3  -5 72142.1 1750.35   1
   0   3   5 73155.2 2058.22   6
   0   3   5 79114.4 1936.63   2
   0   3   5 76285.5 1731.03   1
   0  -3  -6 125564. 2596.28   4
   0  -3  -6 117254. 2580.46   1
   0   3   6 117962. 2565.26   8
   0   3   6 115556. 2928.67   6
   0  -3  -6 122105. 2851.48   2
   0   3   6 120474. 2494.75   1
   0   3   6 113324. 2420.91   7
   0   3   7 100642. 2176.96   7
   0   3   7 101736. 2777.74   6
   0   3   7 98614.1 2372.93   8
   0  -3  -7 111785. 2344.90   4
   0  -3  -7 107044. 2491.57   1
   0  -3  -7 104776. 2701.72   2
   0   3   7 110752. 2307.44   1
   0   3   8 58200.1 1644.96   8
   0   3   8 54820.3 1901.14   6
   0  -3  -8 57758.3 1698.47   1
   0   3   8 54354.3 1351.56   7
   0  -3  -8 58893.1 1914.57   2
   0  -3  -8 53054.3 1259.68   9
   0   3   9 15942.1 821.698   8
   0   3   9 16558.7 1002.29   6
   0  -3  -9 15888.3 869.755   1
   0   3   9 17092.7 561.424   7
   0  -3  -9 17562.7 574.701   9
   0  -3  -9 17517.2 1041.96   2
   0   3  10 11695.2 728.609   8
   0  -3 -10 12786.3 810.881   1
   0  -3 -10 12062.1 906.612   2
   0   3  10 10874.2 845.539   6
   0  -3 -11 17846.2 883.797   4
   0   3  11 15337.4 876.581   8
   0  -3 -11 14792.3 1068.78   2
   0   3  11 15699.4 1054.67   6
   0  -3 -12 38537.9 1828.32   2
   0  -3 -12 37981.0 2094.61   3
   0  -3 -12 33082.2 1397.09   1
   0   3  12 35068.9 1717.12   6
   0   3  12 40698.3 1567.97   8
   0   3  13 22700.4 1407.45   6
   0   3  13 25021.3 1257.95   8
   0  -3 -13 22968.8 1708.44   3
   0  -3 -13 23661.6 1495.76   2
   0  -3 -14 14140.0 1185.05   2
   0  -3 -14 13469.3 1366.42   3
   0   3  14 13008.4 913.640   8
   0   3  14 14202.8 1112.38   6
   0  -3 -15 4488.78 854.296   3
   0   3  15 3494.75 575.728   6
   0   3  15 4913.69 572.767   8
   0  -3 -15 4420.07 701.729   2
   0   3  16 65.6542 223.219   8
   0   3  16 120.070 264.436   6
   0  -4  13 23313.8 1583.80   8
   0   4 -13 23556.4 1477.69   3
   0  -4  12 34876.1 1857.39   8
   0   4 -12 32198.3 1675.08   3
   0   4 -11 31376.9 1579.51   3
   0  -4  11 31929.0 1674.80   8
   0   4 -10 27038.2 1363.73   3
   0  -4  10 27905.1 1437.89   8
   0   4  -9 6530.83 351.884   7
   0   4  -9 6919.80 659.530   3
   0  -4   9 6869.15 655.762   8
   0  -4   8 9017.95 699.838   8
   0   4  -8 9592.10 493.318   7
   0  -4   8 9526.43 339.864   6
   0   4  -8 9786.17 722.417   3
   0  -4   7 64875.9 1250.31   6
   0  -4   7 66148.1 1367.07   4
   0  -4   7 63543.4 1941.49   8
   0  -4   7 60615.4 1431.69   9
   0   4  -7 63495.2 1950.85   3
   0   4  -7 62795.8 1644.72   7
   0  -4   6 152088. 2849.63   4
   0   4  -6 155351. 3443.50   3
   0   4  -6 152268. 3215.36   7
   0  -4   6 156159. 3421.36   8
   0   4  -5 119906. 2514.31   4
   0  -4   5 115912. 2297.65   4
   0   4  -5 115546. 2706.37   3
   0  -4   5 114728. 2639.42   8
   0   4  -5 115799. 2635.84   7
   0  -4   4 106845. 2121.92   4
   0   4  -4 104521. 2258.75   4
   0   4  -4 106972. 2454.52   7
   0  -4   4 103947. 2324.55   8
   0   4  -4 108784. 2412.84   3
   0   4  -3 2849.57 271.720   4
   0  -4   3 3076.55 270.984   8
   0   4  -3 2034.36 281.347   7
   0   4  -3 2862.84 122.226   6
   0   4  -3 2633.17 279.182   3
   0  -4   3 2359.70 222.204   4
   0  -4   2 13295.3 560.939   4
   0   4  -2 14752.7 723.653   7
   0   4  -2 14967.0 630.850   3
   0   4  -2 13532.2 623.420   4
   0   4  -2 13367.7 343.894   6
   0   4  -2 13348.6 545.722   8
   0  -4   2 13772.0 547.694   8
   0  -4   1 240696. 4343.88   8
   0   4  -1 237727. 4348.00   5
   0   4  -1 252113. 4549.04   3
   0   4  -1 248991. 4393.49   8
   0  -4   1 248631. 4566.92   4
   0   4  -1 244218. 4780.79   7
   0   4   0 309518. 5314.36   8
   0  -4   0 305279. 5321.08   5
   0   4   0 301094. 5286.59   5
   0  -4   0 300464. 5265.48   8
   0   4   0 309746. 5818.03   7
   0   4   0 311232. 5526.30   3
   0  -4  -1 419582. 7220.19   5
   0   4   1 432084. 7457.39   3
   0   4   1 417235. 7686.34   7
   0  -4  -1 428722. 7372.06   2
   0   4   1 432366. 7159.53   8
   0   4   2 215168. 3664.78   8
   0  -4  -2 207878. 3780.10   5
   0  -4  -2 207494. 3945.28   2
   0   4   2 215824. 3977.12   2
   0   4   2 204156. 4152.53   7
   0   4   3 5784.75 401.065   2
   0   4   3 5295.56 443.518   6
   0  -4  -3 6155.70 379.060   1
   0  -4  -3 5758.04 394.424   2
   0   4   3 5678.79 417.106   7
   0   4   4 16720.9 728.916   7
   0   4   4 17053.7 842.608   6
   0   4   4 19221.4 850.396   2
   0  -4  -4 16623.4 776.069   2
   0  -4  -4 17195.3 699.982   1
   0   4   5 127153. 2765.79   7
   0  -4  -5 130853. 2745.27   1
   0   4   5 135313. 2670.86   8
   0  -4  -5 128845. 2948.89   2
   0   4   5 124105. 3074.12   6
   0  -4  -6 205694. 3977.18   1
   0   4   6 206251. 4441.36   6
   0  -4  -6 200743. 4247.96   2
   0   4   6 199341. 3970.17   7
   0   4   6 204319. 3908.71   8
   0  -4  -7 110333. 2799.71   2
   0   4   7 112686. 2434.50   7
   0   4   7 111222. 2462.05   8
   0   4   7 114778. 2982.01   6
   0  -4  -7 108282. 2481.23   1
   0  -4  -8 75051.2 1734.54   9
   0   4   8 78893.7 1979.46   8
   0  -4  -8 81451.7 2006.42   1
   0  -4  -8 81636.7 2331.89   2
   0   4   8 80057.0 2422.72   6
   0   4   8 77128.2 1844.75   7
   0   4   9 11300.7 642.815   8
   0   4   9 11254.5 832.650   6
   0   4   9 10274.0 512.912   7
   0  -4  -9 10661.3 478.545   9
   0  -4  -9 9996.49 761.206   2
   0  -4  -9 9886.69 618.036   1
   0  -4 -10-94.7103 146.909   1
   0   4  10 212.357 234.365   6
   0  -4 -10-48.3195 208.160   2
   0   4  10 143.803 80.5903   7
   0   4  10 18.0954 145.896   8
   0  -4 -11 23525.4 1321.66   2
   0   4  11 23894.7 1331.30   6
   0  -4 -11 21499.1 1023.51   1
   0   4  11 22747.3 1058.94   8
   0   4  12 39434.1 1826.80   6
   0  -4 -12 36206.2 1388.59   1
   0  -4 -12 36107.6 1761.48   2
   0   4  12 39507.8 1488.16   8
   0   4  13 29890.7 1618.84   6
   0   4  13 28292.3 1277.91   8
   0  -4 -13 27074.8 1587.07   2
   0  -4 -14 20778.9 1402.74   2
   0   4  14 19396.3 1315.62   6
   0   4  14 18463.4 1037.27   8
   0  -4 -14 16651.6 1440.94   3
   0   4  15 324.108 308.377   6
   0   4  15 433.542 236.697   8
   0  -4 -15-122.331 339.238   2
   0  -4 -15 588.684 436.037   3
   0   4  16 374.769 322.328   6
   0   5 -13 12569.5 1065.48   5
   0   5 -12 39062.5 1896.96   3
   0  -5  12 37802.0 1961.98   8
   0   5 -12 40248.5 1884.63   5
   0   5 -11 34211.9 1689.37   5
   0   5 -11 35304.2 1730.11   3
   0  -5  11 37876.8 1846.72   8
   0   5 -10 9415.89 808.501   5
   0   5 -10 10043.6 864.370   3
   0  -5  10 10722.7 899.749   8
   0  -5   9 137.388 236.052   8
   0   5  -9 327.228 245.170   3
   0   5  -9 571.517 242.303   5
   0   5  -9 381.049 133.195   7
   0   5  -8 7930.12 679.793   3
   0   5  -8 8144.43 658.486   5
   0  -5   8 8057.10 686.573   8
   0   5  -8 7563.81 509.243   7
   0   5  -7 56536.6 1856.61   3
   0  -5   7 52071.7 1774.70   8
   0   5  -7 56615.3 1791.07   5
   0   5  -7 56576.9 1637.65   7
   0   5  -6 107727. 2595.70   7
   0  -5   6 107882. 2667.01   8
   0   5  -6 108532. 2745.72   3
   0  -5   6 106069. 2193.33   4
   0   5  -6 106891. 2628.73   5
   0  -5   5 149513. 3277.26   8
   0  -5   5 147558. 2922.48   4
   0   5  -5 152871. 3271.49   5
   0   5  -5 151967. 3396.14   3
   0   5  -5 149590. 3370.42   7
   0   5  -4 57728.1 1768.07   7
   0  -5   4 57582.4 1425.94   4
   0  -5   4 55924.8 1564.45   8
   0   5  -4 57151.7 1558.66   5
   0   5  -4 59481.6 1683.55   3
   0   5  -3 8124.20 598.130   7
   0  -5   3 7453.23 446.661   8
   0   5  -3 7804.74 517.356   3
   0   5  -3 7452.42 228.285   6
   0  -5   3 8030.36 452.194   4
   0  -5   2 26478.1 864.425   8
   0   5  -2 27649.8 1129.14   7
   0   5  -2 27399.1 622.610   6
   0   5  -2 27742.1 983.887   3
   0  -5   2 26632.9 914.381   4
   0   5  -1 135840. 2641.75   8
   0   5  -1 131384. 2815.10   3
   0  -5   1 127586. 2586.51   8
   0   5  -1 133325. 3075.61   7
   0   5   0 308868. 5449.76   5
   0  -5   0 302986. 5472.78   5
   0   5   0 320011. 5751.74   3
   0   5   0 324039. 5488.79   8
   0  -5   0 309903. 5415.16   8
   0   5   0 307469. 6048.00   7
   0   5   1 114272. 2827.47   7
   0  -5  -1 120310. 2390.89   5
   0   5   1 123826. 2342.00   8
   0   5   1 124611. 2658.69   3
   0  -5  -1 120593. 2540.91   2
   0  -5  -2 153629. 2930.06   5
   0   5   2 155804. 2824.39   8
   0  -5  -2 153805. 3100.28   2
   0   5   2 151851. 3317.80   6
   0   5   2 146716. 3344.26   7
   0  -5  -3 2782.90 288.903   2
   0  -5  -3 2937.53 245.354   5
   0   5   3 3277.64 212.969   8
   0   5   3 3463.30 362.753   7
   0   5   3 2881.81 345.874   6
   0  -5  -4 22036.4 917.726   2
   0   5   4 20927.7 899.648   7
   0   5   4 20560.6 986.870   6
   0  -5  -4 21133.9 835.149   1
   0   5   5 87002.9 2217.68   7
   0   5   5 87393.3 2463.55   6
   0  -5  -5 92881.2 2398.02   2
   0   5   5 94076.3 2034.53   8
   0  -5  -5 91653.7 2185.73   1
   0   5   6 148861. 2953.69   8
   0   5   6 144581. 3158.88   7
   0  -5  -6 143215. 3096.49   1
   0  -5  -6 141090. 3314.02   2
   0   5   6 147444. 3547.31   6
   0   5   7 138755. 2871.18   8
   0   5   7 133661. 3442.53   6
   0  -5  -7 140901. 2989.74   1
   0   5   7 136401. 3001.18   7
   0  -5  -7 136684. 3282.64   2
   0   5   8 16988.1 733.205   8
   0  -5  -8 17164.9 772.899   1
   0  -5  -8 16494.5 940.777   2
   0   5   8 15833.6 733.166   7
   0   5   8 16239.6 998.385   6
   0   5   9 11231.9 591.918   7
   0   5   9 12417.4 655.511   8
   0  -5  -9 10791.4 800.359   2
   0  -5  -9 10446.3 620.318   1
   0   5   9 11803.8 866.986   6
   0  -5 -10 7195.40 687.420   2
   0   5  10 7765.88 458.841   7
   0   5  10 6583.85 499.140   8
   0   5  10 7316.13 720.074   6
   0  -5 -10 7420.62 535.530   1
   0  -5 -11 19513.0 1176.19   2
   0  -5 -11 18910.3 903.937   1
   0   5  11 18953.2 1194.92   6
   0   5  11 18859.1 909.093   8
   0   5  12 21688.3 1331.49   6
   0  -5 -12 20963.9 964.244   1
   0   5  12 21079.3 998.623   8
   0  -5 -12 20892.9 1281.64   2
   0  -5 -13 28509.8 1601.92   2
   0   5  13 31242.6 1277.39   8
   0   5  13 29474.8 1605.83   6
   0  -5 -14 9382.21 930.546   2
   0   5  14 7856.72 628.817   8
   0   5  14 8441.18 882.234   6
   0   5  15 2893.65 547.791   6
   0  -5 -15 4748.54 708.413   2
   0   6 -12 12974.5 1084.35   3
   0  -6  12 12651.9 1127.07   8
   0   6 -12 15650.0 1141.19   5
   0   6 -11 17903.5 1191.42   5
   0  -6  11 16305.5 1208.56   8
   0   6 -11 16996.8 1209.71   3
   0   6 -10 15029.7 1088.89   3
   0  -6  10 15120.3 1091.97   8
   0   6 -10 13770.9 996.983   5
   0   6  -9 141.667 260.873   3
   0  -6   9 722.140 295.601   8
   0   6  -9 272.586 240.415   5
   0   6  -8 5567.44 594.799   3
   0   6  -8 6766.31 620.562   5
   0   6  -8 5761.62 482.319   7
   0  -6   7 38767.3 1501.24   8
   0   6  -7 38338.9 1399.48   7
   0   6  -7 36839.6 1441.86   5
   0   6  -7 39585.8 1550.82   3
   0   6  -6 48566.7 1598.11   5
   0   6  -6 47826.3 1632.93   7
   0   6  -6 50136.4 1709.71   3
   0  -6   6 46166.3 1585.75   8
   0  -6   5 123978. 2927.49   8
   0   6  -5 130372. 3078.41   3
   0   6  -5 121721. 3086.32   7
   0   6  -5 123817. 2885.91   5
   0   6  -4 46839.5 1644.23   7
   0   6  -4 46228.6 1522.32   3
   0  -6   4 44186.0 1392.87   8
   0   6  -4 45042.9 1385.75   5
   0   6  -3 11466.9 421.658   6
   0   6  -3 12067.1 784.222   7
   0   6  -3 12190.5 607.972   5
   0   6  -3 11824.6 681.902   3
   0  -6   3 11970.0 608.454   8
   0   6  -3 11202.3 314.191   6
   0   6  -2 6965.59 586.704   7
   0  -6   2 6606.83 412.965   8
   0   6  -2 6476.25 261.087   6
   0   6  -2 7287.32 520.017   3
   0   6  -1 52818.1 1537.42   3
   0  -6   1 51037.1 1311.05   8
   0   6  -1 51540.1 1724.99   7
   0   6   0 95027.3 2005.90   8
   0   6   0 94537.5 2525.31   7
   0  -6   0 92625.3 1955.52   8
   0   6   0 91029.9 2187.89   6
   0  -6   0 93697.2 2022.96   5
   0   6   0 94421.0 2276.73   3
   0  -6  -1 101749. 2343.78   2
   0   6   1 101551. 2441.73   6
   0   6   1 106899. 2125.69   8
   0   6   1 101364. 2665.71   7
   0   6   1 108662. 2503.82   3
   0  -6  -1 102132. 2162.98   5
   0  -6  -2 27948.9 843.473   5
   0   6   2 25919.6 756.170   8
   0   6   2 24832.4 1102.13   7
   0   6   2 27112.8 1083.95   6
   0  -6  -2 26999.3 967.727   2
   0  -6  -3 6744.40 477.181   2
   0   6   3 6475.67 535.450   6
   0   6   3 7176.49 562.447   7
   0   6   3 6277.43 314.373   8
   0  -6  -3 6257.39 377.103   5
   0  -6  -4 525.421 181.300   2
   0   6   4 602.611 235.377   6
   0   6   4 675.960 111.484   8
   0   6   4 399.738 208.157   7
   0  -6  -4 547.607 163.222   1
   0   6   5 27777.8 1122.42   7
   0  -6  -5 27564.1 1125.18   2
   0   6   5 25126.2 1190.33   6
   0  -6  -5 25535.7 1007.69   1
   0   6   6 33489.2 1233.06   7
   0  -6  -6 33621.6 1337.52   2
   0  -6  -6 33147.6 1183.14   1
   0   6   6 34236.0 1020.21   8
   0   6   6 31032.5 1378.73   6
   0   6   7 83858.9 2213.52   7
   0   6   7 81357.1 2502.98   6
   0  -6  -7 83312.2 2131.62   1
   0   6   7 84577.0 1937.81   8
   0  -6  -7 82878.1 2360.76   2
   0  -6  -8 47194.8 1464.51   1
   0   6   8 46791.4 1499.55   7
   0   6   8 46482.7 1840.34   6
   0  -6  -8 47832.7 1710.59   2
   0   6   8 49824.3 1361.62   8
   0   6   9 7057.70 512.851   7
   0   6   9 7296.69 472.225   8
   0   6   9 7390.86 730.356   6
   0  -6  -9 7104.53 648.062   2
   0  -6  -9 7359.00 525.148   1
   0   6  10 661.077 300.562   6
   0  -6 -10 1002.96 315.265   2
   0  -6 -10 616.475 202.921   1
   0   6  10 154.021 120.954   7
   0   6  10 435.058 172.449   8
   0  -6 -11 8689.69 588.651   1
   0   6  11 9134.27 861.204   6
   0   6  11 8598.14 567.200   8
   0  -6 -11 8246.02 771.957   2
   0  -6 -12 23040.4 1350.47   2
   0   6  12 22475.7 980.605   8
   0   6  13 11377.4 1008.36   6
   0  -6 -13 10668.0 947.730   2
   0  -6 -14 10557.0 961.501   2
   0   6  14 12432.8 1074.88   6
   0  -7  11 14757.1 1152.42   8
   0   7 -11 15789.8 1117.92   5
   0   7 -11 13911.5 1098.54   3
   0   7 -10 16132.7 1097.74   5
   0  -7  10 14359.5 1087.60   8
   0   7 -10 14850.7 1117.83   3
   0   7  -9 5389.22 624.556   5
   0  -7   9 4286.21 567.844   8
   0   7  -9 6459.76 698.432   3
   0  -7   8-234.049 272.975   8
   0   7  -8 202.314 234.836   3
   0   7  -8 474.853 244.123   5
   0   7  -8 230.040 159.216   7
   0   7  -7 17834.4 982.959   5
   0  -7   7 17329.5 998.191   8
   0   7  -7 16301.3 938.029   7
   0   7  -7 19095.5 1079.35   3
   0   7  -6 39708.3 1460.48   5
   0   7  -6 39254.5 1571.62   7
   0  -7   6 39454.1 1487.83   8
   0   7  -6 41979.9 1613.61   3
   0   7  -5 28661.2 1148.30   5
   0   7  -5 29049.8 1324.58   7
   0  -7   5 26185.7 1115.31   8
   0   7  -5 29873.5 1272.75   3
   0   7  -4 67039.9 2156.36   7
   0   7  -4 63719.9 1966.10   3
   0  -7   4 60084.2 1761.63   8
   0   7  -4 62764.1 1764.77   5
   0   7  -3 8045.83 686.517   7
   0   7  -3 7482.58 319.251   6
   0   7  -3 7937.95 610.349   3
   0   7  -3 7862.27 256.417   6
   0   7  -3 8541.40 527.469   5
   0  -7   3 8448.90 533.948   8
   0   7  -2 900.167 107.059   6
   0   7  -2 1300.30 309.486   7
   0   7  -2 970.827 158.757   6
   0   7  -2 944.719 177.898   5
   0  -7   2 967.228 189.832   8
   0   7  -2 1151.78 262.129   3
   0  -7   1 10387.0 516.848   8
   0   7  -1 9224.81 501.317   5
   0   7  -1 9783.79 643.819   3
   0   7  -1 8040.90 493.588   6
   0   7  -1 9796.67 740.918   7
   0   7   0 106124. 2886.13   7
   0  -7   0 108933. 2541.69   2
   0   7   0 105163. 2497.08   6
   0   7   0 110966. 2667.22   3
   0  -7  -1 106827. 2474.05   2
   0   7   1 103241. 2587.60   3
   0  -7  -1 100240. 2227.21   5
   0   7   1 99852.9 2757.39   7
   0   7   1 103231. 2534.44   6
   0  -7  -2 108543. 2548.24   2
   0   7   2 109261. 2715.31   6
   0   7   2 109213. 2187.41   8
   0   7   2 105287. 2826.14   7
   0  -7  -2 106466. 2307.23   5
   0   7   3 61942.9 1969.02   7
   0  -7  -3 63361.3 1786.80   2
   0   7   3 64169.2 1953.84   6
   0  -7  -3 61408.6 1575.95   5
   0   7   3 64533.7 1425.01   8
   0   7   4 517.317 204.217   7
   0   7   4 260.435 190.909   6
   0  -7  -4 315.542 174.187   1
   0   7   4 377.563 101.395   8
   0  -7  -4 260.392 163.925   2
   0   7   5 3192.64 404.948   7
   0  -7  -5 3493.75 385.642   1
   0   7   5 3583.85 245.490   8
   0  -7  -5 3548.91 420.246   2
   0   7   5 3929.41 482.397   6
   0   7   6 51883.4 1705.46   7
   0   7   6 53026.3 1388.01   8
   0  -7  -6 52832.8 1669.42   1
   0  -7  -6 53834.8 1838.91   2
   0   7   6 51954.6 1897.21   6
   0   7   7 35653.1 1567.44   6
   0  -7  -7 35409.7 1296.72   1
   0   7   7 36436.8 1063.13   8
   0  -7  -7 35461.4 1460.92   2
   0   7   7 35404.1 1363.82   7
   0   7   8 53327.4 1715.21   7
   0  -7  -8 52031.5 1850.94   2
   0  -7  -8 51905.7 1631.51   1
   0   7   8 53298.8 2012.77   6
   0   7   8 53968.4 1405.26   8
   0  -7  -9 12312.9 715.639   1
   0  -7  -9 12350.1 868.645   2
   0   7   9 13103.6 758.803   7
   0   7   9 13102.8 615.584   8
   0   7   9 14130.4 1008.11   6
   0   7  10 928.637 350.479   6
   0  -7 -10 483.216 262.737   2
   0   7  10 740.359 208.873   7
   0   7  10 632.495 167.551   8
   0  -7 -10 1081.81 257.849   1
   0  -7 -11 2384.89 468.623   2
   0  -7 -11 3180.78 366.690   1
   0   7  11 3507.40 551.348   6
   0   7  12 9075.03 907.723   6
   0  -7 -12 10386.4 913.803   2
   0   7  13 25218.4 1530.45   6
   0  -7 -13 23392.0 1391.75   2
   0  -7 -14 8453.49 861.109   2
   0   7  14 9420.84 928.099   6
   0  -8  10 12409.7 993.167   8
   0   8 -10 13451.5 1076.82   3
   0   8 -10 10788.6 892.710   5
   0   8  -9 6872.95 697.591   5
   0  -8   9 6567.66 716.105   8
   0   8  -9 8043.90 810.443   3
   0   8  -8 268.443 294.098   3
   0   8  -8 70.6016 203.558   7
   0   8  -8 309.068 221.062   5
   0  -8   8 69.7970 280.331   8
   0   8  -7 15288.7 1032.71   3
   0   8  -7 15201.2 931.976   5
   0   8  -7 14244.3 929.202   7
   0  -8   7 14963.8 954.087   8
   0   8  -6 57259.7 2035.26   3
   0   8  -6 57411.8 2062.99   7
   0   8  -6 56652.4 1876.15   5
   0  -8   6 58611.7 1916.23   8
   0  -8   5 66280.2 1998.38   8
   0   8  -5 64689.6 1968.15   5
   0   8  -5 67033.6 2310.58   7
   0   8  -5 69460.7 2221.47   3
   0   8  -4 46389.2 1866.20   7
   0   8  -4 46761.5 1522.27   5
   0  -8   4 44497.5 1503.03   8
   0   8  -4 47289.8 1722.73   3
   0   8  -3 20855.4 903.733   5
   0   8  -3 20196.7 1182.41   7
   0   8  -3 18987.7 530.081   6
   0  -8   3 21248.1 909.702   8
   0   8  -2 271.134 114.571   6
   0   8  -2 308.188 231.927   3
   0   8  -2-62.3679 121.462   5
   0  -8   2 139.337 149.090   8
   0   8  -2 145.073 245.839   7
   0   8  -1 35748.6 1570.44   7
   0   8  -1 37908.3 1443.19   3
   0  -8   1 38714.9 1176.58   8
   0   8  -1 35638.7 1197.18   6
   0   8  -1 39501.7 1204.03   5
   0  -8   0 40639.1 1394.63   2
   0   8   0 41579.6 1673.71   7
   0   8   0 40127.9 1346.50   6
   0   8   0 39790.3 1483.25   3
   0   8   1 125102. 3350.60   7
   0   8   1 131124. 3195.64   3
   0   8   1 126668. 3007.67   6
   0  -8  -1 126928. 2976.18   2
   0   8   2 71918.0 2091.07   6
   0  -8  -2 73064.1 2020.60   2
   0   8   2 69175.4 2260.46   7
   0   8   3 32400.2 1333.42   6
   0   8   3 32315.6 1410.74   7
   0   8   3 32440.6 910.848   8
   0  -8  -3 31993.2 1243.23   2
   0   8   4 3728.58 463.729   6
   0  -8  -4 3698.80 431.880   2
   0  -8  -4 3943.02 445.252   1
   0   8   4 3922.47 484.668   7
   0   8   4 4022.55 266.815   8
   0  -8  -5 40255.1 1466.69   1
   0  -8  -5 40685.3 1551.52   2
   0   8   5 40128.4 1566.13   7
   0   8   5 39021.7 1605.21   6
   0   8   5 41003.8 1037.13   8
   0   8   6 60940.0 2000.28   7
   0   8   6 61649.5 1547.17   8
   0   8   6 59789.6 2103.48   6
   0  -8  -6 62756.7 2077.01   2
   0  -8  -6 61093.2 1923.20   1
   0   8   7 79210.9 2565.52   6
   0   8   7 83014.1 1836.97   8
   0  -8  -7 79572.3 2463.77   2
   0  -8  -7 77923.3 2255.67   1
   0   8   7 81271.2 2381.94   7
   0  -8  -8 55557.5 1786.66   1
   0   8   8 57655.3 2143.28   6
   0   8   8 54682.5 1375.93   8
   0   8   8 55018.6 1854.86   7
   0  -8  -8 56500.1 2004.65   2
   0  -8  -9 13692.2 957.068   2
   0  -8  -9 13770.9 791.489   1
   0   8   9 14556.7 856.889   7
   0   8   9 15216.9 1066.09   6
   0   8  10 1026.66 259.652   7
   0   8  10 1299.53 396.173   6
   0  -8 -10 916.573 309.570   2
   0  -8 -10 1183.72 252.534   1
   0  -8 -11 7516.28 772.697   2
   0   8  11 7519.62 800.494   6
   0  -8 -12 14027.0 1047.53   2
   0   8  12 14036.6 1145.97   6
   0  -8 -13 14470.3 1085.97   2
   0   8  13 15552.5 1194.79   6
   0  -8 -14 14895.3 1099.19   2
   0   9 -10 12055.7 929.738   5
   0  -9   9 789.142 345.652   8
   0   9  -9 788.647 317.979   5
   0   9  -9 818.160 367.829   3
   0  -9   8-59.4623 269.173   8
   0   9  -8 967.954 345.966   3
   0   9  -8 577.762 268.617   5
   0  -9   7 12012.7 872.767   8
   0   9  -7 12834.9 869.802   5
   0   9  -7 15519.6 1081.83   3
   0   9  -7 13982.4 943.958   7
   0   9  -6 42941.0 1798.94   3
   0   9  -6 38072.2 1706.65   7
   0  -9   6 37874.3 1540.27   8
   0   9  -6 39140.8 1526.12   5
   0   9  -5 47066.1 1852.61   3
   0   9  -5 43264.0 1905.94   7
   0  -9   5 48046.7 1680.60   8
   0   9  -5 45401.8 1617.32   5
   0  -9   4 46186.2 1583.47   8
   0   9  -4 47271.1 1813.36   3
   0   9  -4 46514.7 1979.05   7
   0   9  -4 43726.9 1527.65   5
   0   9  -3 14275.2 1047.12   7
   0   9  -3 16539.3 998.738   3
   0  -9   3 15283.0 803.152   8
   0   9  -3 15751.3 812.775   5
   0   9  -2 221.937 264.473   7
   0   9  -2 271.073 263.326   3
   0  -9   2-18.9159 153.774   8
   0   9  -2 511.605 204.069   5
   0   9  -1 31087.3 1102.16   5
   0  -9   1 31621.2 1286.96   2
   0   9  -1 30669.5 1366.59   3
   0   9  -1 31040.8 1517.46   7
   0   9  -1 28800.5 1052.83   6
   0   9   0 86050.0 2282.77   6
   0   9   0 91375.7 2613.93   3
   0  -9   0 90141.0 2431.97   2
   0   9   0 87968.2 2767.58   7
   0   9   1 79137.9 2598.65   7
   0   9   1 80188.4 2443.57   3
   0  -9  -1 81349.5 2279.34   2
   0   9   1 82019.0 2262.10   6
   0  -9  -2 52704.3 1726.78   2
   0   9   2 50960.6 1949.13   7
   0   9   2 49037.4 1718.16   6
   0  -9  -3 10167.7 707.446   2
   0   9   3 9660.03 722.611   6
   0   9   3 10246.6 822.429   7
   0   9   4 2826.00 439.540   6
   0  -9  -4 3413.74 442.144   1
   0   9   4 3563.60 511.530   7
   0  -9  -4 3545.84 441.937   2
   0  -9  -5 19082.1 1031.43   1
   0   9   5 18583.0 1096.69   7
   0   9   5 19099.1 1117.74   6
   0  -9  -5 20990.1 1113.43   2
   0   9   6 58390.6 2044.52   7
   0  -9  -6 54104.9 2002.58   2
   0   9   6 58212.0 2105.84   6
   0   9   6 58378.5 1459.08   8
   0  -9  -6 56887.5 1937.02   1
   0   9   7 53768.9 2078.09   6
   0   9   7 57611.7 2016.92   7
   0  -9  -7 55948.8 2060.84   2
   0  -9  -7 53415.8 1865.90   1
   0  -9  -8 27827.9 1252.55   1
   0   9   8 30879.4 1541.85   6
   0   9   8 27885.9 1327.66   7
   0  -9  -8 28000.4 1410.34   2
   0   9   9 9513.16 736.598   7
   0  -9  -9 8986.37 808.571   2
   0   9   9 8497.94 833.154   6
   0  -9  -9 8855.44 663.359   1
   0  -9 -10 185.388 175.035   1
   0  -9 -10 241.428 263.420   2
   0   9  10 432.292 350.974   6
   0   9  10 232.420 202.127   7
   0   9  11 3498.69 572.146   6
   0  -9 -11 4449.70 604.825   2
   0  -9 -12 15671.9 1104.55   2
   0   9  12 14241.9 1141.96   6
   0  -9 -13 12016.7 977.381   2
   0  10  -9 3746.29 523.630   5
   0 -10   8 2461.17 482.113   8
   0  10  -8 3030.58 457.339   5
   0  10  -7 7367.70 714.052   7
   0  10  -7 7509.91 673.854   5
   0  10  -7 7468.13 800.711   3
   0 -10   7 7485.86 697.604   8
   0  10  -6 23566.0 1149.91   5
   0 -10   6 24316.0 1207.27   8
   0  10  -6 25758.8 1435.44   3
   0  10  -6 25448.8 1415.69   7
   0  10  -5 39207.2 1767.42   3
   0  10  -5 37022.3 1790.61   7
   0  10  -5 35432.3 1407.63   5
   0 -10   5 35270.1 1427.54   8
   0  10  -4 17563.4 1254.28   7
   0  10  -4 19200.6 1179.92   3
   0 -10   4 18074.9 940.436   8
   0  10  -4 17530.7 923.803   5
   0  10  -3 8204.61 755.481   3
   0 -10   3 8701.58 621.107   8
   0  10  -3 8600.02 856.203   7
   0  10  -3 7354.38 573.751   5
   0  10  -2-245.034 248.368   7
   0  10  -2-85.4502 168.689   5
   0  10  -2 173.060 221.369   3
   0 -10   2 128.614 215.716   2
   0  10  -1 9874.31 803.972   3
   0  10  -1 10059.2 886.941   7
   0 -10   1 11140.8 793.880   2
   0  10   0 31724.2 1189.81   6
   0 -10   0 31736.0 1372.10   2
   0  10   0 32972.9 1517.29   3
   0  10   0 30260.2 1565.25   7
   0  10   1 49258.4 2014.63   7
   0  10   1 49110.4 1651.58   6
   0 -10  -1 48359.2 1741.39   2
   0 -10  -2 31930.8 1370.52   2
   0  10   2 31436.9 1347.12   6
   0  10   2 33162.4 1604.46   7
   0  10   3 12861.8 866.121   6
   0  10   3 11545.8 919.093   7
   0 -10  -3 11559.6 812.641   2
   0  10   4 8.19110 218.864   7
   0 -10  -4 223.881 221.387   1
   0  10   4 95.1773 203.951   6
   0 -10  -4 414.192 249.751   2
   0  10   5 5865.06 658.578   7
   0 -10  -5 4902.79 567.313   2
   0 -10  -5 5339.27 595.966   1
   0  10   5 5040.07 586.072   6
   0 -10  -6 15964.6 1059.13   2
   0  10   6 14991.2 1045.43   6
   0  10   6 15364.2 1046.37   7
   0 -10  -6 15066.3 966.654   1
   0  10   7 23828.3 1304.88   7
   0 -10  -7 23247.3 1214.15   1
   0  10   7 22670.5 1342.82   6
   0 -10  -7 23774.1 1356.31   2
   0 -10  -8 15836.0 957.715   1
   0  10   8 16852.5 1153.62   6
   0 -10  -8 18099.9 1154.84   2
   0  10   8 17799.9 1102.18   7
   0 -10  -9 8852.91 814.737   2
   0  10   9 9360.54 894.989   6
   0  10   9 9597.36 774.950   7
   0 -10  -9 8398.49 656.007   1
   0  10  10 240.302 262.397   7
   0  10  10-153.395 292.347   6
   0 -10 -10 389.927 292.781   2
   0 -10 -11 1442.25 407.481   2
   0  10  11 1507.18 428.230   6
   0 -10 -12 9725.76 873.168   2
   0 -11   7 2763.09 420.257   8
   0  11  -6 7517.65 636.356   5
   0 -11   6 8103.45 688.035   8
   0  11  -6 6604.71 727.902   7
   0  11  -5 20730.9 1292.72   3
   0 -11   5 21493.2 1069.90   8
   0  11  -5 20150.3 1329.93   7
   0  11  -5 18828.7 985.840   5
   0  11  -4 22588.9 1047.57   5
   0 -11   4 24470.7 1109.15   8
   0  11  -4 24884.2 1414.16   3
   0  11  -4 23127.0 1469.85   7
   0  11  -3 7315.24 769.230   3
   0  11  -3 7883.52 863.158   7
   0  11  -3 8113.32 594.920   5
   0 -11   3 8138.99 753.849   2
   0 -11   2 332.777 286.803   2
   0  11  -2 228.792 249.758   3
   0  11  -2 82.8046 286.846   7
   0 -11   1 2462.10 441.602   2
   0  11  -1 2498.26 461.547   3
   0  11  -1 3145.65 568.473   7
   0 -11   0 16039.7 1018.84   2
   0  11   0 16432.8 1195.65   7
   0  11   0 16599.2 1142.63   3
   0  11   1 24036.8 1441.96   7
   0 -11  -1 24559.9 1259.15   2
   0  11   2 30981.0 1333.22   6
   0 -11  -2 32811.0 1476.27   2
   0  11   2 34484.1 1723.02   7
   0 -11  -3 12958.3 927.351   2
   0  11   3 12990.9 878.626   6
   0  11   3 13910.0 1060.91   7
   0 -11  -3 12462.9 937.579   1
   0 -11  -4 5444.27 622.698   1
   0 -11  -4 5034.52 604.429   2
   0  11   4 4392.83 537.260   6
   0  11   4 4575.33 629.201   7
   0  11   5 1086.29 316.944   6
   0 -11  -5 1149.01 333.246   1
   0 -11  -5 901.752 289.910   2
   0  11   5 661.449 314.225   7
   0 -11  -6 10276.7 834.321   1
   0  11   6 9709.57 847.546   6
   0 -11  -6 9363.43 851.774   2
   0  11   6 12075.0 976.985   7
   0  11   7 20028.1 1240.75   6
   0 -11  -7 20223.7 1281.28   2
   0 -11  -7 17276.3 1085.95   1
   0  11   7 19202.6 1213.58   7
   0  11   8 21242.6 1304.31   6
   0 -11  -8 21765.3 1314.99   2
   0 -11  -8 20834.9 1138.55   1
   0  11   8 20283.3 1219.52   7
   0  11   9 11284.7 858.163   7
   0 -11  -9 10492.2 896.910   2
   0  11   9 10998.9 972.727   6
   0 -11  -9 10730.1 772.412   1
   0 -11 -10 5476.93 661.493   2
   0  11  10 5409.53 713.864   6
   0  11  10 5455.73 608.882   7
   0 -11 -11 81.6381 304.410   2
   0  12  -5 12648.9 1057.70   7
   0 -12   4 18132.8 1135.37   2
   0  12  -4 16363.5 1227.58   7
   0  12  -3 12320.1 1030.73   3
   0 -12   3 12210.8 921.744   2
   0  12  -3 11209.2 1027.12   7
   0 -12   2 1373.79 391.411   2
   0  12  -2 1359.68 426.312   3
   0  12  -2 1095.53 402.514   7
   0 -12   1 1754.95 421.416   2
   0  12  -1 2141.89 490.254   3
   0  12  -1 1220.99 398.877   7
   0 -12   0 12491.0 926.037   2
   0  12   0 12745.0 1082.46   7
   0  12   1 24134.2 1502.18   7
   0 -12  -1 22454.9 1252.93   2
   0  12   2 32951.4 1767.15   7
   0 -12  -2 31649.4 1512.99   2
   0 -12  -3 18764.1 1164.48   2
   0  12   3 22417.5 1411.37   7
   0 -12  -3 20929.4 1288.05   1
   0 -12  -4 3783.78 565.638   2
   0  12   4 3104.76 462.960   6
   0  12   4 3340.88 591.041   7
   0 -12  -4 3244.70 523.898   1
   0 -12  -5 308.221 267.972   1
   0  12   5 804.448 358.892   7
   0  12   5 483.743 260.756   6
   0 -12  -5 37.9393 261.108   2
   0 -12  -6 8920.13 845.504   2
   0  12   6 10278.0 867.832   6
   0 -12  -6 10217.4 858.796   1
   0  12   6 11238.4 970.456   7
   0  12   7 29620.5 1552.68   7
   0 -12  -7 29115.6 1445.13   1
   0 -12  -7 31735.1 1629.47   2
   0  12   7 28263.5 1483.58   6
   0  12   8 18178.6 1206.78   6
   0 -12  -8 16858.2 1161.96   2
   0 -12  -8 18565.4 1081.68   1
   0  12   8 19311.7 1216.75   7
   0 -12  -9 10162.0 893.895   2
   0  12   9 9807.27 833.091   7
   0  12   9 10566.1 924.655   6
   0  12  10 1541.39 385.781   7
   0 -12 -10 1484.02 413.133   2
   0 -13   1 2144.57 445.706   2
   0 -13   0 9659.00 834.391   2
   0 -13  -1 26381.4 1373.69   2
   0 -13  -2 15624.7 1060.39   2
   0  13   2 15573.0 1205.40   7
   0 -13  -2 14685.8 1111.27   1
   0 -13  -3 9254.90 887.368   1
   0  13   3 11064.2 1026.98   7
   0 -13  -3 8953.70 821.754   2
   0 -13  -4 1025.42 381.758   1
   0  13   4 673.651 385.661   7
   0 -13  -4 259.185 273.636   2
   0 -13  -5 3820.52 566.966   2
   0 -13  -5 5462.55 683.431   1
   0 -13  -6 6841.09 743.841   2
   0 -13  -6 6968.02 740.871   1
   0  13   6 8853.02 800.613   6
   0 -13  -7 12555.0 1046.70   2
   0  13   7 14164.1 1025.59   6
   0 -13  -7 13897.5 1020.09   1
   1 -13  -5 9539.75 843.233   2
   1 -13  -4 15009.7 1065.45   2
   1 -13  -3 12128.4 932.441   2
   1 -13  -2 4516.03 566.166   2
   1 -13  -1 1147.96 349.109   2
   1 -13   0 3819.38 529.003   2
   1 -13   1 12262.8 921.862   2
  -1  12   9 8533.52 790.418   7
   1 -12  -8 696.015 288.315   1
  -1  12   8 542.242 311.937   6
  -1  12   8 478.955 296.086   7
   1 -12  -8 539.942 282.735   2
  -1  12   7 75.8352 328.337   7
   1 -12  -7 420.031 298.568   2
  -1  12   7 102.223 253.711   6
  -1  12   6 15072.1 1139.54   7
  -1  12   6 16282.0 1121.27   6
   1 -12  -6 16789.9 1157.04   1
   1 -12  -6 15539.6 1086.04   2
  -1  12   5 13556.9 1003.57   6
   1 -12  -5 13525.5 1005.93   2
  -1  12   5 15039.1 1155.39   7
   1 -12  -5 15369.5 1109.13   1
   1 -12  -4 22449.6 1369.79   1
  -1  12   4 22124.3 1240.85   6
   1 -12  -4 21292.7 1243.21   2
   1 -12  -3 14379.6 1113.60   1
   1 -12  -3 13463.7 953.306   2
  -1  12   3 13467.6 1120.68   7
  -1  12   2 1861.34 507.351   7
   1 -12  -2 1902.25 382.514   2
   1 -12  -2 2633.74 551.186   1
   1 -12  -1 1325.75 331.374   2
  -1  12   1 658.924 345.109   7
   1 -12  -1 982.612 367.932   1
   1 -12   0 4819.37 582.307   2
  -1  12   0 4278.73 660.520   7
  -1  12  -1 29599.3 1706.36   7
   1 -12   1 28527.4 1382.75   2
   1 -12   2 17732.6 1081.30   2
  -1  12  -2 16728.1 1281.65   7
   1 -12   3 17136.6 1079.55   2
   1 -12   4 3064.14 474.372   2
   1 -11 -10 12442.4 933.675   2
  -1  11   9 2872.82 459.990   7
   1 -11  -9 3924.54 503.113   1
  -1  11   9 3596.01 596.367   6
   1 -11  -9 3797.50 543.087   2
  -1  11   8 1638.01 443.433   6
  -1  11   8 2072.46 463.666   7
   1 -11  -8 1174.03 320.572   1
   1 -11  -8 1924.13 421.744   2
  -1  11   7 996.882 384.908   6
   1 -11  -7 679.574 301.250   2
   1 -11  -7 120.726 230.778   1
  -1  11   7-354.264 339.782   7
  -1  11   6 7068.87 764.554   6
  -1  11   6 7617.71 811.893   7
   1 -11  -6 7340.29 749.374   1
   1 -11  -6 5922.40 672.227   2
  -1  11   5 17302.7 1228.29   7
   1 -11  -5 17199.5 1152.82   1
   1 -11  -5 17376.5 1109.60   2
  -1  11   5 16496.2 1118.81   6
  -1  11   4 24231.3 1458.19   7
   1 -11  -4 24772.1 1399.59   1
  -1  11   4 24025.4 1322.59   6
   1 -11  -4 27073.3 1361.71   2
   1 -11  -3 13927.9 1061.22   1
  -1  11   3 14005.0 967.407   6
   1 -11  -3 13274.7 933.315   2
  -1  11   3 14809.3 1144.45   7
   1 -11  -2 4796.85 553.216   2
   1 -11  -2 5227.47 671.591   1
  -1  11   2 5761.10 717.201   7
  -1  11   2 5397.45 585.831   6
   1 -11  -1 902.715 309.429   2
  -1  11   1 473.756 340.749   7
   1 -11   0 8827.43 727.140   2
  -1  11   0 6584.43 810.240   7
   1 -11   1 15998.9 997.759   2
  -1  11  -1 15808.0 1225.86   7
  -1  11  -1 17561.9 1205.37   3
   1 -11   2 26546.8 1306.35   2
  -1  11  -2 26903.8 1642.27   7
  -1  11  -2 27181.6 1506.58   3
  -1  11  -3 14880.4 1098.65   3
   1 -11   3 13556.5 935.101   2
  -1  11  -3 13601.7 1152.86   7
  -1  11  -4 5511.96 693.374   3
   1 -11   4 5533.41 624.670   2
  -1  11  -4 4629.01 687.155   7
  -1  11  -5-43.5287 351.041   3
  -1  11  -5 646.137 359.817   7
  -1  11  -6 3622.86 631.706   7
   1 -10 -12 1901.64 425.462   2
   1 -10 -11 8472.65 781.791   2
   1 -10 -10 11134.3 789.230   1
   1 -10 -10 11004.9 880.717   2
  -1  10  10 12411.9 1076.36   6
  -1  10  10 11692.5 819.208   7
  -1  10   9 21730.7 1179.38   7
   1 -10  -9 20310.8 1191.01   2
  -1  10   9 22571.1 1447.42   6
   1 -10  -9 20284.6 1100.07   1
   1 -10  -8 2262.18 409.309   1
   1 -10  -8 2219.50 436.755   2
  -1  10   8 3087.88 552.115   6
  -1  10   8 2440.36 443.879   7
  -1  10   7 51.5812 253.754   6
  -1  10   7 288.981 266.546   7
   1 -10  -7 481.255 279.411   2
   1 -10  -7 119.962 264.836   1
   1 -10  -6 3266.86 522.152   1
  -1  10   6 4019.92 581.580   7
   1 -10  -6 3383.99 500.100   2
  -1  10   6 2794.36 513.768   6
  -1  10   5 24497.8 1378.49   6
  -1  10   5 21355.9 1295.08   7
   1 -10  -5 22966.6 1243.89   2
   1 -10  -5 20992.4 1242.99   1
  -1  10   4 25466.1 1360.89   6
   1 -10  -4 24608.5 1252.51   2
   1 -10  -4 24684.4 1342.91   1
  -1  10   4 23060.9 1367.47   7
   1 -10  -3 31713.4 1560.67   1
  -1  10   3 33544.7 1659.35   7
   1 -10  -3 34194.5 1475.21   2
  -1  10   3 34817.8 1575.06   6
  -1  10   2 12253.6 886.450   6
   1 -10  -2 12250.0 836.173   2
  -1  10   2 13251.5 1034.22   7
   1 -10  -2 11990.3 922.277   1
  -1  10   1-108.973 198.869   6
   1 -10  -1 155.159 194.038   2
  -1  10   1 321.260 289.495   7
  -1  10   0 4123.57 607.303   7
  -1  10   0 4928.74 607.707   3
  -1  10   0 4295.04 467.046   6
   1 -10   0 4661.76 527.065   2
  -1  10  -1 21087.8 1349.82   7
  -1  10  -1 20709.5 1216.55   3
   1 -10   1 21454.9 1114.66   2
   1 -10   2 31323.6 1388.18   2
  -1  10  -2 31539.3 1541.05   3
  -1  10  -2 28486.7 1625.17   7
  -1  10  -3 16882.3 792.649   5
   1 -10   3 18523.1 1063.91   2
  -1  10  -3 18599.2 1320.40   7
  -1  10  -3 18680.8 1171.57   3
  -1  10  -4 20061.1 1359.84   7
  -1  10  -4 20245.4 905.827   5
  -1  10  -4 20464.9 1243.09   3
   1 -10   5 1136.14 305.204   8
  -1  10  -5 1401.02 402.228   3
  -1  10  -5 1427.88 429.623   7
  -1  10  -6 780.694 362.521   3
  -1  10  -6 842.325 379.796   7
   1 -10   6 892.854 290.667   8
  -1  10  -7 8319.92 836.525   7
  -1  10  -7 10041.3 909.475   3
   1 -10   7 8273.99 718.644   8
   1 -10   8 14910.6 1003.96   8
   1  -9 -13 574.726 299.422   2
   1  -9 -12 1131.21 349.128   2
  -1   9  11 8647.80 901.013   6
   1  -9 -11 6376.76 689.929   2
  -1   9  10 19473.2 1344.61   6
   1  -9 -10 17937.8 1120.76   2
  -1   9  10 18311.6 987.683   7
   1  -9 -10 18255.9 978.587   1
  -1   9   9 24549.1 1236.61   7
   1  -9  -9 22200.8 1142.28   1
   1  -9  -9 22725.2 1244.68   2
  -1   9   9 24512.6 1487.71   6
  -1   9   8 19025.7 1274.27   6
   1  -9  -8 18138.8 1108.58   2
  -1   9   8 18483.9 1101.63   7
   1  -9  -8 19536.9 1094.92   1
   1  -9  -7 231.612 227.774   1
  -1   9   7 590.262 300.878   6
   1  -9  -7 61.9688 213.041   2
  -1   9   7 42.1824 216.746   7
  -1   9   6 4288.42 597.365   6
   1  -9  -6 4728.88 569.035   1
   1  -9  -6 4263.42 540.936   2
  -1   9   6 4820.16 586.534   7
   1  -9  -5 34358.3 1488.49   2
   1  -9  -5 32315.7 1466.79   1
  -1   9   5 34341.6 1610.79   6
  -1   9   5 34007.1 1565.83   7
  -1   9   4 54227.8 2046.25   7
   1  -9  -4 57271.6 1922.65   2
  -1   9   4 55167.9 2061.54   6
   1  -9  -4 55087.2 1988.51   1
  -1   9   3 67018.0 2303.49   6
  -1   9   3 72683.5 2444.84   7
   1  -9  -3 71845.1 2313.58   1
   1  -9  -3 68749.4 2111.88   2
   1  -9  -2 36559.9 1419.94   2
  -1   9   2 40797.7 1771.06   7
  -1   9   2 40054.9 1624.97   6
   1  -9  -2 38352.7 1595.67   1
   1  -9  -1 10718.7 718.132   2
  -1   9   1 10642.1 880.233   7
  -1   9   1 10183.4 770.275   6
   1  -9   0 3572.09 423.312   2
  -1   9   0 2784.24 489.186   7
  -1   9   0 2894.05 457.743   3
  -1   9   0 2379.61 369.949   6
  -1   9  -1 22314.7 1057.70   6
  -1   9  -1 26154.2 1283.54   3
   1  -9   1 25747.4 1135.44   2
  -1   9  -1 24876.7 1393.49   7
   1  -9   2 69664.7 2093.14   2
  -1   9  -2 66180.8 1876.99   6
  -1   9  -2 72471.1 2304.08   3
  -1   9  -2 68364.0 1749.10   5
  -1   9  -2 68677.2 2510.57   7
  -1   9  -3 64377.1 1757.69   5
  -1   9  -3 59920.6 2362.52   7
  -1   9  -3 64572.7 2195.59   3
   1  -9   4 21102.6 1039.36   8
  -1   9  -4 20416.9 918.246   5
  -1   9  -4 23003.8 1244.21   3
  -1   9  -4 20637.9 1328.34   7
  -1   9  -5 7002.20 701.696   3
  -1   9  -5 8067.55 847.992   7
   1  -9   5 7881.52 652.876   8
  -1   9  -5 7089.02 559.966   5
   1  -9   6 3226.77 461.871   8
  -1   9  -6 2268.32 348.163   5
  -1   9  -6 3162.85 557.166   7
  -1   9  -6 2908.24 495.659   3
  -1   9  -7 15822.2 905.559   5
  -1   9  -7 14518.7 1077.73   7
   1  -9   7 16343.5 1019.31   8
  -1   9  -7 18128.4 1204.25   3
  -1   9  -8 19791.6 1278.63   3
  -1   9  -8 17308.1 990.662   5
  -1   9  -8 16373.7 1068.32   7
   1  -9   8 16607.6 1085.73   8
   1  -9   9 21163.2 1247.37   8
  -1   9  -9 21278.3 1148.60   5
   1  -8 -13 824.335 294.141   2
  -1   8  12 6579.92 820.826   6
   1  -8 -12 4861.77 621.808   2
   1  -8 -11 17339.5 1110.01   2
   1  -8 -11 16481.7 886.690   1
  -1   8  10 37734.0 1886.87   6
   1  -8 -10 37970.8 1454.66   1
   1  -8 -10 39995.5 1713.90   2
  -1   8  10 41438.0 1480.14   7
   1  -8  -9 34234.5 1396.48   1
  -1   8   9 34027.1 1402.00   7
   1  -8  -9 35628.0 1558.20   2
  -1   8   9 34104.3 1731.38   6
  -1   8   8 29466.7 1334.76   7
   1  -8  -8 28325.3 1283.89   1
   1  -8  -8 28997.2 1363.45   2
  -1   8   8 28648.0 1058.54   8
  -1   8   8 27880.4 1511.65   6
  -1   8   7 938.154 302.279   7
  -1   8   7 947.261 208.862   8
   1  -8  -7 822.838 280.257   1
  -1   8   7 555.753 318.179   6
   1  -8  -7 1514.70 346.440   2
  -1   8   6 6171.89 612.514   7
   1  -8  -6 5241.47 568.651   2
  -1   8   6 4696.02 595.235   6
   1  -8  -6 5094.83 553.767   1
   1  -8  -5 59905.3 1971.85   2
  -1   8   5 58087.9 2026.55   7
   1  -8  -5 62186.1 2024.00   1
  -1   8   5 58331.1 2158.22   6
   1  -8  -4 61821.1 1936.91   2
  -1   8   4 60478.5 2104.03   7
   1  -8  -4 61474.9 2012.80   1
  -1   8   4 63333.8 2184.59   6
  -1   8   3 58703.7 2037.83   6
   1  -8  -3 55729.4 1927.68   1
  -1   8   3 58545.2 2055.64   7
   1  -8  -3 59352.0 1811.43   2
  -1   8   2 28258.2 1383.77   7
   1  -8  -2 30072.0 1170.06   2
  -1   8   1 1708.17 390.514   7
   1  -8  -1 1577.03 269.939   2
   1  -8   0 20923.4 954.376   2
  -1   8   0 20606.4 1074.86   3
  -1   8   0 22490.7 1235.27   7
  -1   8  -1 27662.8 1413.83   7
  -1   8  -1 29006.7 1282.59   3
   1  -8   1 29124.6 1145.99   2
  -1   8  -2 94820.1 2636.76   3
  -1   8  -2 95155.9 2914.21   7
  -1   8  -2 93508.4 2168.00   5
  -1   8  -3 82134.8 2412.45   3
  -1   8  -3 83677.4 2043.71   5
   1  -8   3 78372.9 2123.90   8
  -1   8  -3 77531.7 2617.98   7
   1  -8   4 42751.2 1490.04   8
  -1   8  -4 43922.2 1678.68   3
  -1   8  -4 43552.2 1867.11   7
  -1   8  -4 42646.9 1386.98   5
  -1   8  -5 6069.94 609.589   3
   1  -8   5 4846.75 501.646   8
  -1   8  -5 5711.38 492.653   5
  -1   8  -5 5037.09 641.504   7
  -1   8  -6 3330.78 544.112   7
  -1   8  -6 3291.20 497.481   3
  -1   8  -6 3967.10 437.608   5
   1  -8   6 4566.69 508.667   8
  -1   8  -7 22196.0 1274.09   7
  -1   8  -7 23181.1 1112.93   5
   1  -8   7 20309.5 1132.41   8
  -1   8  -7 22618.0 1292.00   3
  -1   8  -8 34468.0 1463.64   5
  -1   8  -8 36538.1 1722.08   3
  -1   8  -8 34306.2 1543.86   7
   1  -8   8 34430.4 1556.92   8
  -1   8  -9 19863.3 1120.31   5
   1  -8   9 20479.0 1234.92   8
  -1   8  -9 19795.4 1292.24   3
  -1   8 -10 9659.54 814.620   5
   1  -8  10 10679.9 917.586   8
  -1   8 -10 12197.7 1026.92   3
  -1   8 -11 1541.49 400.339   5
   1  -7 -14 2655.66 516.945   2
  -1   7  13 58.0536 293.445   6
   1  -7 -13-74.5542 272.616   2
  -1   7  12 3663.27 612.341   6
   1  -7 -12 5184.95 646.420   2
  -1   7  11 22287.0 1416.41   6
   1  -7 -11 20630.9 1228.05   2
   1  -7 -11 21968.4 1041.30   1
   1  -7 -10 33385.9 1542.62   2
  -1   7  10 37055.6 1782.85   6
  -1   7  10 33709.4 1233.82   7
   1  -7 -10 32348.6 1313.42   1
  -1   7  10 34925.8 1223.52   8
  -1   7   9 22627.3 945.622   8
  -1   7   9 24002.5 1386.27   6
   1  -7  -9 21710.6 1164.97   2
  -1   7   9 22752.3 1061.04   7
   1  -7  -9 22393.0 1071.04   1
   1  -7  -8 7080.56 632.123   2
  -1   7   8 7697.37 774.234   6
   1  -7  -8 7730.31 609.552   1
  -1   7   8 8552.54 648.545   7
  -1   7   8 7696.33 537.675   8
  -1   7   7 205.739 191.730   7
   1  -7  -7-10.0728 169.007   1
   1  -7  -7 416.792 216.024   2
  -1   7   7 368.207 291.385   6
  -1   7   7 410.575 159.262   8
  -1   7   6 9707.24 818.828   6
   1  -7  -6 10363.8 713.313   1
  -1   7   6 11498.0 767.250   7
   1  -7  -6 11364.7 764.600   2
  -1   7   5 28037.3 1257.84   7
   1  -7  -5 29124.1 1261.66   1
   1  -7  -5 29247.1 1234.04   2
  -1   7   5 28804.9 1387.56   6
  -1   7   4 102737. 2901.16   6
   1  -7  -4 106249. 2613.50   2
   1  -7  -4 102219. 2681.64   1
  -1   7   4 100826. 2776.76   7
   1  -7  -4 98916.5 2236.13   5
   1  -7  -3 56741.6 1672.52   2
   1  -7  -3 53688.3 1357.31   5
  -1   7   3 56674.5 1924.22   7
   1  -7  -3 54052.6 1771.56   1
  -1   7   2 39350.4 1589.80   7
   1  -7  -2 40497.8 1308.08   2
   1  -7  -2 39742.2 1071.40   5
  -1   7   1 3384.70 457.115   7
  -1   7   1 2540.91 360.697   3
   1  -7  -1 2604.62 228.659   5
   1  -7  -1 2572.38 297.926   2
   1  -7   0 10102.5 592.641   2
  -1   7   0 10515.2 695.288   3
  -1   7   0 9611.78 778.878   7
  -1   7  -1 99490.3 2588.72   3
  -1   7  -1 100449. 2877.50   7
  -1   7  -2 45609.4 1565.27   3
  -1   7  -2 44377.0 1753.01   7
   1  -7   2 44036.3 1329.40   8
  -1   7  -3 75406.9 2411.99   7
   1  -7   3 75739.1 1955.48   8
  -1   7  -3 73430.3 1825.80   5
  -1   7  -3 71936.0 1524.18   6
  -1   7  -3 75659.2 2171.00   3
   1  -7   4 16688.5 845.625   8
  -1   7  -4 18663.2 988.457   3
  -1   7  -4 17746.3 799.583   5
  -1   7  -4 19469.6 1145.15   7
   1  -7   5 1520.90 294.918   8
  -1   7  -5 1884.12 389.323   7
  -1   7  -5 1466.29 284.502   3
  -1   7  -5 1560.20 263.193   5
  -1   7  -6 2968.31 473.481   7
  -1   7  -6 1858.59 304.060   5
  -1   7  -6 2776.61 419.848   3
   1  -7   6 2083.15 352.656   8
  -1   7  -7 22255.5 1204.12   3
   1  -7   7 19828.1 1069.77   8
  -1   7  -7 21721.3 1201.63   7
  -1   7  -7 19485.7 1010.68   5
  -1   7  -8 29267.7 1321.88   5
  -1   7  -8 29178.2 1467.50   3
  -1   7  -8 28974.2 1364.45   7
   1  -7   8 28704.2 1383.17   8
  -1   7  -9 22481.3 1188.20   5
   1  -7   9 20127.8 1216.19   8
  -1   7  -9 20945.9 1297.33   3
   1  -7  10 15855.0 1121.49   8
  -1   7 -10 17432.9 1206.13   3
  -1   7 -10 16343.7 1055.14   5
   1  -7  11 668.121 346.898   8
  -1   7 -11 1613.27 440.883   3
  -1   7 -11 1163.29 349.538   5
   1  -6 -14 1626.77 433.542   2
  -1   6  14 3323.25 583.595   6
  -1   6  13-41.1930 316.311   6
   1  -6 -13 176.120 266.858   2
   1  -6 -12 1101.61 246.081   1
  -1   6  12 784.266 214.818   8
   1  -6 -12 1851.58 418.820   2
  -1   6  12 1429.60 454.029   6
   1  -6 -11 18303.0 1152.36   2
  -1   6  11 18653.1 1260.20   6
   1  -6 -11 17506.2 928.053   1
  -1   6  11 19710.9 941.861   8
   1  -6 -10 21199.5 1021.17   1
   1  -6 -10 22532.5 1220.87   2
  -1   6  10 22904.5 923.137   7
  -1   6  10 22401.2 1343.34   6
  -1   6  10 21857.7 982.864   8
  -1   6   9 34416.0 1244.16   7
  -1   6   9 36649.6 1282.39   8
  -1   6   9 34910.4 1655.82   6
   1  -6  -9 34517.7 1321.57   1
   1  -6  -9 33871.9 1461.99   2
  -1   6   8 21258.4 926.376   8
  -1   6   8 20364.2 1224.53   6
   1  -6  -8 21898.0 1098.35   2
   1  -6  -8 20481.8 975.407   1
  -1   6   8 20312.1 949.643   7
   1  -6  -7 284.859 171.345   2
   1  -6  -7 211.254 155.219   1
  -1   6   7 249.678 162.218   7
  -1   6   7 22.7600 194.656   6
  -1   6   7 482.010 176.917   8
   1  -6  -6 6628.98 542.425   1
  -1   6   6 6970.66 678.406   6
  -1   6   6 8092.37 603.311   7
   1  -6  -6 8121.70 609.492   2
  -1   6   5 25304.9 1125.92   7
  -1   6   5 27735.8 1319.18   6
   1  -6  -5 27562.6 1158.94   2
   1  -6  -5 27401.2 1142.09   1
  -1   6   4 80440.1 2226.26   7
   1  -6  -4 73462.7 1737.57   5
   1  -6  -4 76731.5 2075.57   2
   1  -6  -4 76281.3 2120.04   1
   1  -6  -3 87325.5 2314.12   1
   1  -6  -3 87994.2 2189.10   2
   1  -6  -3 89211.7 1896.25   5
  -1   6   3 89356.0 2448.06   7
   1  -6  -2 51749.8 1236.35   5
   1  -6  -2 52488.1 1461.99   2
  -1   6   2 51996.9 1751.54   7
  -1   6   1 15895.7 809.686   3
   1  -6  -1 15921.3 555.640   5
  -1   6   1 15247.2 870.072   7
   1  -6  -1 15744.4 691.383   2
  -1   6   0 383.314 171.562   4
  -1   6   0 516.488 162.196   3
   1  -6   0 813.684 181.488   2
  -1   6   0 777.885 258.916   7
  -1   6  -1 28595.0 1261.84   7
  -1   6  -1 30709.5 1223.32   4
  -1   6  -1 30368.8 1141.62   3
  -1   6  -2 83164.8 1732.84   6
  -1   6  -2 83556.3 2434.24   7
   1  -6   2 86111.2 2026.56   8
  -1   6  -2 83768.7 2299.24   4
  -1   6  -2 90200.8 2267.32   3
  -1   6  -3 73993.1 2250.11   7
  -1   6  -3 73264.8 1503.40   6
   1  -6   3 71498.8 1866.53   8
  -1   6  -3 76953.8 2073.04   3
  -1   6  -4 32997.6 787.796   6
  -1   6  -4 30965.2 1064.58   5
  -1   6  -4 32186.2 1259.34   4
  -1   6  -4 34193.5 1296.70   3
   1  -6   4 31511.3 1151.60   8
  -1   6  -4 33954.7 1431.67   7
   1  -6   5 14241.2 765.441   8
  -1   6  -5 13910.8 917.531   7
  -1   6  -5 12879.5 763.102   4
  -1   6  -5 13023.0 689.219   5
  -1   6  -5 13073.1 416.220   6
  -1   6  -5 13778.3 823.265   3
  -1   6  -6 1165.92 242.473   5
  -1   6  -6 505.185 186.784   4
  -1   6  -6 978.756 298.428   7
  -1   6  -6 1006.77 280.796   3
   1  -6   6 1090.60 254.158   8
  -1   6  -7 12954.4 873.631   7
  -1   6  -7 13490.1 798.963   5
   1  -6   7 12290.5 806.929   8
  -1   6  -7 12913.5 861.239   3
  -1   6  -8 40067.5 1542.68   7
  -1   6  -8 41059.3 1565.80   5
   1  -6   8 38846.4 1577.35   8
  -1   6  -8 37515.6 1614.89   3
   1  -6   9 38812.0 1656.99   8
  -1   6  -9 38694.5 1609.54   5
  -1   6  -9 35704.1 1374.58   7
  -1   6  -9 36451.6 1675.53   3
   1  -6  10 19085.2 1217.64   8
  -1   6 -10 21270.3 1216.45   5
  -1   6 -10 20625.3 1276.14   3
  -1   6 -11 8849.92 822.080   5
   1  -6  11 9467.46 895.659   8
  -1   6 -11 8320.47 857.120   3
  -1   6 -12-152.875 362.275   3
   1  -6  12-424.991 308.056   8
  -1   6 -12 363.673 302.836   5
   1  -5 -14 8453.88 866.828   2
  -1   5  14 7441.51 643.075   8
  -1   5  14 7875.66 866.062   6
  -1   5  13 1828.25 483.825   6
   1  -5 -13 1455.89 430.842   2
  -1   5  13 1572.92 312.280   8
   1  -5 -12 239.059 195.388   1
  -1   5  12 462.969 220.488   8
  -1   5  12-118.799 311.357   6
   1  -5 -12 504.634 251.219   2
  -1   5  11 6177.78 724.032   6
   1  -5 -11 6835.58 713.122   2
   1  -5 -11 8970.48 649.741   1
  -1   5  11 7973.80 616.136   8
  -1   5  10 32085.3 1582.32   6
  -1   5  10 30965.6 991.774   7
   1  -5 -10 30954.5 1246.97   1
   1  -5 -10 30524.8 1429.76   2
  -1   5  10 29954.6 1220.22   8
  -1   5   9 53690.1 1514.28   7
  -1   5   9 54323.3 1666.37   8
  -1   5   9 54910.3 2084.24   6
   1  -5  -9 51834.0 1862.27   2
   1  -5  -9 53628.2 1691.45   1
  -1   5   8 42746.4 1343.09   7
  -1   5   8 43096.3 1757.29   6
  -1   5   8 41539.9 1382.81   8
   1  -5  -8 41441.8 1400.24   1
   1  -5  -8 38660.6 1501.00   2
  -1   5   7 49367.7 1884.39   6
   1  -5  -7 51323.2 1681.69   2
   1  -5  -7 50666.4 1581.88   1
  -1   5   7 48664.1 1494.84   7
  -1   5   7 52751.2 1561.77   8
  -1   5   6 4756.95 418.927   8
   1  -5  -6 4789.57 430.909   1
  -1   5   6 4186.06 502.390   6
  -1   5   6 3600.14 383.997   7
   1  -5  -6 3891.58 410.605   2
   1  -5  -5 44506.1 1442.44   1
  -1   5   5 44719.6 1444.40   7
   1  -5  -5 42962.6 1431.12   2
   1  -5  -4 105366. 2520.56   2
   1  -5  -4 105000. 2555.45   1
  -1   5   4 105778. 2593.89   7
   1  -5  -3 227469. 4547.93   1
  -1   5   3 231141. 4666.38   7
   1  -5  -3 226866. 4108.89   5
   1  -5  -3 224122. 4416.13   2
   1  -5  -2 100682. 2241.79   2
   1  -5  -2 102744. 2010.35   5
  -1   5   2 105662. 2139.25   8
   1  -5  -2 98604.3 2427.92   1
  -1   5   2 99771.6 2519.61   7
  -1   5   1 27040.8 1007.50   3
   1  -5  -1 28763.6 911.862   2
  -1   5   1 29268.5 863.839   8
  -1   5   1 27469.8 1084.22   4
   1  -5  -1 28827.8 756.102   5
  -1   5   1 27314.5 1110.07   7
   1  -5   0 4145.21 314.984   2
  -1   5   0 3847.23 355.280   3
  -1   5   0 3757.25 374.761   4
  -1   5   0 4087.67 236.532   5
   1  -5   1 38590.1 1069.19   8
  -1   5  -1 36752.4 943.451   5
  -1   5  -1 39252.3 1222.97   3
  -1   5  -1 36783.6 1261.75   4
   1  -5   2 147306. 2992.85   8
  -1   5  -2 150639. 3174.81   3
  -1   5  -2 146676. 2723.95   6
  -1   5  -2 142685. 3192.67   4
  -1   5  -3 187952. 3910.27   3
  -1   5  -3 189818. 3347.83   6
  -1   5  -3 186840. 3879.13   4
   1  -5   3 185374. 3734.39   8
  -1   5  -4 175863. 3755.15   4
  -1   5  -4 185121. 3833.88   3
   1  -5   4 179773. 3680.89   8
  -1   5  -4 178407. 3178.42   6
  -1   5  -4 175745. 3981.35   7
  -1   5  -5 23493.8 1109.51   7
  -1   5  -5 22652.0 945.838   4
   1  -5   5 22487.1 953.442   8
  -1   5  -5 22365.4 1009.87   3
  -1   5  -5 21299.9 875.909   5
  -1   5  -5 23102.5 613.880   6
  -1   5  -6 8441.70 572.063   5
  -1   5  -6 9622.52 669.845   3
  -1   5  -6 8500.65 342.043   6
  -1   5  -6 9398.96 689.552   7
   1  -5   6 8619.62 605.049   8
  -1   5  -7 15683.4 909.524   3
   1  -5   7 14700.8 851.748   8
  -1   5  -7 14578.1 872.986   7
  -1   5  -7 15563.2 783.438   4
  -1   5  -8 41365.8 1485.95   7
  -1   5  -8 42600.4 1414.44   4
   1  -5   8 42043.4 1601.81   8
  -1   5  -8 42188.3 1657.60   3
  -1   5  -9 56791.5 1729.03   7
   1  -5   9 58236.7 2049.23   8
  -1   5  -9 60939.3 2118.71   3
  -1   5 -10 28287.7 1468.72   3
   1  -5  10 29774.9 1481.33   8
   1  -5  11 12835.7 1020.31   8
  -1   5 -11 12667.0 1030.72   3
  -1   5 -12-258.438 374.448   3
   1  -5  12-32.0818 292.446   8
  -1   5 -13 2920.09 563.636   5
  -1   4  15 11850.4 1022.06   6
   1  -4 -15 12471.9 1063.93   2
  -1   4  15 12894.4 886.973   8
   1  -4 -14 18106.3 1456.89   3
  -1   4  14 15453.5 962.919   8
  -1   4  14 16968.0 1205.62   6
   1  -4 -14 17329.5 1245.12   2
  -1   4  13 2817.18 428.218   8
  -1   4  13 2661.44 529.549   6
   1  -4 -13 3088.37 575.805   2
  -1   4  12 932.829 346.507   6
  -1   4  12 445.449 217.824   8
   1  -4 -12 1035.06 361.030   2
   1  -4 -12 1098.43 287.895   1
   1  -4 -11 18739.7 1002.14   1
   1  -4 -11 16833.2 1120.14   2
  -1   4  11 19805.7 1226.58   6
  -1   4  11 18337.4 985.862   8
  -1   4  10 76122.6 2143.36   8
  -1   4  10 73824.2 2485.61   6
   1  -4 -10 67752.1 2085.94   1
   1  -4 -10 70242.4 2343.57   2
  -1   4   9 85846.8 1916.55   7
   1  -4  -9 80583.6 2253.14   1
  -1   4   9 87194.4 2685.96   6
   1  -4  -9 81042.5 2459.95   2
  -1   4   9 85874.3 2281.70   8
  -1   4   8 75180.2 1801.34   7
  -1   4   8 71771.3 2372.67   6
  -1   4   8 74296.8 2006.91   8
   1  -4  -8 68867.1 2147.98   2
   1  -4  -8 71745.7 2004.09   1
  -1   4   7 13731.5 718.326   8
   1  -4  -7 13127.5 707.502   1
   1  -4  -7 12082.9 751.973   2
  -1   4   7 13444.1 630.546   7
  -1   4   7 12657.4 866.473   6
  -1   4   6 141.589 98.5550   7
   1  -4  -6 150.229 143.035   1
  -1   4   6 22.6801 127.036   8
   1  -4  -6 474.296 171.597   2
  -1   4   6-91.0642 214.757   6
   1  -4  -5 57273.9 1661.25   2
  -1   4   5 59815.4 1615.58   7
   1  -4  -5 57939.2 1649.20   1
   1  -4  -4 189550. 3930.16   2
  -1   4   4 191629. 3907.43   7
   1  -4  -4 187466. 3947.86   1
  -1   4   3 172222. 3419.79   2
   1  -4  -3 168360. 3391.38   2
   1  -4  -3 166550. 3489.78   1
  -1   4   3 162843. 3466.09   7
   1  -4  -2 254180. 4469.14   5
   1  -4  -2 258579. 4941.74   1
  -1   4   2 260848. 4977.57   4
   1  -4  -2 264149. 4730.50   2
   1  -4  -1 61416.1 1225.24   5
  -1   4   1 58590.7 1539.00   3
  -1   4   1 59655.3 1614.46   4
   1  -4  -1 59336.2 1392.40   2
  -1   4   1 59677.4 1380.20   8
  -1   4   0 3515.14 255.967   8
   1  -4   0 2850.03 183.649   5
  -1   4   0 3078.12 288.313   3
   1  -4   0 3396.18 254.497   2
  -1   4   0 2991.26 172.275   5
  -1   4   0 3534.12 328.279   4
   1  -4   1 79916.0 1890.86   4
   1  -4   1 77721.0 1719.61   8
  -1   4  -1 79367.7 1857.67   3
  -1   4  -1 81210.7 1762.32   8
  -1   4  -1 78218.6 1581.67   5
  -1   4  -1 77442.5 1917.00   4
  -1   4  -2 175834. 3348.72   5
  -1   4  -2 187671. 3653.16   3
  -1   4  -2 184454. 3259.64   6
   1  -4   2 188828. 3585.59   4
  -1   4  -2 178160. 3642.20   4
   1  -4   2 182645. 3499.14   8
  -1   4  -3 213409. 4090.56   3
   1  -4   3 198264. 3932.92   8
  -1   4  -3 203564. 4007.86   4
   1  -4   3 206038. 3920.63   4
  -1   4  -3 205724. 3597.39   6
   1  -4   4 173341. 3574.89   8
  -1   4  -4 178389. 3150.78   6
  -1   4  -4 174242. 3554.49   4
   1  -4   4 181505. 3440.81   4
  -1   4  -4 177402. 3677.84   3
   1  -4   5 61503.0 1478.28   4
  -1   4  -5 60032.3 1610.66   4
  -1   4  -5 62743.4 1303.97   6
   1  -4   5 62411.8 1703.99   8
  -1   4  -5 62518.0 1764.09   3
  -1   4  -6 4375.79 254.958   6
  -1   4  -6 4897.16 452.287   7
  -1   4  -6 4210.14 437.823   3
  -1   4  -6 4092.65 353.853   4
   1  -4   6 4568.14 430.112   8
  -1   4  -7 29980.8 1033.27   4
  -1   4  -7 31062.8 1262.79   3
  -1   4  -7 30106.0 847.034   6
  -1   4  -7 30572.1 1179.77   7
   1  -4   7 29551.5 1217.97   8
  -1   4  -8 86883.2 2239.66   7
  -1   4  -8 90210.9 2502.23   3
  -1   4  -8 83926.1 2087.77   4
   1  -4   8 84121.8 2424.27   8
   1  -4   9 81460.0 1706.70   6
  -1   4  -9 80051.4 2062.80   7
  -1   4  -9 83602.2 2535.31   3
   1  -4   9 86145.0 2539.24   8
  -1   4  -9 85084.8 2024.84   4
  -1   4 -10 45830.3 1838.63   3
   1  -4  10 44219.6 1809.30   8
  -1   4 -11 9142.00 846.872   3
   1  -4  11 8296.84 805.351   8
  -1   4 -12 886.270 365.927   3
   1  -4  12 73.6930 303.494   8
  -1   4 -13 5153.60 719.290   3
   1  -4  13 4072.36 642.607   8
  -1   3  15 6540.43 749.006   6
   1  -3 -15 6656.70 814.278   2
  -1   3  15 6257.97 652.137   8
   1  -3 -14 7220.19 969.109   3
  -1   3  14 8688.60 754.384   8
  -1   3  14 6303.20 741.237   6
   1  -3 -14 7490.59 856.967   2
   1  -3 -13 2223.22 487.294   3
   1  -3 -13 3454.45 590.641   2
  -1   3  13 4547.30 637.421   6
   1  -3 -13 3332.02 473.699   1
  -1   3  13 3231.45 478.994   8
   1  -3 -12 3700.94 583.868   2
  -1   3  12 3066.44 520.101   6
   1  -3 -12 3611.25 480.327   1
   1  -3 -12 2649.63 598.236   3
  -1   3  12 3416.32 467.001   8
  -1   3  11 23564.3 1170.59   8
   1  -3 -11 23720.0 1349.78   2
   1  -3 -11 24517.5 1221.21   1
  -1   3  11 23853.7 1331.48   6
  -1   3  10 50911.1 1977.98   6
   1  -3 -10 51273.5 1798.13   1
   1  -3 -10 52701.4 1985.69   2
  -1   3  10 51240.7 1751.15   8
  -1   3   9 90594.0 2382.32   8
  -1   3   9 87366.0 2648.11   6
   1  -3  -9 83614.8 2551.54   2
   1  -3  -9 84680.8 2374.73   1
  -1   3   9 84548.9 1719.40   7
   1  -3  -8 58179.4 1794.00   1
   1  -3  -8 61584.1 1974.87   2
  -1   3   8 61506.7 2091.23   6
  -1   3   8 62499.7 1838.56   8
  -1   3   8 59694.5 1399.91   7
   1  -3  -7 8132.84 616.838   2
  -1   3   7 8053.35 565.697   8
  -1   3   7 7118.22 399.540   7
  -1   3   7 6913.40 614.758   6
   1  -3  -7 6941.71 529.382   1
  -1   3   6 2948.82 265.601   7
   1  -3  -6 3312.39 349.956   1
   1  -3  -6 3390.45 366.878   2
  -1   3   6 3374.14 424.548   6
  -1   3   6 3503.74 364.039   8
  -1   3   5 101732. 2236.06   7
  -1   3   5 102172. 2390.84   2
  -1   3   5 106755. 2492.20   8
   1  -3  -5 97618.4 2370.82   1
   1  -3  -5 98249.0 2411.64   2
  -1   3   4 85402.7 1997.42   7
   1  -3  -4 99459.4 2138.82   4
   1  -3  -4 87370.5 2134.86   1
   1  -3  -4 88637.0 2111.83   2
  -1   3   4 95229.8 2201.16   2
   1  -3  -3 237780. 4622.75   2
   1  -3  -3 238020. 4703.93   1
   1  -3  -3 262180. 4699.62   4
  -1   3   3 254599. 4748.98   2
  -1   3   2 90222.0 1938.72   2
   1  -3  -2 89114.1 1927.61   2
   1  -3  -2 90139.3 2080.22   1
   1  -3  -2 93639.5 2058.77   4
  -1   3   2 91059.7 2040.83   4
   1  -3  -1 43290.6 862.591   5
   1  -3  -1 46491.9 1172.13   3
  -1   3   1 42441.0 1145.52   3
  -1   3   1 41829.8 1165.97   4
   1  -3  -1 42216.0 1021.06   2
  -1   3   0 79.7005 52.4244   8
   1  -3   0 9.20652 64.7444   3
  -1   3   0 196.544 81.2773   3
  -1   3   0 66.7039 73.2239   4
  -1   3   0 108.783 36.2431   5
  -1   3  -1 136312. 2624.67   3
  -1   3  -1 126893. 2638.97   4
   1  -3   1 132244. 2649.59   4
  -1   3  -1 130238. 2351.47   5
   1  -3   1 133779. 2615.44   3
  -1   3  -1 132169. 2544.19   8
   1  -3   1 127735. 2502.54   8
  -1   3  -2 227573. 4308.03   4
  -1   3  -2 227259. 4109.09   5
   1  -3   2 227539. 4246.44   8
  -1   3  -2 244842. 4283.04   8
  -1   3  -2 233845. 4048.15   6
  -1   3  -2 243385. 4359.84   3
   1  -3   2 241554. 4314.86   4
   1  -3   3 145627. 2864.32   8
  -1   3  -3 143725. 2573.08   6
  -1   3  -3 136824. 2827.56   4
   1  -3   3 142470. 2774.70   4
  -1   3  -3 144284. 2916.74   3
   1  -3   4 108221. 2375.08   8
  -1   3  -4 111688. 2049.18   6
  -1   3  -4 107296. 2423.35   3
  -1   3  -4 105868. 2276.51   4
   1  -3   4 108080. 2215.25   4
   1  -3   5 16447.6 732.678   8
   1  -3   5 16182.8 575.870   4
  -1   3  -5 15084.1 611.982   4
  -1   3  -5 14624.8 710.690   3
   1  -3   5 15974.8 490.908   6
  -1   3  -5 15788.5 512.031   6
  -1   3  -6 555.427 192.839   3
   1  -3   6 272.826 75.3599   6
  -1   3  -6 296.068 82.2452   6
   1  -3   6 154.658 80.7151   4
   1  -3   6 395.390 169.145   8
  -1   3  -6 216.663 105.642   4
   1  -3   7 27654.2 1116.39   8
   1  -3   7 26460.8 772.051   4
  -1   3  -7 27658.0 837.289   6
  -1   3  -7 26496.6 1121.70   3
   1  -3   7 27767.8 767.917   6
  -1   3  -7 27328.8 889.430   4
  -1   3  -7 25345.5 974.847   7
  -1   3  -8 43915.9 1331.35   7
  -1   3  -8 44539.1 1226.75   6
  -1   3  -8 45340.0 1597.56   3
   1  -3   8 43309.8 1055.66   4
   1  -3   8 43426.2 1555.17   8
  -1   3  -8 42524.1 1212.84   4
   1  -3   8 44331.6 1108.32   6
   1  -3   9 55999.8 1361.94   6
  -1   3  -9 55516.1 1456.86   7
  -1   3  -9 57499.1 1442.55   4
   1  -3   9 55467.6 1908.27   8
  -1   3  -9 54797.6 1902.77   3
   1  -3  10 39422.3 1675.65   8
   1  -3  10 40814.7 1129.17   6
  -1   3 -10 41673.1 1683.85   3
  -1   3 -11 13591.7 994.784   3
   1  -3  11 13004.6 990.382   8
  -1   3 -12 628.939 341.498   3
   1  -3  12 722.803 355.417   8
  -1   3 -13 4872.32 702.989   3
   1  -3  13 5442.47 761.115   8
  -1   3 -14 8167.22 923.527   3
   1  -3  14 8016.56 933.443   8
  -1   2  15 17929.4 1135.65   8
  -1   2  15 16531.4 1174.41   6
  -1   2  14 4587.83 580.393   8
  -1   2  14 4504.45 624.061   6
   1  -2 -14 4546.85 782.504   3
   1  -2 -14 4066.03 670.470   2
  -1   2  13 3147.95 493.462   8
   1  -2 -13 1723.51 469.034   3
  -1   2  13 2024.44 438.464   6
   1  -2 -13 1735.15 366.081   1
   1  -2 -13 2592.87 544.052   2
   1  -2 -12 354.711 273.256   3
  -1   2  12 616.533 312.437   6
   1  -2 -12-20.2602 228.765   1
   1  -2 -12 91.9505 278.648   2
  -1   2  12 168.203 213.074   8
   1  -2 -11 12149.0 901.185   1
   1  -2 -11 11153.1 1014.45   3
  -1   2  11 12449.1 865.454   8
  -1   2  11 13603.3 999.869   6
   1  -2 -11 12069.6 925.845   2
   1  -2 -10 34849.1 1543.58   1
   1  -2 -10 32410.1 1484.76   2
  -1   2  10 32696.3 1511.88   6
  -1   2  10 33313.9 1390.96   8
   1  -2  -9 26233.2 1249.21   2
   1  -2  -9 28319.8 810.577   4
  -1   2   9 27898.5 1218.25   8
  -1   2   9 26691.7 1311.10   6
   1  -2  -9 27556.8 1279.31   1
  -1   2   8 28415.8 1296.05   6
  -1   2   8 27834.4 1176.31   8
  -1   2   8 26317.9 629.735   7
   1  -2  -8 29288.0 1225.08   2
   1  -2  -8 27319.4 1195.69   1
   1  -2  -8 29761.4 850.097   4
   1  -2  -7 10551.0 672.377   2
   1  -2  -7 10682.3 486.990   4
  -1   2   7 10124.4 725.854   6
  -1   2   7 11140.9 679.691   8
  -1   2   7 9989.20 386.648   7
   1  -2  -7 10766.7 668.794   1
  -1   2   6 2994.20 216.012   7
   1  -2  -6 3059.14 256.604   4
   1  -2  -6 2593.88 320.997   1
   1  -2  -6 2685.79 317.174   2
  -1   2   6 2696.51 329.643   8
  -1   2   6 2647.13 369.849   6
  -1   2   5 42954.5 1104.09   7
   1  -2  -5 46650.7 1425.58   1
   1  -2  -5 46933.3 1206.02   4
  -1   2   5 45753.7 1286.61   1
  -1   2   5 45501.6 1308.79   2
  -1   2   5 46198.5 1423.79   8
   1  -2  -5 42858.4 1314.02   2
  -1   2   4 158701. 3431.39   8
  -1   2   4 164463. 3305.38   2
   1  -2  -4 156529. 3321.43   1
   1  -2  -4 157542. 3244.01   2
   1  -2  -4 166699. 3133.62   4
  -1   2   4 168434. 3293.26   1
   1  -2  -3 135262. 2562.03   4
   1  -2  -3 124956. 2609.00   2
  -1   2   3 125846. 2562.16   4
   1  -2  -3 124114. 2678.36   1
  -1   2   3 130295. 2698.58   1
  -1   2   3 131734. 2674.99   2
  -1   2   2 192099. 3605.31   1
  -1   2   2 175777. 3403.74   4
   1  -2  -2 183217. 3426.38   2
   1  -2  -2 190644. 3436.01   4
   1  -2  -2 176848. 3533.89   1
  -1   2   2 184875. 3441.09   2
  -1   2   1 116501. 2151.99   2
   1  -2  -1 122190. 2318.07   3
   1  -2  -1 112663. 2345.30   1
  -1   2   1 115165. 2285.28   4
   1  -2  -1 115765. 2155.53   2
   1  -2   0 2894.77 199.358   3
  -1   2   0 2881.07 186.689   8
  -1   2   0 2698.05 100.758   5
  -1   2   0 2329.71 196.341   4
  -1   2   0 2854.50 198.963   3
  -1   2  -1 11889.6 425.882   8
  -1   2  -1 11313.5 321.766   5
  -1   2  -1 11495.8 446.984   4
   1  -2   1 12325.2 463.574   4
   1  -2   1 12615.4 453.900   3
  -1   2  -1 11226.5 435.398   3
   1  -2   1 10881.5 403.956   8
  -1   2  -2 107832. 2167.47   3
   1  -2   2 109162. 2130.11   4
  -1   2  -2 109199. 1970.99   6
  -1   2  -2 106153. 2133.48   4
   1  -2   2 107615. 2132.17   8
  -1   2  -3 268746. 4783.46   3
   1  -2   3 260396. 4734.84   8
  -1   2  -3 264897. 4507.81   6
  -1   2  -3 263264. 4681.66   4
   1  -2   3 255080. 4488.60   6
   1  -2   3 267808. 4655.37   4
  -1   2  -4 54819.8 1285.57   4
   1  -2   4 57691.1 1388.15   2
   1  -2   4 54622.1 1154.30   6
   1  -2   4 55157.3 1243.91   4
  -1   2  -4 56764.1 1438.70   3
   1  -2   4 54560.9 1395.21   8
  -1   2  -4 57237.4 1195.18   6
  -1   2  -5 66012.6 1385.33   6
   1  -2   5 61457.9 1323.97   6
  -1   2  -5 64338.0 1651.69   3
   1  -2   5 62666.2 1367.72   4
   1  -2   5 63858.9 1622.68   8
  -1   2  -5 62543.5 1425.07   4
  -1   2  -6 160.883 88.2388   4
   1  -2   6 122.402 69.6770   4
   1  -2   6 392.680 145.671   8
  -1   2  -6 106.298 59.9830   6
   1  -2   6 105.032 73.1513   6
  -1   2  -6 297.218 140.366   3
  -1   2  -7 16254.3 643.804   6
   1  -2   7 15659.3 575.444   6
  -1   2  -7 16211.1 818.126   3
   1  -2   7 16264.9 525.160   4
  -1   2  -7 15333.1 580.678   4
   1  -2   7 15562.8 794.944   8
   1  -2   8 27822.6 1156.80   8
  -1   2  -8 25854.2 846.617   7
   1  -2   8 26666.7 843.601   6
   1  -2   8 27140.3 727.536   4
  -1   2  -8 26126.0 1134.81   3
  -1   2  -8 24777.0 790.511   4
  -1   2  -9 43836.0 1098.86   4
  -1   2  -9 41656.8 1565.01   3
   1  -2   9 44356.8 1203.54   6
  -1   2  -9 43176.8 1073.33   7
   1  -2   9 45254.4 1619.65   8
   1  -2   9 40677.7 794.986   9
   1  -2   9 39278.9 791.255   9
  -1   2 -10 30917.5 1402.21   3
  -1   2 -10 31299.5 871.478   4
   1  -2  10 31237.8 1047.64   6
   1  -2  10 32293.8 1443.74   8
   1  -2  11 17673.6 776.483   6
   1  -2  11 18089.9 1139.69   8
  -1   2 -11 18634.5 1119.77   3
   1  -2  12 2300.48 477.563   8
  -1   2 -12 2079.76 454.279   3
   1  -2  13-148.924 322.056   8
  -1   2 -13 991.005 405.428   3
  -1   2 -14 12328.6 1120.78   3
   1  -2  14 12278.6 1137.11   8
  -1   1  15 11077.8 931.345   8
  -1   1  14 13438.0 1051.19   6
   1  -1 -14 12319.6 1207.49   3
  -1   1  14 13406.7 1037.57   8
  -1   1  13 2455.80 469.744   8
  -1   1  13 2995.54 517.104   6
   1  -1 -13 3427.52 680.114   3
   1  -1 -13 3402.12 515.617   1
   1  -1 -12-81.9853 257.119   2
   1  -1 -12-73.6192 223.217   1
  -1   1  12-191.846 283.499   8
  -1   1  12 213.254 254.668   6
   1  -1 -12-1.73886 305.460   3
   1  -1 -11 5987.16 667.800   1
   1  -1 -11 5807.82 680.739   3
   1  -1 -11 6192.80 659.104   2
  -1   1  11 5951.57 676.924   6
  -1   1  11 5936.83 629.507   8
   1  -1 -10 29817.5 1377.02   2
   1  -1 -10 28145.4 1351.87   1
   1  -1 -10 27233.5 1401.12   3
  -1   1  10 29760.6 1363.76   8
  -1   1  10 29135.0 1393.14   6
   1  -1  -9 90407.1 1712.56   4
   1  -1  -9 90502.2 2704.27   3
   1  -1  -9 89083.1 2555.35   2
   1  -1  -9 92419.6 2565.87   1
  -1   1   9 88545.8 2577.40   8
   1  -1  -9 96532.4 1760.38   4
  -1   1   9 87156.6 2633.53   6
   1  -1  -8 58424.0 1834.70   2
  -1   1   8 60440.6 1929.42   8
   1  -1  -8 61305.9 1846.97   1
  -1   1   8 57033.2 1931.56   6
   1  -1  -8 60615.7 1252.27   4
   1  -1  -7 53652.2 1044.55   9
  -1   1   7 53321.1 1750.06   8
   1  -1  -7 58031.9 1204.71   4
   1  -1  -7 55192.7 1674.99   2
   1  -1  -7 56399.4 1643.74   1
  -1   1   7 56472.6 1823.91   6
  -1   1   6 20179.4 942.002   8
  -1   1   6 19072.7 468.340   7
   1  -1  -6 22183.6 614.536   4
   1  -1  -6 20821.4 843.137   1
  -1   1   6 21606.2 998.624   6
   1  -1  -6 21685.7 879.900   2
  -1   1   5 7966.09 440.210   2
  -1   1   5 7671.94 421.493   1
  -1   1   5 8347.57 569.151   6
   1  -1  -5 8011.69 341.678   4
   1  -1  -5 7231.00 450.988   1
  -1   1   5 8037.28 548.725   8
   1  -1  -5 7276.12 455.776   2
  -1   1   5 7935.79 292.394   7
  -1   1   4 172856. 3775.71   8
  -1   1   4 190091. 3522.39   1
   1  -1  -4 180485. 3519.50   2
   1  -1  -4 191694. 3308.18   4
   1  -1  -4 180340. 3572.06   1
  -1   1   4 183149. 3495.01   2
   1  -1  -3 250294. 4549.03   1
  -1   1   3 242115. 4790.84   8
   1  -1  -3 255472. 4288.58   4
  -1   1   3 236779. 4308.06   4
  -1   1   3 248537. 4481.30   1
  -1   1   3 250072. 4407.10   2
   1  -1  -3 245493. 4404.99   2
   1  -1  -2 296268. 5101.64   1
   1  -1  -2 279712. 4850.13   2
   1  -1  -2 289592. 4820.43   4
  -1   1   2 273367. 4870.13   2
  -1   1   2 284386. 5020.85   1
  -1   1   2 273618. 4822.66   4
   1  -1  -1 48028.0 1153.74   1
  -1   1   1 44830.5 998.106   4
  -1   1   1 48575.0 999.220   2
   1  -1  -1 46818.0 981.254   2
   1  -1  -1 46030.9 1006.30   4
   1  -1   0 1059.89 95.9038   3
  -1   1   0 1055.43 109.286   4
   1  -1   0 1182.34 71.4885   2
  -1   1   0 963.977 89.9200   3
   1  -1   1 55701.2 1137.98   8
   1  -1   1 54504.8 1133.45   3
  -1   1  -1 57172.8 1139.44   3
  -1   1  -1 54032.1 1158.32   4
  -1   1  -1 57774.3 1084.76   6
   1  -1   2 178237. 3114.31   6
   1  -1   2 187615. 3240.63   3
  -1   1  -2 183029. 3117.70   6
  -1   1  -2 180463. 3203.33   4
   1  -1   2 187749. 3194.41   2
   1  -1   2 173520. 3224.87   8
  -1   1  -2 182088. 3241.55   3
   1  -1   2 178681. 3190.41   4
  -1   1  -3 239793. 4239.31   3
   1  -1   3 234007. 4043.57   6
  -1   1  -3 238530. 4119.78   4
  -1   1  -3 238106. 4067.26   6
   1  -1   3 230293. 4084.89   4
   1  -1   3 230759. 4204.17   8
  -1   1  -4 266110. 4906.61   2
  -1   1  -4 281212. 4748.29   6
   1  -1   4 265730. 4905.36   8
  -1   1  -4 275996. 4746.13   4
   1  -1   4 277986. 4791.55   1
   1  -1   4 269195. 4711.88   6
   1  -1   4 271569. 4715.33   4
  -1   1  -4 278723. 4951.72   3
   1  -1   4 279723. 4930.59   2
   1  -1   5 174850. 3248.07   4
   1  -1   5 194204. 3366.82   1
   1  -1   5 178641. 3299.03   6
  -1   1  -5 186577. 3376.01   6
  -1   1  -5 185022. 3474.05   8
  -1   1  -5 183335. 3580.95   3
  -1   1  -5 179984. 3554.35   2
  -1   1  -5 181520. 3294.26   4
   1  -1   5 176152. 3535.16   8
  -1   1  -6 35708.8 1165.21   3
  -1   1  -6 35716.4 912.157   4
  -1   1  -6 34901.3 1149.39   2
   1  -1   6 35708.7 1152.07   8
   1  -1   6 37603.0 974.635   1
   1  -1   6 35392.3 873.323   4
  -1   1  -6 37002.4 1032.91   6
   1  -1   6 34981.9 945.761   6
   1  -1   7 446.830 154.393   8
   1  -1   7 454.799 117.462   6
  -1   1  -7 567.221 190.560   2
  -1   1  -7 308.539 156.292   3
  -1   1  -7 581.363 112.875   4
  -1   1  -8 93097.5 2469.93   3
   1  -1   8 94537.8 2116.19   6
  -1   1  -8 95146.0 1950.13   4
   1  -1   8 96844.1 2475.74   8
   1  -1   9 78266.7 2245.57   8
  -1   1  -9 72391.8 1453.72   7
  -1   1  -9 75143.4 2197.99   3
  -1   1  -9 72999.3 1336.95   7
  -1   1  -9 77769.3 1628.97   4
   1  -1   9 76461.1 1856.44   6
  -1   1 -10 84836.9 2496.79   3
  -1   1 -10 81557.6 1730.94   4
   1  -1  10 86760.2 2528.31   8
   1  -1  10 84023.1 2104.45   6
   1  -1  11 29508.6 1140.61   6
   1  -1  11 28874.6 1434.31   8
  -1   1 -11 28913.4 1404.44   3
   1  -1  12 4056.25 420.391   6
  -1   1 -12 3554.59 528.884   3
   1  -1  12 4902.85 636.013   8
  -1   1 -13 2209.75 473.076   3
   1  -1  13 2075.62 487.400   8
   1  -1  13 2217.58 351.721   6
  -1   1 -14 5837.99 776.414   3
   1  -1  14 7213.63 842.421   8
  -1   1 -15 15897.3 1282.95   3
   1  -1  15 16753.9 1251.98   8
  -1   0  15 12707.5 1041.20   8
   1   0 -14 16998.4 1357.30   3
  -1   0  14 21040.3 1358.99   8
  -1   0  13 9910.50 914.247   8
  -1   0  13 7501.06 798.406   6
   1   0 -13 7919.13 819.439   1
   1   0 -13 8496.50 918.812   3
  -1   0  12 122.554 261.197   6
  -1   0  12 368.367 240.428   8
   1   0 -12 318.882 265.820   1
   1   0 -12 386.502 303.521   3
   1   0 -11 8248.82 756.166   1
  -1   0  11 9054.55 793.048   8
   1   0 -11 8361.04 785.507   3
  -1   0  11 7020.26 731.026   6
   1   0 -10 45558.2 1733.52   1
   1   0 -10 47566.3 1826.86   3
  -1   0  10 45479.2 1834.66   8
   1   0 -10 45812.6 1753.69   2
  -1   0  10 46153.4 1826.55   6
  -1   0   9 95497.7 2724.20   6
  -1   0   9 94209.0 2742.74   8
   1   0  -9 95274.0 2626.32   2
   1   0  -9 93966.6 2575.49   1
   1   0  -9 96410.9 2680.60   3
   1   0  -8 161150. 3590.70   2
   1   0  -8 157294. 3490.36   1
   1   0  -8 155341. 3598.54   3
  -1   0   8 160038. 3801.30   8
  -1   0   8 147060. 3637.51   6
  -1   0   7 57540.8 1834.43   6
   1   0  -7 61855.6 1762.99   2
   1   0  -7 57920.1 1756.26   3
   1   0  -7 58204.8 1657.50   1
  -1   0   7 61828.2 1965.25   8
   1   0  -6 733.487 164.432   1
   1   0  -6 710.423 188.416   3
   1   0  -6 678.145 165.694   2
  -1   0   6 716.840 189.086   6
  -1   0   6 734.784 198.772   8
   1   0  -5 8667.55 486.195   2
  -1   0   5 8006.74 531.122   6
   1   0  -5 8089.38 236.471   4
   1   0  -5 7254.36 430.467   1
   1   0  -5 8134.07 245.668   9
  -1   0   5 8592.17 598.283   8
   1   0  -5 7889.12 517.565   8
  -1   0   5 10238.6 494.115   2
  -1   0   5 9233.99 432.890   1
  -1   0   4 204475. 4163.15   8
   1   0  -4 200110. 3748.21   2
   1   0  -4 196808. 3365.36   9
   1   0  -4 195912. 3714.15   1
   1   0  -4 197295. 3339.32   4
   1   0  -4 206195. 4054.56   8
  -1   0   4 205515. 3731.15   2
  -1   0   4 204702. 3675.00   1
   1   0  -3 471581. 7519.68   4
   1   0  -3 445796. 7809.31   1
  -1   0   3 464225. 7783.44   2
  -1   0   3 476861. 7799.71   1
   1   0  -3 453875. 7798.90   2
  -1   0   3 453238. 8244.95   8
  -1   0   2 444249. 8154.48   8
   1   0  -2 470076. 7675.39   2
  -1   0   2 469158. 7663.23   2
   1   0  -2 450367. 7737.64   1
  -1   0   2 470743. 7528.87   4
   1   0  -2 484297. 7529.47   4
   1   0  -1 253117. 4170.64   4
   1   0  -1 250103. 4311.29   1
  -1   0   1 256104. 4172.86   4
  -1   0   1 252357. 4165.95   2
   1   0  -1 250288. 4168.61   2
  -1   0   0 16031.3 401.281   4
   1   0   0 17616.9 476.737   1
   1   0   1 85859.1 1498.88   3
  -1   0  -1 84047.1 1497.37   3
  -1   0  -1 84888.6 1565.84   4
   1   0   1 84265.9 1559.96   1
   1   0   1 88080.2 1495.90   2
   1   0   1 85352.7 1534.80   6
  -1   0  -1 85976.2 1482.56   2
   1   0   2 286835. 4977.43   8
   1   0   2 306805. 4985.21   3
  -1   0  -2 296545. 4972.30   4
  -1   0  -2 292602. 4971.05   3
   1   0   2 299006. 4956.92   4
  -1   0  -2 295436. 4978.99   2
   1   0   2 283127. 4945.49   6
   1   0   2 304246. 4983.36   2
  -1   0  -2 294811. 4953.65   6
   1   0   3 530103. 8952.63   1
   1   0   3 530698. 9003.57   4
   1   0   3 525209. 9082.32   8
  -1   0  -3 548328. 9138.06   2
  -1   0  -3 539137. 9053.61   6
   1   0   3 559656. 9143.63   3
  -1   0  -3 544866. 9080.89   8
  -1   0  -3 547993. 9144.33   3
   1   0   3 546639. 9134.83   2
  -1   0  -3 535955. 9029.16   4
   1   0   3 517297. 9027.57   6
   1   0   4 398540. 7003.73   8
  -1   0  -4 425160. 6984.35   6
   1   0   4 410573. 6810.01   1
   1   0   4 407376. 6844.73   4
  -1   0  -4 414866. 7078.97   3
   1   0   4 396248. 6930.67   6
  -1   0  -4 401339. 6868.80   4
  -1   0  -4 403754. 7080.25   2
  -1   0  -4 420420. 6981.79   8
   1   0   4 413786. 7064.84   2
  -1   0  -5 85378.5 1800.75   6
  -1   0  -5 78759.7 1629.03   4
  -1   0  -5 83383.1 1764.01   8
   1   0   5 80794.5 1457.46   9
   1   0   5 79952.7 1820.32   8
  -1   0  -5 80612.7 1878.79   2
  -1   0  -5 81642.6 1877.84   3
   1   0   5 84972.0 1618.68   1
   1   0   5 79225.7 1725.33   6
   1   0   6 30298.0 1001.47   8
  -1   0  -6 32038.0 990.455   6
  -1   0  -6 31564.4 1057.17   3
   1   0   6 31313.3 805.742   1
  -1   0  -6 29695.0 1026.93   2
  -1   0  -6 31463.6 668.015   7
   1   0   6 29840.3 606.689   9
   1   0   6 29677.1 914.102   6
  -1   0  -6 29670.0 798.001   4
   1   0   7 26296.8 1004.21   8
  -1   0  -7 27390.0 602.372   7
  -1   0  -7 25393.9 1014.28   3
  -1   0  -7 25468.5 1034.39   2
   1   0   7 26519.8 907.555   6
  -1   0  -7 27807.9 764.125   4
   1   0   7 28050.9 777.430   1
  -1   0  -8 58230.4 1085.64   7
   1   0   8 58262.6 1577.83   6
  -1   0  -8 56395.2 1750.22   3
  -1   0  -8 57872.2 1329.60   4
  -1   0  -8 57332.3 1770.64   2
   1   0   8 57788.8 1722.09   8
  -1   0  -9 162539. 3026.14   4
   1   0   9 156858. 3404.20   6
  -1   0  -9 162249. 3728.04   2
  -1   0  -9 153709. 3677.62   3
   1   0   9 154297. 3618.38   8
   1   0  10 91646.8 2334.19   6
  -1   0 -10 87114.4 1833.07   4
  -1   0 -10 82786.1 2519.69   3
  -1   0 -10 86359.4 2559.37   2
   1   0  10 88256.2 2555.89   8
  -1   0 -11 29473.4 1423.81   2
   1   0  11 31033.9 1459.16   8
   1   0  11 30246.8 1257.87   6
  -1   0 -11 29778.2 1443.09   3
  -1   0 -11 30024.6 818.287   4
   1   0  12 4966.73 622.154   8
  -1   0 -12 4174.56 585.048   3
   1   0  12 4864.62 516.612   6
   1   0  13 1136.68 278.126   6
   1   0  13 1407.22 388.983   8
  -1   0 -13 1671.38 454.206   3
   1   0  14 17522.9 1216.42   8
  -1   0 -14 14608.6 1231.68   3
   1   0  14 14042.0 934.578   6
  -1   0 -15 11942.4 1140.96   3
   1   0  15 12029.8 1018.41   8
  -1  -1  14 9341.57 973.133   8
   1   1 -14 9301.34 968.908   3
   1   1 -13 9977.83 972.380   3
  -1  -1  13 10344.5 987.100   8
   1   1 -12 142.966 282.056   3
  -1  -1  12 508.247 329.572   8
  -1  -1  12 1009.45 278.543   6
  -1  -1  11 14537.4 1082.50   8
  -1  -1  11 13390.4 908.317   6
   1   1 -11 14168.6 1002.32   3
   1   1 -11 13602.2 979.873   1
   1   1 -10 43906.6 1691.59   1
  -1  -1  10 43954.5 1654.89   6
   1   1 -10 42850.9 1712.76   3
  -1  -1  10 44253.7 1895.81   8
   1   1  -9 81438.4 2433.47   3
  -1  -1   9 86649.5 2418.01   6
  -1  -1   9 89774.8 2763.40   8
   1   1  -9 85928.9 2405.23   1
  -1  -1   8 106647. 2708.38   6
   1   1  -8 108686. 2766.48   3
  -1  -1   8 112687. 3028.27   8
   1   1  -8 106196. 2654.47   1
  -1  -1   7 43226.5 1583.08   8
   1   1  -7 39537.0 1366.97   3
  -1  -1   7 40792.8 1384.48   6
   1   1  -7 41130.2 1331.36   1
  -1  -1   6 246.856 129.592   6
   1   1  -6 518.687 165.982   3
  -1  -1   6 417.302 179.107   8
   1   1  -6 137.199 125.178   1
   1   1  -5 144372. 2974.78   1
  -1  -1   5 142208. 3228.48   8
   1   1  -5 148706. 3038.44   3
  -1  -1   5 148780. 3127.02   6
   1   1  -4 180738. 3348.76   1
  -1  -1   4 173588. 3567.43   8
  -1  -1   4 186443. 3300.53   1
  -1  -1   4 167729. 2968.36   7
   1   1  -4 180084. 3374.56   3
  -1  -1   4 163684. 3417.07   6
  -1  -1   4 183736. 3347.48   2
   1   1  -3 308434. 5174.09   9
   1   1  -3 304307. 5402.22   1
   1   1  -3 313528. 5068.82   7
  -1  -1   3 305169. 5194.68   7
  -1  -1   3 310268. 5119.29   9
   1   1  -3 311182. 5412.70   3
  -1  -1   3 309873. 5390.73   2
  -1  -1   3 296359. 5613.46   8
  -1  -1   3 322533. 5381.33   1
   1   1  -2 292084. 4951.17   7
   1   1  -2 299290. 5137.51   3
  -1  -1   2 294660. 4997.88   9
   1   1  -2 298742. 5030.97   9
  -1  -1   2 298658. 5394.78   8
   1   1  -2 300412. 5172.98   1
  -1  -1   2 300396. 5142.39   2
  -1  -1   2 311835. 5022.87   7
   1   1  -1 162325. 2809.49   9
   1   1  -1 161180. 2760.14   7
  -1  -1   1 163479. 3117.27   8
   1   1  -1 159544. 2787.00   3
   1   1  -1 164151. 2872.82   1
  -1  -1   1 164798. 2730.11   4
  -1  -1   1 161584. 2789.21   9
  -1  -1   1 167057. 2790.00   7
  -1  -1   1 162439. 2788.92   3
   1   1   0 34444.7 716.053   7
   1   1   0 35882.1 680.643   6
  -1  -1   0 35985.3 679.634   6
  -1  -1   0 34515.7 719.332   5
   1   1   0 34602.1 720.435   1
  -1  -1   0 35834.2 731.559   9
  -1  -1  -1 7166.00 251.890   2
   1   1   1 6978.57 240.729   2
   1   1   1 6938.61 232.736   7
   1   1   1 7054.93 229.887   6
  -1  -1  -1 7097.94 240.114   9
  -1  -1  -2 123152. 2196.59   9
  -1  -1  -2 127188. 2192.77   7
  -1  -1  -2 124585. 2156.91   8
   1   1   2 123040. 2191.59   9
   1   1   2 126999. 2263.54   6
   1   1   2 122705. 2190.44   7
   1   1   2 128202. 2166.16   8
  -1  -1  -2 131622. 2436.27   2
   1   1   3 292774. 4977.62   8
  -1  -1  -3 296153. 5193.31   2
  -1  -1  -3 298425. 4912.67   9
   1   1   3 292483. 5076.27   6
  -1  -1  -3 293393. 4956.62   8
  -1  -1  -3 297165. 4915.65   7
   1   1   3 289873. 4903.24   9
  -1  -1  -3 294417. 5035.86   4
  -1  -1  -4 271511. 4641.82   1
   1   1   4 271793. 4651.90   9
   1   1   4 275186. 4836.88   8
  -1  -1  -4 273861. 5045.66   2
   1   1   4 270099. 4927.11   6
  -1  -1  -4 280641. 4673.67   7
   1   1   4 289034. 4631.64   1
  -1  -1  -4 292414. 4983.94   6
  -1  -1  -4 276967. 4830.62   4
  -1  -1  -4 285493. 4811.37   8
  -1  -1  -5 159250. 2928.36   8
   1   1   5 154104. 2722.37   1
  -1  -1  -5 162248. 3113.22   6
  -1  -1  -5 154178. 2745.75   1
   1   1   5 152128. 3021.80   6
  -1  -1  -5 151139. 2868.59   4
   1   1   5 154018. 2960.44   8
  -1  -1  -5 153218. 2685.51   7
   1   1   5 154833. 2650.83   9
  -1  -1  -5 152801. 3135.69   2
  -1  -1  -6 4534.77 198.220   7
   1   1   6 4586.92 236.568   1
   1   1   6 4767.77 336.563   8
   1   1   6 4365.78 345.267   6
  -1  -1  -6 4379.91 269.794   4
  -1  -1  -6 4458.29 302.037   8
  -1  -1  -6 4123.73 366.354   2
  -1  -1  -6 4257.62 250.007   1
  -1  -1  -6 3669.10 339.268   3
  -1  -1  -7 26366.6 770.399   4
   1   1   7 25233.6 957.457   6
  -1  -1  -7 26407.2 610.398   7
   1   1   7 24888.0 709.225   1
  -1  -1  -7 27894.1 1059.22   3
  -1  -1  -7 24652.3 1032.18   2
  -1  -1  -7 25218.4 766.769   1
   1   1   7 25476.7 940.273   8
  -1  -1  -8 70882.7 2060.68   3
  -1  -1  -8 72491.4 1695.31   1
  -1  -1  -8 71444.0 1367.04   7
   1   1   8 77032.8 1576.22   1
   1   1   8 73721.7 1973.44   8
   1   1   8 73464.6 1981.82   6
  -1  -1  -8 71344.7 1624.23   4
  -1  -1  -8 75318.1 2106.88   2
  -1  -1  -9 82560.2 2022.86   1
  -1  -1  -9 89675.4 2482.70   2
   1   1   9 89529.0 2363.02   8
  -1  -1  -9 85952.3 2464.43   3
  -1  -1  -9 90641.4 1928.93   4
   1   1   9 86877.7 2328.89   6
  -1  -1 -10 68344.8 2214.80   2
  -1  -1 -10 68662.5 1597.82   4
   1   1  10 67998.1 2068.56   6
   1   1  10 69620.6 2134.83   8
  -1  -1 -10 64470.8 2174.45   3
  -1  -1 -11 27937.1 1420.37   3
  -1  -1 -11 30415.5 893.431   4
   1   1  11 30087.4 1379.46   8
  -1  -1 -11 27545.0 1402.35   2
   1   1  11 28661.4 1323.29   6
  -1  -1 -12 2271.81 474.767   2
   1   1  12 1638.29 375.373   8
  -1  -1 -12 1425.98 387.083   3
   1   1  12 2068.33 399.493   6
   1   1  13 354.621 249.369   6
  -1  -1 -13 433.713 348.947   3
  -1  -1 -13 518.196 333.450   2
   1   1  13 401.029 265.168   8
   1   1  14 5527.72 668.898   8
  -1  -1 -14 4946.23 777.748   3
   1   1  14 4609.54 615.280   6
  -1  -1 -15 14634.5 1298.76   3
   1   1  15 14993.0 1114.25   6
   1   1  15 16530.3 1136.35   8
   1   1  16 7952.40 804.406   8
   1   2 -14 15851.6 1249.82   3
  -1  -2  14 16013.2 1314.06   8
   1   2 -13 4503.60 677.859   3
  -1  -2  13 4309.46 704.871   8
  -1  -2  12 101.535 311.392   8
   1   2 -12 132.585 261.122   3
  -1  -2  11 4386.96 668.685   8
   1   2 -11 4666.23 587.095   3
  -1  -2  10 30158.6 1572.68   8
  -1  -2  10 28037.5 1103.57   6
   1   2 -10 29171.9 1364.10   3
  -1  -2   9 53229.7 2019.55   8
  -1  -2   9 51527.8 1518.10   6
   1   2  -9 50610.0 1777.50   3
   1   2  -9 47572.2 1699.66   1
   1   2  -8 26607.9 1152.56   3
  -1  -2   8 26406.6 958.416   6
  -1  -2   8 25946.0 1273.25   8
   1   2  -8 25191.6 1097.92   1
   1   2  -7 47546.0 1488.18   1
  -1  -2   7 47757.0 1311.13   6
  -1  -2   7 47614.3 1676.56   8
   1   2  -7 46564.0 1510.14   3
  -1  -2   6 1058.98 232.600   8
  -1  -2   6 995.244 149.126   6
  -1  -2   6 798.232 76.2862   9
   1   2  -6 944.046 190.495   1
   1   2  -6 1009.82 72.1432   7
   1   2  -6 1090.19 214.108   3
   1   2  -5 1177.26 203.331   3
   1   2  -5 1669.53 107.427   7
  -1  -2   5 1519.83 113.489   9
  -1  -2   5 1725.35 182.575   6
   1   2  -5 1690.97 231.366   1
  -1  -2   5 1256.25 228.937   8
  -1  -2   4 108466. 2475.37   8
   1   2  -4 113108. 2022.67   7
  -1  -2   4 119747. 2357.75   3
   1   2  -4 109694. 2349.40   3
  -1  -2   4 110167. 2169.83   6
  -1  -2   4 111977. 2044.45   9
  -1  -2   4 112514. 2352.31   2
   1   2  -4 109037. 2368.40   1
   1   2  -3 132369. 2319.83   7
  -1  -2   3 129779. 2331.80   9
  -1  -2   3 132796. 2530.39   3
  -1  -2   3 125350. 2620.40   8
  -1  -2   3 131537. 2501.02   7
   1   2  -3 128569. 2552.24   1
  -1  -2   3 122711. 2189.24   4
   1   2  -3 125611. 2519.07   3
  -1  -2   3 124672. 2360.55   6
  -1  -2   2 141589. 2548.51   9
   1   2  -2 144949. 2685.56   1
  -1  -2   2 137386. 2625.52   3
  -1  -2   2 145686. 2723.70   7
   1   2  -2 141498. 2635.16   3
   1   2  -2 139745. 2551.49   7
  -1  -2   2 136554. 2710.18   8
   1   2  -2 142589. 2762.73   8
   1   2  -1 140794. 2524.26   3
  -1  -2   1 146691. 2647.81   7
  -1  -2   1 137014. 2528.54   9
  -1  -2   1 137500. 2517.60   3
  -1  -2   1 142327. 2576.22   5
   1   2  -1 138215. 2632.28   8
   1   2  -1 141707. 2545.44   7
   1   2  -1 139035. 2573.05   1
  -1  -2   1 137600. 2571.69   8
   1   2   0 2573.62 179.017   7
  -1  -2   0 3469.03 196.958   9
  -1  -2   0 2728.29 148.650   3
  -1  -2   0 3130.55 170.589   1
   1   2   0 2812.67 117.848   6
  -1  -2   0 3129.06 128.231   6
   1   2   0 2967.61 172.648   1
   1   2   0 3058.81 188.688   8
   1   2   0 2899.79 157.527   3
  -1  -2   0 2831.19 169.248   5
  -1  -2   0 2805.17 151.860   8
  -1  -2  -1 48945.0 1001.74   3
  -1  -2  -1 48809.6 990.064   6
  -1  -2  -1 47871.6 1034.59   2
  -1  -2  -1 45569.9 1038.95   9
   1   2   1 48867.2 977.642   6
  -1  -2  -1 48265.6 1008.29   5
  -1  -2  -1 48710.3 946.056   1
   1   2   1 47308.6 1060.72   7
   1   2   2 145214. 2628.66   7
  -1  -2  -2 142971. 2714.03   2
   1   2   2 143883. 2598.78   9
  -1  -2  -2 138918. 2613.21   9
   1   2   2 142765. 2637.47   6
  -1  -2  -2 148426. 2635.47   7
  -1  -2  -3 239104. 3921.99   8
   1   2   3 234725. 4220.77   6
  -1  -2  -3 228697. 3931.96   1
   1   2   3 237231. 3922.80   8
  -1  -2  -3 237630. 4085.72   7
  -1  -2  -3 233448. 4393.32   2
   1   2   3 228128. 4092.22   7
  -1  -2  -3 230481. 4077.76   9
  -1  -2  -4 134762. 2926.77   2
  -1  -2  -4 131335. 2493.44   9
  -1  -2  -4 140086. 2525.05   7
   1   2   4 137166. 2398.00   1
  -1  -2  -4 138989. 2376.67   1
   1   2   4 134097. 2732.64   6
  -1  -2  -4 135086. 2467.67   8
   1   2   4 137360. 2476.26   8
   1   2   4 131144. 2510.83   7
   1   2   5 93726.2 1863.57   7
  -1  -2  -5 95830.8 1922.44   8
   1   2   5 95230.8 2197.10   6
  -1  -2  -5 97073.1 2214.13   6
   1   2   5 93989.5 1941.22   8
   1   2   5 98227.2 1817.22   1
  -1  -2  -5 94813.4 2305.70   2
  -1  -2  -5 96016.3 1789.63   1
  -1  -2  -5 97180.6 1845.22   9
  -1  -2  -5 97497.3 1880.64   7
  -1  -2  -6 53148.5 1163.75   1
  -1  -2  -6 54822.0 1191.82   7
   1   2   6 54311.7 1156.63   7
   1   2   6 52668.9 1343.96   8
  -1  -2  -6 54492.8 1137.19   9
  -1  -2  -6 55542.5 1640.97   2
   1   2   6 55132.7 1182.92   1
   1   2   6 51933.5 1528.26   6
  -1  -2  -6 53057.9 1310.01   8
  -1  -2  -7 2028.29 163.757   7
   1   2   7 1596.13 259.401   6
  -1  -2  -7 1965.38 144.943   9
  -1  -2  -7 2098.94 226.497   8
   1   2   7 1528.13 211.518   8
  -1  -2  -7 1968.56 298.595   2
  -1  -2  -7 2045.62 184.226   1
   1   2   7 2245.52 184.071   1
   1   2   8 25433.4 746.166   1
  -1  -2  -8 25322.9 871.226   4
   1   2   8 24476.6 1094.13   6
  -1  -2  -8 23293.3 1105.99   2
  -1  -2  -8 23074.2 776.264   1
   1   2   8 25118.8 978.627   8
  -1  -2  -8 25374.7 665.305   7
  -1  -2  -9 18108.1 745.739   4
   1   2   9 17675.2 629.996   1
   1   2   9 15917.3 919.156   6
   1   2   9 18302.4 889.372   8
  -1  -2  -9 18091.2 1010.56   2
  -1  -2  -9 16904.2 690.857   1
  -1  -2 -10 43096.1 1721.53   2
   1   2  10 42963.9 1679.99   6
  -1  -2 -10 39753.1 1714.57   3
  -1  -2 -10 42990.5 1263.79   4
  -1  -2 -10 39803.1 1272.41   1
   1   2  10 46184.8 1580.80   8
   1   2  11 25049.1 1176.60   8
  -1  -2 -11 19800.0 1248.67   3
   1   2  11 21648.0 1209.90   6
  -1  -2 -11 22064.2 949.628   1
  -1  -2 -11 24400.1 1333.91   2
  -1  -2 -11 22772.1 869.681   4
   1   2  12 7143.27 644.141   8
  -1  -2 -12 6069.79 725.653   2
   1   2  12 6581.21 704.709   6
  -1  -2 -12 5814.78 743.334   3
   1   2  13 27.9565 222.516   6
  -1  -2 -13-123.837 300.098   2
  -1  -2 -13 168.230 274.993   3
   1   2  13 94.1046 220.856   8
   1   2  14 5241.84 611.744   8
  -1  -2 -14 3972.76 682.966   2
   1   2  14 4110.78 630.589   6
  -1  -2 -14 3431.61 666.045   3
   1   2  15 8628.24 925.086   6
  -1  -2 -15 9647.33 1069.49   2
  -1  -2 -15 9082.77 1103.26   3
   1   2  15 9329.86 815.973   8
   1   2  16 12911.6 972.806   8
   1   3 -13 10194.7 947.652   3
  -1  -3  13 12395.1 1219.57   8
   1   3 -12 1502.19 428.468   3
  -1  -3  12 390.309 342.657   8
   1   3 -11 2040.10 408.197   3
  -1  -3  11 2058.34 479.502   8
  -1  -3  10 23768.8 1405.57   8
   1   3 -10 24049.9 1257.92   3
  -1  -3  10 24392.7 824.379   6
  -1  -3   9 41852.1 1783.01   8
  -1  -3   9 43639.5 1175.52   6
   1   3  -9 43355.9 1656.98   3
  -1  -3   8 74621.4 2339.54   8
   1   3  -8 76603.4 2201.45   3
   1   3  -8 72668.6 1300.19   7
  -1  -3   8 77135.6 1658.23   6
   1   3  -7 22779.8 564.218   7
   1   3  -7 21452.3 991.137   3
  -1  -3   7 21703.4 556.466   9
  -1  -3   7 22735.6 675.124   6
  -1  -3   7 22233.1 1090.86   8
  -1  -3   6 21407.9 596.254   6
  -1  -3   6 21819.5 987.426   8
  -1  -3   6 21891.8 593.780   9
   1   3  -6 22685.1 607.949   7
   1   3  -6 21630.6 925.853   3
  -1  -3   5 254.135 47.3048   4
  -1  -3   5 211.324 134.572   8
   1   3  -5 282.741 81.7883   7
  -1  -3   5 383.980 64.0521   6
   1   3  -5 382.687 160.287   3
  -1  -3   5 317.768 72.4120   9
  -1  -3   4 41288.4 1234.70   8
  -1  -3   4 40959.2 781.387   6
   1   3  -4 40701.6 1197.96   3
  -1  -3   4 41139.6 873.716   4
  -1  -3   4 40413.7 991.944   9
   1   3  -4 41735.7 1018.52   7
  -1  -3   3 107658. 2310.14   7
   1   3  -3 107205. 2269.26   3
  -1  -3   3 115039. 2269.98   3
  -1  -3   3 106728. 2116.49   9
  -1  -3   3 106015. 2019.86   4
   1   3  -3 109095. 2180.05   7
  -1  -3   3 104585. 2289.38   8
   1   3  -2 256592. 4553.40   8
  -1  -3   2 248672. 4422.31   4
   1   3  -2 247010. 4503.71   7
   1   3  -2 249492. 4531.75   5
  -1  -3   2 251799. 4482.71   3
   1   3  -2 244324. 4482.88   3
  -1  -3   2 243587. 4476.50   8
  -1  -3   2 244073. 4436.11   9
   1   3  -1 212588. 3883.42   7
   1   3  -1 205849. 3767.08   3
  -1  -3   1 206178. 3760.86   3
  -1  -3   1 203165. 3791.46   9
  -1  -3   1 225441. 4080.06   7
   1   3  -1 217622. 3773.96   8
  -1  -3   1 211415. 3779.00   5
  -1  -3   1 202708. 3689.53   8
   1   3  -1 205730. 3774.80   5
   1   3   0 64177.9 1368.75   3
   1   3   0 66638.5 1314.53   8
  -1  -3   0 65330.8 1293.53   6
  -1  -3   0 69347.9 1604.34   7
   1   3   0 65401.2 1219.31   6
  -1  -3   0 64689.6 1373.40   5
   1   3   0 63539.6 1363.65   5
  -1  -3   0 63507.9 1449.22   9
  -1  -3   0 64948.7 1256.62   8
   1   3   0 63514.3 1529.09   7
  -1  -3   0 63275.2 1366.09   3
   1   3   1 715.403 97.6224   6
   1   3   1 513.649 120.833   7
  -1  -3  -1 577.902 106.476   2
   1   3   1 418.853 92.3288   3
   1   3   1 604.839 61.5742   8
  -1  -3  -1 669.460 106.275   6
  -1  -3  -1 653.581 99.1071   3
  -1  -3  -1 551.914 89.4265   5
  -1  -3  -1 734.367 57.0326   8
  -1  -3  -2 97456.4 2015.55   6
  -1  -3  -2 95423.7 1993.51   9
  -1  -3  -2 96086.5 2018.63   3
  -1  -3  -2 96925.4 2041.85   7
  -1  -3  -2 94502.0 1960.31   2
   1   3   2 93877.2 1944.10   6
   1   3   2 91509.7 2039.59   7
  -1  -3  -3 154249. 3103.25   2
   1   3   3 154752. 3071.12   6
  -1  -3  -3 159466. 3129.48   6
  -1  -3  -3 151694. 2983.99   9
  -1  -3  -3 162003. 3025.38   7
   1   3   3 153751. 3044.20   7
  -1  -3  -4 203558. 4147.70   2
  -1  -3  -4 217493. 3877.82   7
  -1  -3  -4 206130. 3842.25   9
   1   3   4 204756. 4060.06   6
   1   3   4 198190. 3878.56   7
  -1  -3  -4 212973. 3686.76   1
   1   3   4 207975. 3568.73   8
   1   3   5 97408.9 2365.98   6
  -1  -3  -5 100688. 2024.14   8
   1   3   5 100044. 1949.36   8
  -1  -3  -5 99021.2 1999.75   1
  -1  -3  -5 103856. 2109.24   7
  -1  -3  -5 96651.6 2080.39   9
  -1  -3  -5 98406.4 2406.41   2
   1   3   5 99630.7 2121.21   7
  -1  -3  -6 60138.7 1351.80   1
   1   3   6 56206.0 1354.00   8
   1   3   6 56865.9 1398.13   7
  -1  -3  -6 54134.3 1711.58   2
   1   3   6 55347.6 1700.10   6
   1   3   6 57920.7 1284.18   1
  -1  -3  -6 59606.9 1388.93   7
  -1  -3  -6 57676.7 1406.20   8
  -1  -3  -6 55571.8 1363.40   9
   1   3   7 2609.76 241.300   7
  -1  -3  -7 2903.82 242.835   1
  -1  -3  -7 2556.29 225.674   7
   1   3   7 2734.09 217.841   1
  -1  -3  -7 2604.84 251.283   8
  -1  -3  -7 2212.57 340.104   2
   1   3   7 2946.20 376.193   6
  -1  -3  -7 2908.43 238.569   9
   1   3   7 2759.77 267.817   8
  -1  -3  -8 22967.9 718.459   7
   1   3   8 23222.7 903.956   8
   1   3   8 22596.2 734.692   1
   1   3   8 23126.9 1134.89   6
  -1  -3  -8 24927.0 734.090   9
   1   3   8 22657.8 736.885   7
  -1  -3  -8 22172.5 776.119   1
  -1  -3  -8 21361.8 1111.13   2
  -1  -3  -9 93272.6 1799.70   9
  -1  -3  -9 91887.7 2705.42   2
   1   3   9 90137.9 2255.67   8
   1   3   9 87771.0 2637.76   6
   1   3   9 89912.8 1948.01   1
  -1  -3 -10 62468.1 1824.70   4
  -1  -3 -10 57080.9 2141.61   2
   1   3  10 57735.4 2118.52   6
   1   3  10 58212.4 1768.32   8
  -1  -3 -10 55052.7 1561.99   1
   1   3  11 48281.7 2011.10   6
   1   3  11 51559.0 1725.31   8
  -1  -3 -11 49799.7 1520.73   1
  -1  -3 -11 56197.2 2191.88   2
  -1  -3 -11 56758.9 1710.59   4
  -1  -3 -12 15725.3 1177.34   2
  -1  -3 -12 15385.6 1246.90   3
   1   3  12 15804.7 1132.36   6
  -1  -3 -12 18384.1 868.399   4
  -1  -3 -12 15948.2 815.693   1
   1   3  12 15809.5 931.099   8
  -1  -3 -13-178.342 374.616   2
   1   3  13 157.237 297.373   6
  -1  -3 -13-260.673 414.075   3
   1   3  13 584.091 229.466   8
   1   3  14 4919.55 698.000   6
  -1  -3 -14 5583.95 792.429   2
  -1  -3 -14 4618.94 823.684   3
   1   3  14 5416.80 583.869   8
   1   3  15 5947.03 748.750   6
  -1  -3 -15 6045.08 992.155   3
   1   3  15 7292.80 686.748   8
  -1  -3 -15 7454.17 907.628   2
   1   3  16 9876.34 803.211   8
   1   3  16 10325.6 997.725   6
  -1  -4  13 4033.15 741.100   8
   1   4 -13 4828.18 721.904   5
   1   4 -13 3925.73 627.727   3
  -1  -4  12 2431.01 594.983   8
   1   4 -12 1696.54 444.919   3
   1   4 -11 1318.27 382.363   3
  -1  -4  11 1423.43 413.635   8
  -1  -4  10 19273.8 1265.89   8
   1   4 -10 19247.7 1144.74   3
   1   4  -9 62993.2 2098.44   3
  -1  -4   9 57248.6 2159.51   8
  -1  -4   8 101188. 1871.76   6
   1   4  -8 103772. 1959.83   7
  -1  -4   8 104382. 2896.74   8
   1   4  -7 100646. 1991.25   7
  -1  -4   7 96191.4 1733.86   6
   1   4  -7 93995.9 2527.65   3
  -1  -4   7 97096.5 1911.96   9
  -1  -4   7 96266.8 2619.57   8
  -1  -4   6 27812.9 1148.26   8
  -1  -4   6 27403.5 639.502   4
   1   4  -6 28328.9 844.265   7
  -1  -4   6 26958.1 522.624   6
   1   4  -6 29509.0 1129.58   5
  -1  -4   6 26787.6 774.954   9
   1   4  -6 26870.0 1095.88   3
  -1  -4   5 4032.08 221.706   4
   1   4  -5 3480.81 353.789   5
   1   4  -5 4070.09 306.463   7
  -1  -4   5 3703.20 260.162   9
   1   4  -5 3594.87 367.398   3
  -1  -4   5 3692.96 375.468   8
  -1  -4   4 54323.5 1495.64   8
  -1  -4   4 54470.2 1301.10   9
   1   4  -4 54889.9 1404.48   7
   1   4  -4 55059.2 1510.45   3
   1   4  -4 52850.4 1491.29   5
  -1  -4   4 52405.2 1207.67   4
   1   4  -3 319834. 5783.79   7
  -1  -4   3 311083. 5630.71   9
   1   4  -3 313509. 5777.19   3
  -1  -4   3 324062. 5558.23   4
  -1  -4   3 314839. 5726.13   8
   1   4  -2 203419. 4023.52   7
   1   4  -2 209518. 3951.95   3
  -1  -4   2 217652. 4254.42   7
  -1  -4   2 213274. 3942.87   3
  -1  -4   2 209377. 3916.41   4
   1   4  -2 209878. 3918.91   8
  -1  -4   2 202352. 3853.86   8
  -1  -4   1 207028. 3922.91   4
   1   4  -1 204115. 3775.47   3
  -1  -4   1 205991. 3769.18   3
  -1  -4   1 201070. 3731.53   5
   1   4  -1 200646. 3943.94   7
   1   4  -1 199468. 3700.01   8
   1   4  -1 198514. 3348.23   6
  -1  -4   1 196165. 3622.81   8
  -1  -4   0 85694.3 1854.56   3
   1   4   0 86210.5 1647.97   6
  -1  -4   0 85015.3 1800.40   5
   1   4   0 87896.3 1722.73   8
   1   4   0 84230.3 2052.40   7
   1   4   0 84305.7 1855.48   3
  -1  -4   0 86921.0 1664.77   8
   1   4   0 84144.1 1796.12   5
  -1  -4  -1 11448.4 321.759   8
  -1  -4  -1 11000.8 477.733   3
   1   4   1 10748.9 433.141   5
   1   4   1 11323.3 448.638   6
   1   4   1 11038.0 594.397   7
   1   4   1 10844.7 486.358   3
  -1  -4  -1 11548.3 495.155   2
  -1  -4  -1 11209.1 450.419   5
   1   4   1 11012.3 342.106   8
   1   4   2 108919. 2310.33   6
   1   4   2 110722. 2495.09   7
  -1  -4  -2 110013. 2195.65   5
  -1  -4  -2 107862. 2287.59   2
  -1  -4  -2 113600. 2318.83   3
   1   4   2 109399. 1872.10   8
  -1  -4  -3 237837. 4456.71   7
   1   4   3 226063. 4490.28   7
   1   4   3 229204. 4433.90   6
  -1  -4  -3 224147. 4366.58   2
  -1  -4  -3 237673. 4525.96   6
   1   4   4 343836. 6522.81   6
  -1  -4  -4 373178. 6407.16   7
   1   4   4 353239. 5833.32   8
   1   4   4 343428. 6415.88   7
  -1  -4  -4 372939. 6597.39   6
  -1  -4  -4 338861. 6469.67   2
  -1  -4  -4 341749. 6078.76   1
   1   4   5 109804. 2500.95   7
   1   4   5 111433. 2728.54   6
  -1  -4  -5 110511. 2689.19   2
  -1  -4  -5 108176. 2269.77   1
  -1  -4  -5 113284. 2472.98   9
   1   4   5 115562. 2122.57   8
  -1  -4  -6 44940.7 1259.27   9
  -1  -4  -6 43731.6 1133.29   1
  -1  -4  -6 46654.4 1274.83   7
   1   4   6 44169.3 1556.20   6
  -1  -4  -6 42793.3 1465.00   2
   1   4   6 44728.0 1097.02   8
   1   4   6 43266.3 1307.43   7
  -1  -4  -7 651.088 133.591   7
   1   4   7 717.717 136.729   8
   1   4   7 1135.85 199.589   7
  -1  -4  -7 688.950 218.398   2
  -1  -4  -7 636.080 147.854   1
  -1  -4  -7 594.682 136.787   9
  -1  -4  -8 31584.1 1028.41   1
   1   4   8 31766.7 1021.47   8
   1   4   8 30886.2 1366.48   6
  -1  -4  -8 33408.2 1009.53   9
   1   4   8 31195.5 1090.62   7
  -1  -4  -8 32251.1 965.508   7
  -1  -4  -8 30642.5 1331.80   2
  -1  -4  -9 91054.8 2167.90   1
  -1  -4  -9 84954.3 2564.25   2
  -1  -4  -9 91957.7 2011.32   9
   1   4   9 84809.7 2606.25   6
   1   4   9 84163.1 1872.38   1
   1   4   9 83550.9 2102.94   7
   1   4   9 85734.0 2102.54   8
   1   4  10 115973. 2495.34   7
   1   4  10 111275. 3207.79   6
  -1  -4 -10 112819. 3201.48   2
   1   4  10 111932. 2689.35   8
  -1  -4 -10 109143. 2652.29   1
   1   4  11 54880.2 1691.41   8
  -1  -4 -11 52547.4 2085.72   2
   1   4  11 56208.0 2131.04   6
  -1  -4 -11 53053.1 1576.73   1
   1   4  12 12829.3 786.026   8
  -1  -4 -12 14115.1 916.057   4
   1   4  12 11368.8 954.255   6
  -1  -4 -12 12867.0 681.025   1
  -1  -4 -12 12272.1 1008.84   2
   1   4  13 139.678 161.130   8
  -1  -4 -13-214.200 313.192   2
  -1  -4 -13-49.2342 364.519   3
   1   4  13 293.053 281.812   6
   1   4  14 7787.01 646.418   8
   1   4  14 5511.62 725.506   6
  -1  -4 -14 5016.86 820.766   3
  -1  -4 -14 5576.68 751.836   2
   1   4  15 20813.9 1411.38   6
   1   4  15 22385.2 1127.73   8
  -1  -4 -15 22932.0 1538.41   2
  -1  -4 -15 18253.9 1588.60   3
   1   4  16 9498.90 930.106   6
   1   5 -12 1415.02 434.846   5
  -1  -5  12 1297.37 432.776   8
   1   5 -11 1381.62 424.248   3
  -1  -5  11 1840.10 485.934   8
   1   5 -11 599.078 318.232   5
   1   5 -10 20383.6 1225.00   3
   1   5 -10 20653.7 1232.22   5
  -1  -5  10 18513.7 1255.39   8
  -1  -5   9 52548.6 2033.60   8
   1   5  -9 49471.9 1890.79   5
   1   5  -9 48752.0 1871.11   3
   1   5  -8 69371.7 1561.59   7
  -1  -5   8 67507.1 2234.16   8
   1   5  -8 63720.3 2117.54   3
   1   5  -8 66980.7 2147.18   5
   1   5  -7 55222.5 1830.02   3
   1   5  -7 55495.3 1817.35   5
   1   5  -7 56457.7 1445.33   7
  -1  -5   6 4054.97 429.153   8
  -1  -5   6 4458.24 311.109   9
   1   5  -6 4196.79 444.074   3
   1   5  -6 4094.80 345.108   7
   1   5  -6 4400.56 444.253   5
  -1  -5   6 4173.84 243.600   4
  -1  -5   5 9385.07 599.510   8
   1   5  -5 9148.19 529.741   7
   1   5  -5 8769.62 590.643   5
   1   5  -5 9022.16 600.958   3
  -1  -5   5 9033.04 396.974   4
  -1  -5   4 99860.7 2362.00   8
   1   5  -4 99816.5 2391.06   5
   1   5  -4 100629. 2412.59   3
  -1  -5   4 101187. 2089.65   4
   1   5  -4 101978. 2370.15   7
  -1  -5   3 214152. 4203.95   8
   1   5  -3 218046. 4377.79   7
   1   5  -3 218996. 4274.04   5
  -1  -5   3 220259. 4093.92   4
   1   5  -3 225145. 4335.95   3
   1   5  -2 270513. 5336.84   7
  -1  -5   2 282567. 5145.10   4
   1   5  -2 278310. 5183.61   3
  -1  -5   2 271601. 4993.54   8
   1   5  -1 139589. 2970.02   3
   1   5  -1 147703. 2845.70   8
   1   5  -1 144284. 3214.49   7
  -1  -5   1 149671. 2903.21   5
   1   5  -1 143061. 2520.26   6
  -1  -5   1 149173. 3112.25   4
  -1  -5   1 142720. 2770.98   8
   1   5   0 26180.2 748.635   8
  -1  -5   0 29818.8 1121.97   7
   1   5   0 27375.7 896.313   3
  -1  -5   0 27307.6 878.358   3
  -1  -5   0 25975.1 816.421   5
   1   5   0 25851.7 721.732   6
   1   5   0 28684.8 1100.87   7
  -1  -5   0 24646.7 701.503   8
  -1  -5   0 27683.5 1068.65   4
  -1  -5  -1 123.565 56.6187   8
   1   5   1 202.136 65.0575   8
  -1  -5  -1 190.981 141.855   4
  -1  -5  -1 211.453 82.1899   5
   1   5   1 79.9089 135.857   7
   1   5   1 152.139 98.5879   3
  -1  -5  -1 83.9700 88.0653   3
  -1  -5  -1 129.904 94.6515   2
  -1  -5  -2 54683.8 1343.91   5
  -1  -5  -2 56429.9 1457.03   3
  -1  -5  -2 52715.1 1434.02   2
   1   5   2 53275.2 1609.08   7
   1   5   2 55493.4 1474.70   6
   1   5   2 55644.6 1080.58   8
  -1  -5  -3 259301. 4842.90   3
   1   5   3 248506. 4875.66   6
  -1  -5  -3 253302. 4614.82   5
   1   5   3 247079. 4922.99   7
  -1  -5  -3 251702. 4756.50   2
   1   5   3 248337. 4143.24   8
  -1  -5  -4 178608. 3712.99   2
   1   5   4 188143. 3866.61   6
   1   5   4 180236. 3738.86   7
   1   5   4 176284. 3026.71   8
   1   5   4 176241. 2981.45   8
  -1  -5  -5 189176. 4009.83   2
  -1  -5  -5 182345. 3568.68   1
   1   5   5 189816. 4090.99   6
   1   5   5 188000. 3248.88   8
   1   5   5 181429. 3840.92   7
   1   5   6 16298.3 777.549   7
  -1  -5  -6 18104.0 681.237   1
   1   5   6 18191.4 558.405   8
   1   5   6 18523.6 956.965   6
  -1  -5  -6 16530.6 719.669   9
  -1  -5  -6 17986.4 929.478   2
   1   5   7 2300.12 212.792   8
  -1  -5  -7 1595.52 315.140   2
  -1  -5  -7 2545.79 248.355   1
   1   5   7 2145.83 344.293   6
  -1  -5  -7 2065.88 254.439   9
   1   5   7 2265.48 278.952   7
  -1  -5  -8 44975.4 1319.32   9
  -1  -5  -8 49439.5 1317.66   1
   1   5   8 48675.1 1443.75   7
   1   5   8 45809.3 1757.54   6
   1   5   8 51766.9 1292.79   8
  -1  -5  -8 47628.2 1702.76   2
  -1  -5  -9 68161.7 1715.15   1
   1   5   9 66192.9 1677.15   8
  -1  -5  -9 65667.9 1683.09   9
   1   5   9 66665.2 2234.79   6
   1   5   9 66659.0 1784.32   7
  -1  -5  -9 68929.5 2221.25   2
   1   5  10 47443.6 1391.45   8
   1   5  10 45259.3 1369.07   7
  -1  -5 -10 45009.8 1797.02   2
   1   5  10 45071.7 1835.14   6
  -1  -5 -10 43222.8 1340.06   1
   1   5  11 30140.3 982.888   7
   1   5  11 30747.1 1138.17   8
   1   5  11 29972.0 1519.02   6
  -1  -5 -11 30222.4 1500.87   2
  -1  -5 -11 28699.5 1048.93   1
  -1  -5 -12 4503.47 611.181   2
   1   5  12 4616.13 439.310   8
   1   5  12 4334.80 614.185   6
  -1  -5 -13 1021.62 411.002   2
   1   5  13 339.372 178.294   8
   1   5  13 496.622 279.052   6
   1   5  14 2770.14 378.652   8
  -1  -5 -14 2679.66 564.651   2
   1   5  14 2082.72 468.175   6
  -1  -5 -14 2032.18 606.802   3
  -1  -5 -15 10375.6 1166.80   3
  -1  -5 -15 10490.0 1054.04   2
   1   5  16 14384.9 1159.22   6
   1   6 -12 900.821 432.615   5
   1   6 -12 515.114 311.139   3
  -1  -6  12 1225.95 467.014   8
  -1  -6  11 785.386 447.532   8
   1   6 -11 334.662 311.268   5
   1   6 -11-46.9287 336.576   3
  -1  -6  10 15845.3 1164.95   8
   1   6 -10 15186.2 1093.01   3
   1   6 -10 17876.9 1171.33   5
  -1  -6   9 35702.1 1651.40   8
   1   6  -9 34631.6 1583.93   3
   1   6  -9 34208.2 1563.45   5
   1   6  -8 47116.9 1337.89   7
  -1  -6   8 49572.2 1860.74   8
   1   6  -8 46982.5 1789.24   5
   1   6  -8 48395.5 1815.50   3
  -1  -6   7 32462.4 1396.34   8
   1   6  -7 32820.4 1398.74   3
   1   6  -7 35136.2 1167.02   7
   1   6  -7 34879.8 1419.16   5
   1   6  -6 17173.9 913.221   5
   1   6  -6 15657.7 898.807   3
  -1  -6   6 16797.5 894.465   8
   1   6  -6 15657.7 773.700   7
   1   6  -5 7961.40 599.206   3
  -1  -6   5 7014.69 401.753   4
   1   6  -5 6906.51 537.425   5
   1   6  -5 7654.23 543.193   7
  -1  -6   5 8035.55 566.315   8
   1   6  -4 17391.5 853.933   3
  -1  -6   4 17427.9 795.862   8
   1   6  -4 16481.0 839.092   7
   1   6  -4 16100.1 797.407   5
   1   6  -3 64474.4 1906.20   7
   1   6  -3 66751.0 1775.29   5
  -1  -6   3 63743.3 1689.26   8
   1   6  -3 69907.1 1864.74   3
  -1  -6   2 113778. 2447.73   8
   1   6  -2 117187. 2679.18   3
   1   6  -2 115891. 2845.20   7
   1   6  -2 116074. 2562.87   5
   1   6  -1 83722.4 2038.48   3
   1   6  -1 83633.7 2285.02   7
   1   6  -1 79516.9 1573.81   6
  -1  -6   1 83004.7 1801.23   8
   1   6   0 16252.6 600.080   8
   1   6   0 17158.2 890.769   7
   1   6   0 16353.7 743.094   3
  -1  -6   0 16887.4 570.269   8
   1   6   0 16820.7 592.362   6
  -1  -6  -1 4791.25 247.037   8
  -1  -6  -1 4350.58 364.301   2
   1   6   1 4432.51 261.110   8
   1   6   1 4247.40 324.699   6
  -1  -6  -1 4226.77 312.847   5
   1   6   1 4368.45 377.495   3
   1   6   1 4473.76 449.062   7
   1   6   2 50731.1 1471.16   6
  -1  -6  -2 48734.6 1428.60   2
  -1  -6  -2 51432.9 1314.09   5
   1   6   2 51281.8 1083.96   8
   1   6   2 48819.4 1624.50   7
   1   6   3 56953.9 1105.96   8
   1   6   3 56138.6 1676.61   6
  -1  -6  -3 54266.1 1567.04   2
  -1  -6  -3 56390.6 1437.68   5
   1   6   3 55509.6 1722.57   7
  -1  -6  -4 146115. 3158.71   2
   1   6   4 142916. 3262.26   6
   1   6   4 137613. 3200.05   7
   1   6   4 137307. 2387.79   8
  -1  -6  -5 66291.9 1938.08   2
   1   6   5 63557.8 1862.97   7
  -1  -6  -5 63227.9 1641.87   1
   1   6   5 63774.0 1263.87   8
   1   6   5 63473.0 1976.07   6
   1   6   5 68316.5 1238.79   8
   1   6   6 20705.8 568.002   8
   1   6   6 20443.5 931.807   7
  -1  -6  -6 21693.2 1074.82   2
   1   6   6 20176.6 1032.99   6
  -1  -6  -6 21246.0 823.577   1
   1   6   7 8893.94 380.796   8
   1   6   7 9828.14 738.621   6
  -1  -6  -7 9563.47 708.048   2
  -1  -6  -7 9037.93 517.507   1
   1   6   7 8549.03 575.409   7
   1   6   8 13143.2 533.741   8
  -1  -6  -8 13384.1 631.594   1
   1   6   8 14190.5 741.192   7
  -1  -6  -8 14930.0 905.006   2
   1   6   8 14924.2 941.856   6
  -1  -6  -9 27002.6 937.634   1
   1   6   9 25122.0 1315.09   6
  -1  -6  -9 26157.2 1270.08   2
   1   6   9 26674.3 873.776   8
   1   6   9 24973.1 1019.98   7
   1   6  10 39740.4 1342.54   7
  -1  -6 -10 44336.4 1755.06   2
   1   6  10 42979.3 1797.94   6
  -1  -6 -10 41840.2 1255.99   1
   1   6  10 40858.2 1230.04   8
   1   6  11 22494.4 895.366   7
  -1  -6 -11 20849.1 1232.55   2
   1   6  11 22652.0 893.740   8
   1   6  11 22506.6 1309.52   6
  -1  -6 -11 21957.8 864.205   1
   1   6  12 12279.2 670.438   8
   1   6  12 12035.7 1004.59   6
  -1  -6 -12 12094.4 970.164   2
  -1  -6 -13-126.397 306.154   2
   1   6  13 680.642 354.958   6
   1   6  14 1185.88 406.614   6
  -1  -6 -14 1350.84 427.648   2
   1   6  15 2880.79 592.922   6
  -1  -6 -15 2580.77 579.272   2
  -1  -7  11 71.9127 307.426   8
   1   7 -11 485.134 311.848   3
   1   7 -11 120.657 297.734   5
  -1  -7  10 5033.41 670.749   8
   1   7 -10 4448.93 616.300   3
   1   7 -10 4145.90 610.414   5
   1   7  -9 23667.2 1337.92   3
   1   7  -9 21939.9 1273.69   5
  -1  -7   9 22665.2 1319.35   8
   1   7  -8 29815.4 1413.19   5
  -1  -7   8 28410.5 1391.69   8
   1   7  -8 26666.2 1370.39   3
   1   7  -8 27052.3 1023.69   7
  -1  -7   7 35582.7 1476.04   8
   1   7  -7 34972.2 1506.16   3
   1   7  -7 34380.3 1261.99   7
   1   7  -7 34605.8 1460.56   5
  -1  -7   6 14694.0 858.425   8
   1   7  -6 13551.0 835.865   5
   1   7  -6 12707.9 842.332   3
   1   7  -6 13882.7 792.652   7
   1   7  -5 6262.20 541.032   5
   1   7  -5 6353.26 545.049   7
   1   7  -5 6838.02 585.138   3
  -1  -7   5 6227.69 518.493   8
   1   7  -4 16798.0 847.361   5
   1   7  -4 15512.2 861.810   3
   1   7  -4 17515.1 940.215   7
  -1  -7   4 16585.5 802.375   8
   1   7  -3 21113.9 983.373   3
   1   7  -3 22850.2 1088.11   7
   1   7  -3 21618.6 923.040   5
  -1  -7   3 21104.8 867.666   8
   1   7  -2 78920.1 2336.72   7
   1   7  -2 79006.5 2000.86   5
   1   7  -2 80459.8 2145.17   3
  -1  -7   2 76880.6 1880.12   8
  -1  -7   1 88950.6 1975.78   8
   1   7  -1 90191.0 2553.72   7
   1   7  -1 88083.8 1771.16   6
   1   7  -1 90024.2 2128.14   5
   1   7  -1 92099.1 2299.54   3
   1   7   0 74044.4 2241.93   7
   1   7   0 73911.6 1798.61   5
  -1  -7   0 73125.7 1635.18   8
   1   7   0 76953.4 2017.92   3
   1   7   0 71240.5 1674.91   6
  -1  -7  -1 4059.29 254.516   8
   1   7   1 4317.05 415.485   3
   1   7   1 4127.12 272.511   8
   1   7   1 4205.88 351.955   6
  -1  -7  -1 4391.85 403.168   2
   1   7   1 3563.99 432.552   7
   1   7   2 13292.9 711.144   6
  -1  -7  -2 13551.0 712.556   2
   1   7   2 14585.3 487.185   8
   1   7   2 12719.8 810.912   7
  -1  -7  -3 72415.8 1982.99   2
   1   7   3 74936.8 2060.23   6
   1   7   3 75772.6 1473.14   8
   1   7   3 73217.4 2170.46   7
   1   7   4 74951.1 1404.47   8
   1   7   4 75689.0 2181.63   7
  -1  -7  -4 76599.5 2089.40   2
   1   7   4 71828.1 2112.90   6
   1   7   5 98652.3 1810.73   8
   1   7   5 100571. 2619.66   7
  -1  -7  -5 100976. 2627.98   2
  -1  -7  -5 100467. 2353.75   1
   1   7   5 99035.9 2676.59   6
   1   7   6 36409.4 1363.30   7
   1   7   6 36991.6 775.966   8
   1   7   6 34551.4 1439.88   6
  -1  -7  -6 37096.8 1220.34   1
  -1  -7  -6 35515.6 1455.56   2
   1   7   6 35533.3 785.399   8
   1   7   7 712.029 225.440   7
  -1  -7  -7 780.661 165.215   1
  -1  -7  -7 312.038 198.210   2
   1   7   7 950.801 107.656   8
   1   7   7 818.719 273.919   6
   1   7   8 927.614 130.109   8
   1   7   8 1224.83 353.640   6
  -1  -7  -8 617.418 174.550   1
  -1  -7  -8 810.783 284.185   2
   1   7   8 1001.40 247.457   7
   1   7   9 20016.6 947.019   7
   1   7   9 19002.9 655.443   8
   1   7   9 18621.2 1132.18   6
  -1  -7  -9 21830.3 859.008   1
  -1  -7  -9 18667.2 1085.51   2
   1   7  10 32353.0 1223.13   7
  -1  -7 -10 33183.7 1104.62   1
   1   7  10 31266.0 951.070   8
   1   7  10 32224.1 1549.65   6
  -1  -7 -10 32508.6 1504.34   2
   1   7  11 27852.8 1490.38   6
   1   7  11 28618.3 1090.22   7
  -1  -7 -11 27591.9 1432.44   2
   1   7  12 23146.5 1393.24   6
  -1  -7 -12 22285.5 1331.88   2
  -1  -7 -13 3506.74 582.383   2
   1   7  13 3117.29 547.669   6
  -1  -7 -14 456.226 350.664   2
   1   7  14 207.977 340.417   6
   1   8 -10 1497.93 457.248   3
   1   8 -10 2002.93 447.117   5
  -1  -8  10 1977.70 464.358   8
   1   8  -9 21022.6 1253.14   5
   1   8  -9 19845.3 1270.51   3
  -1  -8   9 21105.2 1289.07   8
   1   8  -8 35510.2 1651.21   3
  -1  -8   8 33895.9 1580.24   8
   1   8  -8 33327.9 1548.00   5
  -1  -8   7 33536.0 1495.75   8
   1   8  -7 35606.9 1363.82   7
   1   8  -7 34161.4 1509.55   5
   1   8  -7 37941.5 1639.38   3
   1   8  -6 24846.6 1206.62   5
   1   8  -6 26233.2 1204.78   7
  -1  -8   6 26893.5 1232.12   8
   1   8  -6 26714.7 1311.29   3
   1   8  -5 734.800 285.172   3
  -1  -8   5 822.639 237.111   8
   1   8  -5 616.448 228.784   7
   1   8  -5 1168.24 302.751   5
   1   8  -4 14134.2 877.186   3
   1   8  -4 13263.4 775.009   5
  -1  -8   4 13571.6 750.567   8
   1   8  -4 14688.7 915.395   7
   1   8  -3 72562.9 2322.30   7
   1   8  -3 72084.9 2011.00   5
   1   8  -3 71654.8 2129.39   3
  -1  -8   3 72220.3 1923.57   8
   1   8  -2 128662. 3380.28   7
   1   8  -2 124569. 2882.87   5
  -1  -8   2 124799. 2755.37   8
   1   8  -2 128561. 3110.62   3
  -1  -8   1 84139.5 1939.65   8
   1   8  -1 82727.5 2278.41   3
   1   8  -1 80970.4 1696.95   6
   1   8  -1 84639.4 2536.71   7
   1   8  -1 84232.8 2101.53   5
  -1  -8   0 50900.0 1307.35   8
   1   8   0 51325.7 1874.51   7
   1   8   0 55244.6 1728.34   3
  -1  -8   0 50453.9 1626.23   2
   1   8   0 48491.6 1323.54   6
   1   8   0 52957.0 1484.60   5
  -1  -8  -1 11605.9 702.012   2
   1   8   1 12636.1 860.335   7
   1   8   1 12640.1 649.284   6
   1   8   1 12270.3 523.353   8
   1   8   1 12748.1 763.422   3
   1   8   2 5865.88 320.225   8
   1   8   2 5891.77 483.003   6
   1   8   2 5415.55 555.653   7
  -1  -8  -2 5279.32 485.274   2
  -1  -8  -3 57518.0 1769.06   2
   1   8   3 56861.1 1944.19   7
   1   8   3 59474.3 1255.49   8
   1   8   3 56323.1 1775.47   6
   1   8   4 72858.3 2270.13   7
   1   8   4 73947.5 2200.58   6
  -1  -8  -4 78317.8 2194.77   2
   1   8   4 77210.5 1473.72   8
   1   8   5 84642.1 1579.53   8
  -1  -8  -5 87615.5 2231.35   1
   1   8   5 85324.2 2450.39   6
  -1  -8  -5 87715.0 2436.47   2
   1   8   5 83976.2 1532.33   8
   1   8   5 86697.3 2481.49   7
   1   8   6 47752.7 907.119   8
   1   8   6 46861.5 911.423   8
  -1  -8  -6 49198.3 1781.20   2
  -1  -8  -6 52306.0 1581.04   1
   1   8   6 51708.8 1832.11   6
   1   8   6 49977.6 1719.67   7
   1   8   7 3383.14 159.372   8
   1   8   7 2932.60 456.639   6
   1   8   7 3659.02 438.499   7
  -1  -8  -7 3206.81 498.900   2
  -1  -8  -7 3550.16 395.890   1
  -1  -8  -8 9856.95 627.726   1
   1   8   8 8698.09 665.751   7
   1   8   8 9672.28 801.531   6
  -1  -8  -8 9675.00 797.928   2
   1   8   9 32629.8 1546.31   6
   1   8   9 31183.9 1295.20   7
  -1  -8  -9 32704.9 1166.60   1
  -1  -8  -9 31228.0 1470.07   2
   1   8  10 48871.7 1624.26   7
  -1  -8 -10 47923.7 1902.74   2
  -1  -8 -10 46929.5 1425.73   1
   1   8  10 48075.9 1979.42   6
  -1  -8 -11 46396.6 1934.29   2
   1   8  11 45286.2 1507.01   7
   1   8  11 45542.2 1996.01   6
   1   8  12 14874.0 1143.56   6
  -1  -8 -12 14621.9 1096.75   2
   1   8  13 3616.79 608.648   6
  -1  -8 -13 4243.49 621.884   2
   1   8  14 1533.87 433.921   6
  -1  -8 -14 864.009 389.057   2
  -1  -9   9 14261.2 1040.34   8
   1   9  -9 16530.3 1152.45   3
   1   9  -9 16225.5 1087.72   5
   1   9  -8 32620.6 1555.40   5
   1   9  -8 34347.9 1667.90   3
  -1  -9   8 35327.2 1600.52   8
   1   9  -7 29032.1 1403.95   5
  -1  -9   7 27246.8 1347.36   8
   1   9  -7 28621.7 1486.26   3
   1   9  -7 27541.5 1237.76   7
   1   9  -6 12642.7 939.340   3
   1   9  -6 11905.7 847.186   5
   1   9  -6 12476.7 869.872   7
  -1  -9   6 12206.9 844.004   8
   1   9  -5 910.442 293.617   7
   1   9  -5 1627.15 368.654   3
   1   9  -5 885.320 282.701   5
  -1  -9   5 1369.83 312.143   8
   1   9  -4 13269.1 826.874   5
   1   9  -4 12378.0 913.308   7
   1   9  -4 13179.8 892.856   3
  -1  -9   4 13289.9 783.213   8
   1   9  -3 61556.4 2051.70   3
  -1  -9   3 63199.9 1804.74   8
   1   9  -3 66535.8 2306.98   7
   1   9  -3 62835.8 1902.11   5
   1   9  -2 71536.2 2022.31   5
  -1  -9   2 71455.7 1895.24   8
   1   9  -2 71934.7 2227.50   3
   1   9  -2 73503.4 2482.76   7
   1   9  -1 125271. 3419.89   7
   1   9  -1 119653. 2355.45   6
   1   9  -1 127152. 3153.49   3
   1   9  -1 121454. 2832.04   5
  -1  -9   1 123899. 2685.60   8
   1   9   0 9407.14 811.872   7
   1   9   0 11287.8 777.113   3
  -1  -9   0 11397.1 742.690   2
   1   9   0 10163.8 524.056   6
  -1  -9   0 10047.2 517.131   8
   1   9   1 880.351 308.166   7
   1   9   1 100.837 221.012   3
  -1  -9  -1 665.551 236.454   2
   1   9   1 524.638 159.938   6
   1   9   2 21454.0 1182.68   7
  -1  -9  -2 21190.7 1033.30   2
   1   9   2 23376.6 1027.76   6
  -1  -9  -3 62544.9 1973.91   2
   1   9   3 66181.6 2203.79   7
   1   9   3 66032.7 1984.88   6
  -1  -9  -4 113103. 2928.42   2
   1   9   4 109457. 2897.65   6
   1   9   4 113060. 3095.86   7
   1   9   5 48829.5 1767.58   6
  -1  -9  -5 47769.7 1616.88   1
   1   9   5 46724.1 966.447   8
  -1  -9  -5 51053.8 1800.58   2
  -1  -9  -6 42796.7 1703.50   2
   1   9   6 42661.4 1662.85   7
   1   9   6 41905.1 1674.77   6
  -1  -9  -6 41972.0 1509.06   1
   1   9   7 1316.72 310.505   7
  -1  -9  -7 1514.57 368.432   2
   1   9   7 1363.71 365.150   6
  -1  -9  -7 2077.26 334.157   1
   1   9   8 5117.92 604.312   6
  -1  -9  -8 4299.56 558.228   2
   1   9   8 4156.07 508.400   7
  -1  -9  -8 3954.98 425.418   1
   1   9   9 29236.5 1508.22   6
   1   9   9 29386.1 1306.47   7
  -1  -9  -9 29236.0 1160.85   1
  -1  -9  -9 31291.0 1506.07   2
   1   9  10 31773.9 1331.01   7
  -1  -9 -10 31959.4 1566.04   2
  -1  -9 -10 31860.3 1169.13   1
   1   9  10 32327.0 1632.48   6
   1   9  11 20078.6 976.582   7
   1   9  11 18581.5 1260.52   6
  -1  -9 -11 21848.9 1302.89   2
   1   9  12 5493.19 743.100   6
  -1  -9 -12 4952.39 666.856   2
  -1  -9 -13 917.819 370.820   2
   1   9  13 1155.79 412.653   6
   1  10  -8 26874.0 1383.37   5
  -1 -10   8 28277.7 1412.67   8
   1  10  -7 18847.0 1222.45   3
   1  10  -7 17416.7 1073.93   5
  -1 -10   7 18176.0 1076.53   8
   1  10  -6 7053.02 666.189   5
   1  10  -6 7317.98 752.599   3
   1  10  -6 7129.85 672.004   7
  -1 -10   6 6070.01 599.304   8
   1  10  -5-183.557 279.782   7
   1  10  -5-305.404 232.266   5
  -1 -10   5 278.468 193.585   8
   1  10  -5 406.684 248.791   3
   1  10  -4 8290.03 677.034   5
   1  10  -4 9540.55 853.307   7
   1  10  -4 9714.29 830.051   3
  -1 -10   4 9053.55 655.344   8
   1  10  -3 27649.0 1365.91   3
   1  10  -3 26825.9 1190.32   5
  -1 -10   3 23885.3 1050.65   8
   1  10  -3 25431.7 1445.45   7
   1  10  -2 36582.7 1574.15   3
   1  10  -2 40037.7 1817.31   7
   1  10  -2 37467.5 1389.08   5
  -1 -10   2 36333.8 1261.46   8
  -1 -10   1 31143.5 1375.92   2
   1  10  -1 31109.9 1222.85   5
  -1 -10   1 32187.9 1095.63   8
   1  10  -1 32530.2 1454.13   3
   1  10  -1 31461.8 1582.77   7
   1  10   0 30178.4 1398.19   3
   1  10   0 27215.7 924.223   6
   1  10   0 29274.9 1492.94   7
  -1 -10   0 30391.1 1328.56   2
   1  10   1 490.336 284.607   7
   1  10   1 366.611 172.789   6
  -1 -10  -1 525.074 247.726   2
   1  10   1 523.307 260.577   3
   1  10   2 4745.05 464.214   6
  -1 -10  -2 4683.45 526.948   2
   1  10   2 4957.99 608.488   7
  -1 -10  -3 24755.7 1199.95   2
   1  10   3 24997.7 1336.95   7
   1  10   3 22209.9 1094.11   6
   1  10   4 48721.3 1773.61   6
   1  10   4 50566.8 1957.23   7
  -1 -10  -4 49395.4 1811.97   2
   1  10   5 43394.3 1763.85   7
   1  10   5 40795.7 1655.60   6
  -1 -10  -5 40484.1 1569.86   1
  -1 -10  -5 44423.9 1737.89   2
  -1 -10  -6 12747.1 923.961   2
   1  10   6 11555.3 870.830   7
  -1 -10  -6 11978.0 804.763   1
   1  10   6 12264.1 895.186   6
   1  10   7 2707.46 448.178   7
   1  10   7 3635.29 528.513   6
  -1 -10  -7 3459.04 552.878   2
  -1 -10  -7 3130.29 421.150   1
   1  10   8 2958.81 505.540   6
   1  10   8 2690.04 453.183   7
  -1 -10  -8 2816.82 393.689   1
  -1 -10  -8 2941.06 506.476   2
   1  10   9 9645.72 870.890   6
  -1 -10  -9 8424.67 628.656   1
   1  10   9 10370.3 794.209   7
  -1 -10  -9 9331.72 847.717   2
   1  10  10 23299.1 1408.28   6
   1  10  10 23742.9 1179.80   7
  -1 -10 -10 23867.0 1381.45   2
   1  10  11 15635.1 1169.04   6
  -1 -10 -11 14598.3 1092.64   2
   1  10  11 15420.4 889.905   7
   1  10  12 7747.98 847.816   6
  -1 -10 -12 6638.51 758.600   2
  -1 -10 -13-57.6560 283.439   2
  -1 -11   7 17977.5 1059.25   8
   1  11  -7 17688.6 1068.64   5
   1  11  -6 9976.60 776.739   5
   1  11  -6 11157.6 928.308   3
   1  11  -6 10273.5 826.552   7
  -1 -11   6 11387.7 804.961   8
   1  11  -5 2502.65 465.033   7
   1  11  -5 2202.71 471.080   3
  -1 -11   5 2551.95 386.532   8
   1  11  -5 1890.37 361.928   5
   1  11  -4 127.797 243.231   7
   1  11  -4 212.883 306.281   3
   1  11  -4 324.915 215.167   5
  -1 -11   4 92.5681 189.463   8
  -1 -11   3 14181.8 778.541   8
   1  11  -3 14922.3 1057.26   3
   1  11  -3 13769.9 1098.53   7
   1  11  -3 13714.5 850.694   5
   1  11  -2 22937.6 1409.48   7
   1  11  -2 23146.2 1316.31   3
  -1 -11   2 21362.3 1214.01   2
   1  11  -2 20544.6 1022.55   5
  -1 -11   2 23756.9 971.742   8
  -1 -11   1 26877.5 1351.37   2
   1  11  -1 23324.0 1423.32   7
   1  11  -1 24690.2 1352.44   3
   1  11   0 26211.4 1393.40   3
  -1 -11   0 23551.8 1263.94   2
   1  11   0 26855.6 1487.07   7
   1  11   1 6339.74 723.981   7
  -1 -11  -1 5543.55 602.781   2
  -1 -11  -2-85.9477 215.074   2
   1  11   2 108.202 258.850   7
   1  11   2 373.333 194.107   6
   1  11   3 11834.1 941.113   7
   1  11   3 10088.8 725.570   6
  -1 -11  -3 9449.46 786.045   2
  -1 -11  -4 25741.1 1322.29   2
   1  11   4 22562.6 1320.16   7
   1  11   4 22760.0 1177.95   6
  -1 -11  -5 30014.0 1394.94   1
  -1 -11  -5 30793.0 1489.37   2
   1  11   5 29243.6 1509.79   7
   1  11   5 31527.8 1448.08   6
  -1 -11  -6 16451.1 1116.81   2
   1  11   6 16653.2 1072.03   6
  -1 -11  -6 18231.5 1044.66   1
   1  11   6 17435.1 1144.18   7
  -1 -11  -7 6544.85 730.935   2
   1  11   7 6586.02 702.838   6
   1  11   7 7313.93 745.039   7
  -1 -11  -7 6931.44 643.921   1
  -1 -11  -8 218.875 220.352   1
   1  11   8 429.149 290.426   6
  -1 -11  -8 215.641 322.484   2
   1  11   8 156.195 254.542   7
   1  11   9 1465.82 360.584   7
  -1 -11  -9 1393.50 403.762   2
   1  11   9 1519.65 383.430   6
  -1 -11 -10 11110.4 958.485   2
   1  11  10 11125.6 831.751   7
   1  11  10 10927.1 953.311   6
   1  11  11 12613.2 1056.21   6
   1  11  11 13490.0 871.074   7
  -1 -11 -11 12714.6 1009.29   2
   1  12  -5 1698.61 393.327   7
   1  12  -5 3081.03 444.050   5
   1  12  -4 627.140 293.637   7
  -1 -12   4 889.415 360.641   2
   1  12  -4 871.814 296.142   5
   1  12  -4 447.798 328.093   3
   1  12  -3 7235.83 816.078   7
   1  12  -3 5783.54 709.776   3
   1  12  -3 5816.44 550.109   5
  -1 -12   3 7159.39 729.519   2
   1  12  -2 31350.0 1622.91   3
   1  12  -2 30639.2 1693.05   7
  -1 -12   2 31502.3 1538.27   2
   1  12  -1 34599.8 1709.37   3
   1  12  -1 32584.2 1753.93   7
  -1 -12   1 33818.1 1595.68   2
  -1 -12   0 28814.7 1453.07   2
   1  12   0 26515.9 1553.13   7
   1  12   1 9327.26 931.913   7
  -1 -12  -1 10724.4 873.718   2
   1  12   2 604.683 340.528   7
  -1 -12  -2 80.6198 244.805   2
   1  12   3 9154.93 888.764   7
  -1 -12  -3 8205.23 772.680   2
   1  12   4 21179.7 1338.17   7
   1  12   4 18828.5 1038.35   6
  -1 -12  -4 19545.4 1224.78   2
  -1 -12  -5 37946.2 1765.38   2
   1  12   5 37146.9 1582.19   6
   1  12   5 37569.5 1773.83   7
  -1 -12  -5 34423.5 1597.55   1
  -1 -12  -6 22829.6 1227.42   1
   1  12   6 20819.6 1196.11   6
  -1 -12  -6 21379.6 1334.85   2
   1  12   6 21849.0 1330.98   7
  -1 -12  -7 10998.1 834.262   1
  -1 -12  -7 11482.1 997.005   2
   1  12   7 10573.2 922.226   7
   1  12   7 8805.57 811.252   6
   1  12   8 652.991 316.738   6
  -1 -12  -8 40.6315 198.400   1
   1  12   8 662.448 340.716   7
  -1 -12  -8 55.6660 296.454   2
   1  12   9 8161.38 803.970   6
  -1 -12  -9 7506.41 805.403   2
   1  12   9 7408.38 731.861   7
   1  12  10 8198.18 832.079   6
  -1 -12 -10 8448.75 843.285   2
   1  12  10 8739.78 759.745   7
  -1 -13   1 20297.0 1245.82   2
   1  13  -1 20884.5 1370.87   7
   1  13   0 19211.0 1332.38   7
  -1 -13   0 17566.5 1147.01   2
   1  13   1 2615.81 523.612   7
  -1 -13  -1 1631.25 383.041   2
   1  13   2 3466.71 610.975   7
  -1 -13  -2 1575.38 397.034   2
  -1 -13  -3 10622.8 923.738   2
   1  13   3 11018.0 993.564   7
  -1 -13  -4 22427.2 1350.14   2
  -1 -13  -4 21978.5 1292.68   1
  -1 -13  -5 23311.1 1393.05   2
  -1 -13  -5 21328.3 1244.47   1
   1  13   5 21272.4 1363.81   7
  -1 -13  -6 11806.5 1010.09   2
   1  13   6 12449.7 1019.72   7
  -1 -13  -6 11688.7 903.074   1
   1  13   6 10707.9 842.708   6
   1  13   7 4982.40 619.700   6
   1  13   7 6032.81 722.339   7
  -1 -13  -7 4310.10 560.710   1
  -1 -13  -7 3885.32 606.811   2
  -1 -13  -8-370.522 380.764   2
   1  13   8 36.8238 243.503   7
   1  13   8 464.789 289.250   6
   1  13   9 4351.18 600.131   6
   1  13   9 3705.08 538.118   7
  -1 -14  -4 13304.9 1034.98   1
  -1 -14  -5 14448.8 1055.76   1
  -2  12   6 16196.5 1173.55   6
  -2  12   5 2150.12 450.074   6
   2 -12  -5 1448.18 408.984   1
   2 -12  -4 20.9091 317.006   1
  -2  12   4-42.4171 244.412   6
   2 -12  -3 3741.13 623.409   1
   2 -12  -2 17452.3 1265.31   1
   2 -12   0 17214.3 1033.32   2
   2 -12   1 2563.81 421.286   2
   2 -12   2 1209.90 346.074   2
   2 -11  -9 2708.26 442.977   1
  -2  11   8 12364.3 967.611   7
   2 -11  -8 12057.7 916.799   1
   2 -11  -7 10651.8 884.526   1
  -2  11   7 11357.6 1006.15   6
  -2  11   7 10788.3 930.292   7
   2 -11  -6 13062.6 923.019   2
  -2  11   6 14309.2 1097.00   7
   2 -11  -6 13807.9 1042.90   1
  -2  11   6 13301.8 1074.46   6
  -2  11   5 6651.53 779.689   7
   2 -11  -5 5552.08 716.800   1
  -2  11   5 5679.19 716.921   6
   2 -11  -5 6634.94 669.640   2
   2 -11  -4-222.825 291.080   2
   2 -11  -4-540.980 376.512   1
  -2  11   4-122.247 299.804   6
  -2  11   4-86.5871 349.298   7
   2 -11  -3 5661.19 736.529   1
  -2  11   3 4626.93 687.811   7
  -2  11   3 4174.44 578.264   6
   2 -11  -3 4794.85 562.703   2
   2 -11  -2 11272.4 1014.12   1
  -2  11   2 11939.4 1073.63   7
  -2  11   2 8970.78 796.067   6
   2 -11  -2 10611.1 794.233   2
  -2  11   1 28405.2 1662.44   7
   2 -11  -1 25100.1 1232.82   2
   2 -11  -1 25464.5 1531.51   1
   2 -11   0 12597.3 837.737   2
   2 -11   0 12341.8 1056.18   1
  -2  11   0 12663.6 1107.02   7
   2 -11   1 9768.48 952.299   1
  -2  11  -1 8425.74 928.805   7
   2 -11   1 6928.51 631.558   2
  -2  11  -2 343.421 342.302   7
   2 -11   2 125.460 205.334   2
  -2  11  -2-177.076 361.118   3
  -2  11  -3 330.664 295.150   7
  -2  11  -3 1092.99 417.768   3
   2 -11   3 765.990 301.053   2
  -2  11  -4 9831.40 987.127   7
   2 -11   4 9328.85 764.849   2
  -2  11  -5 13320.0 1139.06   7
   2 -11   5 13733.6 937.131   2
   2 -10 -10 1579.67 366.408   1
  -2  10   9 1325.64 335.414   7
   2 -10  -9 1184.47 335.914   2
  -2  10   9 2055.26 516.027   6
   2 -10  -9 1833.30 393.200   1
  -2  10   8 6576.41 837.279   6
   2 -10  -8 7430.90 709.931   1
  -2  10   8 7502.19 734.445   7
   2 -10  -8 6817.26 657.981   2
  -2  10   7 15355.8 1097.59   7
  -2  10   7 15068.4 1187.53   6
   2 -10  -7 17032.6 1015.86   2
   2 -10  -7 18029.7 1146.87   1
   2 -10  -6 9955.40 871.006   1
  -2  10   6 12129.6 994.012   7
  -2  10   6 10137.1 966.152   6
   2 -10  -6 10234.8 784.094   2
   2 -10  -5 9822.43 791.089   2
  -2  10   5 8932.00 869.030   7
   2 -10  -5 8160.90 815.339   1
  -2  10   5 8756.96 861.100   6
   2 -10  -4 1736.15 361.351   2
  -2  10   4 1677.63 426.080   6
   2 -10  -4 1861.48 414.988   1
  -2  10   4 1793.90 441.310   7
   2 -10  -3 3356.96 560.750   1
   2 -10  -3 2529.78 396.670   2
  -2  10   3 3149.42 537.205   6
  -2  10   3 3325.07 570.018   7
   2 -10  -2 11629.0 982.161   1
  -2  10   2 13320.6 1067.88   7
  -2  10   2 11898.6 943.128   6
   2 -10  -2 10159.2 757.150   2
   2 -10  -1 24707.7 1170.10   2
  -2  10   1 24527.9 1323.51   6
   2 -10  -1 26110.2 1474.47   1
  -2  10   1 24055.9 1478.01   7
   2 -10   0 31268.3 1323.61   2
   2 -10   0 33866.9 1675.68   1
  -2  10   0 29251.8 1682.26   7
  -2  10   0 29986.6 1410.39   6
  -2  10  -1 17696.0 1276.17   7
  -2  10  -1 16020.4 1125.10   3
   2 -10   1 15469.6 920.657   2
  -2  10  -2 3188.46 609.290   7
  -2  10  -2 2277.73 474.387   3
   2 -10   2 2402.64 384.729   2
  -2  10  -3 84.0653 322.008   3
   2 -10   3 722.271 276.318   2
  -2  10  -3 613.417 356.417   7
  -2  10  -4 7238.06 779.090   3
  -2  10  -4 8001.03 892.925   7
   2 -10   4 7727.72 673.166   2
  -2  10  -5 16908.2 1180.45   3
  -2  10  -5 16613.3 1262.07   7
  -2  10  -6 21525.7 1429.17   7
  -2  10  -6 22730.6 1377.87   3
  -2  10  -7 13412.2 1132.60   7
   2  -9 -11 7350.14 692.850   2
  -2   9  10 814.643 352.121   6
   2  -9 -10 950.230 304.412   2
   2  -9 -10 809.291 273.446   1
   2  -9  -9 128.891 222.875   2
  -2   9   9-119.943 247.561   7
   2  -9  -9 662.773 308.073   1
  -2   9   9 136.752 325.637   6
  -2   9   8 10102.5 840.536   7
   2  -9  -8 11276.8 859.017   1
  -2   9   8 11486.0 1039.09   6
   2  -9  -8 9927.02 762.375   2
  -2   9   7 24530.4 1344.12   7
  -2   9   7 24278.9 1508.88   6
   2  -9  -7 26121.2 1355.65   1
   2  -9  -7 24509.1 1220.89   2
   2  -9  -6 33644.0 1583.23   1
  -2   9   6 34847.3 1792.10   6
  -2   9   6 32456.1 1595.36   7
   2  -9  -6 33989.2 1462.90   2
   2  -9  -5 27314.8 1320.65   2
  -2   9   5 28012.4 1467.91   7
  -2   9   5 27358.0 1522.68   6
   2  -9  -5 27370.3 1433.81   1
   2  -9  -4 8573.22 704.162   2
  -2   9   4 8643.14 825.229   7
  -2   9   4 9348.90 878.615   6
   2  -9  -4 8820.23 807.684   1
   2  -9  -3 191.252 274.902   1
  -2   9   3 794.060 323.107   7
   2  -9  -3 77.4589 179.118   2
  -2   9   2 17077.7 1176.48   7
   2  -9  -2 15713.3 893.149   2
   2  -9  -2 17387.4 1109.81   1
   2  -9  -1 36195.8 1385.99   2
  -2   9   1 37609.8 1789.72   7
   2  -9  -1 37451.0 1680.31   1
   2  -9   0 64144.5 1939.73   2
  -2   9   0 60947.3 2377.92   7
  -2   9   0 64244.1 2237.59   3
  -2   9  -1 39648.7 1689.67   3
  -2   9  -1 38844.6 1862.80   7
   2  -9   1 39237.7 1463.60   2
  -2   9  -2 13517.4 1080.38   7
  -2   9  -2 12658.4 933.497   3
   2  -9   2 12386.2 799.237   2
  -2   9  -3 822.583 364.717   7
  -2   9  -3 829.563 314.316   3
   2  -9   3 1176.58 325.836   2
  -2   9  -4 20925.0 1228.23   3
  -2   9  -4 19372.9 1342.41   7
  -2   9  -5 28295.7 1467.58   3
  -2   9  -5 24671.4 1536.83   7
  -2   9  -6 27294.9 1614.20   7
   2  -9   6 29385.3 1371.37   8
  -2   9  -7 20326.0 1359.69   7
  -2   9  -7 22828.1 1347.74   3
   2  -9   7 19556.6 1132.13   8
  -2   9  -8 3111.43 579.703   7
   2  -9   8 3961.40 539.629   8
  -2   9  -8 3305.36 542.692   3
   2  -8 -12 11303.3 879.898   2
   2  -8 -11 8136.09 747.073   2
   2  -8 -11 8179.84 675.036   1
  -2   8  11 10165.6 1028.79   6
  -2   8  10 3154.70 609.771   6
   2  -8 -10 2617.08 423.870   1
   2  -8 -10 2557.91 446.557   2
   2  -8  -9 2921.28 443.345   1
  -2   8   9 2328.91 410.458   7
  -2   8   9 3062.47 601.554   6
   2  -8  -9 2588.84 435.529   2
  -2   8   8 14596.4 951.162   7
  -2   8   8 14082.7 817.994   8
   2  -8  -8 15255.9 973.008   1
   2  -8  -8 14067.5 915.711   2
  -2   8   7 40871.3 1706.63   7
  -2   8   7 41619.2 1954.11   6
   2  -8  -7 41218.1 1694.88   1
  -2   8   7 45072.5 1609.93   8
   2  -8  -7 39066.4 1566.68   2
  -2   8   6 56448.7 2062.76   7
  -2   8   6 59090.5 2338.70   6
   2  -8  -6 56736.2 2045.89   1
   2  -8  -6 59007.4 1943.13   2
   2  -8  -5 44560.4 1666.44   2
  -2   8   5 42042.2 1764.55   7
  -2   8   5 45791.9 1963.26   6
   2  -8  -5 43069.8 1749.40   1
   2  -8  -4 8094.14 661.734   2
  -2   8   4 7223.34 706.759   7
   2  -8  -4 7907.67 723.218   1
  -2   8   3 1841.78 404.884   7
   2  -8  -3 1406.83 335.783   1
   2  -8  -3 2325.71 343.308   2
   2  -8  -2 32679.5 1244.22   2
  -2   8   2 29925.0 1495.01   7
   2  -8  -2 31489.6 1464.17   1
   2  -8  -1 56560.1 1725.61   2
   2  -8  -1 59883.0 2078.62   1
  -2   8   1 59010.9 2176.58   7
   2  -8   0 57355.5 1718.77   2
  -2   8   0 55561.7 2142.03   7
  -2   8   0 55842.4 1966.84   3
   2  -8   1 37923.6 1360.38   2
  -2   8  -1 40315.6 1787.73   7
  -2   8  -1 40296.4 1595.93   3
   2  -8   2 9706.11 657.503   2
  -2   8  -2 8849.87 825.085   7
  -2   8  -2 10137.6 772.842   3
  -2   8  -3-177.483 254.413   4
  -2   8  -3 220.062 198.064   3
  -2   8  -3 100.677 120.649   5
  -2   8  -4 16095.7 1156.40   7
  -2   8  -4 15044.4 1020.41   4
  -2   8  -4 15343.3 700.965   5
  -2   8  -4 15154.8 975.465   3
  -2   8  -5 49101.6 2131.47   7
   2  -8   5 47792.9 1695.53   8
  -2   8  -5 45442.3 1432.72   5
  -2   8  -5 48650.5 1865.37   3
  -2   8  -6 38107.3 1893.55   7
  -2   8  -6 40745.3 1740.88   3
  -2   8  -6 37684.8 1330.01   5
   2  -8   6 39810.9 1580.69   8
  -2   8  -7 28503.5 1474.01   3
  -2   8  -7 25522.0 1518.85   7
  -2   8  -7 27815.0 1160.29   5
   2  -8   7 27129.9 1336.55   8
   2  -8   8 9939.87 830.953   8
  -2   8  -8 10739.1 933.727   3
  -2   8  -8 8248.25 832.306   7
  -2   8  -8 11139.2 745.569   5
  -2   8  -9 1147.42 416.888   3
   2  -8   9 1309.07 374.232   8
  -2   8  -9 739.223 242.106   5
  -2   8 -10 2012.40 369.919   5
   2  -7 -13 12321.4 957.000   2
  -2   7  12 14541.5 1195.98   6
   2  -7 -12 13524.5 968.573   2
   2  -7 -11 4905.73 535.989   1
   2  -7 -11 4773.35 581.084   2
  -2   7  11 5976.56 778.124   6
  -2   7  10 1553.82 408.609   6
  -2   7  10 1361.98 275.991   8
   2  -7 -10 1928.79 389.868   2
   2  -7 -10 2104.43 371.929   1
   2  -7  -9 3411.63 449.268   1
  -2   7   9 3587.37 424.272   8
  -2   7   9 3604.78 447.471   7
   2  -7  -9 3502.01 472.022   2
  -2   7   9 2791.79 557.211   6
  -2   7   8 12102.6 821.051   7
   2  -7  -8 13349.4 874.305   1
  -2   7   8 13612.7 1082.64   6
   2  -7  -8 14910.6 919.298   2
  -2   7   8 12876.4 798.237   8
   2  -7  -7 36046.9 1447.60   2
  -2   7   7 38328.2 1548.94   7
  -2   7   7 38226.4 1811.23   6
   2  -7  -7 37614.7 1515.04   1
  -2   7   7 39019.7 1498.56   8
  -2   7   6 37697.7 1550.78   7
  -2   7   6 39192.9 1798.96   6
   2  -7  -6 39775.7 1477.57   2
   2  -7  -6 39214.4 1572.80   1
  -2   7   5 17081.3 1027.00   7
   2  -7  -5 17346.4 1004.32   1
   2  -7  -5 18400.6 947.035   2
  -2   7   4 7483.38 661.628   7
   2  -7  -4 6949.33 562.234   2
   2  -7  -4 7225.61 644.318   1
  -2   7   3 7975.30 685.417   7
   2  -7  -3 7332.28 648.153   1
   2  -7  -3 7726.22 563.037   2
   2  -7  -2 48262.2 1754.72   1
   2  -7  -2 45912.6 1441.45   2
  -2   7   2 47153.1 1791.47   7
   2  -7  -1 76580.2 1949.47   2
  -2   7   1 74306.4 2361.99   7
   2  -7  -1 74409.0 2293.83   1
  -2   7   1 75391.5 2337.17   4
   2  -7   0 90949.7 2222.10   2
  -2   7   0 96114.4 2559.41   3
  -2   7   0 91292.5 2655.85   4
  -2   7   0 88628.4 2683.07   7
   2  -7   1 33178.6 1155.56   2
  -2   7  -1 34851.1 1365.51   3
  -2   7  -1 31707.2 1394.27   4
  -2   7  -1 32849.8 1480.87   7
  -2   7  -2 8704.15 668.815   3
  -2   7  -2 8896.65 764.241   7
  -2   7  -2 9009.14 710.975   4
  -2   7  -3 274.129 199.567   4
  -2   7  -3 491.693 208.572   3
  -2   7  -3 981.837 317.669   7
  -2   7  -4 13813.6 648.789   5
  -2   7  -4 12079.9 925.044   7
  -2   7  -4 11969.5 838.721   4
   2  -7   4 13322.4 762.381   8
  -2   7  -4 12472.2 837.959   3
  -2   7  -5 30427.0 1359.20   3
  -2   7  -5 29760.0 1510.52   7
  -2   7  -5 29552.3 1064.04   5
  -2   7  -5 27547.9 1321.45   4
   2  -7   5 28418.1 1212.33   8
  -2   7  -6 34393.4 1224.33   5
  -2   7  -6 33157.1 1482.35   3
  -2   7  -6 35271.5 1702.36   7
  -2   7  -6 34405.3 1500.33   4
   2  -7   6 34465.6 1401.74   8
   2  -7   7 18335.4 1062.24   8
  -2   7  -7 19945.8 1294.19   7
  -2   7  -7 20178.3 975.473   5
  -2   7  -7 20021.5 1153.32   3
  -2   7  -7 18654.2 1100.97   4
  -2   7  -8 5995.18 677.664   3
  -2   7  -8 5387.36 581.661   4
  -2   7  -8 6171.62 692.032   7
  -2   7  -8 5952.17 555.720   5
   2  -7   8 6339.62 642.548   8
  -2   7  -9-81.3987 216.948   7
  -2   7  -9 103.172 197.390   5
   2  -7   9 499.356 312.314   8
  -2   7  -9-105.266 294.043   3
   2  -7  10 11095.0 944.259   8
  -2   7 -10 10524.4 946.101   3
  -2   7 -10 10495.4 802.070   5
  -2   7 -11 8660.18 769.456   5
  -2   7 -12 10323.6 861.354   5
   2  -6 -14 3690.30 600.252   2
   2  -6 -13 5520.88 662.882   2
  -2   6  13 5807.39 754.688   6
  -2   6  12 17182.2 929.721   8
  -2   6  12 16706.8 1275.97   6
   2  -6 -12 16407.9 1103.41   2
   2  -6 -12 15581.8 927.181   1
   2  -6 -11 13206.6 847.831   1
  -2   6  11 13429.2 822.211   8
  -2   6  11 11629.5 1056.01   6
   2  -6 -11 11411.5 899.361   2
   2  -6 -10 1778.67 377.289   2
  -2   6  10 1886.39 346.084   8
  -2   6  10 2258.79 480.030   6
   2  -6 -10 2405.06 389.713   1
  -2   6   9 415.201 180.817   7
   2  -6  -9 525.299 240.980   2
  -2   6   9 788.276 239.682   8
   2  -6  -9 607.979 250.834   1
  -2   6   9 552.607 308.545   6
  -2   6   8 17460.0 940.398   8
   2  -6  -8 18244.8 975.699   1
  -2   6   8 16961.6 907.813   7
   2  -6  -8 15714.3 933.609   2
  -2   6   8 16969.9 1177.09   6
  -2   6   7 41554.3 1548.20   8
  -2   6   7 40476.1 1511.90   7
   2  -6  -7 41625.8 1519.15   2
  -2   6   7 43323.2 1875.25   6
   2  -6  -7 40000.8 1519.50   1
   2  -6  -6 43213.5 1503.05   2
  -2   6   6 45328.0 1620.78   7
   2  -6  -6 43763.6 1601.73   1
  -2   6   5 37536.3 1463.61   7
   2  -6  -5 37052.8 1330.70   2
   2  -6  -5 36978.9 1462.58   1
   2  -6  -4 753.811 251.512   1
   2  -6  -4 474.668 189.107   2
   2  -6  -4 908.105 139.141   5
  -2   6   4 1132.35 291.670   7
  -2   6   3 1937.03 323.932   7
   2  -6  -3 1674.41 269.869   2
   2  -6  -3 1749.99 161.147   5
   2  -6  -3 1938.66 346.158   1
   2  -6  -2 11618.2 394.490   5
  -2   6   2 10890.3 745.450   4
   2  -6  -2 12239.6 624.266   2
   2  -6  -2 11837.0 770.711   1
   2  -6  -1 52309.0 1451.80   2
   2  -6  -1 53235.3 1773.42   1
   2  -6   0 39420.0 1184.43   2
  -2   6   0 38532.8 1372.31   3
  -2   6   0 39422.4 1459.29   4
  -2   6  -1 100631. 2538.28   3
   2  -6   1 98491.3 2263.26   2
  -2   6  -1 100699. 2638.78   4
  -2   6  -2 11641.1 703.321   3
  -2   6  -2 11260.7 470.413   5
  -2   6  -2 11715.3 749.586   4
  -2   6  -3 280.735 163.794   3
  -2   6  -3 89.1347 153.459   4
   2  -6   3 115.213 141.811   8
  -2   6  -4 10178.3 701.380   3
   2  -6   4 10165.7 636.926   8
  -2   6  -4 10221.3 702.372   4
  -2   6  -5 60323.1 1929.40   4
  -2   6  -5 61785.1 1665.44   5
   2  -6   5 63935.1 1872.07   8
  -2   6  -5 60005.2 1943.34   3
  -2   6  -6 63956.1 2203.83   7
  -2   6  -6 61934.7 1982.94   4
   2  -6   6 61993.2 1933.96   8
  -2   6  -6 64065.0 2045.52   3
  -2   6  -6 59446.3 1747.33   5
  -2   6  -7 33897.1 1589.40   7
  -2   6  -7 34753.2 1496.27   3
  -2   6  -7 33552.9 1281.93   5
   2  -6   7 33052.4 1391.75   8
  -2   6  -7 32622.1 1374.97   4
  -2   6  -8 16734.3 1087.66   7
  -2   6  -8 15991.7 916.507   5
  -2   6  -8 18437.5 1113.45   3
  -2   6  -8 16001.7 950.771   4
   2  -6   8 17594.7 1024.45   8
  -2   6  -9 1548.84 346.432   7
  -2   6  -9 502.451 299.256   3
  -2   6  -9 1129.21 304.376   5
   2  -6   9 717.688 253.668   8
  -2   6  -9 791.380 240.453   4
   2  -6  10 1898.93 411.834   8
  -2   6 -10 2389.55 414.521   5
  -2   6 -10 2182.66 438.627   3
   2  -6  11 13734.3 1081.86   8
  -2   6 -11 14645.6 1003.46   5
  -2   6 -11 15304.4 1149.77   3
  -2   6 -12 10266.3 866.638   5
   2  -5 -14 2007.75 457.432   2
  -2   5  14 1982.87 467.505   6
  -2   5  13 17904.9 1292.11   6
   2  -5 -13 15035.9 1090.93   2
  -2   5  13 16653.0 966.726   8
  -2   5  12 13413.6 867.927   8
   2  -5 -12 10828.3 901.929   2
   2  -5 -12 13406.0 870.270   1
  -2   5  12 13963.2 1131.19   6
  -2   5  11 24730.2 1492.86   6
   2  -5 -11 23577.9 1304.81   2
   2  -5 -11 22795.2 1153.48   1
  -2   5  11 23641.6 1150.29   8
   2  -5 -10 10411.5 761.170   1
  -2   5  10 11859.3 994.087   6
  -2   5  10 12455.7 809.666   8
   2  -5 -10 9426.24 802.854   2
  -2   5   9 575.028 240.555   8
  -2   5   9 592.358 172.097   7
   2  -5  -9 212.419 232.055   2
   2  -5  -9 477.758 208.080   1
  -2   5   9 243.078 250.151   6
  -2   5   8 9488.31 624.401   7
  -2   5   8 10300.5 888.204   6
   2  -5  -8 10724.0 717.479   1
  -2   5   8 9949.00 703.274   8
   2  -5  -8 10437.2 741.527   2
   2  -5  -7 26885.8 1153.52   2
  -2   5   7 26742.3 1103.15   7
  -2   5   7 26897.9 1184.74   8
  -2   5   7 26598.8 1407.84   6
   2  -5  -7 27322.0 1171.92   1
  -2   5   6 113133. 2769.16   7
   2  -5  -6 108239. 2781.30   1
   2  -5  -6 113505. 2734.90   2
  -2   5   5 69780.2 2009.85   7
   2  -5  -5 71484.2 1919.91   2
   2  -5  -5 69939.1 2070.57   1
   2  -5  -4 69636.2 1869.95   2
   2  -5  -4 70828.7 2070.96   1
  -2   5   3 16.0220 176.613   4
   2  -5  -3 163.338 162.632   1
   2  -5  -3 257.743 137.645   2
   2  -5  -3 116.551 58.8829   5
   2  -5  -2 10232.9 676.528   1
   2  -5  -2 9838.90 330.375   5
  -2   5   2 8819.63 610.048   4
   2  -5  -2 9081.10 504.019   2
  -2   5   1 77193.1 2114.24   4
   2  -5  -1 77666.2 1787.68   2
   2  -5  -1 76944.6 2131.40   1
   2  -5   0 154983. 3087.74   2
  -2   5   0 161330. 3493.20   4
  -2   5   0 155207. 3374.35   3
  -2   5  -1 108060. 2494.48   3
  -2   5  -1 102179. 1948.49   5
  -2   5  -1 106287. 2577.76   4
  -2   5  -2 87307.6 2172.75   3
  -2   5  -2 82215.6 1721.55   5
  -2   5  -2 85804.0 2230.03   4
  -2   5  -3 3579.48 387.583   4
  -2   5  -3 3226.22 359.602   3
   2  -5   3 3279.52 330.455   8
   2  -5   4 22942.6 943.975   8
  -2   5  -4 23341.1 1012.30   4
  -2   5  -4 23429.8 1017.01   3
   2  -5   5 33562.4 1230.07   8
  -2   5  -5 31946.3 1062.99   5
  -2   5  -5 33294.7 1239.57   4
  -2   5  -5 33667.5 1292.63   3
  -2   5  -6 129895. 3205.89   3
  -2   5  -6 130655. 3080.69   4
  -2   5  -6 130216. 2911.85   5
   2  -5   6 130318. 3101.68   8
  -2   5  -7 62765.2 2012.66   3
   2  -5   7 58501.9 1903.96   8
  -2   5  -7 62678.4 1869.18   4
   2  -5   8 23185.5 1157.14   8
  -2   5  -8 23962.4 1082.45   4
  -2   5  -8 22019.3 1171.53   7
  -2   5  -8 23817.9 1216.41   3
  -2   5  -9 2706.11 413.090   7
  -2   5  -9 4048.89 547.664   3
  -2   5  -9 3393.44 398.647   4
   2  -5   9 3523.61 486.503   8
   2  -5  10 1056.24 300.935   8
  -2   5 -10 1053.47 362.606   3
  -2   5 -11 13263.5 1054.51   3
   2  -5  11 13115.4 1036.74   8
   2  -5  12 24644.4 1463.22   8
  -2   5 -12 22010.8 1398.76   3
   2  -4 -14 3266.23 568.866   2
  -2   4  14 3506.04 474.541   8
   2  -4 -14 4797.04 769.104   3
  -2   4  14 4204.15 640.737   6
  -2   4  13 11662.3 834.103   8
  -2   4  13 10957.6 988.046   6
   2  -4 -13 11270.1 819.326   1
   2  -4 -13 9584.52 896.148   2
  -2   4  12 41634.5 1637.73   8
   2  -4 -12 39076.3 1591.48   1
  -2   4  12 40019.5 1918.34   6
   2  -4 -12 38269.4 1788.37   2
   2  -4 -11 22767.2 1179.57   1
   2  -4 -11 24473.5 1351.74   2
  -2   4  11 23464.0 1421.90   6
  -2   4  11 24220.3 1205.10   8
   2  -4 -10 8406.23 683.500   1
  -2   4  10 8913.29 702.415   8
  -2   4  10 8062.58 815.553   6
   2  -4 -10 8527.83 755.134   2
  -2   4   9 969.840 181.756   7
   2  -4  -9 1055.40 286.100   1
  -2   4   9 496.642 223.175   8
  -2   4   9 651.040 298.809   6
   2  -4  -9 573.459 252.892   2
  -2   4   8 33577.1 1123.69   7
   2  -4  -8 33550.2 1329.90   1
  -2   4   8 33187.7 1337.06   8
  -2   4   8 33211.8 1581.58   6
   2  -4  -8 32528.7 1343.96   2
  -2   4   7 59305.2 2145.12   6
  -2   4   7 61381.1 1888.02   8
   2  -4  -7 57469.0 1796.84   1
  -2   4   7 58250.0 1648.77   7
   2  -4  -7 56759.6 1789.40   2
   2  -4  -6 94499.5 2412.60   2
  -2   4   6 97057.1 2362.06   7
   2  -4  -6 97328.0 2512.03   1
  -2   4   6 102091. 2662.49   8
   2  -4  -5 154586. 3278.03   2
   2  -4  -5 148488. 3418.79   1
   2  -4  -4 69299.7 1958.21   1
  -2   4   4 72365.6 1907.86   2
   2  -4  -4 65464.8 1732.82   2
  -2   4   4 66296.1 1870.29   4
  -2   4   3 5028.29 428.270   4
   2  -4  -3 5179.29 390.468   2
   2  -4  -3 5453.27 471.130   1
  -2   4   3 5784.72 394.479   2
   2  -4  -2 19340.9 905.457   1
   2  -4  -2 21963.6 767.414   2
   2  -4  -2 20439.8 507.284   5
  -2   4   2 20961.1 888.629   4
   2  -4  -1 205597. 3759.72   2
   2  -4  -1 197527. 4205.73   1
  -2   4   1 206096. 4144.27   4
   2  -4   0 212946. 3897.89   2
   2  -4   0 221203. 4363.87   1
  -2   4   0 211239. 4284.12   4
  -2   4   0 213148. 4176.47   3
  -2   4  -1 218375. 4379.71   4
  -2   4  -1 221773. 4291.40   3
  -2   4  -1 221737. 3771.64   5
  -2   4  -2 108271. 2388.04   3
  -2   4  -2 101296. 2402.69   4
  -2   4  -2 101752. 1974.60   5
   2  -4   3 4635.28 369.147   8
  -2   4  -3 4754.34 286.958   6
  -2   4  -3 5367.70 416.627   3
  -2   4  -3 4490.26 282.047   5
  -2   4  -3 4668.39 396.617   4
  -2   4  -4 16760.5 790.744   3
  -2   4  -4 16090.0 555.911   6
   2  -4   4 15756.9 740.668   8
  -2   4  -4 16731.9 768.921   4
  -2   4  -5 87378.3 2212.05   3
   2  -4   5 84848.0 2143.85   8
  -2   4  -5 82034.9 2109.09   4
  -2   4  -5 82975.2 1749.10   6
  -2   4  -6 83218.4 2132.77   3
   2  -4   6 80767.4 2046.62   8
  -2   4  -6 81179.3 1964.07   4
  -2   4  -7 112135. 2858.80   3
   2  -4   7 112568. 2788.84   8
  -2   4  -7 107317. 2593.77   4
  -2   4  -8 29735.2 1309.17   3
  -2   4  -8 28596.5 1105.02   4
   2  -4   8 27577.8 1238.55   8
  -2   4  -9 786.443 228.834   7
   2  -4   9 1167.53 316.947   8
  -2   4  -9 1400.40 252.193   4
  -2   4  -9 1155.05 325.429   3
  -2   4 -10 8567.10 576.753   4
  -2   4 -10 9449.41 813.830   3
  -2   4 -10 9371.95 642.513   7
   2  -4  10 9689.72 810.641   8
   2  -4  11 18451.2 1189.27   8
  -2   4 -11 19843.9 1236.74   3
  -2   4 -12 27599.5 1561.30   3
   2  -4  12 31324.3 1646.61   8
  -2   4 -13 26830.9 1558.62   3
   2  -4  13 24743.7 1545.30   8
  -2   3  15 808.775 287.260   8
  -2   3  15 732.039 372.388   6
  -2   3  14 3298.13 481.880   8
  -2   3  14 3098.53 538.428   6
   2  -3 -14 2596.05 593.752   3
   2  -3 -14 2317.12 508.352   2
   2  -3 -13 18979.1 1117.39   1
   2  -3 -13 17954.1 1423.29   3
  -2   3  13 19979.3 1296.91   6
   2  -3 -13 18328.7 1260.99   2
  -2   3  13 20098.5 1157.24   8
   2  -3 -12 20918.8 1181.82   1
  -2   3  12 18615.2 1111.83   8
   2  -3 -12 19675.4 1282.55   2
   2  -3 -12 18542.9 1419.52   3
  -2   3  11 32713.3 1643.79   6
  -2   3  11 32933.7 1460.59   8
   2  -3 -11 33069.2 1601.15   2
   2  -3 -11 29437.0 1412.75   1
  -2   3  10 15060.7 1076.61   6
  -2   3  10 15469.1 943.348   8
   2  -3 -10 13233.1 953.177   2
   2  -3 -10 13821.4 912.593   1
  -2   3   9 176.207 89.8088   7
  -2   3   9 189.828 204.145   8
   2  -3  -9 106.661 210.041   2
   2  -3  -9-64.8142 181.543   1
  -2   3   9 431.463 263.652   6
  -2   3   8 4429.38 330.056   7
   2  -3  -8 5246.50 518.189   1
  -2   3   8 4985.49 574.201   6
   2  -3  -8 5473.57 525.494   2
  -2   3   8 4651.53 492.311   8
   2  -3  -7 107426. 2751.56   1
  -2   3   7 109042. 2397.73   7
  -2   3   7 106226. 3043.28   6
  -2   3   7 111426. 2824.62   8
   2  -3  -7 108682. 2740.65   2
  -2   3   6 81576.5 2269.87   8
  -2   3   6 78231.0 1871.31   7
   2  -3  -6 76013.5 2123.67   1
   2  -3  -6 77151.4 2090.66   2
   2  -3  -5 88127.2 2289.04   1
   2  -3  -5 88689.3 2171.25   2
  -2   3   4 44057.4 1287.67   2
   2  -3  -4 40501.7 1375.54   1
  -2   3   4 42244.7 1277.15   4
   2  -3  -4 39883.5 1217.87   2
   2  -3  -3 1563.59 266.933   1
  -2   3   3 1591.42 220.149   2
   2  -3  -3 1557.70 197.747   2
  -2   3   3 1915.23 246.816   4
  -2   3   2 78950.9 1745.36   2
  -2   3   2 81011.0 1936.88   4
   2  -3  -2 79841.5 2089.67   1
   2  -3  -2 83070.1 1808.43   2
   2  -3  -1 99859.4 2418.69   1
   2  -3  -1 108696. 2272.99   3
   2  -3  -1 102280. 2047.23   2
  -2   3   1 105531. 2315.46   4
  -2   3   0 330281. 5876.06   3
   2  -3   0 327169. 5603.95   2
   2  -3   0 332741. 5862.58   3
   2  -3   0 326639. 6059.78   1
  -2   3   0 321835. 5946.15   4
  -2   3  -1 89160.0 1956.83   3
  -2   3  -1 87414.1 1558.63   5
  -2   3  -1 85571.7 2007.16   4
  -2   3  -2 59043.5 1488.53   3
  -2   3  -2 59145.8 1205.53   5
  -2   3  -2 57026.8 1517.99   4
   2  -3   2 60680.1 1510.11   4
  -2   3  -2 59458.0 1338.63   6
  -2   3  -3 397.825 136.830   4
  -2   3  -3 370.672 140.650   3
   2  -3   3 340.367 132.518   8
  -2   3  -3 272.777 79.0899   6
  -2   3  -4 18515.7 771.721   3
  -2   3  -4 18272.1 598.167   6
   2  -3   4 17358.2 738.610   8
  -2   3  -4 17454.9 735.916   4
  -2   3  -5 92080.1 2234.19   3
  -2   3  -5 91477.3 1872.53   6
  -2   3  -5 88666.8 2107.06   4
   2  -3   5 88246.7 2171.02   8
   2  -3   6 67706.5 1857.19   8
   2  -3   6 69435.6 1531.85   6
  -2   3  -6 68689.2 1896.80   3
  -2   3  -6 65422.3 1728.85   4
  -2   3  -6 67423.9 1523.22   6
  -2   3  -7 86518.2 2314.05   3
   2  -3   7 85609.2 1849.08   6
  -2   3  -7 83366.5 2058.53   4
   2  -3   7 82835.4 2232.95   8
   2  -3   8 35741.3 1384.42   8
   2  -3   8 36163.6 1031.98   6
  -2   3  -8 35659.2 1412.81   3
  -2   3  -8 35581.3 1181.03   4
   2  -3   9 9905.09 740.791   8
   2  -3   9 10167.9 506.085   6
  -2   3  -9 9525.05 743.778   3
  -2   3  -9 9161.16 565.944   4
   2  -3  10 1997.05 389.488   8
   2  -3  10 2333.66 256.129   6
  -2   3 -10 2400.06 416.394   3
  -2   3 -10 2299.05 302.907   7
  -2   3 -10 2019.60 281.309   4
   2  -3  11 25278.8 1352.72   8
  -2   3 -11 23592.1 1325.96   3
  -2   3 -12 20908.1 1307.36   3
   2  -3  12 21020.5 1311.66   8
  -2   3 -13 13752.5 1103.10   3
   2  -3  13 13213.0 1095.76   8
   2  -3  14 8787.04 931.234   8
  -2   3 -14 9072.68 955.677   3
  -2   2  14 7276.46 730.359   8
  -2   2  14 7873.45 798.097   6
   2  -2 -14 5829.90 906.503   3
  -2   2  13 8223.34 779.240   8
  -2   2  13 11592.9 947.271   6
   2  -2 -13 6323.50 892.377   3
   2  -2 -13 9429.96 824.308   1
  -2   2  12 18535.5 1145.94   8
  -2   2  12 20486.8 1267.26   6
   2  -2 -12 18234.3 1411.68   3
   2  -2 -12 18667.2 1242.61   2
   2  -2 -12 20073.6 1213.11   1
   2  -2 -11 18680.8 1156.76   1
  -2   2  11 21382.7 1280.13   6
   2  -2 -11 16946.3 1281.33   3
   2  -2 -11 17688.6 1150.12   2
  -2   2  11 19411.2 1133.63   8
   2  -2 -10 5964.66 640.636   1
  -2   2  10 5702.67 592.482   8
   2  -2 -10 5407.07 602.011   2
  -2   2  10 5913.21 652.830   6
   2  -2  -9 1901.09 355.811   1
   2  -2  -9 1232.09 290.527   2
  -2   2   9 1628.05 371.932   6
  -2   2   9 1774.92 336.846   8
  -2   2   8 10538.4 413.598   7
   2  -2  -8 11952.1 495.951   4
  -2   2   8 10381.6 813.868   6
  -2   2   8 11220.3 765.528   8
   2  -2  -8 11137.6 730.467   2
   2  -2  -8 9998.76 743.793   1
   2  -2  -7 42701.1 1578.66   1
  -2   2   7 45134.7 1136.53   7
   2  -2  -7 43538.8 1152.52   4
  -2   2   7 43879.3 1707.90   6
  -2   2   7 43796.7 1586.46   8
   2  -2  -7 42011.9 1448.98   2
  -2   2   6 101765. 2665.38   8
   2  -2  -6 104424. 2168.38   4
   2  -2  -6 99201.6 2630.13   1
   2  -2  -6 97758.0 2404.61   2
  -2   2   5 63891.4 1644.51   2
   2  -2  -5 61682.5 1825.71   1
   2  -2  -5 63433.1 1518.86   4
  -2   2   5 63577.8 1950.27   8
   2  -2  -5 59970.3 1621.51   2
   2  -2  -4 33371.4 978.935   4
   2  -2  -4 32532.7 1167.65   1
  -2   2   4 32722.2 995.800   4
   2  -2  -4 31850.6 988.036   2
  -2   2   4 31417.6 1020.89   2
   2  -2  -3 7070.35 392.904   4
  -2   2   3 6418.91 395.106   2
   2  -2  -3 6092.13 468.451   1
  -2   2   3 6491.05 382.627   4
   2  -2  -3 6091.22 355.131   2
   2  -2  -2 36596.4 1033.33   4
  -2   2   2 35178.8 1025.09   4
   2  -2  -2 36043.4 1185.14   1
   2  -2  -2 37452.0 1161.09   3
  -2   2   2 36602.7 982.604   2
   2  -2  -2 36820.9 937.077   2
   2  -2  -1 44150.0 1160.00   4
  -2   2   1 42306.5 922.601   2
   2  -2  -1 45729.1 1145.20   3
  -2   2   1 41091.8 1126.34   4
   2  -2  -1 43683.0 1322.80   1
   2  -2  -1 42836.5 986.022   2
   2  -2   0 116675. 2287.49   3
   2  -2   0 110981. 2491.33   1
  -2   2   0 113117. 2363.98   4
   2  -2   0 116728. 2064.03   2
  -2   2   0 114711. 2283.49   3
   2  -2   1 157244. 3161.27   1
  -2   2  -1 156194. 3100.99   4
   2  -2   1 161687. 3009.23   3
  -2   2  -1 158425. 2997.88   3
  -2   2  -1 159504. 3033.62   8
  -2   2  -2 59620.3 1474.45   4
  -2   2  -2 59840.9 1417.33   3
   2  -2   2 64549.8 1453.08   3
   2  -2   2 61013.2 1465.42   4
  -2   2  -2 62028.2 1345.18   6
  -2   2  -3 29095.1 924.255   4
  -2   2  -3 31510.0 824.392   6
   2  -2   3 30321.6 897.392   4
   2  -2   3 30035.1 925.388   8
  -2   2  -3 30885.5 937.289   3
   2  -2   3 30599.1 855.145   2
   2  -2   3 31833.4 937.210   3
  -2   2  -4 17897.7 586.750   6
  -2   2  -4 17441.5 713.240   3
  -2   2  -4 18251.9 694.561   4
   2  -2   4 17050.8 698.009   8
   2  -2   4 17740.2 580.001   6
   2  -2   4 19374.8 674.877   2
   2  -2   4 18028.2 653.194   4
  -2   2  -5 48176.5 1398.61   3
   2  -2   5 47720.0 1167.89   6
  -2   2  -5 50410.1 1179.88   6
  -2   2  -5 48612.3 1318.78   4
   2  -2   5 51045.1 1257.76   4
   2  -2   5 49015.2 1389.05   8
   2  -2   6 122531. 2444.40   4
   2  -2   6 119680. 2397.88   6
  -2   2  -6 122508. 2757.57   3
  -2   2  -6 117577. 2544.36   4
  -2   2  -6 117876. 2407.67   6
   2  -2   6 122325. 2733.92   8
  -2   2  -7 80715.0 2131.75   3
   2  -2   7 78683.0 2085.67   8
   2  -2   7 77080.4 1744.37   6
  -2   2  -7 77890.7 1875.40   4
   2  -2   8 28055.1 1152.15   8
   2  -2   8 27875.0 894.313   6
  -2   2  -8 27059.4 960.407   4
  -2   2  -8 29927.7 1216.92   3
   2  -2   9 4868.48 361.484   6
   2  -2   9 4896.46 514.337   8
  -2   2  -9 5278.52 530.304   3
  -2   2  -9 5419.46 406.660   4
  -2   2 -10 302.920 145.368   4
   2  -2  10 163.991 201.720   8
   2  -2  10 191.032 121.785   6
  -2   2 -10-24.6190 223.028   3
   2  -2  11 9480.99 558.913   6
  -2   2 -11 9646.84 529.507   4
  -2   2 -11 7776.14 728.804   3
   2  -2  11 9930.59 816.781   8
   2  -2  12 23591.5 1365.68   8
  -2   2 -12 23309.9 1352.86   3
   2  -2  12 23889.1 946.413   6
  -2   2 -13 14770.8 1146.08   3
   2  -2  13 16103.0 1191.69   8
  -2   2 -14 5588.16 738.362   3
   2  -2  14 6158.89 757.322   8
  -2   1  14 674.604 322.214   8
   2  -1 -14 455.747 390.479   3
  -2   1  13 7167.82 760.418   8
   2  -1 -13 6474.92 748.733   1
  -2   1  13 7280.22 758.281   6
   2  -1 -13 7150.59 871.033   3
  -2   1  12 26681.8 1425.61   8
  -2   1  12 24887.7 1400.90   6
   2  -1 -12 22516.3 1478.18   3
   2  -1 -12 23769.6 1424.56   1
  -2   1  11 23649.9 1306.71   8
   2  -1 -11 21978.0 1361.56   1
   2  -1 -11 21449.0 1363.62   3
   2  -1 -11 24571.6 1335.57   2
  -2   1  11 24221.0 1342.52   6
  -2   1  10 30022.6 1420.87   8
  -2   1  10 28075.6 1421.49   6
   2  -1 -10 30392.3 1555.97   1
   2  -1 -10 27941.3 1463.34   3
   2  -1 -10 28371.4 1349.16   2
  -2   1   9 293.442 237.844   8
   2  -1  -9 37.4150 182.159   1
   2  -1  -9 452.637 226.142   2
  -2   1   9 572.706 269.037   6
   2  -1  -9-36.6809 236.868   3
   2  -1  -8 1005.61 268.339   1
   2  -1  -8 1199.52 138.361   9
   2  -1  -8 1050.38 262.187   2
  -2   1   8 1227.17 290.835   6
   2  -1  -8 1236.32 124.148   4
  -2   1   8 692.134 259.357   8
  -2   1   7 48687.6 1077.56   7
  -2   1   7 52792.9 1810.50   8
   2  -1  -7 51818.9 1605.00   2
  -2   1   7 51877.4 1029.51   7
   2  -1  -7 53354.4 1153.78   4
   2  -1  -7 53267.1 1772.17   1
  -2   1   7 51127.7 1799.54   6
   2  -1  -6 130973. 3138.43   1
  -2   1   6 130453. 3246.23   8
   2  -1  -6 136241. 2526.63   4
   2  -1  -6 129570. 2917.39   2
   2  -1  -5 171464. 3650.11   1
  -2   1   5 167200. 3794.38   8
   2  -1  -5 167050. 3091.63   4
   2  -1  -5 161404. 3345.07   2
  -2   1   5 168195. 3309.01   2
   2  -1  -4 91607.3 2303.35   1
   2  -1  -4 95323.0 1932.04   4
  -2   1   4 95933.8 1953.52   4
   2  -1  -4 93105.3 2044.11   2
  -2   1   4 96679.6 2548.35   8
  -2   1   4 96255.5 2050.24   2
  -2   1   3 57627.4 1325.57   2
   2  -1  -3 58476.1 1308.57   4
   2  -1  -3 58876.5 1622.97   1
  -2   1   3 57045.6 1307.39   4
   2  -1  -3 55625.0 1301.49   2
   2  -1  -2 1796.90 170.002   4
  -2   1   2 1665.35 167.571   4
  -2   1   2 1406.19 147.921   2
   2  -1  -2 1900.21 245.804   1
   2  -1  -2 1729.61 142.107   2
  -2   1   1 78804.6 1701.23   4
   2  -1  -1 82391.1 1459.09   5
  -2   1   1 82686.0 1565.46   2
   2  -1  -1 80076.2 1487.00   2
   2  -1  -1 81225.6 1950.29   1
   2  -1  -1 87074.6 1742.24   3
   2  -1  -1 82459.3 1719.97   4
   2  -1   0 133511. 2733.22   1
  -2   1   0 134161. 2514.06   4
   2  -1   0 130633. 2381.82   3
   2  -1   1 243983. 4215.04   3
  -2   1  -1 247080. 4247.67   6
  -2   1  -1 236020. 4208.66   3
   2  -1   1 243948. 4030.18   2
  -2   1  -1 238101. 4335.21   4
   2  -1   1 243197. 4444.97   1
  -2   1  -2 98985.7 2025.88   4
   2  -1   2 97637.4 1958.51   3
  -2   1  -2 96683.0 1930.43   3
  -2   1  -2 101760. 1938.42   6
   2  -1   2 99608.9 1843.93   2
   2  -1   2 96688.4 1999.84   4
   2  -1   3 66853.6 1443.53   6
  -2   1  -3 66830.6 1526.47   3
  -2   1  -3 70828.1 1468.13   6
   2  -1   3 71264.6 1522.43   3
   2  -1   3 71972.8 1473.03   2
  -2   1  -3 67472.5 1541.36   4
   2  -1   3 69011.9 1527.59   4
   2  -1   3 68226.2 1547.71   8
   2  -1   4 882.199 133.189   4
  -2   1  -4 812.411 139.710   4
   2  -1   4 891.913 139.412   2
   2  -1   4 907.057 124.570   6
  -2   1  -4 841.226 152.702   3
   2  -1   4 936.346 151.053   3
   2  -1   4 1113.16 172.974   8
  -2   1  -4 906.478 126.834   6
   2  -1   5 95568.3 2157.46   8
   2  -1   5 93557.8 1965.66   6
  -2   1  -5 97633.6 1997.64   6
   2  -1   5 96801.9 2002.02   4
  -2   1  -5 98115.6 2167.73   3
  -2   1  -5 96280.8 2063.00   4
   2  -1   6 129859. 2835.97   8
  -2   1  -6 138409. 2899.29   3
  -2   1  -6 128496. 2671.53   4
   2  -1   6 128968. 2604.55   6
  -2   1  -6 131667. 2829.93   2
   2  -1   6 136580. 2583.93   1
   2  -1   6 129671. 2575.33   4
   2  -1   7 138030. 2801.31   6
  -2   1  -7 140328. 3118.25   3
  -2   1  -7 139413. 3072.90   2
   2  -1   7 137260. 3074.00   8
  -2   1  -7 139892. 2851.13   4
   2  -1   7 143713. 2727.30   4
   2  -1   8 126791. 2968.96   8
   2  -1   8 120282. 2626.88   6
  -2   1  -8 130538. 3032.28   3
   2  -1   8 127322. 2500.72   4
  -2   1  -8 126857. 2648.41   4
  -2   1  -9 3069.61 297.706   4
   2  -1   9 2560.26 282.365   6
   2  -1   9 2573.49 351.701   8
  -2   1  -9 2234.27 351.497   3
   2  -1   9 3003.95 184.955   9
   2  -1  10 552.584 63.3599   9
   2  -1  10 559.079 171.341   6
  -2   1 -10 847.549 290.045   3
   2  -1  10 488.803 202.718   8
  -2   1 -10 362.237 121.745   4
  -2   1 -11 17269.8 720.149   4
   2  -1  11 17413.9 836.540   6
  -2   1 -11 16938.4 1055.12   3
   2  -1  11 17148.4 1052.27   8
   2  -1  12 30636.4 1184.03   6
  -2   1 -12 31282.7 1559.81   3
   2  -1  12 32580.8 1573.29   8
   2  -1  13 28110.3 1148.58   6
  -2   1 -13 27762.9 1545.35   3
   2  -1  13 28459.2 1570.21   8
  -2   1 -14 16571.2 1257.55   3
   2  -1  14 18905.9 1318.50   8
  -2   1 -15 3359.65 601.356   3
   2  -1  15 3472.39 616.741   8
  -2   0  14 335.614 277.623   8
   2   0 -14 163.967 256.181   1
   2   0 -14 162.849 352.541   3
   2   0 -13 12836.9 1107.87   1
  -2   0  13 13540.0 999.625   6
   2   0 -13 11981.0 1099.00   3
  -2   0  13 14347.1 1114.87   8
   2   0 -12 28997.7 1702.40   1
  -2   0  12 30053.0 1603.78   8
  -2   0  12 29808.1 1519.65   6
   2   0 -12 28089.0 1604.77   3
   2   0 -11 46861.7 1976.11   3
  -2   0  11 48272.3 1957.63   6
  -2   0  11 49439.5 2026.01   8
   2   0 -11 47393.6 2130.15   1
   2   0 -10 40946.0 1709.72   3
   2   0 -10 35098.4 1672.91   1
  -2   0  10 38090.1 1654.93   6
  -2   0  10 41200.0 1762.50   8
  -2   0   9 6261.06 640.638   8
  -2   0   9 5785.72 592.909   6
   2   0  -9 5956.94 597.476   3
   2   0  -9 6462.08 639.001   1
  -2   0   8 9626.46 736.625   6
   2   0  -8 10052.7 732.037   1
   2   0  -8 10973.6 739.096   3
  -2   0   8 10195.4 794.937   8
   2   0  -8 9874.27 679.727   2
   2   0  -7 35040.3 846.461   9
   2   0  -7 31715.1 1254.55   1
  -2   0   7 30636.4 1388.20   8
   2   0  -7 30173.9 1223.89   3
   2   0  -7 31138.1 1187.29   2
  -2   0   7 31937.6 1331.29   6
  -2   0   6 141311. 2554.63   7
   2   0  -6 152951. 2700.89   9
   2   0  -6 143658. 3245.90   1
  -2   0   6 142672. 3528.52   8
   2   0  -6 142257. 3118.68   2
   2   0  -6 145831. 2531.97   4
  -2   0   5 135631. 2417.13   7
   2   0  -5 130344. 2968.76   1
   2   0  -5 131763. 2832.42   2
  -2   0   5 142861. 2782.90   2
  -2   0   5 130984. 3279.69   8
   2   0  -5 137040. 2554.97   9
   2   0  -5 136902. 2425.54   4
   2   0  -4 184740. 3764.24   1
  -2   0   4 188566. 4191.90   8
   2   0  -4 191996. 3316.79   4
   2   0  -4 184667. 3590.78   2
  -2   0   4 191129. 3336.28   4
  -2   0   4 192836. 3575.19   2
   2   0  -3 16283.9 478.585   4
   2   0  -3 17709.3 704.080   1
  -2   0   3 17206.5 902.437   8
  -2   0   3 16615.6 645.720   1
  -2   0   3 16090.5 548.381   2
   2   0  -3 16110.2 554.273   2
  -2   0   3 16142.9 479.926   4
   2   0  -2 177.240 65.0367   4
  -2   0   2 279.937 70.6596   4
   2   0  -2 251.157 71.4242   2
  -2   0   2 211.812 56.6105   2
   2   0  -2 225.605 109.287   1
   2   0  -1 242359. 4443.96   1
   2   0  -1 242064. 4149.86   5
  -2   0   1 238131. 4214.03   4
  -2   0   1 245156. 4071.02   2
   2   0  -1 247674. 4224.27   4
  -2   0   0 590287. 10074.1   4
   2   0   0 587414. 9896.90   3
  -2   0   0 631900. 10373.3   1
  -2   0   0 620518. 9902.53   5
   2   0   0 598273. 9900.40   5
   2   0   0 593044. 10255.9   1
   2   0   0 606515. 10090.4   4
  -2   0  -1 989005. 15833.4   3
   2   0   1 999999. 16181.3   1
  -2   0  -1 974020. 16181.5   1
   2   0   1 977905. 15841.0   3
  -2   0  -1 964185. 16030.6   4
  -2   0  -2 377678. 6445.45   2
   2   0   2 386724. 6640.87   1
   2   0   2 381195. 6567.24   6
   2   0   2 395706. 6487.33   3
  -2   0  -2 386714. 6488.46   3
  -2   0  -2 393507. 6641.01   4
   2   0   2 398527. 6481.97   2
   2   0   3 33165.0 861.064   4
   2   0   3 31690.1 823.693   6
  -2   0  -3 32790.3 831.627   3
   2   0   3 33387.9 830.820   3
  -2   0  -3 34109.0 822.550   2
  -2   0  -3 33798.2 844.044   6
   2   0   3 33642.5 844.542   2
  -2   0  -3 31272.1 869.640   4
   2   0   3 32672.9 862.321   8
  -2   0  -3 32991.5 857.492   8
   2   0   4 3541.77 239.209   4
  -2   0  -4 4332.36 271.989   8
   2   0   4 4225.41 276.278   3
  -2   0  -4 4276.26 266.355   6
  -2   0  -4 4304.07 283.606   3
   2   0   4 4224.90 283.615   2
  -2   0  -4 3810.35 266.666   2
  -2   0  -4 3990.43 272.033   4
   2   0   4 3897.32 272.467   8
   2   0   4 4031.14 254.783   6
   2   0   5 59574.2 1449.81   8
  -2   0  -5 57476.7 1455.05   3
   2   0   5 58712.0 1456.73   2
  -2   0  -5 60508.0 1399.07   6
  -2   0  -5 57793.8 1466.43   2
   2   0   5 58097.3 1371.25   6
  -2   0  -5 59521.5 1397.18   4
  -2   0  -5 60221.8 1412.50   8
   2   0   5 59377.0 1353.12   4
   2   0   6 231158. 4161.06   4
   2   0   6 234201. 4031.56   1
   2   0   6 224793. 4354.07   8
  -2   0  -6 227571. 4215.63   4
   2   0   6 221814. 4224.57   6
  -2   0  -6 231666. 4428.82   3
  -2   0  -6 228687. 4426.55   2
  -2   0  -7 103045. 2224.29   4
   2   0   7 104125. 2277.03   6
  -2   0  -7 103509. 2471.96   3
  -2   0  -7 104102. 2486.66   2
   2   0   7 100740. 2388.74   8
   2   0   7 104876. 1976.15   9
   2   0   7 107779. 2054.76   1
  -2   0  -8 78002.3 1540.91   7
  -2   0  -8 77898.7 1793.51   4
   2   0   8 75024.2 2019.76   8
   2   0   8 78273.2 1891.45   6
  -2   0  -8 76775.8 2096.32   3
   2   0   8 74512.0 1492.65   9
  -2   0  -8 77615.1 2109.34   2
   2   0   8 77816.7 1623.00   1
  -2   0  -9 36049.7 822.259   7
   2   0   9 34636.6 1158.01   6
  -2   0  -9 36928.5 1386.25   3
  -2   0  -9 35415.7 1385.36   2
   2   0   9 33871.6 753.578   9
   2   0   9 34475.2 1302.60   8
  -2   0  -9 34658.4 1066.04   4
   2   0  10 4971.36 433.337   6
  -2   0 -10 4843.62 535.148   2
  -2   0 -10 4133.25 494.430   3
   2   0  10 5002.13 504.890   8
  -2   0 -10 4620.81 226.373   7
  -2   0 -10 4609.15 366.957   4
   2   0  11 13211.6 764.920   6
  -2   0 -11 13185.8 923.452   3
  -2   0 -11 13961.7 650.694   4
  -2   0 -11 14117.7 958.295   2
   2   0  11 14170.3 914.580   8
  -2   0 -12 39436.0 1742.42   3
   2   0  12 39681.9 1708.57   8
   2   0  12 40092.1 1483.89   6
  -2   0 -13 50695.6 2156.61   3
   2   0  13 51832.9 1805.98   6
   2   0  13 53265.5 2146.10   8
   2   0  14 16691.6 970.580   6
  -2   0 -14 14364.1 1174.01   3
   2   0  14 15171.4 1150.46   8
   2   0  15 8229.11 860.157   8
  -2   0 -15 6602.29 852.236   3
  -2  -1  14 1435.96 449.955   8
   2   1 -14 1524.31 475.712   3
   2   1 -13 16522.9 1254.92   3
  -2  -1  13 17032.0 1279.71   8
   2   1 -13 15658.6 1306.50   1
  -2  -1  12 27273.4 1595.89   8
   2   1 -12 27552.1 1533.97   3
  -2  -1  12 26628.2 1429.58   6
   2   1 -12 26315.6 1629.50   1
   2   1 -11 40374.9 1776.66   3
   2   1 -11 39367.8 1879.19   1
  -2  -1  11 43514.5 1953.90   8
  -2  -1  10 18833.2 1120.93   6
   2   1 -10 19001.2 1110.15   3
  -2  -1  10 20491.9 1278.73   8
   2   1 -10 19034.0 1166.67   1
  -2  -1   9 14625.7 930.000   6
   2   1  -9 16061.8 951.454   3
   2   1  -9 15381.7 966.518   1
  -2  -1   9 16048.6 1084.58   8
  -2  -1   8 17119.4 947.476   6
   2   1  -8 17988.3 968.055   1
   2   1  -8 16789.9 911.429   3
  -2  -1   8 17641.8 1111.24   8
  -2  -1   7 49030.7 1668.95   6
   2   1  -7 52141.2 1621.60   3
   2   1  -7 51437.5 1654.94   1
  -2  -1   7 50600.7 1924.10   8
   2   1  -6 150438. 3394.32   1
  -2  -1   6 152355. 3857.49   8
  -2  -1   6 147786. 3461.97   6
   2   1  -6 151558. 3351.78   3
  -2  -1   5 203825. 3704.83   7
   2   1  -5 210836. 4078.47   3
  -2  -1   5 196576. 4640.53   8
   2   1  -5 199560. 4122.87   1
  -2  -1   4 85453.1 2451.72   8
  -2  -1   4 90121.1 1675.81   7
   2   1  -4 90042.1 1732.24   9
  -2  -1   4 81014.2 1517.89   4
   2   1  -4 82693.7 1989.03   1
   2   1  -4 88412.8 1921.91   3
  -2  -1   4 91632.1 1904.57   2
  -2  -1   3 36156.4 1405.49   8
   2   1  -3 35313.2 886.045   9
   2   1  -3 36778.9 1062.74   1
   2   1  -3 37804.3 969.359   3
  -2  -1   3 36609.4 759.104   4
  -2  -1   3 37486.2 838.476   7
  -2  -1   3 37131.7 966.511   2
   2   1  -3 37099.2 774.584   4
  -2  -1   2 28009.1 1172.90   8
   2   1  -2 26279.3 811.367   1
   2   1  -2 27966.0 710.663   3
  -2  -1   2 27362.0 627.187   4
   2   1  -2 27111.2 769.817   5
  -2  -1   2 28017.3 723.121   2
   2   1  -2 27672.5 724.097   9
  -2  -1   2 27188.1 665.175   7
   2   1  -2 28393.3 648.885   4
   2   1  -1 319430. 5578.28   1
   2   1  -1 326485. 5350.68   3
   2   1  -1 311893. 5505.54   9
   2   1  -1 319593. 5493.62   5
  -2  -1   1 328592. 5489.54   5
  -2  -1   1 316117. 5410.88   4
  -2  -1   1 325672. 5439.21   7
   2   1  -1 322135. 5433.12   4
   2   1   0 30530.7 772.058   1
  -2  -1   0 30202.2 719.060   6
  -2  -1   0 32049.0 799.111   1
  -2  -1   0 29920.0 705.066   5
   2   1   0 30614.7 716.117   5
  -2  -1   0 30014.4 741.041   4
   2   1   0 31863.5 755.648   4
  -2  -1  -1 550285. 9360.42   2
   2   1   1 567271. 9433.23   6
   2   1   1 556356. 9413.24   1
  -2  -1  -1 565705. 9490.88   4
  -2  -1  -1 579170. 9519.06   1
  -2  -1  -1 566302. 9392.86   5
   2   1   1 570367. 9311.26   2
  -2  -1  -2 179201. 3090.62   8
   2   1   2 178219. 3058.39   1
   2   1   2 171228. 3146.34   6
  -2  -1  -2 175825. 3011.52   3
  -2  -1  -2 183982. 3272.30   2
   2   1   2 178966. 3181.03   2
  -2  -1  -2 170067. 3192.08   4
   2   1   2 171260. 3152.70   9
  -2  -1  -2 179062. 3150.17   1
  -2  -1  -3 21209.1 666.776   2
   2   1   3 23472.5 723.049   2
   2   1   3 20754.8 621.820   6
  -2  -1  -3 20066.6 577.834   3
  -2  -1  -3 19602.0 628.651   4
   2   1   3 21636.5 522.760   1
  -2  -1  -3 21071.6 580.651   8
   2   1   3 20593.8 584.359   8
   2   1   3 20702.0 592.505   9
   2   1   3 21310.7 643.329   4
  -2  -1  -4 26323.5 850.387   2
  -2  -1  -4 29789.4 731.313   7
   2   1   4 27834.2 798.185   6
  -2  -1  -4 29704.9 825.857   6
  -2  -1  -4 28234.3 812.083   3
   2   1   4 29391.4 894.611   2
   2   1   4 27730.6 717.777   9
  -2  -1  -4 27995.3 815.479   4
   2   1   4 27065.9 758.277   8
   2   1   4 28207.5 801.568   4
  -2  -1  -4 29189.7 763.739   8
   2   1   5 98292.0 1741.43   1
  -2  -1  -5 93337.2 2163.12   2
   2   1   5 94068.9 2054.17   6
   2   1   5 97726.2 2029.30   8
  -2  -1  -5 99959.1 2086.63   6
  -2  -1  -5 101045. 2139.33   3
   2   1   5 105008. 2192.85   2
  -2  -1  -5 99341.6 1897.17   7
   2   1   5 94233.5 1868.10   9
  -2  -1  -5 98051.6 2048.24   4
  -2  -1  -5 98398.1 1996.40   8
  -2  -1  -6 173428. 3239.35   8
  -2  -1  -6 176568. 3067.89   7
   2   1   6 162657. 3029.72   9
  -2  -1  -6 164655. 3424.46   3
   2   1   6 165086. 3329.16   6
  -2  -1  -6 165548. 3491.33   2
   2   1   6 176169. 2963.76   1
   2   1   6 166347. 3312.90   8
  -2  -1  -6 171960. 3287.60   4
  -2  -1  -7 197590. 3394.84   7
   2   1   7 183801. 3741.30   6
  -2  -1  -7 191968. 3912.82   3
  -2  -1  -7 194403. 3982.74   2
   2   1   7 185918. 3337.77   9
  -2  -1  -7 187478. 3646.73   4
   2   1   7 187410. 3748.32   8
   2   1   7 190996. 3333.36   1
   2   1   8 74636.3 1479.29   9
   2   1   8 73158.0 1924.10   6
   2   1   8 75778.7 1530.10   1
  -2  -1  -8 80843.5 1536.28   7
   2   1   8 75017.7 1949.04   8
  -2  -1  -8 72463.5 2097.17   2
  -2  -1  -8 76379.0 1803.02   4
  -2  -1  -8 73563.8 2058.32   3
  -2  -1  -9 18434.0 529.726   7
   2   1   9 16654.4 811.706   6
  -2  -1  -9 18056.2 729.282   4
   2   1   9 17958.0 560.622   1
  -2  -1  -9 17927.8 939.026   3
  -2  -1  -9 17832.6 970.596   2
   2   1   9 17602.9 853.296   8
   2   1  10 332.606 154.924   8
  -2  -1 -10 159.456 109.759   4
  -2  -1 -10 90.6897 54.9110   7
  -2  -1 -10 270.624 185.056   3
   2   1  10-19.4245 166.409   6
   2   1  10 5.65789 72.4706   1
  -2  -1 -10 156.079 207.742   2
   2   1  11 14991.0 915.217   8
   2   1  11 16238.6 897.420   6
  -2  -1 -11 13427.8 939.276   3
  -2  -1 -11 14723.9 999.414   2
  -2  -1 -11 15549.4 714.390   4
   2   1  12 29140.0 1401.23   8
  -2  -1 -12 28457.6 1490.61   3
   2   1  12 30627.3 1355.30   6
  -2  -1 -12 30359.6 1025.43   4
  -2  -1 -12 26683.9 1458.91   2
   2   1  13 27629.4 1360.60   6
  -2  -1 -13 25395.5 1505.95   3
  -2  -1 -13 26846.7 1544.56   2
   2   1  13 30446.5 1490.61   8
   2   1  14 19212.3 1152.28   6
  -2  -1 -14 17525.9 1334.13   3
  -2  -1 -14 20027.5 1400.93   2
   2   1  14 20139.0 1250.86   8
   2   1  15 998.419 328.255   8
   2   1  15 999.902 328.409   6
  -2  -1 -15 528.108 378.685   3
   2   1  16-41.3896 252.353   8
   2   2 -14 1426.78 470.063   3
   2   2 -13 11042.5 998.824   3
  -2  -2  13 10019.2 1037.76   8
  -2  -2  12 20671.4 1457.53   8
   2   2 -12 19678.7 1393.56   1
   2   2 -12 21126.7 1341.94   3
  -2  -2  11 20402.1 1405.60   8
   2   2 -11 19972.8 1218.97   3
   2   2 -11 20132.4 1332.93   1
   2   2 -10 16032.8 1016.83   3
  -2  -2  10 15792.9 1193.80   8
   2   2 -10 16167.3 1074.15   1
  -2  -2  10 14533.0 925.693   6
  -2  -2   9 2321.90 367.313   6
   2   2  -9 2659.90 411.033   3
   2   2  -9 2153.64 377.245   1
  -2  -2   9 2487.91 467.462   8
  -2  -2   8-63.9465 252.550   8
  -2  -2   8 0.97739 114.518   6
   2   2  -8-41.7976 169.910   3
   2   2  -8 100.613 158.505   1
  -2  -2   7 32624.7 1263.16   6
  -2  -2   7 33523.7 1539.44   8
   2   2  -7 30617.9 1182.45   3
   2   2  -7 30201.9 1213.20   1
   2   2  -6 70910.7 1861.68   3
   2   2  -6 68615.1 1903.35   1
  -2  -2   6 69279.5 2242.10   8
  -2  -2   6 65895.6 1871.14   6
   2   2  -5 136976. 2981.47   1
  -2  -2   5 132734. 2608.48   7
   2   2  -5 140066. 2911.15   3
  -2  -2   5 131232. 2949.97   6
   2   2  -5 144579. 2731.99   9
  -2  -2   5 137503. 3383.57   8
  -2  -2   4 99288.4 2103.99   7
  -2  -2   4 93731.1 2556.38   8
  -2  -2   4 100295. 2134.85   2
   2   2  -4 96990.0 2127.06   3
   2   2  -4 100949. 2033.94   9
   2   2  -4 95814.4 2218.40   1
  -2  -2   3 37585.0 962.502   7
   2   2  -3 37038.4 971.579   3
   2   2  -3 34854.3 805.371   7
  -2  -2   3 35631.2 721.130   4
  -2  -2   3 35746.5 993.756   2
   2   2  -3 35036.9 1039.63   5
  -2  -2   3 34083.4 1288.67   8
   2   2  -3 38292.6 957.010   9
   2   2  -3 35444.0 1046.90   1
  -2  -2   3 35565.0 864.155   9
   2   2  -2 5812.26 256.268   7
  -2  -2   2 5608.79 468.152   8
  -2  -2   2 5676.46 277.953   9
   2   2  -2 5447.51 273.413   3
  -2  -2   2 5490.81 279.080   3
   2   2  -2 5741.12 304.051   9
   2   2  -2 5441.85 328.088   5
  -2  -2   2 5515.29 220.964   4
  -2  -2   2 5662.98 296.441   7
   2   2  -2 5391.40 334.475   1
  -2  -2   1 60656.3 1165.73   6
  -2  -2   1 63815.1 1773.35   8
  -2  -2   1 58724.0 1284.67   9
   2   2  -1 57543.2 1177.23   3
  -2  -2   1 60006.7 1183.00   3
   2   2  -1 57368.4 1231.64   7
  -2  -2   1 61762.8 1328.35   5
  -2  -2   1 58880.2 1211.55   4
  -2  -2   1 62433.9 1296.01   7
   2   2  -1 59365.9 1329.71   5
   2   2  -1 59899.2 1312.20   9
   2   2  -1 60155.3 1343.60   1
   2   2   0 513520. 8658.61   1
  -2  -2   0 530335. 8475.65   3
  -2  -2   0 519613. 8696.87   9
  -2  -2   0 543779. 8580.20   6
  -2  -2   0 526609. 8676.48   1
  -2  -2   0 524162. 8683.58   5
   2   2   0 519608. 8687.05   5
  -2  -2   0 523265. 8682.29   7
   2   2   0 501773. 8645.54   7
   2   2   0 533368. 8572.73   6
  -2  -2   0 513695. 8660.99   4
   2   2   0 502372. 8716.62   9
   2   2   0 515816. 8475.60   3
   2   2   1 34923.4 792.500   6
   2   2   1 35241.1 837.363   7
  -2  -2  -1 34403.6 776.091   1
  -2  -2  -1 35325.7 864.895   9
  -2  -2  -1 32905.3 665.974   3
  -2  -2  -1 33123.3 804.964   2
  -2  -2  -1 32936.4 858.505   4
  -2  -2  -1 34728.4 792.786   6
  -2  -2  -1 35910.6 838.399   5
   2   2   1 33469.7 759.719   1
  -2  -2  -2 311774. 5412.99   2
   2   2   2 315451. 5351.89   2
  -2  -2  -2 302742. 5163.26   1
   2   2   2 311487. 5315.20   6
  -2  -2  -2 320858. 5333.16   6
   2   2   2 299418. 5324.87   7
  -2  -2  -2 312513. 5351.82   9
  -2  -2  -2 308834. 5403.31   4
   2   2   2 311027. 5130.91   1
   2   2   3 11267.4 428.462   7
   2   2   3 11883.1 526.109   2
   2   2   3 12012.4 458.291   6
   2   2   3 11780.1 436.065   9
  -2  -2  -3 12756.2 436.449   7
  -2  -2  -3 12046.7 355.734   8
  -2  -2  -3 12387.4 447.869   9
  -2  -2  -3 12011.9 497.795   4
  -2  -2  -3 11890.5 583.292   2
  -2  -2  -4 1734.05 248.499   2
   2   2   4 1640.77 142.357   8
   2   2   4 1377.02 142.792   9
   2   2   4 1238.38 136.700   7
  -2  -2  -4 1660.65 159.689   9
  -2  -2  -4 1448.96 143.821   7
   2   2   4 1573.96 178.946   6
  -2  -2  -4 1662.33 134.414   8
   2   2   4 1182.74 190.798   2
  -2  -2  -5 23155.0 670.035   9
   2   2   5 22631.4 893.013   2
  -2  -2  -5 22851.5 650.152   7
  -2  -2  -5 22524.6 640.849   8
   2   2   5 22714.9 642.964   9
   2   2   5 23027.7 790.499   6
  -2  -2  -5 21540.3 755.666   4
  -2  -2  -5 22268.4 913.217   2
   2   2   5 22280.2 662.735   8
  -2  -2  -6 82645.0 1636.06   7
  -2  -2  -6 80117.4 2088.59   2
  -2  -2  -6 81520.5 1853.87   4
   2   2   6 79065.4 1896.40   6
   2   2   6 75839.2 1401.01   1
   2   2   6 78560.7 1607.29   9
   2   2   6 80518.6 1743.16   8
  -2  -2  -6 81203.7 1679.00   8
  -2  -2  -7 112792. 2845.40   2
   2   2   7 116087. 2252.46   9
   2   2   7 119467. 2133.77   1
   2   2   7 118573. 2676.10   6
  -2  -2  -7 121355. 2298.71   7
   2   2   7 119404. 2523.63   8
  -2  -2  -7 120734. 2563.08   4
  -2  -2  -7 124814. 2432.24   8
   2   2   8 60604.7 1615.46   8
  -2  -2  -8 60287.3 1315.88   7
  -2  -2  -8 58648.2 1570.71   4
   2   2   8 59867.4 1737.35   6
  -2  -2  -8 57859.1 1809.64   3
   2   2   8 62332.3 1242.50   1
  -2  -2  -8 59083.2 1894.55   2
  -2  -2  -9 43391.5 1299.11   4
   2   2   9 42683.8 1380.07   8
   2   2   9 41065.8 1447.04   6
  -2  -2  -9 40386.8 1545.13   3
   2   2   9 43785.9 991.871   1
  -2  -2  -9 43306.1 1642.67   2
  -2  -2  -9 42807.5 1017.43   7
  -2  -2 -10 706.532 172.778   4
   2   2  10 394.576 170.406   8
  -2  -2 -10 834.637 118.053   7
  -2  -2 -10 531.127 230.213   2
   2   2  10 543.963 110.416   1
   2   2  10 1000.17 279.600   6
  -2  -2 -10 562.001 261.399   3
   2   2  11 2790.05 384.741   8
   2   2  11 2247.93 367.004   6
  -2  -2 -11 2680.36 438.249   3
  -2  -2 -11 2649.08 468.237   2
  -2  -2 -11 2364.66 295.470   4
   2   2  12 19423.1 1129.63   6
  -2  -2 -12 19959.6 872.575   4
  -2  -2 -12 16063.4 1142.37   3
  -2  -2 -12 18544.8 1238.47   2
   2   2  12 19439.0 1070.56   8
   2   2  13 17106.2 1145.19   6
  -2  -2 -13 16449.2 1227.39   3
   2   2  13 17989.4 1074.56   8
  -2  -2 -13 17103.0 1266.28   2
  -2  -2 -14 16599.4 1354.97   3
  -2  -2 -14 15964.7 1298.14   2
   2   2  14 15962.3 1143.70   6
   2   2  14 17494.2 1097.88   8
  -2  -2 -15 5372.88 778.120   2
   2   2  15 4376.55 567.641   8
   2   2  15 5128.80 672.634   6
  -2  -2 -15 4291.54 755.054   3
   2   2  16 436.787 269.829   8
   2   2  16 770.746 308.985   6
  -2  -3  13 368.588 366.469   8
   2   3 -13 675.530 306.061   3
   2   3 -13 747.566 344.509   5
   2   3 -12 15940.3 1155.84   3
  -2  -3  12 16859.9 1400.66   8
   2   3 -11 21962.5 1285.98   3
  -2  -3  11 21588.9 1555.68   8
   2   3 -10 18940.7 1116.72   3
   2   3 -10 20166.7 1227.63   1
  -2  -3  10 19848.3 1394.87   8
  -2  -3   9 13386.2 667.399   6
   2   3  -9 11985.4 874.759   1
   2   3  -9 11570.8 813.618   3
  -2  -3   9 13785.2 1079.55   8
  -2  -3   8 2774.98 487.341   8
  -2  -3   8 2318.23 281.367   6
   2   3  -8 2079.27 365.618   1
   2   3  -8 2127.35 347.455   3
  -2  -3   7 26859.0 1342.35   8
   2   3  -7 27598.8 1127.05   3
  -2  -3   7 27764.1 971.092   6
   2   3  -7 25980.6 1147.95   1
  -2  -3   6 51674.7 1809.04   8
   2   3  -6 52431.3 1077.47   7
  -2  -3   6 52144.5 1413.36   6
   2   3  -6 50685.0 1615.30   1
   2   3  -6 52778.0 1567.45   3
  -2  -3   5 135332. 2772.58   7
  -2  -3   5 136555. 2896.95   6
  -2  -3   5 139800. 2588.53   9
   2   3  -5 141191. 3075.27   5
   2   3  -5 135856. 3057.51   1
  -2  -3   5 142718. 3329.77   8
   2   3  -5 141888. 2537.25   7
   2   3  -5 137780. 2980.85   3
   2   3  -4 71537.7 1446.59   7
  -2  -3   4 73845.5 1680.13   3
  -2  -3   4 68951.0 1724.42   7
  -2  -3   4 71262.0 1965.72   8
  -2  -3   4 72061.6 1494.20   9
   2   3  -4 70305.4 1706.92   3
  -2  -3   4 69085.2 1316.96   4
   2   3  -4 72206.2 1811.22   5
   2   3  -4 70247.0 1791.18   1
  -2  -3   4 68857.7 1273.82   4
   2   3  -3 39225.5 1167.07   1
  -2  -3   3 39056.7 1270.48   8
   2   3  -3 40056.8 956.091   7
  -2  -3   3 41836.5 1235.74   7
  -2  -3   3 40709.9 1000.53   9
   2   3  -3 39059.5 1075.71   3
  -2  -3   3 38796.2 1058.09   3
   2   3  -2 14652.1 723.856   8
  -2  -3   2 13344.2 596.712   7
  -2  -3   2 12996.9 489.219   9
  -2  -3   2 13246.0 349.411   6
   2   3  -2 12150.0 482.848   3
   2   3  -2 12606.3 467.063   7
  -2  -3   2 13149.1 488.220   3
  -2  -3   2 13019.1 615.322   8
   2   3  -2 12533.3 540.596   9
   2   3  -2 13193.2 566.468   1
   2   3  -1 10763.5 619.247   8
  -2  -3   1 9519.95 429.488   5
  -2  -3   1 9614.00 460.059   7
  -2  -3   1 9574.15 423.637   1
  -2  -3   1 9033.77 363.759   3
   2   3  -1 9471.35 378.201   3
   2   3  -1 9097.05 426.230   1
  -2  -3   1 9221.63 286.475   6
  -2  -3   1 9043.05 408.530   9
   2   3  -1 8540.18 420.857   9
  -2  -3   1 9583.56 476.405   8
   2   3  -1 8781.22 391.333   7
  -2  -3   0 152941. 2913.29   8
   2   3   0 147026. 2711.98   3
   2   3   0 151565. 2847.67   7
  -2  -3   0 152956. 2718.22   3
   2   3   0 145820. 2897.68   9
  -2  -3   0 153649. 2883.53   9
  -2  -3   0 152277. 2847.33   5
   2   3   0 150461. 2651.22   6
   2   3   0 147420. 2836.82   1
  -2  -3   0 158722. 2964.60   7
  -2  -3   0 151016. 2666.53   6
  -2  -3   0 155506. 2832.51   1
  -2  -3  -1 286458. 4858.31   8
  -2  -3  -1 276471. 4734.56   1
   2   3   1 273032. 4701.24   6
  -2  -3  -1 270467. 4662.59   3
  -2  -3  -1 267440. 4814.32   2
  -2  -3  -1 281036. 4716.68   6
   2   3   1 270704. 4852.32   7
   2   3   1 273288. 4709.98   3
  -2  -3  -1 274964. 4832.00   5
   2   3   1 275225. 4738.68   1
  -2  -3  -1 271266. 4861.70   9
   2   3   2 141386. 2730.35   7
  -2  -3  -2 139676. 2738.86   2
  -2  -3  -2 144949. 2662.40   6
   2   3   2 136918. 2626.56   6
  -2  -3  -2 141210. 2639.45   3
  -2  -3  -2 144995. 2714.34   5
  -2  -3  -2 140370. 2717.79   9
  -2  -3  -2 141920. 2515.34   1
   2   3   2 141529. 2722.47   2
  -2  -3  -3 145278. 2977.22   2
   2   3   3 150806. 2941.58   2
   2   3   3 145540. 2824.98   6
  -2  -3  -3 147228. 2489.88   8
  -2  -3  -3 149680. 2537.02   1
  -2  -3  -3 146263. 2840.43   9
  -2  -3  -3 149898. 2840.05   6
   2   3   3 141147. 2831.38   7
  -2  -3  -3 147320. 2828.05   7
   2   3   3 146643. 2817.87   9
  -2  -3  -4 58621.1 1651.81   2
   2   3   4 61499.9 1610.94   2
   2   3   4 57948.7 1391.41   7
   2   3   4 58533.5 1440.75   6
  -2  -3  -4 61760.4 1375.72   7
   2   3   4 57468.8 1346.62   9
  -2  -3  -4 57282.4 1376.51   9
   2   3   4 57431.6 1137.39   8
  -2  -3  -4 59921.4 1124.35   8
   2   3   5 28139.3 946.067   6
  -2  -3  -5 28316.1 683.203   8
   2   3   5 26816.1 699.016   8
  -2  -3  -5 27408.8 825.262   9
  -2  -3  -5 29339.9 822.285   7
   2   3   5 27335.5 793.192   9
   2   3   5 26323.2 835.262   7
  -2  -3  -5 26844.7 1065.08   2
  -2  -3  -6 46570.2 1156.53   7
  -2  -3  -6 43269.6 1520.43   2
   2   3   6 44579.9 1359.11   6
  -2  -3  -6 45089.8 1152.67   9
   2   3   6 46784.9 1103.07   8
   2   3   6 47460.7 1202.09   7
  -2  -3  -6 45625.3 1072.64   8
  -2  -3  -7 141284. 2641.76   8
  -2  -3  -7 138772. 2667.62   9
   2   3   7 135292. 2707.81   7
  -2  -3  -7 140226. 2656.49   7
  -2  -3  -7 139140. 3370.48   2
   2   3   7 138861. 3071.06   6
   2   3   7 139338. 2706.86   8
  -2  -3  -7 127553. 2315.20   1
  -2  -3  -8 77513.0 2047.84   4
  -2  -3  -8 80041.2 1760.65   8
  -2  -3  -8 81556.0 1722.57   7
  -2  -3  -8 79351.0 1701.45   9
   2   3   8 74402.7 1486.81   1
   2   3   8 77690.0 2152.48   6
  -2  -3  -8 78741.8 2402.48   2
   2   3   8 76871.5 1854.00   8
   2   3   9 31246.2 776.076   1
  -2  -3  -9 31581.5 890.878   7
   2   3   9 30600.2 1292.73   6
   2   3   9 32466.1 1109.09   8
  -2  -3  -9 32940.5 1204.50   4
  -2  -3  -9 33179.5 1478.95   2
  -2  -3 -10 4154.70 428.446   4
  -2  -3 -10 4586.53 286.394   7
   2   3  10 4329.88 507.941   6
   2   3  10 4455.39 259.579   1
  -2  -3 -10 4064.86 545.533   2
   2   3  10 4223.97 412.701   8
  -2  -3 -11 17196.0 1158.82   3
   2   3  11 17556.7 1068.58   6
  -2  -3 -11 17103.1 1171.61   2
  -2  -3 -11 18299.6 912.048   4
   2   3  11 18524.0 937.966   8
   2   3  12 21098.9 1269.07   6
  -2  -3 -12 20429.9 1378.32   3
   2   3  12 22742.6 1104.16   8
  -2  -3 -12 22776.8 1437.50   2
  -2  -3 -12 24562.2 1089.29   4
   2   3  13 26007.1 1252.73   8
  -2  -3 -13 26810.0 1674.64   3
   2   3  13 25752.0 1487.04   6
  -2  -3 -13 28464.7 1695.45   2
   2   3  14 20280.4 1391.19   6
  -2  -3 -14 18817.6 1453.47   2
   2   3  14 21318.3 1141.54   8
  -2  -3 -14 20316.1 1572.65   3
  -2  -3 -15 10381.9 1122.30   2
   2   3  15 9898.01 782.730   8
   2   3  15 7509.37 864.041   6
  -2  -3 -15 8982.18 1104.90   3
   2   3  16 3420.67 481.510   8
   2   3  16 2919.56 583.236   6
   2   4 -13 7169.15 809.570   3
   2   4 -12 15239.8 1165.45   5
   2   4 -12 14718.8 1114.29   3
  -2  -4  12 15589.4 1431.00   8
   2   4 -11 35502.5 1716.61   3
   2   4 -11 40079.5 1841.38   5
  -2  -4  11 41616.0 2201.16   8
   2   4 -10 38733.1 1701.20   3
   2   4 -10 39353.2 1733.08   5
  -2  -4  10 41695.1 2049.62   8
   2   4  -9 10405.6 791.737   3
   2   4  -9 10367.8 815.548   5
  -2  -4   9 10128.1 924.616   8
  -2  -4   8 10471.9 860.101   8
  -2  -4   8 10068.1 387.187   6
   2   4  -8 10171.6 731.134   3
   2   4  -8 10266.6 760.347   5
  -2  -4   7 39440.1 957.280   9
   2   4  -7 40350.5 932.569   7
  -2  -4   7 40536.2 917.067   6
   2   4  -7 41160.5 1512.03   5
   2   4  -7 39308.2 1433.60   3
  -2  -4   7 41163.6 1647.76   8
  -2  -4   6 76899.3 2293.40   8
  -2  -4   6 77953.5 1488.93   6
  -2  -4   6 78140.8 1631.79   9
   2   4  -6 79138.8 2106.08   3
   2   4  -6 76551.3 2143.71   5
   2   4  -6 79564.5 1626.65   7
   2   4  -6 74222.0 2156.15   1
  -2  -4   5 120981. 2078.47   6
  -2  -4   5 122444. 2123.25   6
   2   4  -5 123763. 2370.11   7
   2   4  -5 119964. 2734.03   3
  -2  -4   5 121321. 2382.22   9
   2   4  -5 123035. 2847.12   5
   2   4  -5 121197. 2864.86   1
  -2  -4   5 123265. 2943.48   8
  -2  -4   5 117780. 2136.17   4
  -2  -4   4 182240. 3691.80   8
  -2  -4   4 183521. 3630.96   7
  -2  -4   4 169079. 2884.00   6
   2   4  -4 170839. 3487.74   3
   2   4  -4 176450. 3599.80   5
   2   4  -4 175668. 3626.55   1
  -2  -4   4 174836. 3087.18   4
   2   4  -4 177168. 3252.58   7
  -2  -4   4 168313. 2847.90   6
  -2  -4   4 179470. 3253.78   9
  -2  -4   3 40914.7 1248.27   8
   2   4  -3 42982.7 1268.33   5
  -2  -4   3 45312.1 1427.78   7
  -2  -4   3 41117.5 1084.75   9
   2   4  -3 40161.3 1167.61   3
   2   4  -3 40947.6 1084.15   7
  -2  -4   3 41164.5 1135.11   3
   2   4  -3 42648.1 1278.53   1
  -2  -4   3 40240.8 1070.78   4
   2   4  -2 166.354 96.1464   7
  -2  -4   2 71.7031 78.9855   9
  -2  -4   2 70.6664 102.006   8
   2   4  -2 144.095 96.2697   3
  -2  -4   2 254.334 109.958   3
  -2  -4   2 113.206 28.4429   6
   2   4  -2 35.9688 90.3557   1
  -2  -4   1 27689.3 830.084   8
  -2  -4   1 28159.8 1010.38   7
   2   4  -1 26806.7 583.105   6
   2   4  -1 27136.3 807.193   3
  -2  -4   1 27568.2 806.481   3
  -2  -4   1 27692.9 617.934   6
  -2  -4   1 30080.3 879.041   1
   2   4  -1 27461.0 871.478   7
   2   4  -1 30052.7 1017.75   8
  -2  -4   1 28985.5 869.212   5
  -2  -4   1 28600.8 872.289   9
  -2  -4   0 224871. 4110.15   8
  -2  -4   0 230229. 4025.72   6
   2   4   0 228816. 4336.08   7
  -2  -4   0 242726. 4511.31   7
   2   4   0 233758. 4177.43   3
  -2  -4   0 233160. 4260.48   5
  -2  -4   0 233854. 4174.94   3
  -2  -4   0 234238. 4322.82   9
   2   4   0 232178. 3973.25   6
  -2  -4   0 233845. 4243.06   1
  -2  -4  -1 418409. 7018.41   8
  -2  -4  -1 427995. 7292.33   5
  -2  -4  -1 416692. 7177.08   3
  -2  -4  -1 419059. 7305.00   2
   2   4   1 424896. 7102.19   6
  -2  -4  -1 431304. 7159.72   6
   2   4   1 406316. 7202.28   3
  -2  -4  -1 427343. 7392.30   9
   2   4   1 419283. 7408.42   7
  -2  -4  -1 429173. 7225.43   1
  -2  -4  -2 316335. 5597.13   3
  -2  -4  -2 321665. 5709.70   2
  -2  -4  -2 328333. 5511.68   1
   2   4   2 320711. 5572.08   6
   2   4   2 311947. 5784.62   7
  -2  -4  -2 322103. 5614.31   6
  -2  -4  -2 306877. 5242.02   8
  -2  -4  -2 316623. 5747.76   9
  -2  -4  -2 316685. 5655.08   5
  -2  -4  -3 151570. 2990.92   7
   2   4   3 142343. 2968.73   7
  -2  -4  -3 143270. 2979.91   2
  -2  -4  -3 153182. 2914.64   6
  -2  -4  -3 142149. 2924.46   9
   2   4   3 147738. 2864.60   6
  -2  -4  -3 141225. 2631.49   1
   2   4   4 869.634 167.357   7
  -2  -4  -4 827.407 166.718   6
  -2  -4  -4 578.302 130.901   9
  -2  -4  -4 841.456 149.369   7
  -2  -4  -4 574.114 155.953   2
   2   4   4 871.756 163.683   6
  -2  -4  -5 25784.5 1067.27   2
  -2  -4  -5 24247.9 832.192   7
   2   4   5 25021.4 928.666   6
   2   4   5 23667.4 877.528   7
  -2  -4  -5 24427.7 580.091   8
  -2  -4  -5 23654.7 831.933   9
   2   4   5 24403.0 555.796   8
  -2  -4  -5 23516.7 605.796   1
  -2  -4  -6 163723. 3664.45   2
   2   4   6 161705. 3349.69   7
  -2  -4  -6 159341. 2886.72   1
   2   4   6 163841. 3507.95   6
  -2  -4  -6 166662. 2970.57   8
  -2  -4  -6 161246. 3237.38   9
   2   4   6 166598. 2946.28   8
  -2  -4  -7 160798. 2960.40   8
   2   4   7 150796. 3241.85   7
  -2  -4  -7 162807. 3155.40   9
   2   4   7 153269. 3502.95   6
   2   4   7 155013. 2951.91   8
  -2  -4  -7 150783. 3608.63   2
  -2  -4  -7 154699. 2753.89   1
  -2  -4  -8 132124. 2614.99   8
   2   4   8 134170. 2879.82   7
   2   4   8 128951. 3163.71   6
  -2  -4  -8 130926. 2714.99   9
  -2  -4  -8 123988. 3255.35   2
  -2  -4  -8 126857. 2346.65   1
   2   4   8 132239. 2665.06   8
   2   4   9 31544.7 1083.48   7
  -2  -4  -9 31430.8 986.365   9
   2   4   9 30222.4 1355.62   6
  -2  -4  -9 31233.4 1432.91   2
  -2  -4  -9 30048.0 770.167   1
   2   4   9 32205.3 1051.18   8
  -2  -4 -10 18055.1 665.732   9
  -2  -4 -10 17645.8 986.763   4
   2   4  10 15069.2 969.644   6
  -2  -4 -10 15616.7 515.519   1
  -2  -4 -10 15937.5 1047.36   2
   2   4  10 16216.7 751.758   8
  -2  -4 -11 7367.64 665.059   4
  -2  -4 -11 6932.63 747.123   2
   2   4  11 6940.06 537.061   8
   2   4  11 5321.11 642.422   6
   2   4  12 22226.9 1040.70   8
  -2  -4 -12 21781.0 1535.89   3
   2   4  12 23380.4 1384.75   6
  -2  -4 -12 22483.4 1401.00   2
   2   4  13 44466.6 2071.49   6
   2   4  13 44293.5 1583.81   8
  -2  -4 -13 49240.4 1775.77   4
  -2  -4 -13 41343.0 2016.28   2
  -2  -4 -14 19350.4 1629.17   3
   2   4  14 22332.8 1478.93   6
  -2  -4 -14 23269.3 1550.45   2
   2   4  14 20505.8 1050.30   8
   2   4  15 9791.79 988.417   6
  -2  -4 -15 7719.91 1142.72   3
  -2  -4 -15 9252.17 1025.68   2
   2   4  15 8059.56 660.294   8
   2   4  16 134.569 283.597   6
   2   5 -12 22462.3 1391.13   3
   2   5 -12 23596.7 1470.23   5
  -2  -5  12 25214.3 1780.73   8
   2   5 -11 40044.7 1900.48   5
   2   5 -11 42019.9 1878.16   3
  -2  -5  11 41661.0 2195.88   8
   2   5 -10 29882.8 1529.79   5
   2   5 -10 30084.5 1498.60   3
  -2  -5  10 28484.3 1685.41   8
   2   5  -9 10263.2 811.414   3
   2   5  -9 10731.6 840.698   5
  -2  -5   9 10658.5 951.001   8
  -2  -5   8 1682.45 403.918   8
   2   5  -8 2643.23 411.965   3
   2   5  -8 1671.22 362.680   5
   2   5  -8 1918.41 169.694   7
   2   5  -7 8889.43 677.218   3
   2   5  -7 9717.50 434.191   7
   2   5  -7 10532.5 747.316   5
  -2  -5   7 9573.36 749.858   8
   2   5  -6 95889.4 2015.71   7
   2   5  -6 93001.0 2445.59   3
   2   5  -6 95428.8 2520.77   5
  -2  -5   6 91280.1 1689.56   4
  -2  -5   6 93563.6 2566.62   8
  -2  -5   5 125157. 2996.30   8
   2   5  -5 127907. 2587.24   7
   2   5  -5 127174. 2986.42   5
   2   5  -5 121510. 2900.95   3
  -2  -5   5 126123. 2353.67   4
   2   5  -4 108587. 2322.30   7
   2   5  -4 109717. 2589.33   5
  -2  -5   4 106705. 2554.48   8
  -2  -5   4 103298. 2136.76   4
   2   5  -4 110857. 2517.38   3
  -2  -5   3 69828.2 1791.77   8
   2   5  -3 72932.2 1756.90   7
   2   5  -3 69485.8 1848.14   5
  -2  -5   3 72657.3 1685.72   4
   2   5  -3 70693.0 1814.25   3
  -2  -5   2 690.229 163.038   4
  -2  -5   2 702.979 152.313   8
   2   5  -2 546.573 155.400   3
   2   5  -2 954.398 178.582   7
   2   5  -2 775.111 196.287   5
   2   5  -1 65245.4 1678.89   7
   2   5  -1 67571.2 1583.52   3
   2   5  -1 63499.7 1171.45   6
   2   5  -1 69155.8 1695.83   8
  -2  -5   1 63397.9 1540.95   3
  -2  -5   1 62709.1 1351.52   6
  -2  -5   1 61729.5 1462.88   8
  -2  -5   0 177208. 3315.61   8
  -2  -5   0 182026. 3483.38   3
   2   5   0 183555. 3518.53   3
  -2  -5   0 195138. 3909.66   7
   2   5   0 181411. 3207.98   6
  -2  -5   0 184663. 3382.02   6
  -2  -5   0 185305. 3536.49   1
   2   5   0 193003. 3627.62   8
   2   5   0 178990. 3700.59   7
   2   5   1 309974. 5391.86   6
   2   5   1 308081. 5582.07   3
  -2  -5  -1 315120. 5554.93   3
  -2  -5  -1 309746. 5545.44   6
   2   5   1 293647. 5804.98   7
  -2  -5  -1 318898. 5599.29   5
  -2  -5  -1 311127. 5550.71   1
  -2  -5  -1 309830. 5658.09   2
   2   5   1 323448. 5538.79   8
  -2  -5  -1 310809. 5262.17   8
  -2  -5  -2 167953. 3227.62   3
  -2  -5  -2 167252. 3337.83   2
  -2  -5  -2 168948. 3278.24   6
   2   5   2 159328. 3445.25   7
  -2  -5  -2 169357. 3261.59   5
  -2  -5  -2 165096. 2797.14   8
  -2  -5  -2 167428. 3148.72   1
   2   5   2 164208. 3157.82   6
  -2  -5  -3 104621. 2343.10   2
   2   5   3 102441. 2438.41   7
  -2  -5  -3 104637. 2317.96   6
  -2  -5  -3 105581. 2234.55   5
  -2  -5  -3 101404. 2264.90   3
   2   5   3 100788. 2234.98   6
   2   5   4 254.873 125.849   6
  -2  -5  -4 117.006 135.729   6
   2   5   4 185.457 151.889   7
  -2  -5  -4 99.9613 121.062   2
  -2  -5  -5 52485.3 1642.09   2
  -2  -5  -5 53017.7 1195.56   1
   2   5   5 51749.4 1552.27   6
   2   5   5 52194.0 1563.31   7
  -2  -5  -6 122170. 3018.98   2
   2   5   6 114413. 2854.30   6
   2   5   6 120453. 2796.49   7
  -2  -5  -6 120688. 2334.15   1
   2   5   6 121565. 2127.97   8
   2   5   7 160474. 3627.38   6
  -2  -5  -7 147893. 2838.38   1
  -2  -5  -7 154686. 3616.49   2
   2   5   7 153652. 3411.89   7
   2   5   7 158050. 2815.86   8
  -2  -5  -8 92960.7 1933.82   1
   2   5   8 93284.7 2420.05   7
   2   5   8 92773.9 2633.27   6
  -2  -5  -8 92117.0 2609.63   2
   2   5   8 97164.0 1980.23   8
  -2  -5  -9 26255.7 1004.25   9
  -2  -5  -9 26290.1 789.348   1
   2   5   9 24503.0 1077.53   7
   2   5   9 26837.7 887.441   8
   2   5   9 28127.2 1331.38   6
  -2  -5  -9 27575.3 1311.01   2
   2   5  10 422.648 142.880   8
  -2  -5 -10 401.461 258.869   2
   2   5  10 160.076 234.715   6
  -2  -5 -10 581.905 120.402   1
   2   5  10 758.182 219.250   7
   2   5  11 1892.53 265.031   8
  -2  -5 -11 1889.11 430.723   2
   2   5  11 1990.13 440.395   6
  -2  -5 -12 28613.8 1540.46   2
  -2  -5 -12 29955.8 1520.64   4
   2   5  12 28075.3 1537.69   6
   2   5  12 27468.2 1091.47   8
   2   5  13 27385.9 1573.38   6
  -2  -5 -13 24736.2 1514.40   2
   2   5  13 27329.6 1115.90   8
  -2  -5 -13 26987.3 1393.65   4
   2   5  14 19422.2 1360.46   6
  -2  -5 -14 15515.8 1439.78   3
  -2  -5 -14 19573.1 1367.04   2
   2   5  14 20126.6 960.541   8
   2   5  15 9770.43 978.045   6
  -2  -5 -15 10141.2 1163.32   3
  -2  -5 -15 10009.0 1032.39   2
   2   5  16 177.375 278.140   6
   2   6 -12 6283.38 741.517   3
   2   6 -11 17024.5 1212.91   5
   2   6 -11 15587.0 1123.82   3
  -2  -6  11 17122.0 1361.20   8
   2   6 -10 23406.5 1382.74   5
   2   6 -10 22871.4 1330.55   3
  -2  -6  10 24381.5 1543.21   8
  -2  -6   9 7132.29 768.138   8
   2   6  -9 6451.93 677.204   3
   2   6  -9 7827.75 755.120   5
  -2  -6   8 943.304 290.905   8
   2   6  -8 444.716 260.124   5
   2   6  -8 1073.83 313.065   3
   2   6  -7 11155.7 808.268   5
   2   6  -7 11213.2 546.680   7
   2   6  -7 11365.8 789.578   3
  -2  -6   7 11914.3 841.050   8
   2   6  -6 57817.7 1522.68   7
   2   6  -6 55290.2 1857.45   5
   2   6  -6 55803.9 1818.26   3
  -2  -6   6 57035.4 1864.66   8
   2   6  -5 73424.5 1830.41   7
   2   6  -5 70331.8 2019.82   3
   2   6  -5 73732.6 2104.99   5
  -2  -6   5 69707.0 1569.82   4
  -2  -6   5 72854.7 2070.20   8
   2   6  -4 113201. 2586.98   7
   2   6  -4 112210. 2728.69   3
   2   6  -4 122242. 2820.03   5
  -2  -6   4 112617. 2380.04   4
  -2  -6   4 117218. 2709.23   8
   2   6  -3 31544.1 1149.00   5
   2   6  -3 31320.4 1124.59   3
  -2  -6   3 31552.3 1015.02   4
   2   6  -3 31662.2 1113.66   7
  -2  -6   3 31947.7 1086.77   8
   2   6  -2 5840.11 460.109   7
   2   6  -2 4908.92 402.980   3
  -2  -6   2 5641.07 380.872   8
   2   6  -2 6201.56 456.014   5
   2   6  -1 32036.3 1047.52   3
   2   6  -1 31853.3 1149.40   7
   2   6  -1 30194.7 1051.35   5
  -2  -6   1 32142.3 931.186   8
   2   6  -1 29645.8 635.711   6
   2   6   0 53473.9 1643.35   7
   2   6   0 53420.3 1483.29   3
  -2  -6   0 56357.2 1274.40   8
   2   6   0 54444.0 1476.80   5
   2   6   0 56435.6 1176.70   6
   2   6   0 58627.2 1458.08   8
   2   6   1 151049. 2884.16   8
   2   6   1 147253. 3328.46   7
   2   6   1 148083. 2809.55   6
  -2  -6  -1 149882. 3123.43   2
   2   6   1 148125. 3074.67   3
  -2  -6  -1 144531. 2677.09   8
   2   6   2 56249.1 1209.33   8
  -2  -6  -2 56242.9 1546.96   2
   2   6   2 54087.9 1360.83   6
  -2  -6  -2 54904.3 1544.32   6
   2   6   2 52766.4 1673.07   7
  -2  -6  -2 54279.4 1049.04   8
   2   6   3 22767.8 1021.09   7
  -2  -6  -3 25703.0 967.615   2
   2   6   3 22979.5 859.952   6
  -2  -6  -3 24047.4 952.123   6
   2   6   4 2956.35 373.508   7
   2   6   4 2669.16 315.158   6
  -2  -6  -4 3318.99 360.606   2
   2   6   5 10753.3 663.394   6
   2   6   5 10941.7 683.835   7
  -2  -6  -5 10315.0 668.302   2
  -2  -6  -6 35040.2 1405.65   2
  -2  -6  -6 35309.6 998.919   1
   2   6   6 34615.2 1296.60   7
   2   6   6 36631.6 1368.98   6
  -2  -6  -7 46565.8 1699.48   2
   2   6   7 44135.5 1487.34   7
   2   6   7 45718.0 1679.18   6
  -2  -6  -7 46887.7 1201.58   1
   2   6   7 45874.8 910.478   8
   2   6   8 90161.8 2681.88   6
  -2  -6  -8 92092.7 1947.32   1
  -2  -6  -8 91774.4 2645.71   2
   2   6   8 85641.8 2340.97   7
   2   6   8 94595.5 1825.16   8
   2   6   9 23591.1 1045.65   7
  -2  -6  -9 24223.7 1237.61   2
  -2  -6  -9 26279.8 798.032   1
   2   6   9 25345.3 1306.06   6
   2   6   9 26010.3 788.427   8
  -2  -6 -10 7546.88 388.331   1
   2   6  10 7113.76 725.091   6
   2   6  10 7705.59 429.960   8
  -2  -6 -10 6976.31 688.556   2
   2   6  10 7023.42 547.264   7
   2   6  11 3091.52 304.457   8
   2   6  11 2433.74 328.217   7
   2   6  11 2627.42 470.287   6
  -2  -6 -11 3184.46 513.820   2
   2   6  12 12340.6 1014.86   6
   2   6  12 13351.6 666.713   8
  -2  -6 -13 18431.1 1146.97   4
  -2  -6 -13 16328.1 1197.00   2
   2   6  13 14370.0 1147.14   6
   2   6  14 15499.9 1226.19   6
  -2  -6 -14 21333.4 1418.32   2
   2   6  15 3322.47 630.225   6
  -2  -6 -15 2985.62 614.972   3
  -2  -6 -15 3009.94 595.822   2
  -2  -7  11 11763.2 1115.22   8
   2   7 -11 12336.1 1004.06   3
   2   7 -11 12387.3 1037.61   5
  -2  -7  10 15640.8 1198.57   8
   2   7 -10 14277.2 1088.88   5
   2   7  -9 15104.0 1057.18   3
   2   7  -9 17059.3 1140.36   5
  -2  -7   9 18130.7 1223.11   8
   2   7  -8 2186.28 411.267   5
  -2  -7   8 2953.34 494.054   8
   2   7  -8 2307.92 444.118   3
  -2  -7   7 2973.44 446.624   8
   2   7  -7 3351.09 321.060   7
   2   7  -7 2349.56 400.203   3
   2   7  -7 2421.89 414.069   5
  -2  -7   6 23880.6 1161.17   8
   2   7  -6 23228.8 1163.09   5
   2   7  -6 25681.9 1000.32   7
   2   7  -6 26388.8 1211.66   3
   2   7  -5 39881.5 1347.50   7
   2   7  -5 40284.8 1492.22   3
   2   7  -5 42713.0 1534.40   5
  -2  -7   5 39872.4 1447.89   8
   2   7  -4 46313.0 1493.29   7
   2   7  -4 44814.7 1522.02   3
   2   7  -4 44020.8 1533.54   5
  -2  -7   4 44869.2 1461.73   8
   2   7  -3 37751.7 1326.67   3
   2   7  -3 39907.1 1373.88   5
   2   7  -3 38615.1 1361.12   7
  -2  -7   3 37520.2 1240.71   8
   2   7  -2 6852.47 520.882   3
  -2  -7   2 6617.68 430.531   8
   2   7  -2 6124.66 519.518   7
   2   7  -2 6137.62 477.659   5
   2   7  -1 3552.13 361.250   3
  -2  -7   1 3731.17 298.160   8
   2   7  -1 3668.65 418.065   7
   2   7  -1 3409.75 160.890   6
   2   7  -1 3570.24 355.724   5
   2   7   0 43138.7 1371.43   3
   2   7   0 44124.8 1012.11   6
   2   7   0 45864.7 1252.59   8
   2   7   0 43181.5 1327.87   5
   2   7   0 41049.0 1510.24   7
  -2  -7   0 42436.5 1090.33   8
  -2  -7  -1 70915.0 1512.53   8
   2   7   1 72900.4 2171.45   7
  -2  -7  -1 76227.0 1980.07   2
   2   7   1 74759.5 1647.77   6
   2   7   1 75978.9 1670.05   8
   2   7   1 72628.3 1931.79   3
   2   7   2 190932. 4243.83   7
   2   7   2 189598. 3698.82   6
  -2  -7  -2 187832. 3953.66   2
  -2  -7  -2 190685. 3292.89   8
   2   7   2 190895. 3436.40   8
   2   7   3 63958.9 1985.95   7
  -2  -7  -3 63232.6 1820.89   2
   2   7   3 65761.0 1730.51   6
  -2  -7  -4 35784.6 1297.25   2
   2   7   4 34867.2 1353.00   7
   2   7   4 34385.4 1231.97   6
   2   7   5 19.0286 147.036   7
   2   7   5 59.7137 145.991   6
  -2  -7  -5 165.933 148.385   2
  -2  -7  -6 23559.0 1144.42   2
   2   7   6 24275.6 1086.34   7
  -2  -7  -6 22820.2 842.865   1
   2   7   6 23300.6 1116.17   6
   2   7   7 43142.5 1522.83   7
   2   7   7 42415.6 1665.23   6
  -2  -7  -7 47269.4 1766.28   2
  -2  -7  -7 44752.8 1288.59   1
   2   7   8 35172.5 1522.82   6
  -2  -7  -8 35715.0 1070.55   1
   2   7   8 33560.4 1311.35   7
  -2  -7  -8 35807.4 1519.90   2
   2   7   9 54668.5 1731.65   7
  -2  -7  -9 53952.9 1362.79   1
   2   7   9 53332.6 2021.71   6
   2   7   9 53374.0 1134.67   8
  -2  -7  -9 54723.7 1982.94   2
   2   7  10 3394.86 516.369   6
  -2  -7 -10 3066.76 469.579   2
  -2  -7 -10 3702.31 284.159   1
   2   7  10 3390.31 408.891   7
   2   7  10 3311.50 234.404   8
   2   7  11 434.963 193.765   7
  -2  -7 -11 799.014 324.352   2
   2   7  11 344.771 251.871   6
  -2  -7 -12 5911.49 704.147   2
   2   7  12 5667.31 699.424   6
  -2  -7 -13 19867.3 1323.42   2
   2   7  13 20268.0 1347.41   6
  -2  -7 -14 11487.5 869.587   4
   2   7  14 11158.9 1038.17   6
  -2  -7 -14 13400.5 1110.92   2
   2   7  15 12336.3 1077.10   6
  -2  -7 -15 11729.8 1073.97   2
   2   8 -10 18998.4 1231.12   3
   2   8 -10 19297.7 1275.16   5
  -2  -8  10 19619.5 1322.07   8
   2   8  -9 13174.2 1021.51   5
   2   8  -9 11974.6 958.143   3
  -2  -8   9 11651.1 982.656   8
   2   8  -8 4209.45 582.463   3
   2   8  -8 4657.95 606.626   5
  -2  -8   8 3692.48 551.848   8
   2   8  -7 1791.25 282.787   7
  -2  -8   7 2426.46 432.660   8
   2   8  -7 1618.04 400.159   3
   2   8  -7 2028.31 412.364   5
   2   8  -6 21519.2 984.841   7
   2   8  -6 21019.3 1141.70   3
   2   8  -6 21319.7 1152.36   5
  -2  -8   6 23477.4 1163.56   8
  -2  -8   5 86293.8 2423.61   8
   2   8  -5 88715.7 2404.03   7
   2   8  -5 90032.3 2543.15   5
   2   8  -5 90257.0 2544.82   3
   2   8  -4 46659.9 1655.62   3
   2   8  -4 48388.0 1652.63   7
   2   8  -4 48893.9 1682.00   5
  -2  -8   4 48933.8 1573.26   8
   2   8  -3 56226.5 1826.53   3
   2   8  -3 55085.1 1839.27   7
   2   8  -3 61895.7 1847.37   5
  -2  -8   3 57768.7 1662.31   8
   2   8  -2 9743.47 709.486   7
   2   8  -2 9334.49 653.593   3
   2   8  -2 9119.49 628.131   5
  -2  -8   2 9518.90 548.978   8
   2   8  -1 3739.33 413.135   3
   2   8  -1 2331.90 377.618   7
   2   8  -1 3245.87 369.807   5
   2   8  -1 3085.37 156.597   6
  -2  -8   1 3245.38 289.810   8
   2   8   0 35498.8 1462.91   7
  -2  -8   0 33232.3 1285.03   2
   2   8   0 35721.9 1302.10   3
   2   8   0 36272.3 917.222   6
   2   8   0 35433.5 1219.65   5
  -2  -8   0 35686.0 1011.48   8
   2   8   1 94919.5 2409.03   3
   2   8   1 93375.0 2665.90   7
  -2  -8  -1 92758.0 2408.00   2
   2   8   1 93114.6 2008.92   8
   2   8   1 92729.0 2032.88   6
  -2  -8  -1 90716.9 1887.20   8
   2   8   2 106148. 2869.35   7
  -2  -8  -2 104703. 2632.92   2
   2   8   2 105596. 2369.99   6
   2   8   2 105893. 2092.37   8
  -2  -8  -3 94432.8 2433.81   2
   2   8   3 91359.9 1699.81   8
   2   8   3 90338.7 2254.06   6
   2   8   3 90892.6 2574.56   7
  -2  -8  -4 31245.4 1262.44   2
   2   8   4 30900.2 1337.26   7
   2   8   4 32698.5 1227.47   6
   2   8   5 2668.62 386.801   7
   2   8   5 2233.62 338.396   6
  -2  -8  -5 2898.34 409.949   2
  -2  -8  -6 26078.8 1261.06   2
   2   8   6 29381.2 1303.48   6
  -2  -8  -6 28061.0 1018.58   1
   2   8   6 26226.4 1196.07   7
   2   8   7 109828. 3012.83   6
  -2  -8  -7 115561. 3124.06   2
   2   8   7 105094. 2827.75   7
  -2  -8  -7 109250. 2528.53   1
   2   8   8 62796.5 2187.73   6
  -2  -8  -8 64253.1 1721.23   1
   2   8   8 64628.0 1996.96   7
  -2  -8  -8 66247.8 2257.33   2
   2   8   9 44649.3 1603.70   7
  -2  -8  -9 47777.5 1333.82   1
   2   8   9 44191.6 1824.00   6
  -2  -8  -9 46257.1 1851.88   2
   2   8  10 13759.0 822.955   7
   2   8  10 11881.7 951.762   6
  -2  -8 -10 11936.7 920.644   2
   2   8  11 596.703 307.846   6
  -2  -8 -11 1034.97 336.265   2
   2   8  11 701.331 225.199   7
   2   8  12 10804.4 973.286   6
  -2  -8 -12 11083.8 958.856   2
   2   8  13 12552.0 1078.94   6
  -2  -8 -13 14131.6 1105.10   2
  -2  -8 -14 25168.7 1516.56   2
   2   8  14 25200.3 1551.05   6
   2   9  -9 8450.71 823.873   3
   2   9  -9 9122.72 845.682   5
  -2  -9   9 9973.77 888.954   8
  -2  -9   8 1558.81 379.171   8
   2   9  -8 607.353 308.554   3
   2   9  -8 585.008 323.056   5
   2   9  -7 4405.56 602.825   3
  -2  -9   7 4175.98 541.055   8
   2   9  -7 5081.10 620.555   5
   2   9  -6 17567.3 943.765   7
   2   9  -6 18313.1 1113.75   3
   2   9  -6 20031.0 1153.86   5
  -2  -9   6 19302.6 1069.08   8
   2   9  -5 47943.1 1818.22   3
   2   9  -5 48511.1 1792.85   5
   2   9  -5 48212.0 1727.22   7
  -2  -9   5 49393.9 1711.30   8
   2   9  -4 82289.2 2476.17   7
   2   9  -4 81711.2 2467.04   3
   2   9  -4 84214.3 2436.23   5
  -2  -9   4 82615.3 2273.03   8
   2   9  -3 31138.3 1400.17   7
   2   9  -3 33624.8 1385.06   3
   2   9  -3 32519.7 1331.39   5
  -2  -9   3 30993.7 1183.20   8
   2   9  -2 10634.6 801.349   7
   2   9  -2 11600.2 783.608   3
   2   9  -2 10686.3 710.782   5
  -2  -9   2 10130.7 589.512   8
   2   9  -1 1566.21 365.748   7
   2   9  -1 1599.67 104.542   6
  -2  -9   1 1873.34 246.726   8
   2   9  -1 1540.67 302.957   3
   2   9  -1 1901.82 319.509   5
  -2  -9   0 82246.8 2340.71   2
   2   9   0 83871.5 1744.44   6
   2   9   0 84639.7 2605.96   7
   2   9   0 82299.5 2199.09   5
   2   9   0 84942.1 2380.03   3
  -2  -9   0 83666.4 1898.52   8
   2   9   1 85167.0 2382.76   3
   2   9   1 80497.3 2541.40   7
  -2  -9  -1 82931.5 2346.11   2
   2   9   1 83410.4 1915.14   6
  -2  -9  -1 84706.6 1796.66   8
   2   9   2 105466. 2163.77   8
   2   9   2 113128. 3064.53   7
  -2  -9  -2 112456. 2829.85   2
   2   9   2 112438. 2522.39   6
   2   9   3 45527.0 1744.54   7
  -2  -9  -3 46855.4 1632.44   2
   2   9   3 43133.9 1429.83   6
   2   9   3 44083.4 958.452   8
   2   9   4 919.278 276.168   7
   2   9   4 949.569 249.554   6
  -2  -9  -4 1047.92 285.469   2
   2   9   5 1445.35 341.078   7
   2   9   5 1321.93 290.398   6
  -2  -9  -5 1780.18 352.167   2
  -2  -9  -6 55920.5 2015.63   2
   2   9   6 57598.9 1959.00   7
   2   9   6 58967.4 1999.47   6
  -2  -9  -6 58390.5 1721.02   1
   2   9   7 54560.6 1992.30   6
  -2  -9  -7 54160.5 1632.34   1
  -2  -9  -7 57170.4 2080.55   2
   2   9   7 51559.8 1824.74   7
   2   9   8 70344.6 2219.92   7
   2   9   8 70985.5 2369.12   6
  -2  -9  -8 72237.8 2481.44   2
  -2  -9  -8 72795.0 1964.62   1
   2   9   9 22969.9 1302.70   6
  -2  -9  -9 24610.6 942.271   1
   2   9   9 23831.8 1156.36   7
  -2  -9  -9 21543.2 1264.84   2
  -2  -9 -10 5354.68 649.668   2
   2   9  10 4826.46 622.042   6
   2   9  10 6487.63 605.123   7
   2   9  11 152.773 184.400   7
  -2  -9 -11 410.882 281.034   2
   2   9  11 370.153 319.404   6
   2   9  12 8198.35 848.898   6
  -2  -9 -12 9527.18 897.043   2
   2   9  13 19076.1 1318.84   6
  -2  -9 -13 18895.2 1295.72   2
  -2  -9 -14 9984.25 945.156   2
   2  10  -8 375.016 338.695   3
   2  10  -8-327.890 322.735   5
  -2 -10   8-59.3043 294.787   8
   2  10  -7 2928.46 506.106   3
  -2 -10   7 3104.34 468.271   8
   2  10  -7 3556.01 529.786   5
   2  10  -6 19046.0 1176.32   3
   2  10  -6 20170.2 1179.34   5
   2  10  -6 18065.7 994.031   7
  -2 -10   6 19381.1 1066.99   8
   2  10  -5 29888.2 1376.07   7
   2  10  -5 33417.6 1553.91   3
   2  10  -5 31143.5 1442.57   5
  -2 -10   5 30479.3 1307.75   8
   2  10  -4 35946.8 1588.31   7
   2  10  -4 34816.9 1572.69   3
   2  10  -4 37456.2 1546.12   5
  -2 -10   4 40278.7 1457.33   8
   2  10  -3 26191.0 1299.12   3
   2  10  -3 26766.1 1232.77   5
   2  10  -3 22967.7 1273.78   7
  -2 -10   3 24885.2 1065.47   8
  -2 -10   2 2956.65 337.279   8
   2  10  -2 2482.09 433.486   7
   2  10  -2 3776.81 482.487   3
   2  10  -2 3065.56 415.980   5
  -2 -10   1 2705.10 296.678   8
   2  10  -1 2903.26 486.574   7
  -2 -10   1 3112.06 448.972   2
   2  10  -1 2799.39 422.255   3
   2  10  -1 3648.07 430.878   5
  -2 -10   0 14851.0 925.606   2
   2  10   0 12944.6 960.075   7
   2  10   0 13824.1 898.948   3
  -2 -10   0 14843.9 628.372   8
   2  10   1 69666.7 1713.05   6
   2  10   1 67182.8 2367.53   7
  -2 -10  -1 73502.9 2237.93   2
   2  10   1 74434.5 2302.09   3
  -2 -10  -2 46704.0 1711.30   2
   2  10   2 44602.4 1397.23   6
   2  10   2 45892.1 1847.86   7
   2  10   3 35897.2 1601.88   7
  -2 -10  -3 35865.8 1472.95   2
   2  10   3 36540.9 1329.09   6
   2  10   4 7530.99 704.658   7
   2  10   4 7705.32 627.250   6
  -2 -10  -4 8638.21 715.771   2
   2  10   5 3629.39 497.874   7
   2  10   5 3087.09 426.262   6
  -2 -10  -5 3713.34 493.801   2
  -2 -10  -6 6461.50 679.224   2
   2  10   6 6598.86 652.488   7
   2  10   6 5835.73 607.509   6
  -2 -10  -6 7021.86 575.344   1
  -2 -10  -7 27116.2 1429.63   2
   2  10   7 25209.5 1274.75   7
  -2 -10  -7 26229.0 1130.99   1
   2  10   7 24103.2 1293.61   6
  -2 -10  -8 28808.7 1173.94   1
   2  10   8 28436.0 1347.47   7
   2  10   8 27980.2 1438.13   6
  -2 -10  -8 29425.6 1553.57   2
   2  10   9 14627.8 1049.81   6
   2  10   9 13137.1 897.957   7
  -2 -10  -9 15055.3 1093.51   2
   2  10  10 5105.83 554.768   7
  -2 -10 -10 5917.33 706.427   2
   2  10  10 4121.76 607.618   6
  -2 -10 -11 578.484 299.276   2
   2  10  11 1092.52 368.656   6
   2  10  11 816.479 279.596   7
  -2 -10 -12 3204.02 567.687   2
   2  10  12 4829.25 661.215   6
  -2 -10 -13 10701.7 967.023   2
   2  10  13 12652.9 1064.57   6
  -2 -11   7-112.776 248.322   8
   2  11  -7 115.799 237.355   5
  -2 -11   6 2902.88 441.454   8
   2  11  -6 4659.51 541.661   7
   2  11  -6 4025.79 571.755   3
   2  11  -6 3349.50 488.172   5
   2  11  -5 16600.5 1113.55   3
   2  11  -5 14519.0 968.670   5
   2  11  -5 14583.3 966.391   7
  -2 -11   5 14964.2 876.743   8
   2  11  -4 28692.2 1444.13   7
   2  11  -4 28441.6 1473.24   3
   2  11  -4 29624.9 1393.90   5
  -2 -11   4 29666.7 1212.89   8
   2  11  -3 21039.3 1235.04   3
   2  11  -3 19951.7 1234.29   7
   2  11  -3 19971.0 1092.76   5
  -2 -11   3 20724.7 947.889   8
   2  11  -2 7372.07 721.179   3
  -2 -11   2 7473.11 524.551   8
   2  11  -2 7996.92 802.882   7
  -2 -11   2 7526.82 727.692   2
   2  11  -2 6562.62 605.803   5
   2  11  -1 571.011 295.106   7
   2  11  -1 202.194 268.373   3
  -2 -11   1 417.157 260.788   2
  -2 -11   1 328.206 144.501   8
  -2 -11   0 6927.67 679.054   2
   2  11   0 7553.04 716.333   3
   2  11   0 7010.79 762.985   7
  -2 -11  -1 20519.2 1150.95   2
   2  11   1 18815.3 1202.52   7
   2  11   2 35356.6 1197.82   6
   2  11   2 33311.6 1616.93   7
  -2 -11  -2 34815.9 1527.89   2
   2  11   3 26404.9 1420.28   7
  -2 -11  -3 27958.2 1353.00   2
   2  11   3 27100.6 1139.61   6
  -2 -11  -4 12005.7 904.352   2
   2  11   4 13516.9 997.936   7
   2  11   4 11678.4 783.542   6
   2  11   5 2437.18 457.146   7
   2  11   5 1831.28 361.920   6
  -2 -11  -5 2087.19 438.378   2
   2  11   6 5863.16 656.511   7
   2  11   6 5053.45 582.341   6
  -2 -11  -6 5276.45 641.494   2
  -2 -11  -6 4356.00 490.985   1
  -2 -11  -7 12906.2 809.934   1
   2  11   7 12331.5 923.647   7
   2  11   7 11811.9 917.277   6
  -2 -11  -7 12978.1 1019.05   2
   2  11   8 21109.8 1215.80   7
   2  11   8 20625.4 1245.90   6
  -2 -11  -8 21526.0 1040.58   1
  -2 -11  -8 23215.0 1413.48   2
   2  11   9 21515.8 1192.10   7
   2  11   9 21707.7 1321.08   6
  -2 -11  -9 23020.9 1405.88   2
  -2 -11 -10 10467.2 941.838   2
   2  11  10 11854.8 860.498   7
   2  11  10 10176.5 929.715   6
   2  11  11 2608.10 432.040   7
  -2 -11 -11 2682.35 506.295   2
   2  11  11 2145.03 486.017   6
   2  11  12 511.959 324.457   6
  -2 -11 -12 101.598 325.898   2
   2  12  -5 12306.3 879.125   5
   2  12  -5 10399.9 843.678   7
   2  12  -4 17239.0 1148.33   3
   2  12  -4 16891.5 1034.76   5
   2  12  -4 17571.4 1136.40   7
   2  12  -3 22242.4 1330.04   7
   2  12  -3 25626.4 1409.76   3
   2  12  -3 22494.5 1151.38   5
  -2 -12   3 21747.2 1302.16   2
   2  12  -2 9465.57 900.045   7
  -2 -12   2 11525.6 927.762   2
   2  12  -2 10902.0 928.350   3
   2  12  -1 249.085 262.302   7
   2  12  -1 269.563 258.975   3
  -2 -12   1 861.449 353.637   2
   2  12   0 3418.58 576.511   7
  -2 -12   0 4289.85 588.807   2
   2  12   0 3580.50 579.238   3
   2  12   1 21652.4 1365.73   7
  -2 -12  -1 21081.1 1249.76   2
   2  12   2 31589.8 1647.99   7
  -2 -12  -2 33776.6 1593.24   2
   2  12   3 38522.3 1809.34   7
  -2 -12  -3 41341.7 1786.29   2
   2  12   4 19406.9 1243.65   7
   2  12   4 17104.9 958.245   6
  -2 -12  -4 18438.0 1181.78   2
   2  12   5 2708.69 489.887   7
   2  12   5 2905.36 433.905   6
  -2 -12  -5 3329.42 553.414   2
   2  12   6 2361.17 502.579   7
   2  12   6 2232.38 391.576   6
  -2 -12  -6 2881.40 537.543   2
  -2 -12  -6 2294.12 399.553   1
   2  12   7 20029.3 1228.30   7
  -2 -12  -7 16922.3 993.636   1
   2  12   7 18510.2 1131.30   6
  -2 -12  -7 19335.4 1301.47   2
  -2 -12  -8 32062.4 1737.83   2
   2  12   8 27724.2 1462.66   6
   2  12   8 31475.0 1528.09   7
   2  12   9 25533.9 1343.48   7
   2  12   9 24220.0 1377.51   6
  -2 -12  -9 24791.8 1511.22   2
   2  12  10 6461.68 674.462   7
  -2 -12 -10 5743.57 726.489   2
   2  12  10 5560.09 685.469   6
   2  12  11 806.966 313.654   7
   2  12  11 1240.24 417.384   6
   2  13  -3 15164.7 1123.52   7
   2  13  -2 9895.44 940.652   7
   2  13  -2 9413.13 878.345   3
   2  13  -1 430.334 254.520   7
   2  13  -1 364.650 323.221   3
  -2 -13   1 877.776 383.541   2
   2  13   0 6851.68 810.246   7
  -2 -13   0 6835.95 751.095   2
   2  13   1 22779.7 1410.35   7
  -2 -13  -1 21531.5 1310.54   2
   2  13   2 30776.0 1679.92   7
  -2 -13  -2 32703.9 1618.23   2
   2  13   3 18927.2 1283.59   7
  -2 -13  -3 18665.3 1229.64   2
  -2 -13  -4 8194.59 845.034   2
   2  13   4 8481.77 867.393   7
  -2 -13  -5 584.999 343.621   1
   2  13   5 291.787 340.962   7
  -2 -13  -5-185.561 358.130   2
   2  13   6 7206.24 794.179   7
  -2 -13  -6 6169.30 763.163   2
   2  13   6 4890.85 573.340   6
  -2 -13  -6 5463.56 609.002   1
   2  13   7 12938.6 1027.79   7
   2  13   7 14142.6 959.368   6
  -2 -13  -7 15985.0 1208.28   2
  -2 -13  -8 21346.3 1422.84   2
   2  13   8 21635.1 1247.06   6
   2  13   8 22411.3 1321.88   7
   2  13   9 16492.6 1092.39   7
   2  13   9 15871.2 1077.03   6
   2  13  10 6509.53 686.344   7
  -2 -14  -5 763.284 321.646   1
  -3  11   5 9006.53 908.979   7
  -3  11   5 8731.35 900.083   6
   3 -11  -5 8056.05 853.750   1
  -3  11   4 11655.6 1042.99   7
  -3  11   4 11985.3 1017.35   6
   3 -11  -4 12386.1 1059.21   1
   3 -11  -3 13322.3 1113.84   1
  -3  11   3 13214.6 1122.27   7
  -3  11   3 11098.7 964.192   6
  -3  11   2 7424.87 798.547   6
  -3  11   2 8609.46 922.218   7
   3 -11  -2 7760.28 857.403   1
  -3  11   1 1853.08 498.938   7
   3 -11  -1 1868.11 509.568   1
   3 -11   0 3043.33 626.285   1
  -3  11   0 2370.38 562.666   7
   3 -10  -9 9297.31 824.223   1
   3 -10  -8 4702.48 563.752   1
  -3  10   8 5153.68 639.041   7
   3 -10  -7 4069.93 587.354   1
  -3  10   7 2774.76 506.904   7
  -3  10   7 3142.94 615.427   6
   3 -10  -6 1023.23 389.254   1
  -3  10   6 1052.76 411.638   6
  -3  10   6 1587.74 431.432   7
  -3  10   5 1938.44 473.855   7
  -3  10   5 1854.02 490.223   6
   3 -10  -5 1891.01 451.275   1
  -3  10   4 18290.6 1281.83   7
   3 -10  -4 17965.6 1261.88   1
  -3  10   4 17411.0 1272.58   6
  -3  10   3 17170.5 1283.02   7
   3 -10  -3 20697.1 1376.28   1
   3 -10  -2 12930.9 1085.17   1
  -3  10   2 12412.7 1098.13   7
   3 -10  -1 4057.21 631.059   1
  -3  10   1 4324.43 696.953   7
  -3  10   0 88.2828 307.544   7
   3 -10   0 64.5227 264.717   1
   3 -10   0 211.236 186.094   2
   3 -10   1 10262.5 699.321   2
  -3  10  -1 10198.6 1008.03   7
  -3  10  -2 7327.36 806.107   3
   3 -10   2 7904.99 630.526   2
   3 -10   2 7529.76 844.899   1
  -3  10  -2 7375.84 878.338   7
  -3  10  -3 20597.2 1304.73   3
   3 -10   3 19479.2 1014.70   2
   3 -10   3 20638.1 1381.99   1
  -3  10  -4 10118.9 923.783   3
  -3  10  -4 10378.0 1044.34   7
   3 -10   4 9809.43 731.922   2
  -3  10  -5 5520.73 802.543   7
  -3  10  -5 6350.40 751.213   3
   3 -10   5 5213.12 534.184   2
  -3  10  -6-71.5278 383.063   7
   3  -9 -10 7762.93 716.365   1
   3  -9  -9 9683.69 805.975   1
  -3   9   9 7631.52 906.006   6
  -3   9   8 18179.4 1112.68   7
  -3   9   8 16693.0 1308.57   6
   3  -9  -8 15327.5 1041.41   1
  -3   9   7 4451.59 590.111   7
   3  -9  -7 5077.78 621.480   1
  -3   9   7 4435.60 697.465   6
   3  -9  -6 334.348 312.595   1
  -3   9   6-129.897 325.730   7
  -3   9   6 133.439 332.145   6
  -3   9   5 6530.41 755.973   7
  -3   9   5 5223.86 743.257   6
   3  -9  -5 6423.83 733.404   1
   3  -9  -5 6352.08 565.958   2
   3  -9  -4 29437.6 1273.05   2
   3  -9  -4 28972.7 1563.75   1
  -3   9   4 26624.0 1543.08   7
   3  -9  -3 33321.0 1696.81   1
  -3   9   3 31621.7 1696.12   7
   3  -9  -3 32927.3 1349.78   2
   3  -9  -2 34622.3 1371.81   2
   3  -9  -2 37162.0 1794.27   1
   3  -9  -1 14247.4 1089.99   1
  -3   9   1 16273.3 1193.46   7
   3  -9  -1 14248.3 811.213   2
  -3   9   0 2444.18 513.508   7
   3  -9   0 2267.83 489.303   1
   3  -9   0 1694.19 308.326   2
  -3   9  -1 3533.69 597.993   7
  -3   9  -1 5070.84 636.408   3
   3  -9   1 5011.86 482.106   2
   3  -9   1 4965.54 643.479   1
   3  -9   2 23150.9 1067.76   2
  -3   9  -2 25204.6 1376.02   3
  -3   9  -2 24566.2 1542.52   7
   3  -9   2 23460.2 1400.95   1
  -3   9  -3 33021.1 1635.92   3
  -3   9  -3 34764.3 1860.58   7
   3  -9   3 36444.3 1386.09   2
  -3   9  -4 27664.5 1461.34   3
  -3   9  -4 28566.6 1700.39   7
   3  -9   4 27240.7 1195.72   2
  -3   9  -5 11155.2 947.273   3
  -3   9  -5 7931.13 896.467   7
  -3   9  -6 859.247 401.091   7
  -3   9  -6-101.132 300.112   3
  -3   9  -7 2007.97 493.640   7
  -3   9  -7 2496.83 478.198   3
  -3   9  -8 9659.69 975.424   7
   3  -8 -11 4157.03 533.196   1
   3  -8 -10 12978.7 885.920   1
  -3   8  10 13937.4 1215.13   6
   3  -8  -9 28625.8 1383.27   1
  -3   8   9 32795.1 1857.82   6
  -3   8   8 15078.1 985.972   7
  -3   8   8 14410.7 903.260   8
  -3   8   8 15223.3 1265.59   6
   3  -8  -8 14538.8 991.683   1
   3  -8  -8 14934.1 881.640   2
  -3   8   7 15230.5 1032.86   7
  -3   8   7 14626.0 1215.48   6
   3  -8  -7 13364.1 975.026   1
   3  -8  -7 14532.2 860.452   2
  -3   8   6 211.126 259.783   7
   3  -8  -6 6.73944 251.897   1
   3  -8  -6-18.7586 152.105   2
  -3   8   5 11333.1 930.019   7
   3  -8  -5 9582.68 842.696   1
   3  -8  -5 11064.2 732.836   2
   3  -8  -4 30558.7 1261.99   2
  -3   8   4 30234.7 1549.47   7
   3  -8  -4 29455.0 1503.57   1
   3  -8  -3 45184.3 1576.53   2
  -3   8   3 47469.8 1980.90   7
   3  -8  -3 48518.1 1982.68   1
   3  -8  -2 27539.1 1141.14   2
   3  -8  -2 29020.0 1475.99   1
  -3   8   2 28800.5 1504.97   7
  -3   8   1 10434.3 900.179   7
   3  -8  -1 8787.68 802.628   1
   3  -8  -1 8800.26 607.971   2
  -3   8   1 10190.4 847.940   4
  -3   8   0 1.36894 257.791   4
   3  -8   0 156.004 237.265   1
  -3   8   0 635.943 317.241   7
   3  -8   0-17.6057 152.949   2
  -3   8  -1 11810.3 968.486   7
   3  -8   1 11967.0 701.182   2
   3  -8   1 11131.8 905.119   1
  -3   8  -1 11996.5 926.654   4
  -3   8  -1 11776.7 869.045   3
   3  -8   2 29029.1 1156.49   2
  -3   8  -2 28630.0 1389.99   3
  -3   8  -2 27519.3 1519.24   7
   3  -8   2 27963.1 1460.11   1
  -3   8  -2 29798.1 1495.26   4
  -3   8  -3 44453.3 1779.53   3
   3  -8   3 44988.6 1523.01   2
  -3   8  -3 43514.9 1966.35   7
  -3   8  -3 44308.5 1872.51   4
  -3   8  -4 57797.3 2095.36   3
  -3   8  -4 58391.3 2364.58   7
  -3   8  -4 56056.1 2184.27   4
  -3   8  -5 10659.0 874.830   3
  -3   8  -5 11585.9 1044.53   7
  -3   8  -5 11103.4 928.874   4
  -3   8  -6 1697.52 429.893   4
  -3   8  -6 1654.22 422.972   7
  -3   8  -6 2382.21 467.585   3
  -3   8  -7 4752.80 694.384   7
  -3   8  -7 4742.66 636.227   3
  -3   8  -7 4583.78 598.076   4
  -3   8  -8 16926.6 1254.40   7
  -3   8  -8 18808.8 1239.94   3
  -3   8  -8 16390.5 1111.98   4
   3  -8   8 18915.0 1142.48   8
  -3   8  -9 18219.9 1278.89   7
  -3   8  -9 22060.1 1348.29   3
   3  -8   9 20629.5 1230.63   8
   3  -7 -12 274.834 199.446   1
   3  -7 -11 5852.57 612.380   1
  -3   7  11 5228.01 776.762   6
   3  -7 -10 17131.2 1027.28   1
  -3   7  10 19201.8 1389.36   6
   3  -7 -10 16035.6 959.646   2
  -3   7  10 15442.6 920.782   8
  -3   7   9 23008.7 1142.98   8
  -3   7   9 22123.9 1096.71   7
   3  -7  -9 22463.6 1204.94   1
   3  -7  -9 21924.4 1112.55   2
  -3   7   9 21718.9 1494.43   6
  -3   7   8 14504.1 932.645   8
  -3   7   8 12505.9 854.648   7
   3  -7  -8 11630.7 782.173   2
  -3   7   8 11016.7 1068.56   6
   3  -7  -8 13621.3 948.253   1
  -3   7   7 3152.13 468.063   7
   3  -7  -7 3117.98 409.782   2
  -3   7   7 2753.98 556.212   6
   3  -7  -7 3196.75 467.731   1
  -3   7   6-199.671 281.377   7
   3  -7  -6-31.6920 156.067   2
   3  -7  -6-152.489 254.207   1
  -3   7   5 8747.80 765.897   7
   3  -7  -5 9064.99 771.973   1
   3  -7  -5 9796.41 644.088   2
   3  -7  -4 30591.8 1205.35   2
  -3   7   4 28655.3 1404.23   7
   3  -7  -4 29075.5 1430.70   1
   3  -7  -3 50808.6 1989.28   1
   3  -7  -3 56465.4 1723.38   2
  -3   7   3 50653.1 1936.91   7
   3  -7  -2 37403.6 1619.88   1
   3  -7  -2 35166.6 1263.52   2
  -3   7   2 35463.6 1558.11   4
   3  -7  -1 17483.9 1076.98   1
   3  -7  -1 16143.9 776.120   2
  -3   7   1 16224.1 1017.54   4
  -3   7   0-160.384 234.906   4
   3  -7   0-12.2016 187.938   1
   3  -7   0-14.1751 126.018   2
   3  -7   1 16196.2 767.082   2
   3  -7   1 16899.0 1055.49   1
  -3   7  -1 16052.2 1001.70   4
  -3   7  -1 16360.1 960.117   3
  -3   7  -2 49140.4 1746.85   3
  -3   7  -2 48345.2 1840.77   4
   3  -7   2 48592.3 1484.56   2
  -3   7  -3 40835.1 1584.92   3
  -3   7  -3 41457.2 1691.89   4
  -3   7  -4 28945.1 1329.31   3
  -3   7  -4 28558.9 1390.04   4
  -3   7  -5 12841.4 886.681   3
  -3   7  -5 12546.5 601.178   5
  -3   7  -5 12823.8 907.140   4
  -3   7  -6 176.309 246.976   3
  -3   7  -6-195.030 292.613   7
  -3   7  -6 211.428 221.900   4
  -3   7  -6 90.8222 143.000   5
   3  -7   7 3848.57 499.540   8
  -3   7  -7 3043.50 583.243   7
  -3   7  -7 3804.71 523.031   3
  -3   7  -7 2234.91 310.520   5
  -3   7  -7 3137.87 464.193   4
  -3   7  -8 11152.1 997.410   7
  -3   7  -8 11113.0 701.081   5
  -3   7  -8 13922.2 1017.93   3
  -3   7  -8 10632.7 857.240   4
   3  -7   8 11259.5 879.999   8
  -3   7  -9 22936.5 1398.61   7
  -3   7  -9 25229.1 1434.55   3
  -3   7  -9 24836.2 1121.66   5
  -3   7  -9 24432.9 1284.56   4
   3  -7   9 24008.6 1342.54   8
  -3   7 -10 13077.6 1051.43   3
   3  -7  10 14338.7 1050.13   8
   3  -6 -12 1057.07 304.380   1
   3  -6 -12 845.658 315.239   2
  -3   6  12 649.351 355.980   6
  -3   6  11 2080.40 382.150   8
   3  -6 -11 2312.56 413.927   1
  -3   6  11 1628.65 472.337   6
   3  -6 -11 1253.94 299.843   2
   3  -6 -10 14913.0 959.216   1
  -3   6  10 15233.9 1226.87   6
  -3   6  10 13991.9 894.489   8
   3  -6 -10 13187.9 896.371   2
  -3   6   9 19102.3 1067.39   8
  -3   6   9 19043.5 946.028   7
   3  -6  -9 19461.1 1094.35   1
  -3   6   9 20425.2 1408.62   6
   3  -6  -9 17645.2 1021.47   2
  -3   6   8 23726.4 1223.80   8
   3  -6  -8 23409.3 1194.77   1
  -3   6   8 26216.0 1561.58   6
  -3   6   8 24321.5 1155.91   7
   3  -6  -8 22557.8 1102.88   2
  -3   6   7 3321.83 451.939   7
   3  -6  -7 3635.30 420.188   2
  -3   6   7 3631.02 491.749   8
   3  -6  -7 3579.75 483.957   1
   3  -6  -6 303.947 229.271   1
   3  -6  -6 243.016 165.635   2
  -3   6   6-274.581 244.272   7
  -3   6   5 16057.2 960.335   7
   3  -6  -5 16519.4 998.246   1
   3  -6  -5 16596.7 824.169   2
   3  -6  -4 16663.3 993.007   1
   3  -6  -4 16799.5 810.948   2
  -3   6   3 63222.4 2064.41   4
   3  -6  -3 63743.6 1800.20   2
   3  -6  -3 62661.3 2131.77   1
   3  -6  -2 45598.5 1402.97   2
   3  -6  -2 48349.0 1794.03   1
  -3   6   2 48321.2 1721.80   4
   3  -6  -1 24752.0 1232.71   1
   3  -6  -1 24504.3 920.313   2
  -3   6   1 25669.9 1206.66   4
   3  -6   0 2151.90 364.986   1
  -3   6   0 2319.99 346.014   3
  -3   6   0 1943.64 356.821   4
   3  -6   0 2093.09 247.790   2
  -3   6  -1 340.375 220.326   4
  -3   6  -1 588.884 230.802   3
   3  -6   1 738.345 274.781   1
   3  -6   1 306.274 132.188   2
  -3   6  -2 53100.6 1724.31   3
   3  -6   2 53177.3 1471.03   2
  -3   6  -2 52455.9 1817.57   4
  -3   6  -3 34880.5 913.944   5
  -3   6  -3 35336.3 1375.19   3
  -3   6  -3 34907.1 1427.41   4
  -3   6  -4 42520.9 1555.31   3
  -3   6  -4 44984.6 1667.28   4
  -3   6  -5 16007.2 942.087   3
  -3   6  -5 17134.8 707.067   5
  -3   6  -5 15570.3 942.543   4
  -3   6  -6 993.518 293.602   4
   3  -6   6 976.416 269.595   8
  -3   6  -6 1369.95 241.134   5
  -3   6  -6 825.224 294.391   3
   3  -6   7 2213.71 391.183   8
  -3   6  -7 2559.42 413.377   3
  -3   6  -7 2234.56 314.573   5
  -3   6  -7 2731.11 424.799   4
  -3   6  -8 16451.6 1059.47   3
  -3   6  -8 15604.4 1119.37   7
  -3   6  -8 16006.6 861.817   5
  -3   6  -8 15093.0 971.460   4
   3  -6   8 15524.7 995.999   8
  -3   6  -9 21552.4 1312.52   7
  -3   6  -9 20340.8 1261.51   3
  -3   6  -9 22269.6 1085.49   5
  -3   6  -9 22679.9 1190.17   4
   3  -6   9 24179.3 1307.76   8
  -3   6 -10 24975.2 1435.58   3
  -3   6 -10 23231.6 1165.70   5
   3  -6  10 22712.6 1317.02   8
  -3   6 -11 13176.6 1060.87   3
  -3   6 -11 11114.0 824.650   5
   3  -6  11 12058.9 997.039   8
  -3   6 -12 1055.38 324.937   5
  -3   5  13 3725.96 494.911   8
   3  -5 -13 2790.65 500.381   2
  -3   5  12 169.055 218.634   8
   3  -5 -12 291.453 237.631   1
   3  -5 -12 70.4230 242.524   2
  -3   5  12 576.340 328.414   6
  -3   5  11 1168.98 310.871   8
  -3   5  11 1857.29 515.178   6
   3  -5 -11 844.026 307.624   2
   3  -5 -11 1756.21 383.659   1
  -3   5  10 9546.10 761.965   8
   3  -5 -10 10355.2 799.358   1
  -3   5  10 9353.61 950.416   6
   3  -5 -10 8739.09 738.808   2
  -3   5   9 17930.8 864.601   7
  -3   5   9 20851.0 1368.26   6
   3  -5  -9 19311.1 1069.72   2
  -3   5   9 21244.8 1140.57   8
   3  -5  -9 20464.1 1109.17   1
  -3   5   8 35167.2 1508.64   8
  -3   5   8 34973.8 1335.01   7
   3  -5  -8 36215.4 1491.21   1
  -3   5   8 37125.2 1825.85   6
   3  -5  -8 34871.8 1419.55   2
   3  -5  -7 32552.3 1384.43   1
   3  -5  -7 31637.2 1269.35   2
  -3   5   7 32535.8 1457.67   8
  -3   5   7 30644.1 1288.73   7
   3  -5  -6 7202.54 540.624   2
  -3   5   6 6653.68 569.772   7
   3  -5  -6 6549.82 603.269   1
   3  -5  -5 3300.98 443.514   1
   3  -5  -5 3272.35 354.250   2
   3  -5  -4 52277.9 1507.61   2
  -3   5   4 54811.8 1780.63   4
   3  -5  -4 52800.3 1835.84   1
  -3   5   3 64209.8 1973.90   4
   3  -5  -3 64005.7 2042.73   1
   3  -5  -3 65076.7 1689.00   2
   3  -5  -2 120538. 3138.34   1
   3  -5  -2 118186. 2605.08   2
  -3   5   2 124403. 2999.73   4
   3  -5  -1 45611.8 1260.90   2
   3  -5  -1 46396.7 1678.07   1
  -3   5   1 49356.2 1620.64   4
   3  -5   0 4271.96 315.400   2
   3  -5   0 4232.84 472.097   1
  -3   5   0 3473.95 382.008   3
  -3   5   0 4272.33 445.936   4
  -3   5  -1 8747.91 590.453   3
   3  -5   1 7992.65 637.453   1
   3  -5   1 8565.57 450.690   2
  -3   5  -1 9222.75 639.993   4
  -3   5  -2 22836.0 980.052   3
  -3   5  -2 21743.5 556.916   5
  -3   5  -2 21092.7 1007.28   4
  -3   5  -3 128942. 2994.39   3
  -3   5  -3 126076. 2415.67   5
  -3   5  -3 124313. 3086.72   4
  -3   5  -4 89643.8 2348.93   3
  -3   5  -4 84049.9 2358.74   4
  -3   5  -5 67051.8 2014.32   3
  -3   5  -5 62749.0 1982.15   4
   3  -5   5 66169.7 1937.16   8
  -3   5  -6 16586.4 928.422   3
  -3   5  -6 14762.8 717.268   5
  -3   5  -6 15518.9 887.557   4
   3  -5   6 15384.3 873.664   8
   3  -5   7 281.858 221.025   8
  -3   5  -7 316.347 208.428   4
  -3   5  -7 362.535 211.012   3
  -3   5  -8 10974.6 838.400   3
  -3   5  -8 10565.9 762.084   4
   3  -5   8 10488.7 781.162   8
  -3   5  -9 30362.9 1457.64   3
  -3   5  -9 27173.7 1257.38   4
   3  -5   9 27504.9 1361.51   8
  -3   5 -10 36312.1 1579.16   7
  -3   5 -10 38632.9 1759.76   3
  -3   5 -10 34423.3 1412.19   4
   3  -5  10 38195.0 1721.64   8
  -3   5 -11 10690.6 949.304   3
   3  -5  11 13615.2 1034.76   8
   3  -5  12 5668.64 706.381   8
  -3   5 -12 5342.92 708.436   3
   3  -4 -13 9732.02 802.494   1
   3  -4 -13 6410.58 723.111   2
  -3   4  13 8759.33 898.696   6
   3  -4 -13 7444.94 860.405   3
  -3   4  13 8962.67 756.214   8
  -3   4  12 2119.54 410.729   8
   3  -4 -12 2224.04 423.078   1
  -3   4  12 2356.47 497.537   6
   3  -4 -12 2107.20 421.932   2
  -3   4  11 4504.16 548.790   8
   3  -4 -11 4135.48 526.070   1
  -3   4  11 4808.39 692.725   6
   3  -4 -11 4705.81 596.217   2
  -3   4  10 15372.4 990.225   8
   3  -4 -10 16221.0 1023.68   1
  -3   4  10 18229.9 1283.85   6
   3  -4 -10 16150.9 1037.80   2
  -3   4   9 59017.4 2351.05   6
   3  -4  -9 53935.1 1948.59   1
  -3   4   9 58091.4 2019.92   8
   3  -4  -9 56209.4 1956.69   2
  -3   4   8 56918.1 1984.50   8
   3  -4  -8 55795.2 1910.84   1
  -3   4   8 55815.4 1663.56   7
   3  -4  -8 56265.6 1878.11   2
  -3   4   7 26944.2 1097.16   7
   3  -4  -7 26525.0 1207.51   1
  -3   4   7 25878.7 1269.32   8
   3  -4  -7 26100.6 1132.20   2
   3  -4  -6 11769.4 784.613   1
   3  -4  -6 11855.2 689.079   2
   3  -4  -5 4349.57 391.552   2
   3  -4  -5 4669.83 489.621   1
  -3   4   5 5004.94 473.606   4
  -3   4   4 66630.6 1788.15   2
   3  -4  -4 66408.9 1708.08   2
   3  -4  -4 65570.5 2030.24   1
  -3   4   4 69512.9 1951.59   4
  -3   4   3 96850.2 2138.47   2
  -3   4   3 101869. 2499.10   4
   3  -4  -3 102089. 2660.13   1
   3  -4  -3 96969.1 2181.85   2
   3  -4  -2 132879. 3293.88   1
  -3   4   2 143272. 3167.33   4
   3  -4  -2 137683. 2821.29   2
   3  -4  -1 95611.4 2010.68   2
   3  -4  -1 94161.6 2537.05   1
  -3   4   1 94249.2 2379.73   4
  -3   4   0 23762.1 946.286   3
   3  -4   0 23559.0 720.565   2
   3  -4   0 23988.1 1084.82   1
  -3   4   0 24633.9 1008.43   4
  -3   4  -1 13033.6 667.744   3
   3  -4   1 15208.1 836.454   1
   3  -4   1 13983.1 526.121   2
  -3   4  -1 14131.2 743.755   4
  -3   4  -2 60995.0 1644.71   3
   3  -4   2 56982.7 1776.64   1
  -3   4  -2 56842.6 1128.00   5
  -3   4  -2 58275.5 1715.56   4
  -3   4  -3 114208. 2618.95   3
  -3   4  -3 110699. 2137.35   5
  -3   4  -3 111729. 2678.58   4
  -3   4  -4 126442. 2863.81   3
  -3   4  -4 118567. 2845.42   4
  -3   4  -5 110257. 2654.00   3
  -3   4  -5 104485. 2629.30   4
   3  -4   5 107813. 2620.27   8
  -3   4  -6 9289.80 627.759   4
   3  -4   6 9607.97 643.754   8
  -3   4  -6 8505.37 631.613   3
  -3   4  -7 1552.39 282.084   4
   3  -4   7 1844.42 330.492   8
  -3   4  -7 1301.96 274.862   3
  -3   4  -8 35916.6 1490.43   3
  -3   4  -8 35506.7 1365.63   4
   3  -4   8 37424.5 1475.17   8
  -3   4  -9 50449.2 1892.64   3
   3  -4   9 51998.1 1872.42   8
  -3   4  -9 48902.8 1693.59   4
  -3   4 -10 49942.1 1956.25   3
  -3   4 -10 48008.5 1644.87   4
   3  -4  10 46924.7 1867.66   8
  -3   4 -11 21790.8 1321.09   3
   3  -4  11 22074.4 1307.20   8
   3  -4  12 2612.65 504.919   8
  -3   4 -12 3207.22 554.716   3
   3  -4  13 145.418 316.400   8
  -3   4 -13-423.349 378.058   3
  -3   3  14 8187.20 764.770   8
  -3   3  14 6291.12 758.941   6
  -3   3  13 4095.17 543.222   8
  -3   3  13 4725.29 656.575   6
   3  -3 -13 3480.59 655.924   3
   3  -3 -13 3649.04 496.370   1
  -3   3  12 1088.44 326.804   8
   3  -3 -12 1199.44 345.136   1
   3  -3 -12 264.312 259.791   2
  -3   3  12 1010.17 382.678   6
   3  -3 -12 1057.25 420.064   3
  -3   3  11 4561.36 555.586   8
   3  -3 -11 5051.46 602.068   1
   3  -3 -11 3938.83 547.310   2
  -3   3  11 3422.27 578.269   6
   3  -3 -10 23746.2 1275.80   1
  -3   3  10 23578.0 1426.50   6
   3  -3 -10 24654.7 1293.71   2
  -3   3  10 24573.4 1281.45   8
   3  -3  -9 51649.6 1901.48   1
  -3   3   9 55007.7 2189.15   6
  -3   3   9 56755.3 1984.38   8
   3  -3  -9 50970.0 1870.55   2
  -3   3   8 53176.2 1912.72   8
   3  -3  -8 53634.6 1886.46   1
  -3   3   8 53928.4 1495.88   7
   3  -3  -8 52675.6 1788.01   2
  -3   3   7 50067.9 1810.15   8
   3  -3  -7 47464.3 1698.88   1
   3  -3  -7 46615.9 1556.58   2
   3  -3  -6 995.345 217.875   2
   3  -3  -6 683.411 239.105   1
   3  -3  -5 3234.77 405.106   1
  -3   3   5 2966.63 339.462   4
   3  -3  -5 2946.49 311.327   2
   3  -3  -4 54607.5 1775.46   1
   3  -3  -4 57216.8 1497.37   2
  -3   3   4 57168.0 1629.52   4
  -3   3   4 59529.8 1571.27   2
  -3   3   3 136770. 2836.06   2
   3  -3  -3 140065. 2799.95   2
   3  -3  -3 138346. 3267.08   1
  -3   3   3 139542. 3039.54   4
   3  -3  -2 75092.5 2138.00   1
  -3   3   2 77970.9 1959.07   4
   3  -3  -2 74803.9 1644.11   2
   3  -3  -1 76905.4 2145.25   1
   3  -3  -1 76987.2 1630.58   2
  -3   3   1 75130.6 1945.37   4
   3  -3   0 11654.4 706.002   1
  -3   3   0 10834.7 558.259   3
  -3   3   0 11008.4 601.962   4
   3  -3   0 10909.6 396.462   2
  -3   3  -1 4162.28 336.511   3
   3  -3   1 3995.69 408.641   1
   3  -3   1 4582.66 243.338   2
  -3   3  -1 4831.71 401.698   4
  -3   3  -2 94442.9 2097.38   3
   3  -3   2 91226.3 2286.06   1
  -3   3  -2 87443.7 1625.38   5
  -3   3  -2 91602.3 2200.82   4
  -3   3  -3 126466. 2765.69   3
   3  -3   3 131596. 2553.06   2
  -3   3  -3 127030. 2877.42   4
  -3   3  -4 105640. 2418.86   3
  -3   3  -4 100466. 2465.86   4
   3  -3   4 104524. 2423.84   8
  -3   3  -5 30281.2 1127.91   4
  -3   3  -5 28800.2 1093.64   3
   3  -3   5 30149.2 1105.85   8
  -3   3  -6 25644.9 1053.89   3
  -3   3  -6 23927.7 1004.17   4
   3  -3   6 24890.8 1035.60   8
  -3   3  -7 8673.76 638.588   3
  -3   3  -7 8939.49 598.221   4
   3  -3   7 9028.16 629.679   8
   3  -3   8 19770.3 778.924   6
  -3   3  -8 20898.9 1046.47   3
  -3   3  -8 20223.5 940.999   4
   3  -3   8 18476.8 976.232   8
   3  -3   9 42675.6 1269.19   6
  -3   3  -9 42152.8 1643.42   3
  -3   3  -9 42464.7 1476.10   4
   3  -3   9 42948.5 1627.10   8
   3  -3  10 36621.5 1167.01   6
  -3   3 -10 35522.8 1575.61   3
  -3   3 -10 35317.8 1328.99   4
   3  -3  10 35354.6 1547.38   8
   3  -3  11 26412.0 963.844   6
  -3   3 -11 26157.7 1400.73   3
  -3   3 -11 27540.9 1129.05   4
   3  -3  11 28676.6 1430.38   8
  -3   3 -12 3006.85 541.728   3
   3  -3  12 3763.39 591.494   8
  -3   3 -13 166.216 319.789   3
   3  -3  13 117.026 295.760   8
  -3   2  14 8990.66 869.076   6
   3  -2 -13 2587.71 495.186   1
  -3   2  13 2902.28 502.797   6
   3  -2 -13 1620.90 511.632   3
  -3   2  12 757.440 334.735   6
  -3   2  12 1414.02 412.234   8
   3  -2 -12 1393.19 356.638   1
  -3   2  11 2393.54 453.812   8
  -3   2  11 2716.71 520.482   6
   3  -2 -11 2298.51 455.521   1
   3  -2 -11 2582.50 555.142   3
   3  -2 -11 1658.59 392.091   2
  -3   2  10 17170.3 1082.01   8
  -3   2  10 16933.1 1153.88   6
   3  -2 -10 15896.4 1014.85   2
   3  -2 -10 15297.5 1048.95   1
  -3   2   9 21558.4 1171.50   8
  -3   2   9 20336.6 1249.16   6
   3  -2  -9 19300.7 1051.70   2
   3  -2  -9 17575.9 1095.18   1
   3  -2  -8 26701.6 1306.64   1
  -3   2   8 28875.3 893.944   7
   3  -2  -8 26820.8 1182.44   2
  -3   2   8 29255.7 1361.00   8
  -3   2   7 16690.4 999.306   8
   3  -2  -7 15457.5 948.369   1
   3  -2  -7 15639.2 813.054   2
   3  -2  -6 2743.20 398.995   1
   3  -2  -6 2904.32 325.083   2
  -3   2   6 3629.83 472.788   8
   3  -2  -5 8485.08 642.507   1
  -3   2   5 9451.16 523.177   4
   3  -2  -5 9514.42 521.398   2
  -3   2   5 8922.54 504.303   2
   3  -2  -4 49987.9 1644.35   1
  -3   2   4 50390.1 1349.66   2
  -3   2   4 52142.2 1415.92   4
   3  -2  -4 51791.2 1330.03   2
   3  -2  -3 71287.9 1560.16   2
   3  -2  -3 67866.1 1978.21   1
  -3   2   3 71120.6 1756.20   4
  -3   2   3 72222.5 1710.19   2
  -3   2   2 168829. 3110.46   2
   3  -2  -2 168654. 2920.55   5
   3  -2  -2 164026. 3659.66   1
  -3   2   2 167222. 3363.59   4
   3  -2  -2 163499. 3026.00   2
   3  -2  -1 60430.9 1464.15   3
   3  -2  -1 59851.7 1198.14   2
  -3   2   1 57821.0 1523.41   4
   3  -2  -1 57510.0 1736.32   1
   3  -2   0 25499.6 593.214   2
   3  -2   0 24129.4 776.552   3
  -3   2   0 26551.4 910.706   4
   3  -2   0 25507.7 1045.63   1
  -3   2   0 24795.2 817.836   3
  -3   2  -1 1960.23 245.133   4
   3  -2   1 1930.24 121.663   2
  -3   2  -1 1602.76 188.257   3
   3  -2   1 1883.87 192.694   3
   3  -2   1 2012.79 277.219   1
  -3   2  -2 31903.5 1075.06   4
  -3   2  -2 33780.8 983.769   3
   3  -2   2 34717.8 986.091   3
   3  -2   2 33244.1 1155.50   1
   3  -2   2 34535.7 812.452   2
  -3   2  -3 100817. 2370.24   4
  -3   2  -3 100896. 2247.70   3
  -3   2  -4 123738. 2674.74   3
   3  -2   4 122273. 2714.85   8
  -3   2  -4 122602. 2764.24   4
   3  -2   5 51909.9 1328.58   6
  -3   2  -5 52364.2 1499.80   4
  -3   2  -5 51310.7 1473.76   3
   3  -2   5 51610.1 1485.47   8
   3  -2   6 6035.47 382.627   6
  -3   2  -6 5561.49 436.112   4
  -3   2  -6 5935.91 470.279   3
   3  -2   6 6054.32 467.943   8
   3  -2   7 325.347 167.319   8
  -3   2  -7 95.7192 147.285   4
   3  -2   7 346.617 126.731   6
  -3   2  -7 366.791 186.268   3
  -3   2  -8 18991.6 869.260   4
   3  -2   8 19615.9 777.399   6
  -3   2  -8 19252.9 968.931   3
   3  -2   8 20057.9 967.432   8
   3  -2   9 28607.9 1236.94   8
   3  -2   9 26293.1 964.522   6
  -3   2  -9 27981.1 1245.41   3
  -3   2  -9 26687.2 1076.88   4
   3  -2  10 25543.5 1235.43   8
  -3   2 -10 25721.2 1269.63   3
  -3   2 -10 24880.3 1064.31   4
   3  -2  10 25199.0 967.994   6
   3  -2  11 16537.4 783.747   6
  -3   2 -11 18573.6 1125.11   3
   3  -2  11 18766.8 1104.88   8
  -3   2 -11 18651.9 899.933   4
   3  -2  12 8041.51 542.685   6
  -3   2 -12 8407.63 811.134   3
   3  -2  12 8175.94 786.341   8
   3  -2  13 359.990 283.434   8
  -3   2 -13 70.1517 317.029   3
  -3   2 -14 1804.44 496.363   3
   3  -2  14 1883.01 467.459   8
   3  -1 -14 11512.8 961.226   1
  -3   1  13 8279.10 792.418   6
   3  -1 -13 4925.68 756.397   3
  -3   1  13 7004.83 775.038   8
   3  -1 -13 4851.00 652.154   1
  -3   1  12 982.594 338.936   8
  -3   1  12 620.495 328.928   6
   3  -1 -12 937.781 435.914   3
   3  -1 -12 919.900 371.932   1
  -3   1  11 263.751 287.305   8
  -3   1  11-17.7547 231.479   6
   3  -1 -11-9.88267 303.895   3
   3  -1 -11 46.4733 213.751   1
  -3   1  10 11441.5 904.498   8
  -3   1  10 9501.02 853.087   6
   3  -1 -10 10005.0 902.614   1
   3  -1 -10 9767.14 874.466   3
  -3   1   9 37259.0 1612.69   8
   3  -1  -9 36440.3 1692.99   1
  -3   1   9 36754.2 1653.62   6
   3  -1  -9 34813.4 1601.30   3
  -3   1   8 47730.1 1118.26   7
  -3   1   8 49457.9 1920.98   6
   3  -1  -8 47267.0 1632.71   2
  -3   1   8 51432.4 1910.76   8
   3  -1  -8 51475.5 2000.14   1
   3  -1  -7 43472.4 1087.33   4
   3  -1  -7 42756.9 1435.52   2
   3  -1  -7 46242.0 1804.22   1
  -3   1   7 47482.0 1762.21   8
  -3   1   6 35663.4 1493.48   8
   3  -1  -6 36820.2 1494.53   1
   3  -1  -6 32920.7 1144.27   2
   3  -1  -6 34042.6 938.593   4
   3  -1  -5 104.072 91.7198   4
   3  -1  -5 85.1601 112.471   2
   3  -1  -5 309.912 170.457   1
  -3   1   5 99.0209 86.7493   2
   3  -1  -4 11534.6 505.499   4
   3  -1  -4 12204.8 746.800   1
   3  -1  -4 11804.2 520.549   2
  -3   1   4 12033.0 531.141   4
  -3   1   4 11784.6 530.121   2
   3  -1  -3 166764. 3173.83   5
   3  -1  -3 174862. 3772.24   1
   3  -1  -3 175439. 3296.29   4
   3  -1  -3 170382. 3155.37   2
  -3   1   3 171877. 3237.98   2
  -3   1   3 170864. 3308.57   4
  -3   1   2 123619. 2420.86   2
   3  -1  -2 126295. 2960.38   1
   3  -1  -2 126953. 2555.31   4
   3  -1  -2 126273. 2338.03   5
   3  -1  -2 126188. 2291.98   2
  -3   1   2 126272. 2567.75   4
  -3   1   1 141371. 2768.69   4
   3  -1  -1 139503. 2672.88   3
  -3   1   1 131878. 2369.65   2
   3  -1  -1 138488. 2403.22   5
   3  -1  -1 145487. 3094.06   1
   3  -1  -1 133374. 2325.85   2
   3  -1  -1 147840. 2772.08   4
   3  -1   0 31361.3 817.141   3
  -3   1   0 33538.4 1219.70   1
   3  -1   0 32092.0 1123.23   1
  -3   1   0 29809.1 938.184   4
   3  -1   1 8797.00 542.347   1
  -3   1  -1 8259.65 364.239   3
   3  -1   1 8733.80 371.209   3
  -3   1  -1 8539.52 246.573   5
  -3   1  -1 8345.94 453.015   4
   3  -1   2 31695.7 1054.96   1
  -3   1  -2 32919.5 865.794   3
   3  -1   2 34405.5 884.621   3
   3  -1   2 31309.8 717.640   2
  -3   1  -2 31642.8 987.164   4
  -3   1  -3 82312.6 1920.97   4
  -3   1  -3 80516.9 1776.82   3
   3  -1   3 80659.3 1941.28   1
   3  -1   3 84456.7 1788.86   3
   3  -1   3 82531.2 1669.18   2
   3  -1   3 84007.2 1871.35   4
   3  -1   4 226726. 4021.60   2
  -3   1  -4 218299. 4227.29   4
   3  -1   4 218169. 4059.66   6
  -3   1  -4 221744. 4127.65   3
   3  -1   4 214047. 4194.21   8
  -3   1  -5 116925. 2566.05   4
   3  -1   5 115991. 2419.41   6
  -3   1  -5 111163. 2499.03   3
   3  -1   5 122237. 2442.08   2
   3  -1   5 119224. 2566.07   8
  -3   1  -6 82276.4 2006.92   3
   3  -1   6 78454.4 1823.38   6
  -3   1  -6 77799.2 1945.45   4
   3  -1   6 80146.1 2003.13   8
   3  -1   7 4866.73 354.119   6
  -3   1  -7 4885.36 430.129   3
  -3   1  -7 4663.35 391.982   4
   3  -1   7 4630.24 420.958   8
   3  -1   8 8621.95 496.983   6
  -3   1  -8 9227.17 623.822   3
  -3   1  -8 8344.78 527.341   4
   3  -1   8 8052.11 586.338   8
   3  -1   9 54572.2 1497.62   6
  -3   1  -9 50685.2 1725.56   3
  -3   1  -9 49980.5 1530.78   4
   3  -1   9 49852.3 1692.66   8
   3  -1  10 66728.4 1807.38   6
  -3   1 -10 65634.3 2131.78   3
  -3   1 -10 65218.5 1847.44   4
   3  -1  10 66896.0 1473.31   9
   3  -1  10 62705.0 2055.27   8
   3  -1  11 40830.4 1370.09   6
  -3   1 -11 36226.0 1594.96   3
   3  -1  11 38873.9 1607.11   8
  -3   1 -11 39073.4 1345.77   4
  -3   1 -12 13232.6 988.346   3
   3  -1  12 12753.0 744.559   6
  -3   1 -12 14312.9 748.710   4
   3  -1  12 12434.8 943.186   8
   3  -1  13-72.4945 277.073   8
   3  -1  13 195.573 194.974   6
  -3   1 -13 201.138 247.342   3
   3  -1  14 687.659 361.797   8
  -3   1 -14 918.753 413.866   3
   3  -1  15 9317.39 944.969   8
  -3   1 -15 7983.02 903.593   3
   3   0 -14 6780.63 773.356   1
   3   0 -13 17037.9 1251.86   1
   3   0 -13 15239.2 1217.79   3
  -3   0  13 17960.0 1246.14   8
  -3   0  12 4509.55 652.243   8
  -3   0  12 4304.37 571.593   6
   3   0 -12 3338.97 601.971   3
   3   0 -12 3116.00 568.563   1
  -3   0  11 747.776 342.388   8
  -3   0  11 323.760 254.980   6
   3   0 -11 166.229 264.077   3
   3   0 -11 569.678 333.113   1
  -3   0  10 12050.5 929.102   6
   3   0 -10 11279.2 895.891   3
  -3   0  10 12349.2 971.966   8
   3   0 -10 13137.0 1066.22   1
   3   0  -9 40148.8 1804.14   1
  -3   0   9 39520.3 1685.06   6
   3   0  -9 38713.0 1614.70   3
  -3   0   9 40370.1 1757.68   8
  -3   0   8 108869. 3095.58   6
   3   0  -8 100649. 2894.34   3
   3   0  -8 103237. 3098.37   1
  -3   0   8 109770. 3186.11   8
   3   0  -7 84300.8 2533.52   1
  -3   0   7 90682.0 1777.01   7
   3   0  -7 92989.2 2013.92   9
  -3   0   7 88933.0 2696.32   8
   3   0  -7 83407.1 2355.25   3
   3   0  -7 84585.8 1651.12   4
  -3   0   6 31395.9 817.903   7
   3   0  -6 31537.9 970.059   9
  -3   0   6 31200.3 1427.63   8
   3   0  -6 31735.4 793.014   4
   3   0  -6 30195.8 1301.61   1
  -3   0   5 120.784 183.561   8
   3   0  -5 202.767 63.3124   4
  -3   0   5 291.360 88.9292   4
   3   0  -5 328.932 194.696   1
  -3   0   4 32371.5 1406.77   8
  -3   0   4 33003.5 938.508   2
   3   0  -4 29675.2 1163.55   1
  -3   0   4 31788.4 870.815   4
   3   0  -4 32624.6 866.938   4
  -3   0   3 142871. 2705.67   2
   3   0  -3 141511. 3123.44   1
   3   0  -3 139644. 2771.87   5
  -3   0   3 139551. 2717.14   4
   3   0  -3 145082. 2717.41   4
  -3   0   2 291576. 5244.82   4
  -3   0   2 298954. 5108.32   2
   3   0  -2 291151. 5576.33   1
   3   0  -2 301163. 5202.09   5
   3   0  -2 304402. 5263.38   4
   3   0  -1 271457. 5068.64   1
   3   0  -1 272666. 4617.42   5
   3   0  -1 270680. 4799.34   4
  -3   0   1 265040. 4482.47   2
  -3   0   1 263157. 4779.31   4
   3   0   0 76662.0 1471.06   3
  -3   0   0 74713.0 1696.27   4
  -3   0   0 78430.0 1486.00   5
   3   0   0 76986.6 1874.05   1
   3   0   0 76613.7 1493.37   5
   3   0   0 80102.1 1721.35   4
   3   0   1 855.550 140.108   4
  -3   0  -1 666.081 132.753   4
   3   0   1 697.785 145.657   1
  -3   0  -1 770.846 86.2719   3
   3   0   1 695.780 83.3135   3
  -3   0  -1 771.153 84.5405   5
  -3   0  -1 529.889 165.115   1
   3   0   2 110310. 1981.98   2
  -3   0  -2 105424. 2234.38   4
   3   0   2 106332. 1995.39   3
  -3   0  -2 106939. 2287.74   1
  -3   0  -2 105502. 1877.18   2
  -3   0  -2 104152. 1984.49   3
   3   0   2 109802. 2350.51   1
   3   0   3 283750. 4823.35   2
   3   0   3 283083. 5065.05   1
   3   0   3 271633. 4913.58   6
  -3   0  -3 269734. 4788.41   3
   3   0   3 272603. 4797.53   3
  -3   0  -3 274986. 5021.44   4
  -3   0  -3 271723. 4724.44   2
  -3   0  -3 278794. 4940.09   8
  -3   0  -4 207276. 3780.67   8
  -3   0  -4 197732. 3712.56   3
   3   0   4 199702. 3792.08   1
   3   0   4 203343. 3815.94   8
   3   0   4 195992. 3743.79   6
   3   0   4 200290. 3702.97   3
  -3   0  -4 197008. 3859.36   4
  -3   0  -4 196607. 3661.22   2
   3   0   4 207409. 3801.57   4
   3   0   4 209327. 3736.35   2
  -3   0  -5 230404. 4437.01   4
   3   0   5 234305. 4329.22   6
  -3   0  -5 230070. 4373.29   3
   3   0   5 240123. 4366.18   2
   3   0   5 230206. 4319.55   4
  -3   0  -5 239894. 4352.81   2
   3   0   5 236791. 4420.54   8
   3   0   6 44572.9 1286.92   8
   3   0   6 43325.2 1198.54   6
  -3   0  -6 41694.1 1242.86   3
  -3   0  -6 42842.2 1253.48   2
  -3   0  -6 41906.3 1242.53   4
   3   0   7 2435.34 296.079   8
   3   0   7 2607.50 273.321   6
  -3   0  -7 2849.12 315.561   3
   3   0   7 2685.05 202.500   1
  -3   0  -7 2502.04 310.562   2
  -3   0  -7 2804.09 294.540   4
   3   0   8 10369.8 456.932   9
   3   0   8 10586.4 430.036   1
   3   0   8 11772.7 601.155   6
  -3   0  -8 11682.1 686.315   3
  -3   0  -8 10601.7 651.141   2
  -3   0  -8 11627.4 609.162   4
   3   0   8 10218.5 631.058   8
   3   0   9 79298.4 1984.42   8
  -3   0  -9 77913.0 1794.57   4
   3   0   9 78323.3 1795.95   6
  -3   0  -9 77566.5 2037.22   3
  -3   0  -9 78093.9 2042.68   2
   3   0   9 79444.6 1435.03   9
  -3   0 -10 82828.2 2097.05   4
   3   0  10 80139.0 2102.20   6
  -3   0 -10 80448.7 2365.62   3
  -3   0 -10 78940.1 2356.08   2
   3   0  10 79867.5 1663.43   9
   3   0  10 77212.8 2284.06   8
   3   0  11 66351.7 1888.47   6
  -3   0 -11 59906.3 2082.85   3
  -3   0 -11 58762.6 2083.88   2
  -3   0 -11 61355.2 1789.04   4
   3   0  11 61279.2 2040.78   8
   3   0  12 16733.2 899.046   6
  -3   0 -12 16999.2 830.365   4
   3   0  12 15652.8 1009.50   8
   3   0  13-55.1675 304.997   8
   3   0  13 900.289 260.927   6
  -3   0 -13 397.188 293.302   3
   3   0  14 4172.32 615.691   8
   3   0  14 4872.36 511.384   6
  -3   0 -14 4472.75 669.062   3
   3   0  15 7554.21 811.118   8
  -3   0 -15 6731.52 843.844   3
   3   1 -14 8991.34 927.453   1
  -3  -1  13 10708.2 989.699   8
   3   1 -13 8117.68 932.473   1
   3   1 -13 8193.79 887.235   3
  -3  -1  12 6021.34 759.546   8
   3   1 -12 5242.76 695.898   3
   3   1 -12 5522.20 773.169   1
  -3  -1  11 219.067 219.115   6
   3   1 -11 628.622 304.896   3
  -3  -1  11 432.951 306.080   8
   3   1 -11 250.452 272.318   1
   3   1 -10 15226.5 1154.65   1
  -3  -1  10 16776.6 1186.50   8
  -3  -1  10 17523.1 1092.01   6
   3   1 -10 15889.5 1040.86   3
  -3  -1   9 59964.6 2083.77   6
   3   1  -9 58084.9 1987.14   3
  -3  -1   9 58966.5 2257.42   8
   3   1  -9 55220.9 2143.21   1
  -3  -1   8 61706.5 2320.89   8
  -3  -1   8 63864.5 2126.91   6
   3   1  -8 61089.9 1976.86   3
   3   1  -8 59737.7 2142.01   1
  -3  -1   7 89057.7 1776.21   7
   3   1  -7 93307.2 2619.66   1
   3   1  -7 90477.3 2406.03   3
  -3  -1   7 90626.9 2839.51   8
   3   1  -6 23073.3 1069.24   1
  -3  -1   6 23362.6 723.502   7
  -3  -1   6 21038.6 1215.26   8
   3   1  -6 23609.5 807.775   9
   3   1  -6 22091.4 931.361   3
   3   1  -5 10536.0 666.675   1
  -3  -1   5 11804.8 456.873   7
  -3  -1   5 11268.5 847.556   8
   3   1  -5 11250.4 594.328   3
   3   1  -5 10972.9 517.192   9
  -3  -1   5 11288.1 384.052   4
   3   1  -5 11771.3 384.984   4
  -3  -1   4 89528.2 2670.53   8
  -3  -1   4 94402.2 1895.09   7
   3   1  -4 91031.5 2074.61   3
   3   1  -4 93206.8 2152.51   5
   3   1  -4 93127.5 2305.10   1
  -3  -1   4 95057.5 1822.78   4
  -3  -1   4 96743.0 2028.56   2
   3   1  -4 93638.7 2025.02   9
   3   1  -4 95975.8 1833.00   4
  -3  -1   3 147120. 3727.02   8
  -3  -1   3 155958. 2897.25   7
   3   1  -3 155737. 2983.38   3
   3   1  -3 158771. 2865.03   4
   3   1  -3 158914. 3080.08   5
  -3  -1   3 155570. 2949.72   2
  -3  -1   3 151699. 2842.09   4
   3   1  -3 155519. 3254.38   1
   3   1  -3 154661. 3016.41   9
  -3  -1   2 251100. 4414.08   7
  -3  -1   2 245882. 4382.39   4
   3   1  -2 245917. 4689.07   1
   3   1  -2 248714. 4504.35   5
  -3  -1   2 246255. 4363.01   2
   3   1  -2 245615. 4533.30   9
   3   1  -2 259892. 4420.30   4
   3   1  -1 156551. 3127.15   1
  -3  -1   1 156128. 2935.31   4
  -3  -1   1 163078. 3166.98   1
   3   1  -1 157377. 2935.09   5
  -3  -1   1 154458. 2788.57   2
   3   1  -1 159411. 3043.70   9
   3   1  -1 159624. 2964.54   4
  -3  -1   0 114606. 2294.29   4
  -3  -1   0 117589. 2272.26   6
   3   1   0 111914. 2363.65   1
  -3  -1   0 115886. 2196.36   5
   3   1   0 118785. 2309.44   4
   3   1   0 116960. 2207.66   5
  -3  -1   0 118821. 2491.69   1
   3   1   1 4917.71 305.737   1
  -3  -1  -1 4916.40 224.204   2
  -3  -1  -1 4867.49 245.386   5
  -3  -1  -1 5050.15 368.202   1
  -3  -1  -1 4903.62 307.397   4
   3   1   1 5319.32 311.229   4
  -3  -1  -2 24246.9 859.525   1
   3   1   2 24202.4 592.857   2
   3   1   2 23779.5 722.474   6
  -3  -1  -2 23926.7 531.759   3
   3   1   2 23368.5 709.460   1
  -3  -1  -2 23541.7 770.076   4
  -3  -1  -2 23721.6 660.759   2
   3   1   3 126314. 2417.79   2
   3   1   3 121439. 2393.18   6
  -3  -1  -3 118417. 2203.23   3
  -3  -1  -3 116108. 2310.81   2
   3   1   3 119355. 2325.96   1
  -3  -1  -3 120332. 2354.38   8
  -3  -1  -3 122418. 2493.02   4
   3   1   4 231505. 4270.64   4
   3   1   4 225231. 4191.71   9
   3   1   4 232163. 4125.20   1
   3   1   4 229573. 4249.14   6
  -3  -1  -4 232855. 4134.46   3
  -3  -1  -4 233043. 4183.83   8
  -3  -1  -4 223159. 4206.32   2
  -3  -1  -4 232666. 4336.65   4
   3   1   5 185157. 3478.76   4
   3   1   5 175521. 3368.65   9
   3   1   5 178649. 3261.32   1
   3   1   5 180377. 3449.70   8
  -3  -1  -5 181405. 3440.97   3
   3   1   5 177408. 3456.48   6
  -3  -1  -5 176572. 3505.03   2
  -3  -1  -5 179895. 3545.31   4
  -3  -1  -5 186336. 3413.42   8
   3   1   5 187109. 3590.59   2
   3   1   6 30545.5 975.082   6
  -3  -1  -6 29537.1 980.568   3
  -3  -1  -6 29259.4 1014.02   2
   3   1   6 28585.4 830.689   9
   3   1   6 29437.1 951.905   8
  -3  -1  -6 30552.8 1005.57   4
  -3  -1  -7 177.611 129.944   4
   3   1   7 124.726 124.903   8
   3   1   7 266.224 95.5035   9
  -3  -1  -7 180.735 145.496   2
   3   1   7 47.6384 116.223   6
  -3  -1  -7 320.739 150.130   3
   3   1   7 116.644 53.6160   1
  -3  -1  -8 56713.7 1597.64   4
   3   1   8 59455.7 1657.81   8
  -3  -1  -8 57349.3 1714.38   3
   3   1   8 58197.6 1343.10   9
   3   1   8 58633.9 1621.13   6
  -3  -1  -8 58046.9 1775.45   2
   3   1   8 61263.3 1218.41   1
   3   1   9 42410.4 954.026   1
   3   1   9 41372.7 1047.21   9
   3   1   9 43395.5 1379.58   6
  -3  -1  -9 41399.5 1481.73   3
  -3  -1  -9 41814.2 1539.89   2
   3   1   9 41756.6 1402.92   8
  -3  -1  -9 41278.5 1315.83   4
   3   1  10 87253.9 1729.17   1
   3   1  10 86478.1 2282.84   6
  -3  -1 -10 86113.9 2470.02   3
  -3  -1 -10 86845.1 2546.43   2
   3   1  10 85372.3 2352.77   8
   3   1  10 89161.0 1786.61   9
  -3  -1 -10 86568.2 2199.85   4
   3   1  11 42458.1 1508.17   6
  -3  -1 -11 41899.7 1676.50   3
  -3  -1 -11 41099.9 1710.35   2
  -3  -1 -11 42578.5 1431.07   4
   3   1  11 43675.5 1603.15   8
   3   1  12 16520.2 1001.50   8
  -3  -1 -12 15702.5 812.776   4
   3   1  12 15976.4 931.011   6
  -3  -1 -12 14206.2 1007.45   3
  -3  -1 -12 15006.3 1051.14   2
   3   1  13 794.123 283.623   8
   3   1  13 543.155 229.921   6
  -3  -1 -13 1206.14 389.177   3
  -3  -1 -13 546.643 348.129   2
   3   1  14 647.789 282.829   8
   3   1  14 1487.06 360.701   6
  -3  -1 -14 646.717 368.194   3
  -3  -1 -14 1248.02 428.314   2
   3   1  15 9785.31 804.650   6
  -3  -1 -15 9717.71 1003.35   3
   3   1  15 9973.39 880.021   8
   3   1  16 8895.00 811.660   8
   3   2 -13 5534.63 825.834   1
   3   2 -13 6024.04 747.066   3
   3   2 -13 6788.18 793.353   5
  -3  -2  12 2765.58 569.179   8
   3   2 -12 2566.77 574.472   1
   3   2 -12 2720.83 500.887   3
   3   2 -12 2728.56 529.194   5
  -3  -2  11-41.4482 279.097   8
   3   2 -11-480.340 351.607   5
   3   2 -11-28.3481 265.078   3
   3   2 -11-253.585 290.220   1
  -3  -2  10 10458.1 990.167   8
  -3  -2  10 9991.45 789.507   6
   3   2 -10 9814.64 811.001   3
   3   2 -10 9503.75 893.165   1
  -3  -2   9 28974.2 1615.00   8
   3   2  -9 28059.4 1309.61   3
  -3  -2   9 28632.7 1340.13   6
   3   2  -9 29656.3 1479.97   1
   3   2  -8 42960.9 1550.45   3
  -3  -2   8 44395.3 1659.42   6
   3   2  -8 42122.0 1681.58   1
  -3  -2   8 42763.2 1967.13   8
  -3  -2   7 25152.6 650.796   7
   3   2  -7 25843.0 1077.64   3
  -3  -2   7 25755.2 1171.36   6
   3   2  -7 25876.6 1140.67   5
   3   2  -7 24068.2 1156.16   1
  -3  -2   7 24331.2 1403.60   8
  -3  -2   6 15504.2 1077.73   8
  -3  -2   6 17118.2 622.234   7
   3   2  -6 17814.2 819.826   3
   3   2  -6 16322.8 843.049   5
   3   2  -6 17835.6 916.088   1
  -3  -2   5 4508.10 583.211   8
  -3  -2   5 4743.68 342.959   7
   3   2  -5 4757.72 372.487   3
   3   2  -5 4518.51 404.060   5
  -3  -2   5 3827.95 155.465   4
   3   2  -5 4896.91 355.896   9
   3   2  -5 4244.88 410.222   1
  -3  -2   4 38804.1 1707.75   8
  -3  -2   4 41176.8 879.967   4
  -3  -2   4 43034.4 1098.50   7
   3   2  -4 40576.3 1147.14   3
   3   2  -4 39406.9 1251.59   5
   3   2  -4 41735.9 1149.41   9
   3   2  -4 40591.8 1307.44   1
   3   2  -3 81024.6 1961.56   1
  -3  -2   3 74029.7 2440.60   8
  -3  -2   3 82510.2 1735.78   7
   3   2  -3 80402.6 1728.01   3
  -3  -2   3 79415.5 1573.15   4
   3   2  -3 79595.7 1899.88   5
  -3  -2   3 83266.4 1790.75   2
   3   2  -3 81578.4 1819.31   9
  -3  -2   2 126270. 2393.59   7
   3   2  -2 120122. 2284.91   3
   3   2  -2 121769. 2476.61   9
   3   2  -2 125020. 2515.46   5
   3   2  -2 121020. 2574.24   1
  -3  -2   2 119946. 2280.63   4
   3   2  -1 113842. 2239.59   4
   3   2  -1 112110. 2347.42   1
   3   2  -1 111322. 2301.09   9
  -3  -2   1 113716. 2226.49   7
  -3  -2   1 116041. 2354.37   1
   3   2  -1 109905. 2015.33   3
  -3  -2   1 112820. 2260.83   5
   3   2  -1 112045. 2285.47   5
  -3  -2   1 114676. 2180.11   6
  -3  -2   1 113376. 2190.38   4
   3   2   0 50746.1 1193.30   4
  -3  -2   0 49911.1 1162.23   7
   3   2   0 46590.0 1170.32   1
  -3  -2   0 48979.6 1106.37   6
  -3  -2   0 49462.4 1222.24   1
  -3  -2   0 46826.4 1131.39   5
   3   2   0 47802.9 1152.99   5
   3   2   0 47118.5 1202.69   9
  -3  -2   0 46591.2 1145.41   4
   3   2   1 148.177 69.3223   4
   3   2   1 133.515 73.0376   1
  -3  -2  -1 229.353 87.0031   1
   3   2   1 202.310 75.0967   6
  -3  -2  -1 282.106 76.1010   6
  -3  -2  -1 222.616 73.1846   2
  -3  -2  -1 222.206 63.7057   5
  -3  -2  -1 260.199 100.847   4
  -3  -2  -2 50064.6 1241.38   4
  -3  -2  -2 48345.1 1186.88   2
   3   2   2 48883.7 1062.44   1
   3   2   2 49030.8 1095.42   2
   3   2   2 48325.7 1159.98   6
  -3  -2  -2 50443.2 1178.32   6
  -3  -2  -2 48604.2 915.476   3
  -3  -2  -2 52038.4 1231.01   1
  -3  -2  -2 49047.6 1155.20   5
  -3  -2  -3 131181. 2868.80   2
  -3  -2  -3 133620. 2722.16   4
  -3  -2  -3 140276. 2630.54   7
   3   2   3 139701. 2648.55   2
   3   2   3 136565. 2403.68   1
   3   2   3 132969. 2646.79   9
   3   2   3 135824. 2658.03   6
  -3  -2  -3 131574. 2441.48   3
  -3  -2  -3 136056. 2522.49   8
  -3  -2  -3 137170. 2637.53   1
   3   2   4 151101. 2948.39   2
   3   2   4 138109. 2393.36   1
   3   2   4 137739. 2761.26   6
  -3  -2  -4 133551. 2631.90   3
   3   2   4 139182. 2715.27   9
  -3  -2  -4 146923. 2698.43   7
  -3  -2  -4 140387. 2609.56   8
  -3  -2  -4 138760. 3007.52   2
  -3  -2  -4 134437. 2827.98   4
   3   2   5 103350. 2312.60   2
  -3  -2  -5 104103. 2003.72   7
   3   2   5 89304.7 1619.04   1
  -3  -2  -5 97399.1 2152.03   4
  -3  -2  -5 99157.0 2062.37   3
   3   2   5 99477.4 1999.72   9
   3   2   5 97712.3 1991.38   8
   3   2   5 98063.0 2106.68   6
  -3  -2  -5 94240.8 2282.34   2
  -3  -2  -5 99802.5 1948.50   8
   3   2   6 92405.9 2122.28   6
  -3  -2  -6 89959.6 2092.81   3
   3   2   6 94492.7 2015.59   8
  -3  -2  -6 91048.2 2298.44   2
   3   2   6 90753.0 1934.15   9
  -3  -2  -6 90634.5 2139.43   4
  -3  -2  -6 97450.1 1947.15   8
   3   2   7 1708.33 220.715   8
   3   2   7 2093.83 198.255   9
  -3  -2  -7 1576.77 268.148   2
   3   2   7 1615.07 240.527   6
  -3  -2  -7 1831.38 257.838   3
  -3  -2  -7 1833.19 245.271   4
   3   2   8 1313.54 221.437   8
  -3  -2  -8 1307.78 229.869   4
  -3  -2  -8 1515.34 288.519   2
   3   2   8 1546.31 243.838   6
  -3  -2  -8 1319.31 251.620   3
   3   2   8 1358.95 170.179   9
   3   2   8 1278.96 84.1454   1
   3   2   9 33120.9 1215.43   6
   3   2   9 31926.8 689.537   1
  -3  -2  -9 30926.9 1259.35   3
  -3  -2  -9 32724.1 1382.39   2
   3   2   9 32316.7 889.214   9
   3   2   9 32941.8 1164.83   8
  -3  -2  -9 32940.1 1162.55   4
   3   2  10 20175.2 640.611   9
   3   2  10 19935.6 965.201   6
  -3  -2 -10 19695.8 1045.68   3
   3   2  10 20095.6 519.666   1
  -3  -2 -10 19071.8 1104.90   2
  -3  -2 -10 20448.8 922.745   4
   3   2  10 20713.8 945.497   8
  -3  -2 -11 26968.6 1115.54   4
   3   2  11 26040.0 1191.70   6
  -3  -2 -11 24290.9 1271.98   3
  -3  -2 -11 27345.0 1415.07   2
   3   2  11 27821.4 1190.63   8
   3   2  12 17036.7 996.389   8
   3   2  12 17000.7 1006.68   6
  -3  -2 -12 18082.9 1158.08   3
  -3  -2 -12 16956.3 1164.35   2
  -3  -2 -12 17117.9 891.046   4
  -3  -2 -13 921.237 217.002   4
   3   2  13 1381.13 325.378   8
  -3  -2 -13 1851.87 460.696   2
   3   2  13 1677.37 384.316   6
  -3  -2 -13 2186.34 509.414   3
   3   2  14 132.710 229.959   8
  -3  -2 -14 1310.11 410.003   2
   3   2  14 634.770 300.059   6
  -3  -2 -14 779.410 413.318   3
   3   2  15 4051.06 560.665   8
  -3  -2 -15 3006.23 623.924   2
   3   2  15 4032.57 592.597   6
  -3  -2 -15 4351.73 731.862   3
   3   2  16 12382.3 919.317   8
   3   2  16 12767.1 1017.92   6
   3   3 -13 12064.6 1019.54   3
  -3  -3  12 5782.78 853.539   8
   3   3 -12 4343.17 624.580   3
   3   3 -12 5071.83 693.493   5
   3   3 -12 3749.43 679.227   1
  -3  -3  11-268.160 406.035   8
   3   3 -11-17.1803 255.921   3
   3   3 -11-141.318 346.724   5
  -3  -3  10 2304.98 530.874   8
   3   3 -10 1960.65 448.353   1
   3   3 -10 2503.97 435.449   3
   3   3 -10 2317.60 435.715   5
   3   3  -9 26062.7 1251.90   3
  -3  -3   9 22600.2 1174.95   6
   3   3  -9 24891.6 1282.49   5
   3   3  -9 24441.8 1337.43   1
  -3  -3   9 23743.5 1551.15   8
   3   3  -8 51549.0 1715.17   3
   3   3  -8 49946.6 1793.61   5
   3   3  -8 48881.8 1839.33   1
  -3  -3   8 47819.3 2232.03   8
  -3  -3   7 31353.5 1686.83   8
   3   3  -7 32035.4 1348.41   1
   3   3  -7 31040.7 1219.99   3
  -3  -3   7 30276.2 1264.76   6
   3   3  -7 34537.5 1355.74   5
  -3  -3   6 27101.8 854.534   7
   3   3  -6 26331.4 1028.26   3
  -3  -3   6 26649.7 1093.84   6
   3   3  -6 28037.2 1148.81   5
  -3  -3   6 25710.1 1437.26   8
   3   3  -6 26531.4 1149.42   1
  -3  -3   5 225.003 217.981   8
  -3  -3   5 1059.98 169.864   7
   3   3  -5 823.689 180.629   3
   3   3  -5 1299.24 245.489   5
   3   3  -5 526.245 190.390   1
  -3  -3   4 784.506 87.4197   4
  -3  -3   4 972.461 303.745   8
  -3  -3   4 696.600 154.552   7
   3   3  -4 802.945 160.400   3
   3   3  -4 665.177 195.025   5
   3   3  -4 1038.41 210.515   1
  -3  -3   3 65402.1 2129.90   8
  -3  -3   3 66140.1 1625.80   7
  -3  -3   3 63566.9 1349.19   6
   3   3  -3 64802.3 1496.11   3
   3   3  -3 64063.3 1678.61   5
  -3  -3   3 66560.0 1479.06   9
   3   3  -3 62057.6 1681.13   1
  -3  -3   3 62967.8 1313.84   4
  -3  -3   2 139585. 2645.27   9
  -3  -3   2 134300. 2704.78   7
  -3  -3   2 135268. 2473.05   6
   3   3  -2 130108. 2530.64   3
   3   3  -2 133485. 2555.33   7
  -3  -3   2 132501. 3333.30   8
  -3  -3   2 133268. 2542.82   3
   3   3  -2 133249. 2766.00   5
   3   3  -2 131363. 2790.15   1
  -3  -3   2 129056. 2479.60   4
  -3  -3   1 139569. 2706.04   7
  -3  -3   1 139235. 2715.25   1
   3   3  -1 133747. 2465.11   3
  -3  -3   1 136985. 2501.81   6
   3   3  -1 133478. 2603.90   7
  -3  -3   1 135484. 2670.18   9
  -3  -3   1 133677. 2464.15   3
  -3  -3   1 135218. 2684.98   5
   3   3  -1 136993. 2744.65   5
  -3  -3   1 129877. 3260.64   8
   3   3  -1 132429. 2718.12   1
  -3  -3   1 132113. 2566.69   4
  -3  -3   0 123649. 2467.88   4
  -3  -3   0 129100. 2524.13   9
   3   3   0 125211. 2459.89   7
  -3  -3   0 129620. 2513.43   7
  -3  -3   0 124846. 2479.81   1
   3   3   0 123044. 2220.27   3
   3   3   0 125141. 2354.61   6
  -3  -3   0 125157. 2364.05   6
  -3  -3   0 124649. 2214.21   3
  -3  -3   0 128405. 2485.74   5
   3   3   0 121953. 2509.04   5
   3   3   0 123762. 2482.05   1
  -3  -3  -1 25114.6 797.735   4
  -3  -3  -1 26508.9 810.027   9
   3   3   1 26574.5 792.872   7
  -3  -3  -1 26311.6 749.816   1
  -3  -3  -1 24239.2 736.301   2
  -3  -3  -1 25399.4 564.367   3
   3   3   1 25294.3 710.980   6
  -3  -3  -1 26008.4 726.883   6
  -3  -3  -1 26642.5 792.311   7
  -3  -3  -1 25274.9 769.591   5
   3   3   1 24570.6 775.862   5
   3   3   1 25211.6 720.972   1
   3   3   2 7327.54 385.973   7
  -3  -3  -2 7131.98 265.011   3
  -3  -3  -2 7529.96 382.650   2
  -3  -3  -2 7386.20 334.822   1
   3   3   2 7516.26 364.144   6
  -3  -3  -2 7293.26 361.256   6
  -3  -3  -2 7426.98 394.345   9
  -3  -3  -2 7782.94 384.846   5
   3   3   2 7030.03 307.978   1
  -3  -3  -2 7588.28 417.032   4
  -3  -3  -3 85458.8 1864.83   9
  -3  -3  -3 81888.2 1918.52   4
   3   3   3 80824.5 1831.41   7
   3   3   3 85643.8 1840.58   2
  -3  -3  -3 83413.0 1660.11   1
   3   3   3 84834.1 1861.06   9
   3   3   3 85661.8 1824.85   6
   3   3   3 82810.8 1569.15   1
  -3  -3  -3 82216.2 1943.40   2
  -3  -3  -3 88940.3 1831.83   6
  -3  -3  -4 157775. 3165.22   4
   3   3   4 155522. 3027.54   7
   3   3   4 159486. 3149.25   2
   3   3   4 157953. 3045.65   6
   3   3   4 150471. 2604.84   1
  -3  -3  -4 153733. 3344.72   2
  -3  -3  -4 152164. 2731.34   1
   3   3   4 155867. 3026.11   9
  -3  -3  -4 156715. 3031.15   9
  -3  -3  -4 156317. 2771.31   8
  -3  -3  -5 141829. 3073.28   4
   3   3   5 144893. 2983.08   6
   3   3   5 148866. 2894.30   9
  -3  -3  -5 148012. 2690.99   8
  -3  -3  -5 140434. 3297.69   2
  -3  -3  -5 150042. 2923.65   9
  -3  -3  -6 48052.8 1414.66   4
   3   3   6 47728.9 1362.72   6
  -3  -3  -6 47284.0 1245.17   9
   3   3   6 45968.0 1198.28   9
  -3  -3  -6 46528.5 1609.68   2
   3   3   6 45638.8 1143.28   8
  -3  -3  -6 48698.7 1112.05   8
  -3  -3  -7 38007.3 1260.27   4
  -3  -3  -7 37478.5 971.986   8
   3   3   7 37536.1 1038.16   9
   3   3   7 37690.3 1240.81   6
  -3  -3  -7 38221.3 1509.92   2
   3   3   7 37018.5 1046.33   8
   3   3   8 955.790 171.807   8
   3   3   8 790.408 138.157   9
  -3  -3  -8 915.367 206.727   4
  -3  -3  -8 1315.34 307.656   2
   3   3   8 786.344 189.332   6
   3   3   9 35339.9 985.864   9
  -3  -3  -9 34698.6 1264.05   4
   3   3   9 33454.2 1304.15   6
  -3  -3  -9 35131.5 1398.85   3
  -3  -3  -9 35131.7 1544.52   2
   3   3   9 35373.7 1159.33   8
   3   3  10 54466.4 1789.45   6
  -3  -3 -10 48004.6 1817.69   3
  -3  -3 -10 50668.7 1998.04   2
   3   3  10 51427.2 1565.00   8
  -3  -3 -10 52942.6 1677.93   4
   3   3  11 49488.7 1803.45   6
  -3  -3 -11 46857.8 1900.25   3
  -3  -3 -11 49025.5 2068.98   2
   3   3  11 49923.6 1630.78   8
  -3  -3 -11 50090.4 1687.78   4
   3   3  12 24071.1 1268.84   6
  -3  -3 -12 23583.2 1380.38   3
  -3  -3 -12 25234.8 1502.81   2
   3   3  12 25941.3 1192.54   8
  -3  -3 -12 25368.8 1183.62   4
   3   3  13 7494.39 747.763   6
  -3  -3 -13 8792.05 898.825   3
  -3  -3 -13 8030.69 902.629   2
  -3  -3 -13 7906.33 653.059   4
   3   3  13 7450.36 648.468   8
   3   3  14 357.276 217.762   8
   3   3  14 134.089 257.440   6
  -3  -3 -14-177.311 345.529   3
  -3  -3 -14-199.378 308.669   2
   3   3  15 5451.55 586.137   8
  -3  -3 -15 4825.88 815.724   2
   3   3  15 6350.99 779.073   6
  -3  -3 -15 5576.59 863.820   3
   3   3  16 5127.08 576.721   8
   3   3  16 6053.31 773.759   6
  -3  -3 -16 4509.46 822.172   3
  -3  -4  12 5617.90 866.778   8
   3   4 -12 5718.17 695.917   3
   3   4 -12 5468.57 722.999   5
  -3  -4  11-302.554 485.234   8
   3   4 -11 87.3278 265.852   3
   3   4 -11 170.798 302.165   5
  -3  -4  10 3763.66 705.539   8
   3   4 -10 3593.77 540.044   3
   3   4 -10 3862.44 568.320   5
   3   4 -10 3759.05 597.437   1
  -3  -4   9 25593.9 1642.46   8
   3   4  -9 24779.9 1247.24   3
   3   4  -9 24992.1 1311.63   5
   3   4  -9 22904.0 1317.66   1
   3   4  -8 51528.3 1793.31   3
   3   4  -8 51938.4 1882.64   5
  -3  -4   8 52833.1 2271.47   8
   3   4  -8 52719.4 1960.04   1
  -3  -4   7 119153. 3508.47   8
  -3  -4   7 115547. 2645.26   6
   3   4  -7 122355. 2953.97   3
   3   4  -7 122088. 3080.35   5
   3   4  -7 116928. 3106.47   1
   3   4  -6 47116.2 1510.31   3
  -3  -4   6 45437.3 1276.45   7
  -3  -4   6 46466.7 1873.46   8
  -3  -4   6 47082.1 1454.00   6
   3   4  -6 46216.0 1609.45   5
   3   4  -6 46927.9 1638.28   1
  -3  -4   5 17876.3 1038.21   8
  -3  -4   5 16116.6 761.070   7
  -3  -4   5 18024.9 496.734   6
   3   4  -5 17600.9 789.219   3
  -3  -4   5 16262.8 725.345   6
   3   4  -5 17461.9 584.516   7
   3   4  -5 19039.8 903.351   5
  -3  -4   5 15623.3 405.516   4
   3   4  -5 17185.0 876.512   1
  -3  -4   5 18079.8 620.192   9
  -3  -4   5 16162.2 396.877   4
   3   4  -4 16378.7 573.990   7
  -3  -4   4 17743.2 877.318   7
  -3  -4   4 16313.8 468.947   6
   3   4  -4 15867.2 780.501   5
   3   4  -4 14940.9 779.556   1
  -3  -4   4 14473.0 869.271   8
  -3  -4   4 15573.2 590.989   9
   3   4  -4 15567.4 689.658   3
  -3  -4   4 15970.6 473.243   4
  -3  -4   3 70041.3 1496.50   4
   3   4  -3 70179.3 1595.96   7
  -3  -4   3 75365.8 1973.23   7
   3   4  -3 72300.5 1696.77   3
  -3  -4   3 73516.6 2072.21   8
  -3  -4   3 71479.0 1640.24   3
   3   4  -3 74059.6 1891.27   5
  -3  -4   3 72505.8 1410.21   6
   3   4  -3 70759.3 1873.45   1
  -3  -4   3 71232.7 1628.03   9
   3   4  -2 205403. 3799.10   7
  -3  -4   2 197872. 3713.88   4
  -3  -4   2 198538. 3809.74   9
   3   4  -2 198237. 4009.77   1
  -3  -4   2 206060. 4238.50   8
  -3  -4   2 216697. 4129.20   7
   3   4  -2 200146. 3784.69   3
  -3  -4   2 206540. 3560.75   6
  -3  -4   2 210438. 3770.32   3
   3   4  -2 204302. 4032.02   5
  -3  -4   1 237352. 4570.77   8
   3   4  -1 224021. 4235.91   7
   3   4  -1 235025. 4132.07   3
  -3  -4   1 232190. 4014.52   6
   3   4  -1 231471. 4354.89   1
  -3  -4   1 229373. 4103.68   3
  -3  -4   1 233924. 4278.53   9
  -3  -4   0 97642.5 2227.96   8
  -3  -4   0 101584. 2066.11   1
  -3  -4   0 93917.4 1876.41   3
  -3  -4   0 104089. 2201.41   7
   3   4   0 93638.3 1876.26   3
   3   4   0 95993.9 1858.63   6
  -3  -4   0 95867.3 1880.87   6
  -3  -4   0 96906.1 2090.93   9
  -3  -4   0 95605.5 2073.00   5
   3   4   0 94817.4 2068.35   1
   3   4   0 92083.6 2061.82   7
  -3  -4  -1 23082.8 835.411   8
  -3  -4  -1 23704.9 731.748   1
  -3  -4  -1 24475.8 701.386   6
  -3  -4  -1 24487.0 828.558   7
  -3  -4  -1 23101.7 635.726   3
  -3  -4  -1 23142.0 778.371   2
   3   4   1 22722.6 668.337   6
   3   4   1 23277.6 798.369   7
  -3  -4  -1 24003.3 780.645   5
   3   4   1 22912.8 731.860   1
   3   4   1 23249.5 660.536   3
  -3  -4  -1 22980.0 789.127   9
  -3  -4  -2 12073.9 459.960   1
  -3  -4  -2 11833.7 427.611   3
  -3  -4  -2 11653.6 536.023   2
   3   4   2 12342.4 486.102   6
  -3  -4  -2 12634.9 495.548   6
  -3  -4  -2 12704.3 562.083   9
   3   4   2 12059.1 553.132   7
  -3  -4  -2 11959.5 521.049   5
   3   4   2 12070.7 453.629   1
  -3  -4  -3 135796. 2503.99   1
   3   4   3 135840. 2793.29   7
  -3  -4  -3 133041. 2824.77   2
   3   4   3 135755. 2690.37   6
  -3  -4  -3 138822. 2702.81   6
  -3  -4  -3 140536. 2772.03   5
   3   4   3 132412. 2780.50   9
  -3  -4  -3 132290. 2645.00   3
  -3  -4  -3 135801. 2772.86   9
  -3  -4  -4 186438. 3825.81   2
  -3  -4  -4 180884. 3223.29   1
   3   4   4 185346. 3651.94   7
   3   4   4 183400. 3606.56   9
  -3  -4  -4 192057. 3593.78   6
   3   4   4 181427. 3587.90   6
  -3  -4  -4 188123. 3184.24   8
  -3  -4  -4 187343. 3608.65   9
  -3  -4  -5 226397. 4661.35   2
   3   4   5 216918. 4278.25   7
   3   4   5 216808. 4291.10   6
  -3  -4  -5 229770. 3832.86   8
  -3  -4  -5 221541. 4236.00   9
   3   4   5 217282. 4214.33   9
   3   4   6 92968.1 2142.69   7
  -3  -4  -6 89159.7 2049.89   9
  -3  -4  -6 90928.8 1749.23   8
   3   4   6 86698.1 2180.41   6
   3   4   6 92109.1 2040.18   9
  -3  -4  -6 88171.6 2412.07   2
  -3  -4  -7 7333.99 546.105   4
  -3  -4  -7 6724.21 321.995   8
   3   4   7 7185.84 474.702   7
   3   4   7 7389.92 431.100   9
   3   4   7 7116.65 525.430   6
  -3  -4  -7 7477.46 441.897   9
   3   4   7 7297.84 361.228   8
  -3  -4  -7 7506.38 620.010   2
   3   4   8 1275.86 174.404   8
  -3  -4  -8 1485.54 161.443   8
  -3  -4  -8 1192.35 255.018   4
  -3  -4  -8 1346.93 199.941   9
  -3  -4  -8 703.895 253.775   2
   3   4   8 1098.55 252.543   6
  -3  -4  -9 29909.2 1278.16   4
   3   4   9 31464.0 1295.61   6
  -3  -4  -9 30963.5 1468.19   2
   3   4   9 30904.7 1010.26   8
  -3  -4 -10 108060. 2873.82   4
  -3  -4 -10 102253. 3140.71   2
   3   4  10 108064. 2921.70   6
   3   4  10 108768. 2499.57   8
  -3  -4 -11 70786.3 2585.09   2
   3   4  11 68993.2 2310.43   6
  -3  -4 -11 66626.3 2522.86   3
  -3  -4 -11 73296.3 2274.32   4
   3   4  11 72835.5 1978.91   8
   3   4  12 38370.2 1698.42   6
  -3  -4 -12 34748.7 1811.55   2
   3   4  12 37579.7 1372.31   8
  -3  -4 -12 38620.1 1606.98   4
  -3  -4 -13 6271.15 796.236   2
   3   4  13 6113.80 713.003   6
  -3  -4 -13 6123.62 813.745   3
   3   4  13 6691.77 576.393   8
  -3  -4 -13 8226.22 732.559   4
   3   4  14-20.5386 220.202   8
   3   4  14 202.672 286.979   6
  -3  -4 -14 224.065 314.612   2
  -3  -4 -14-219.189 300.904   3
  -3  -4 -15 9037.41 1051.61   2
   3   4  15 7746.20 883.138   6
  -3  -4 -15 8834.98 1133.22   3
   3   4  15 8083.85 654.584   8
   3   4  16 12743.6 1152.43   6
  -3  -4 -16 10797.2 1276.67   3
   3   5 -12 7720.12 793.289   3
  -3  -5  11 160.227 392.729   8
   3   5 -11 655.827 337.618   3
   3   5 -11 824.785 389.885   5
  -3  -5  10 3807.80 674.203   8
   3   5 -10 5431.76 634.524   3
   3   5 -10 5524.05 676.673   5
  -3  -5   9 24412.5 1574.60   8
   3   5  -9 24027.5 1268.61   3
   3   5  -9 24622.0 1344.65   5
  -3  -5   8 59547.7 2380.20   8
   3   5  -8 61367.8 2029.36   3
   3   5  -8 60383.5 2133.99   5
  -3  -5   7 49914.0 1989.73   8
   3   5  -7 48496.6 1653.34   3
   3   5  -7 47094.7 1760.80   5
   3   5  -6 48585.9 1190.18   7
   3   5  -6 48158.3 1566.31   3
  -3  -5   6 49191.6 1835.14   8
  -3  -5   6 44541.1 864.747   6
   3   5  -6 48964.1 1685.49   5
   3   5  -6 47775.4 1698.59   1
  -3  -5   5 992.615 107.072   4
  -3  -5   5 1474.55 320.505   8
  -3  -5   5 947.306 102.663   4
   3   5  -5 1014.72 162.227   7
  -3  -5   5 825.188 78.1632   6
   3   5  -5 1474.46 306.062   1
   3   5  -5 938.771 217.077   3
   3   5  -5 1535.97 290.067   5
  -3  -5   4 33199.1 1279.86   8
   3   5  -4 30809.3 1082.93   3
   3   5  -4 33093.7 961.060   7
  -3  -5   4 29935.7 815.115   6
   3   5  -4 31895.8 1220.30   5
   3   5  -4 31716.6 1226.43   1
  -3  -5   4 32131.1 901.496   4
  -3  -5   4 31797.4 843.410   4
  -3  -5   3 97037.7 2395.79   8
   3   5  -3 96216.5 2198.93   3
  -3  -5   3 95765.6 1723.77   6
   3   5  -3 96150.6 2370.43   5
   3   5  -3 96019.9 2387.66   1
   3   5  -3 97007.0 2114.08   7
  -3  -5   2 250370. 4821.60   8
  -3  -5   2 250990. 4227.67   6
   3   5  -2 245845. 4634.54   7
  -3  -5   2 251810. 4564.63   3
   3   5  -2 243259. 4609.35   3
   3   5  -2 250637. 4855.02   5
   3   5  -2 243249. 4850.74   1
   3   5  -1 194814. 3756.84   3
  -3  -5   1 199712. 3886.17   8
  -3  -5   1 204164. 3512.78   6
  -3  -5   1 200605. 3717.73   3
   3   5  -1 201107. 3984.02   5
   3   5  -1 194517. 3945.07   1
   3   5  -1 199375. 3871.84   7
  -3  -5   0 96834.1 2091.60   8
   3   5   0 99979.5 2218.73   7
   3   5   0 95001.9 2046.85   3
   3   5   0 97423.2 1889.74   6
  -3  -5   0 99341.3 2035.54   3
  -3  -5   0 102230. 1941.04   6
   3   5   0 96225.7 2215.29   5
   3   5   1 22372.3 847.920   7
  -3  -5  -1 22853.9 705.949   3
  -3  -5  -1 21719.3 819.877   2
   3   5   1 23127.9 674.887   6
   3   5   1 21492.9 718.565   3
  -3  -5  -1 22892.1 701.237   6
  -3  -5  -1 22970.5 692.917   8
  -3  -5  -1 24382.6 782.656   1
  -3  -5  -2 14517.9 468.051   8
   3   5   2 14279.2 677.237   7
  -3  -5  -2 14937.0 553.732   3
  -3  -5  -2 13571.8 633.158   2
   3   5   2 13958.6 543.620   6
  -3  -5  -2 15469.9 581.935   6
  -3  -5  -2 14419.5 554.333   1
   3   5   3 81579.6 2036.15   7
  -3  -5  -3 84988.9 2036.08   2
  -3  -5  -3 81649.6 1840.47   3
   3   5   3 83711.8 2027.89   9
  -3  -5  -3 84038.3 1560.40   8
   3   5   3 82553.2 1869.89   6
  -3  -5  -3 87431.6 1910.54   6
  -3  -5  -3 85841.4 1765.93   1
  -3  -5  -4 182164. 3090.24   8
  -3  -5  -4 190231. 3835.42   2
   3   5   4 190281. 3778.99   7
  -3  -5  -4 195173. 3703.02   3
   3   5   4 191024. 3645.64   6
   3   5   4 191352. 3714.52   9
  -3  -5  -4 193017. 3309.09   1
  -3  -5  -5 187536. 4058.29   2
   3   5   5 196484. 3836.17   6
   3   5   5 193034. 3895.30   7
  -3  -5  -5 184974. 3128.36   8
  -3  -5  -5 191350. 3292.72   1
  -3  -5  -6 109848. 2794.64   2
  -3  -5  -6 108007. 1866.46   8
   3   5   6 104672. 2489.78   7
   3   5   6 107817. 2521.57   6
  -3  -5  -6 101216. 1859.97   1
  -3  -5  -6 99727.2 1826.67   1
  -3  -5  -7 6336.52 281.543   8
   3   5   7 6767.57 506.604   7
   3   5   7 6672.42 294.040   8
   3   5   7 6641.50 528.817   6
  -3  -5  -7 6690.19 600.514   2
  -3  -5  -8 13576.6 486.827   8
   3   5   8 13174.4 751.875   7
   3   5   8 13768.8 816.621   6
   3   5   8 13179.0 506.424   8
  -3  -5  -8 12444.7 852.791   2
  -3  -5  -9 47507.6 1201.35   8
   3   5   9 49502.4 1633.37   7
   3   5   9 47758.9 1734.41   6
  -3  -5  -9 47851.9 1831.15   2
   3   5   9 50284.0 1282.11   8
  -3  -5 -10 46782.1 1853.68   4
  -3  -5 -10 46635.1 1888.25   2
   3   5  10 48542.9 1828.05   6
   3   5  10 49104.8 1369.61   8
  -3  -5 -11 55879.1 2148.98   4
   3   5  11 51921.6 2031.14   6
  -3  -5 -11 51512.4 2093.80   2
   3   5  11 54991.3 1559.93   8
   3   5  12 15140.0 1108.40   6
  -3  -5 -12 16105.4 1147.61   2
   3   5  12 15386.0 775.980   8
  -3  -5 -12 16845.2 1162.37   4
   3   5  13 1386.01 255.851   8
  -3  -5 -13 1795.77 412.358   4
  -3  -5 -13 796.143 342.029   2
   3   5  13 1078.59 335.909   6
  -3  -5 -13 705.518 366.031   3
   3   5  14 922.672 231.996   8
  -3  -5 -14 953.885 397.881   2
   3   5  14 303.698 293.788   6
  -3  -5 -14 678.236 379.927   3
  -3  -5 -14 651.221 294.985   4
  -3  -5 -15 3168.17 592.653   2
   3   5  15 2932.05 585.127   6
  -3  -5 -15 3992.00 795.972   3
   3   5  16 14098.4 1206.74   6
  -3  -5 -16 10369.6 1243.75   3
  -3  -6  11 55.3948 418.801   8
   3   6 -11-394.184 344.029   3
   3   6 -11 415.591 306.586   5
   3   6 -10 1459.55 356.359   3
   3   6 -10 2382.35 503.617   5
   3   6  -9 19989.4 1172.36   3
   3   6  -9 19418.6 1218.08   5
  -3  -6   9 18801.3 1361.80   8
   3   6  -8 43804.4 1707.08   3
   3   6  -8 43567.7 1787.08   5
  -3  -6   8 41659.3 1912.66   8
   3   6  -7 42755.2 1139.04   7
   3   6  -7 41673.5 1595.56   3
   3   6  -7 42831.7 1694.28   5
  -3  -6   7 45222.5 1824.35   8
  -3  -6   6 25894.3 1261.79   8
   3   6  -6 25937.1 862.515   7
   3   6  -6 22639.9 1071.35   3
   3   6  -6 25228.3 1207.68   5
  -3  -6   5 2602.53 208.746   4
  -3  -6   5 2820.65 398.412   8
   3   6  -5 2464.77 267.121   7
   3   6  -5 2516.26 337.903   3
   3   6  -5 2927.35 407.695   5
  -3  -6   4 4590.94 453.990   8
   3   6  -4 5612.07 456.849   3
   3   6  -4 5253.89 488.466   5
  -3  -6   4 4981.94 337.602   4
   3   6  -4 5359.07 391.204   7
   3   6  -3 58688.4 1619.99   3
   3   6  -3 60091.4 1768.05   5
  -3  -6   3 55602.5 1561.97   4
   3   6  -3 57806.3 1554.62   7
  -3  -6   3 57349.9 1661.72   8
  -3  -6   2 58126.7 1549.48   8
   3   6  -2 56243.0 1538.40   3
   3   6  -2 55854.9 1543.84   7
  -3  -6   2 54686.6 1125.63   6
   3   6  -1 125029. 2674.76   3
  -3  -6   1 126217. 2349.38   6
   3   6  -1 127411. 2823.20   5
   3   6  -1 121665. 2748.81   7
  -3  -6   1 120830. 2594.65   8
   3   6   0 58901.7 1487.72   3
   3   6   0 56329.2 1218.28   6
  -3  -6   0 56813.0 1421.28   3
  -3  -6   0 59807.0 1331.54   6
   3   6   0 58054.1 1626.76   7
   3   6   0 58033.5 1587.64   5
  -3  -6   0 55617.4 1357.04   8
  -3  -6  -1 1722.26 164.856   8
   3   6   1 1328.24 154.473   6
   3   6   1 1392.83 197.513   3
  -3  -6  -1 1247.23 165.955   6
  -3  -6  -1 1311.70 182.470   3
   3   6   1 1311.79 225.206   7
  -3  -6  -1 1609.57 249.988   2
   3   6   1 1135.29 203.127   5
  -3  -6  -2 6711.91 263.854   8
  -3  -6  -2 6964.89 475.482   2
   3   6   2 5795.51 464.924   7
  -3  -6  -2 6632.08 400.246   6
  -3  -6  -2 6092.18 375.350   3
   3   6   2 6758.24 375.547   6
  -3  -6  -2 6308.42 376.542   1
   3   6   3 48595.5 1529.92   7
  -3  -6  -3 50388.4 1490.46   2
  -3  -6  -3 50782.2 1328.46   3
  -3  -6  -3 51060.2 1250.62   1
   3   6   3 51530.3 1344.97   6
  -3  -6  -3 54075.0 1403.21   6
  -3  -6  -3 48479.2 903.853   8
  -3  -6  -4 109717. 2646.14   2
   3   6   4 105149. 2633.32   7
   3   6   4 110567. 2456.38   6
  -3  -6  -4 111158. 2205.23   1
  -3  -6  -5 65471.4 1908.95   2
   3   6   5 60142.6 1709.78   6
  -3  -6  -5 62776.9 1373.09   1
   3   6   5 60591.5 1820.20   7
   3   6   6 76991.8 2165.75   7
  -3  -6  -6 77069.3 1608.12   1
  -3  -6  -6 79935.1 1589.38   1
   3   6   6 79265.9 2121.59   6
  -3  -6  -6 81976.2 2335.55   2
  -3  -6  -7 12698.5 843.851   2
   3   6   7 12449.9 767.632   6
  -3  -6  -7 12396.1 386.721   1
  -3  -6  -7 12366.4 416.932   1
   3   6   7 12317.1 765.982   7
   3   6   8 146.061 177.656   7
  -3  -6  -8 63.1037 35.6581   1
  -3  -6  -8 34.3977 192.915   2
   3   6   8 28.0621 179.833   6
  -3  -6  -8 86.0838 31.9861   1
   3   6   9 16557.1 945.784   7
   3   6   9 17221.1 1019.19   6
   3   6   9 18060.6 583.279   8
  -3  -6  -9 17532.5 1045.61   2
   3   6  10 39282.0 1542.98   7
   3   6  10 39039.2 1683.49   6
  -3  -6 -10 41639.3 1740.56   2
   3   6  10 40486.4 1095.82   8
  -3  -6 -11 29735.6 1602.06   4
   3   6  11 29300.4 1503.72   6
  -3  -6 -11 27842.4 1463.27   2
   3   6  11 28812.5 945.662   8
  -3  -6 -12 19805.8 1333.03   4
  -3  -6 -12 18678.1 1227.59   2
   3   6  12 19607.6 786.146   8
  -3  -6 -13 7682.90 825.100   4
  -3  -6 -13 5732.15 724.176   2
   3   6  13 6072.03 750.055   6
  -3  -6 -14 300.284 276.552   4
  -3  -6 -14 83.6153 312.054   2
   3   6  14 627.336 326.843   6
  -3  -6 -14-38.2536 367.045   3
  -3  -6 -15 3234.84 631.476   2
   3   6  15 3765.98 633.733   6
  -3  -6 -15 2050.74 569.907   3
   3   6  16 1937.06 485.399   6
   3   7 -11 1015.94 379.380   3
  -3  -7  10 365.001 347.301   8
   3   7 -10 307.884 270.557   3
   3   7 -10 1217.90 378.594   5
  -3  -7   9 10041.9 962.548   8
   3   7  -9 7732.58 741.981   3
   3   7  -9 8783.75 842.568   5
   3   7  -8 20221.2 1175.20   3
  -3  -7   8 23254.4 1373.95   8
   3   7  -8 24623.4 1348.55   5
   3   7  -7 33452.4 1045.80   7
   3   7  -7 32716.1 1442.79   3
   3   7  -7 35413.8 1563.70   5
  -3  -7   7 32489.2 1541.53   8
   3   7  -6 19724.2 810.709   7
   3   7  -6 20599.2 1050.12   3
   3   7  -6 20457.5 1117.28   5
  -3  -7   6 19904.4 1094.72   8
   3   7  -5 15277.8 730.352   7
   3   7  -5 13796.2 806.217   3
   3   7  -5 15472.8 927.002   5
  -3  -7   5 15067.0 881.644   8
  -3  -7   4 198.435 163.777   8
   3   7  -4 73.6422 122.101   7
   3   7  -4 122.268 162.440   3
   3   7  -4 209.921 204.597   5
   3   7  -3 12542.2 700.258   3
  -3  -7   3 12029.7 673.308   8
   3   7  -3 11693.3 735.442   5
   3   7  -3 12501.9 681.888   7
   3   7  -2 38117.2 1266.55   3
   3   7  -2 37628.8 1287.79   7
   3   7  -2 38356.3 1353.58   5
  -3  -7   2 37689.6 1200.72   8
   3   7  -1 71333.7 1965.64   7
   3   7  -1 72855.1 1882.49   3
   3   7  -1 73601.0 1987.51   5
  -3  -7   1 70022.7 1716.25   8
   3   7   0 80218.1 2148.35   7
   3   7   0 81836.1 1998.36   3
   3   7   0 80697.5 1605.03   6
  -3  -7   0 78955.0 1848.83   6
   3   7   0 80760.1 2064.08   5
  -3  -7   0 77235.3 1752.87   8
  -3  -7  -1 40622.9 990.925   8
   3   7   1 39699.5 1405.96   7
  -3  -7  -1 39669.3 1322.00   2
   3   7   1 39166.5 1254.78   3
   3   7   1 40999.4 1035.13   6
  -3  -7  -1 39923.8 1175.91   6
   3   7   1 38843.1 1282.00   5
  -3  -7  -2 136.934 58.6945   8
   3   7   2 313.931 189.144   7
   3   7   2-23.5621 89.5620   6
  -3  -7  -2 193.439 126.564   6
  -3  -7  -2 151.157 140.129   2
   3   7   3 37975.1 1417.95   7
  -3  -7  -3 36563.6 1300.20   2
   3   7   3 39135.4 1162.74   6
   3   7   4 54413.7 1778.90   7
   3   7   4 55288.2 1565.09   6
  -3  -7  -4 55124.2 1372.75   1
  -3  -7  -4 57512.2 1730.84   2
   3   7   5 113514. 2680.81   6
  -3  -7  -5 113165. 2842.05   2
  -3  -7  -5 112733. 2296.54   1
   3   7   5 110613. 2874.13   7
  -3  -7  -6 46836.9 1706.36   2
   3   7   6 45714.8 1645.96   7
   3   7   6 48359.9 1587.95   6
  -3  -7  -6 48512.8 1170.09   1
  -3  -7  -7 22674.4 729.252   1
   3   7   7 21309.9 1061.15   7
   3   7   7 22064.7 1072.29   6
  -3  -7  -7 21776.8 663.641   1
  -3  -7  -7 22805.9 1198.97   2
   3   7   8 1075.52 277.161   7
  -3  -7  -8 1286.65 152.719   1
   3   7   8 1630.34 349.367   6
  -3  -7  -8 1586.47 357.084   2
  -3  -7  -8 1189.55 128.358   1
   3   7   9 2612.46 384.031   7
  -3  -7  -9 2461.79 166.505   1
  -3  -7  -9 2673.47 442.285   2
   3   7   9 2718.07 429.355   6
   3   7  10 15212.0 891.502   7
   3   7  10 13561.2 998.261   6
  -3  -7 -10 15875.4 1046.04   2
   3   7  11 32491.4 1356.91   7
   3   7  11 36695.7 1738.85   6
  -3  -7 -11 35843.0 1670.02   2
   3   7  12 19028.7 962.042   7
   3   7  12 21288.3 1376.92   6
  -3  -7 -13 11140.8 948.182   4
   3   7  13 12191.9 1070.79   6
  -3  -7 -13 11337.9 993.645   2
  -3  -7 -14 2870.57 547.162   2
  -3  -7 -14 2352.20 471.590   4
  -3  -7 -15 2304.42 531.432   2
   3   7  15 3426.39 657.130   6
   3   8 -10 598.504 323.065   3
  -3  -8   9 4543.77 678.852   8
   3   8  -9 3343.91 509.909   3
   3   8  -9 3625.83 564.876   5
   3   8  -8 21523.2 1224.76   3
   3   8  -8 22413.7 1321.12   5
  -3  -8   8 22692.3 1346.68   8
   3   8  -7 36077.4 1584.61   3
   3   8  -7 37802.3 1684.26   5
  -3  -8   7 36959.0 1670.42   8
   3   8  -6 39233.9 1294.77   7
   3   8  -6 36443.1 1539.00   3
   3   8  -6 40618.7 1658.35   5
  -3  -8   6 39761.2 1625.80   8
   3   8  -5 8110.36 572.113   7
   3   8  -5 9110.82 700.645   3
   3   8  -5 9267.46 739.309   5
  -3  -8   5 10036.8 728.631   8
  -3  -8   4 1813.88 312.381   8
   3   8  -4 1475.84 278.212   7
   3   8  -4 1800.70 325.842   3
   3   8  -4 1946.16 357.086   5
   3   8  -3 34215.6 1297.70   7
   3   8  -3 35840.8 1340.68   3
   3   8  -3 34797.6 1388.95   5
  -3  -8   3 34705.8 1239.29   8
   3   8  -2 76683.4 2190.11   7
   3   8  -2 79381.3 2168.15   3
   3   8  -2 82720.0 2265.02   5
  -3  -8   2 79008.6 1995.60   8
  -3  -8   1 101968. 2260.51   8
   3   8  -1 96573.8 2600.93   7
   3   8  -1 99517.9 2487.47   3
   3   8  -1 103318. 2575.91   5
   3   8   0 81173.5 2132.18   3
   3   8   0 80649.1 1629.84   6
  -3  -8   0 82226.9 2230.84   2
   3   8   0 85800.0 2188.39   5
  -3  -8   0 81257.5 1819.45   8
   3   8   1 38518.3 1495.53   7
   3   8   1 42563.8 1406.08   3
  -3  -8  -1 41459.1 1447.61   2
   3   8   1 40867.5 1069.57   6
  -3  -8  -1 41409.0 1035.13   8
   3   8   2 3883.39 467.563   7
   3   8   2 3554.84 300.001   6
  -3  -8  -2 3542.43 393.981   2
  -3  -8  -2 3700.02 207.389   8
   3   8   3 8639.31 512.367   6
   3   8   3 7948.45 657.657   7
  -3  -8  -3 8141.89 611.443   2
   3   8   4 82556.3 2420.08   7
  -3  -8  -4 80130.9 2252.56   2
   3   8   4 78869.9 2057.96   6
   3   8   5 68760.4 2160.99   7
   3   8   5 68565.5 1953.37   6
  -3  -8  -5 70477.8 2133.87   2
  -3  -8  -6 73740.6 2299.25   2
   3   8   6 70303.7 2206.93   7
   3   8   6 72577.9 2124.92   6
   3   8   7 38458.2 1529.20   6
   3   8   7 36826.8 1485.75   7
  -3  -8  -7 41336.8 1682.00   2
  -3  -8  -7 41018.1 1178.61   1
   3   8   8 1007.26 285.621   7
   3   8   8 742.492 270.575   6
  -3  -8  -8 1029.75 177.639   1
   3   8   9 7597.19 648.831   7
   3   8   9 7566.86 735.405   6
  -3  -8  -9 7860.42 383.211   1
  -3  -8  -9 7666.69 738.828   2
   3   8  10 40177.9 1561.61   7
   3   8  10 42372.0 1837.97   6
  -3  -8 -10 40820.8 1780.37   2
  -3  -8 -11 44295.8 1895.38   2
   3   8  11 46734.2 2001.99   6
   3   8  11 45336.4 1651.88   7
   3   8  12 35474.4 1375.37   7
  -3  -8 -12 34537.3 1723.17   2
   3   8  12 31350.1 1677.31   6
   3   8  13 8812.03 915.057   6
  -3  -8 -13 10411.3 963.979   2
  -3  -8 -14 750.696 305.743   4
  -3  -8 -14 793.823 408.950   2
   3   8  14 20.7512 353.535   6
  -3  -9   9 8423.11 836.573   8
   3   9  -9 7765.80 775.623   3
   3   9  -8 22113.8 1256.74   3
  -3  -9   8 21204.9 1272.59   8
   3   9  -8 22333.9 1335.40   5
  -3  -9   7 36482.0 1616.03   8
   3   9  -7 32793.2 1562.17   3
   3   9  -7 38258.0 1721.95   5
   3   9  -6 25659.0 1317.66   3
   3   9  -6 25422.7 1057.92   7
   3   9  -6 26783.4 1386.75   5
  -3  -9   6 24425.4 1252.89   8
   3   9  -5 12131.2 752.673   7
   3   9  -5 12550.0 879.654   3
   3   9  -5 13658.4 936.628   5
  -3  -9   5 12438.1 826.325   8
  -3  -9   4 1818.10 345.039   8
   3   9  -4 1199.36 321.177   3
   3   9  -4 1499.84 287.190   7
   3   9  -4 1488.32 334.724   5
   3   9  -3 13263.3 826.156   7
   3   9  -3 14555.8 877.263   3
   3   9  -3 15782.3 933.054   5
  -3  -9   3 13458.6 751.071   8
   3   9  -2 90453.0 2532.52   7
   3   9  -2 88753.9 2472.14   3
   3   9  -2 89708.2 2500.49   5
  -3  -9   2 89298.9 2215.31   8
   3   9  -1 97773.6 2742.57   7
   3   9  -1 99723.0 2631.91   3
   3   9  -1 101292. 2633.95   5
  -3  -9   1 102570. 2308.55   8
   3   9   0 75623.3 2318.64   7
   3   9   0 76128.8 2148.71   3
   3   9   0 73717.5 1524.85   6
  -3  -9   0 75411.8 2224.71   2
   3   9   0 78397.9 2167.14   5
  -3  -9   0 77122.3 1767.11   8
  -3  -9  -1 10463.0 722.699   2
   3   9   1 10884.0 488.747   6
   3   9   1 9906.62 763.637   7
   3   9   1 10082.6 697.697   3
  -3  -9  -1 10051.6 449.470   8
   3   9   2 1428.86 343.569   7
   3   9   2 1196.20 194.684   6
  -3  -9  -2 999.693 280.617   2
  -3  -9  -2 1526.87 140.140   8
   3   9   3 36220.0 1531.72   7
  -3  -9  -3 34911.5 1396.58   2
   3   9   3 33539.0 1159.64   6
   3   9   4 76299.2 2390.40   7
  -3  -9  -4 77112.6 2285.05   2
   3   9   4 76706.7 2060.39   6
   3   9   5 107576. 2726.98   6
   3   9   5 104850. 2958.99   7
  -3  -9  -5 112024. 2956.24   2
  -3  -9  -6 47527.3 1832.36   2
   3   9   6 49330.5 1807.08   7
   3   9   6 52183.3 1758.45   6
  -3  -9  -7 21274.6 1222.34   2
   3   9   7 22932.6 1165.30   7
  -3  -9  -7 20011.0 843.497   1
   3   9   7 20289.0 1112.94   6
   3   9   8 2585.18 421.965   7
  -3  -9  -8 2514.78 284.996   1
   3   9   8 2115.17 407.440   6
  -3  -9  -8 2035.68 422.435   2
  -3  -9  -9 18999.9 1197.47   2
   3   9   9 18561.6 1156.96   6
   3   9   9 18377.9 1047.29   7
   3   9  10 28149.7 1308.48   7
   3   9  10 28099.6 1489.81   6
  -3  -9 -10 28846.2 1499.94   2
   3   9  11 28079.4 1281.24   7
   3   9  11 28716.7 1568.25   6
  -3  -9 -11 29080.7 1541.32   2
   3   9  12 18781.2 1290.37   6
  -3  -9 -12 21721.5 1374.41   2
   3   9  12 21969.0 1063.00   7
  -3  -9 -13 3129.44 561.351   2
   3   9  13 2027.25 503.432   6
  -3  -9 -14 318.847 324.557   2
   3   9  14-235.843 324.076   6
   3  10  -8 15542.2 1069.01   3
  -3 -10   8 16854.7 1103.18   8
   3  10  -7 27199.2 1427.93   3
   3  10  -7 30571.0 1565.30   5
  -3 -10   7 29214.0 1407.54   8
   3  10  -6 21282.0 1005.77   7
   3  10  -6 21164.9 1215.28   3
   3  10  -6 21793.9 1277.57   5
  -3 -10   6 21410.7 1143.61   8
  -3 -10   5 2444.72 394.218   8
   3  10  -5 2323.99 372.728   7
   3  10  -5 2226.55 410.520   3
   3  10  -5 3127.24 488.091   5
  -3 -10   4 1093.93 277.696   8
   3  10  -4 1060.77 299.397   7
   3  10  -4 560.753 285.387   3
   3  10  -4 780.802 289.328   5
   3  10  -3 16084.5 992.186   7
   3  10  -3 15893.3 998.959   3
   3  10  -3 15694.6 985.309   5
  -3 -10   3 15458.7 816.992   8
   3  10  -2 35103.6 1528.62   7
   3  10  -2 36236.3 1500.13   3
   3  10  -2 38583.1 1528.43   5
  -3 -10   2 35985.8 1247.86   8
   3  10  -1 31337.5 1448.13   7
   3  10  -1 31890.8 1383.90   3
  -3 -10   1 34741.9 1456.71   2
  -3 -10   1 33097.8 1096.03   8
   3  10  -1 31845.2 1344.55   5
  -3 -10   0 49365.1 1783.00   2
   3  10   0 45816.1 1828.33   7
   3  10   0 49212.4 1751.75   3
  -3 -10   0 48503.1 1302.79   8
   3  10   1 11498.8 880.135   7
  -3 -10  -1 10334.1 775.871   2
   3  10   1 12484.5 518.698   6
   3  10   1 12880.3 845.079   3
  -3 -10  -1 11606.9 490.021   8
   3  10   2 342.803 284.438   7
   3  10   2 175.776 125.773   6
  -3 -10  -2 224.391 196.786   2
   3  10   3 14054.9 970.022   7
  -3 -10  -3 14317.6 912.400   2
   3  10   3 13704.7 722.195   6
   3  10   4 30919.9 1454.32   7
  -3 -10  -4 32877.1 1433.56   2
   3  10   4 31937.5 1236.15   6
  -3 -10  -5 64290.0 2186.69   2
   3  10   5 60124.0 2148.81   7
   3  10   5 64899.5 1998.18   6
  -3 -10  -6 33235.2 1538.55   2
   3  10   6 34208.0 1501.45   7
   3  10   6 31176.3 1379.28   6
  -3 -10  -7 10501.4 874.038   2
   3  10   7 8775.16 746.559   6
  -3 -10  -7 8996.51 597.737   1
   3  10   7 10280.2 804.023   7
   3  10   8 349.017 263.781   7
   3  10   8 305.815 263.521   6
  -3 -10  -8-70.5719 287.947   2
  -3 -10  -8 220.960 147.998   1
   3  10   9 4995.66 574.620   7
   3  10   9 3630.30 542.427   6
  -3 -10  -9 3963.86 577.889   2
   3  10  10 16375.8 1009.11   7
   3  10  10 18067.7 1201.94   6
  -3 -10 -10 18029.6 1225.62   2
  -3 -10 -11 22290.8 1390.89   2
   3  10  11 23051.4 1173.46   7
   3  10  11 21525.6 1377.55   6
   3  10  12 12141.5 823.045   7
   3  10  12 10826.7 985.804   6
  -3 -10 -12 11718.0 1013.41   2
  -3 -10 -13 5813.46 761.699   2
   3  10  13 5264.94 700.561   6
  -3 -11   7 13994.6 961.153   8
   3  11  -6 17096.0 1102.59   3
   3  11  -6 18415.7 1154.32   5
  -3 -11   6 15765.1 966.935   8
   3  11  -5 9345.68 732.888   7
   3  11  -5 9945.59 823.460   3
   3  11  -5 10831.5 878.189   5
  -3 -11   5 10446.0 739.479   8
  -3 -11   4 634.301 223.986   8
   3  11  -4 527.537 268.639   7
   3  11  -4 902.933 324.028   3
   3  11  -4 1210.29 346.218   5
  -3 -11   3 2772.40 361.635   8
   3  11  -3 2939.52 489.787   7
   3  11  -3 2405.07 451.110   3
   3  11  -3 3316.86 495.439   5
   3  11  -2 11936.3 919.659   7
   3  11  -2 13028.4 926.027   3
  -3 -11   2 12757.6 939.677   2
   3  11  -2 12981.9 891.278   5
  -3 -11   2 13023.2 693.165   8
   3  11  -1 34743.6 1649.91   7
   3  11  -1 37715.9 1635.07   3
  -3 -11   1 36373.6 1618.94   2
   3  11  -1 39471.6 1563.29   5
   3  11   0 12723.8 918.973   3
  -3 -11   0 13239.4 936.607   2
   3  11   0 13456.6 1001.78   7
   3  11   1 30653.5 1555.34   7
  -3 -11  -1 33015.1 1485.49   2
   3  11   2 1632.46 404.995   7
   3  11   2 1287.76 212.278   6
  -3 -11  -2 1137.30 337.374   2
   3  11   3 1816.25 403.918   7
   3  11   3 1627.78 254.006   6
  -3 -11  -3 1941.12 386.340   2
  -3 -11  -4 15170.9 1016.85   2
   3  11   4 15297.7 1044.03   7
   3  11   4 16123.0 861.958   6
   3  11   5 20783.5 1223.32   7
  -3 -11  -5 22532.4 1268.06   2
   3  11   5 21483.2 1087.40   6
  -3 -11  -6 37500.1 1721.28   2
   3  11   6 39610.5 1699.76   7
   3  11   6 36984.2 1573.03   6
  -3 -11  -7 9722.33 878.708   2
   3  11   7 9650.67 811.991   6
  -3 -11  -7 8424.29 614.258   1
   3  11   7 8948.52 794.215   7
   3  11   8 3921.27 567.886   7
   3  11   8 2789.25 478.355   6
  -3 -11  -8 3166.48 555.476   2
   3  11   9 1211.15 363.140   7
   3  11   9 1080.72 356.770   6
  -3 -11  -9 889.228 406.330   2
   3  11  10 3075.31 478.839   7
  -3 -11 -10 3669.14 604.744   2
   3  11  10 3738.43 576.591   6
   3  11  11 10579.9 976.446   6
   3  11  11 12947.1 885.804   7
  -3 -11 -11 12212.6 1046.21   2
   3  11  12 13590.7 1084.60   6
   3  11  12 13637.7 872.613   7
  -3 -11 -12 14683.0 1139.64   2
   3  12  -5 8610.23 797.929   3
   3  12  -5 6479.93 639.838   7
   3  12  -5 8215.62 754.132   5
   3  12  -4 875.694 286.045   7
   3  12  -4 1255.70 380.139   3
   3  12  -4 833.082 308.019   5
   3  12  -3 947.479 381.148   7
   3  12  -3 949.595 299.676   3
  -3 -12   3 1053.14 352.869   2
   3  12  -3 487.985 255.715   5
   3  12  -2 12978.0 1004.04   7
   3  12  -2 13402.6 991.296   3
  -3 -12   2 14445.5 1037.03   2
   3  12  -2 13778.7 938.556   5
   3  12  -1 33949.2 1597.51   3
   3  12  -1 33418.1 1675.23   7
  -3 -12   1 34775.7 1660.74   2
   3  12   0 40825.8 1803.15   3
   3  12   0 40616.3 1896.14   7
  -3 -12   0 40966.1 1797.23   2
   3  12   1 21381.1 1331.40   7
  -3 -12  -1 19757.3 1216.02   2
   3  12   2 8430.80 824.176   7
  -3 -12  -2 9127.91 827.917   2
   3  12   3 168.513 261.747   7
  -3 -12  -3 426.758 275.746   2
  -3 -12  -4 15589.8 1080.89   2
   3  12   4 14044.5 1047.39   7
   3  12   4 12841.1 761.678   6
   3  12   5 23753.7 1381.32   7
   3  12   5 24142.2 1159.67   6
  -3 -12  -5 27126.7 1473.46   2
  -3 -12  -6 34751.0 1723.28   2
   3  12   6 33840.6 1636.78   7
   3  12   6 32372.0 1460.63   6
  -3 -12  -7 25508.9 1488.06   2
   3  12   7 24878.8 1379.15   7
   3  12   7 22560.5 1266.01   6
  -3 -12  -7 23893.0 1098.21   1
   3  12   8 5629.94 674.575   7
   3  12   8 3971.85 542.720   6
  -3 -12  -8 3994.68 663.693   2
   3  12   9 569.863 300.736   7
   3  12   9 331.211 297.848   6
  -3 -12  -9 714.685 407.466   2
  -3 -12 -10 8693.85 906.794   2
   3  12  10 8914.53 785.327   7
   3  12  10 6616.01 743.507   6
   3  12  11 9194.35 882.866   6
   3  12  11 11446.8 853.596   7
  -3 -12 -11 12012.0 1030.70   2
   3  12  12 12219.6 865.669   7
   3  13  -3 4240.22 568.463   7
   3  13  -3 5511.89 677.800   3
   3  13  -3 5462.89 614.610   5
   3  13  -2 10470.0 906.074   3
   3  13  -2 12378.5 976.547   7
   3  13  -1 30716.8 1574.09   3
   3  13  -1 30762.0 1628.99   7
  -3 -13   1 32066.3 1623.24   2
   3  13   0 31794.1 1697.96   7
  -3 -13   0 33907.3 1662.14   2
   3  13   1 12525.9 1048.26   7
  -3 -13  -1 11938.0 987.026   2
   3  13   2 1420.89 445.534   7
  -3 -13  -2 815.499 317.243   2
   3  13   3 3671.08 578.933   7
  -3 -13  -3 4425.71 622.195   2
   3  13   4 19782.5 1297.65   7
  -3 -13  -4 19100.4 1268.27   2
  -3 -13  -5 28185.5 1559.96   2
   3  13   5 27595.5 1545.54   7
  -3 -13  -6 25346.5 1523.95   2
   3  13   6 23165.6 1377.31   7
   3  13   6 22864.1 1185.85   6
  -3 -13  -6 24652.4 1187.13   1
  -3 -13  -7 12773.5 1099.00   2
   3  13   7 12570.1 1001.62   7
   3  13   7 11334.6 876.169   6
   3  13   8 2437.94 488.091   7
   3  13   8 1628.59 393.249   6
  -3 -13  -8 1293.26 500.105   2
   3  13   9 346.546 310.606   7
   3  13   9 532.975 322.924   6
  -3 -13  -9 241.469 376.197   2
   3  13  10 11811.2 949.261   6
   3  13  10 11351.0 895.326   7
   3  13  11 13716.5 964.707   7
  -4  10   6 6801.92 771.137   7
  -4  10   5 3622.61 614.646   7
  -4  10   5 6290.44 808.359   6
  -4  10   4 4836.55 732.505   7
   4 -10  -4 5540.50 732.302   1
  -4  10   3-7.98337 286.313   7
   4 -10  -3 498.074 362.416   1
   4 -10  -2 4397.58 707.324   1
  -4  10   2 3350.20 638.457   7
  -4  10   1 7497.50 905.102   7
   4 -10  -1 6773.67 856.596   1
  -4  10   0 18171.8 1390.55   7
   4 -10   0 19036.7 1364.32   1
   4 -10   1 11399.8 1039.73   1
  -4  10  -1 10744.4 1073.76   7
  -4  10  -2 6756.52 871.769   7
  -4  10  -3-451.167 354.433   3
   4  -9  -7 5330.70 671.223   1
  -4   9   7 4621.37 617.011   7
  -4   9   7 4787.90 739.259   6
  -4   9   6 18144.7 1230.21   7
  -4   9   6 19656.7 1457.81   6
   4  -9  -6 19179.2 1237.29   1
  -4   9   5 13421.2 1087.13   7
   4  -9  -5 14779.4 1113.41   1
  -4   9   4 8206.18 888.149   7
   4  -9  -4 8876.02 874.869   1
  -4   9   3 3426.61 601.840   7
   4  -9  -3 3824.85 633.707   1
   4  -9  -2 1196.04 428.221   1
  -4   9   2 791.099 371.890   7
   4  -9  -1 13329.8 1131.77   1
  -4   9   1 14555.5 1193.64   7
   4  -9   0 19222.5 1347.84   1
  -4   9   0 17179.3 1322.70   7
   4  -9   1 36175.9 1845.25   1
  -4   9  -1 30628.0 1773.84   7
  -4   9  -1 33690.1 1758.95   4
  -4   9  -2 14899.5 1083.88   3
  -4   9  -2 13037.0 1153.71   7
   4  -9   2 14701.5 1174.70   1
  -4   9  -2 15378.5 1190.62   4
  -4   9  -3 2753.91 584.222   7
  -4   9  -3 1535.86 454.372   4
  -4   9  -3 1865.44 424.470   3
   4  -9   3 1856.47 447.947   1
  -4   9  -4 1937.86 478.951   4
   4  -9   4 1701.94 454.278   1
  -4   9  -4 1333.31 448.473   7
  -4   9  -4 2633.09 501.338   3
  -4   9  -5 10777.7 931.404   3
  -4   9  -5 9271.35 1020.61   7
   4  -9   5 9508.10 958.287   1
  -4   9  -5 11252.0 999.506   4
  -4   9  -6 15039.7 1084.21   3
  -4   9  -6 13152.6 1196.19   7
   4  -9   6 14284.9 1154.77   1
  -4   9  -6 14779.2 1133.23   4
  -4   9  -7 11081.9 1080.33   7
   4  -8  -9-114.770 237.967   1
  -4   8   8 2180.45 558.135   6
  -4   8   8 1345.65 355.804   7
   4  -8  -8 2029.11 428.750   1
  -4   8   7 14632.1 1030.36   7
  -4   8   7 15952.5 1330.40   6
   4  -8  -7 14515.8 1051.61   1
  -4   8   6 24256.6 1388.83   7
   4  -8  -6 22944.5 1346.10   1
  -4   8   5 33857.2 1689.17   7
   4  -8  -5 32345.0 1655.84   1
  -4   8   4 16928.8 1210.48   7
   4  -8  -4 18361.0 1233.70   1
  -4   8   3 1415.20 426.017   7
   4  -8  -3 335.776 263.324   1
   4  -8  -2 1844.96 469.050   1
  -4   8   2 1193.93 409.867   7
  -4   8   2 1574.42 429.949   4
   4  -8  -1 20641.5 1322.87   1
  -4   8   1 20064.4 1275.43   4
   4  -8   0 27356.3 1547.35   1
  -4   8   0 29659.0 1551.88   4
   4  -8   1 25623.1 1490.27   1
  -4   8  -1 27310.3 1486.19   4
   4  -8   2 13743.6 1088.49   1
  -4   8  -2 14390.4 1012.83   3
  -4   8  -2 14945.6 1100.97   4
  -4   8  -3 2800.76 482.565   3
  -4   8  -3 3341.13 548.448   4
   4  -8   3 3406.37 585.790   1
  -4   8  -4 846.151 369.671   4
   4  -8   4 904.023 329.257   1
  -4   8  -4 738.799 323.357   3
   4  -8   4 832.328 224.214   2
  -4   8  -5 13746.5 1011.74   3
  -4   8  -5 12193.6 1115.28   7
   4  -8   5 14761.6 1142.22   1
  -4   8  -5 14491.1 1090.40   4
  -4   8  -6 23250.4 1354.62   3
  -4   8  -6 22864.1 1509.63   7
  -4   8  -6 26145.9 1456.82   4
  -4   8  -7 20251.9 1269.21   3
  -4   8  -7 21607.3 1478.65   7
  -4   8  -7 20842.4 1286.70   4
  -4   8  -8 11610.7 968.816   3
  -4   8  -8 10827.2 1042.82   7
  -4   8  -8 10018.3 896.427   4
  -4   8  -9 418.205 355.716   7
   4  -7 -11 6970.12 694.155   1
   4  -7 -10 2414.18 445.050   1
  -4   7   9 263.552 375.499   6
  -4   7   9 431.905 243.948   8
   4  -7  -9 975.577 340.030   1
  -4   7   8 3557.11 509.844   8
  -4   7   8 3922.46 519.617   7
   4  -7  -8 3845.74 560.021   1
  -4   7   8 4626.96 762.419   6
  -4   7   7 9947.10 834.178   7
   4  -7  -7 10899.0 896.157   1
  -4   7   6 19327.0 1193.50   7
   4  -7  -6 19732.6 1200.77   1
  -4   7   5 20292.6 1236.09   7
   4  -7  -5 22106.9 1286.89   1
   4  -7  -4 10261.4 868.799   1
   4  -7  -3 693.906 195.501   2
  -4   7   3 456.733 246.868   4
   4  -7  -3 476.573 282.621   1
   4  -7  -2 8544.93 549.397   2
  -4   7   2 8872.50 789.154   4
   4  -7  -2 7822.13 783.925   1
   4  -7  -1 26655.0 1001.53   2
   4  -7  -1 26840.7 1447.24   1
  -4   7   1 27969.1 1423.77   4
   4  -7   0 50624.0 1469.90   2
   4  -7   0 53471.8 2093.33   1
  -4   7   0 52659.5 2005.36   4
  -4   7  -1 33012.9 1492.95   3
   4  -7   1 35038.7 1144.90   2
   4  -7   1 36141.6 1700.13   1
  -4   7  -1 36099.3 1625.47   4
  -4   7  -2 16884.9 1028.70   3
   4  -7   2 16755.7 760.690   2
   4  -7   2 18008.7 1180.39   1
  -4   7  -2 16891.9 1092.83   4
  -4   7  -3 1642.45 367.302   3
   4  -7   3 1759.96 262.670   2
  -4   7  -3 1215.46 342.548   4
   4  -7   3 2027.25 438.640   1
   4  -7   4 1384.39 378.948   1
  -4   7  -4 1329.83 340.399   3
  -4   7  -4 1422.17 366.303   4
  -4   7  -5 6732.77 688.876   3
  -4   7  -5 6987.75 728.285   4
  -4   7  -6 24127.1 1297.80   3
  -4   7  -6 20725.5 1280.83   4
  -4   7  -7 20279.4 1228.42   3
  -4   7  -7 19778.6 1227.47   4
  -4   7  -8 7771.46 854.616   7
  -4   7  -8 7072.42 730.460   4
  -4   7  -8 7531.72 764.033   3
  -4   7  -9 3827.74 546.738   4
  -4   7  -9 3890.86 633.327   7
  -4   7  -9 3668.61 562.550   3
  -4   6  11 9077.46 752.510   8
   4  -6 -11 9146.37 774.751   1
  -4   6  10 5015.19 575.395   8
   4  -6 -10 4941.30 605.447   1
  -4   6  10 4894.32 738.465   6
  -4   6   9 41.3100 226.759   8
   4  -6  -9 570.038 308.752   1
  -4   6   8 1691.75 353.355   7
   4  -6  -8 1929.47 409.756   1
  -4   6   8 1254.84 356.805   8
  -4   6   7 13636.7 925.315   7
   4  -6  -7 14325.5 987.651   1
  -4   6   6 25954.7 1308.18   7
   4  -6  -6 24561.9 1308.89   1
   4  -6  -6 25947.3 1037.79   2
   4  -6  -5 23525.0 947.186   2
   4  -6  -5 24509.1 1297.18   1
  -4   6   4 10405.9 813.790   4
   4  -6  -4 11042.7 871.545   1
   4  -6  -4 9369.34 551.416   2
  -4   6   3 1474.98 343.333   4
   4  -6  -3 1633.01 243.994   2
   4  -6  -3 1447.26 354.999   1
   4  -6  -2 1729.09 259.719   2
  -4   6   2 1697.77 350.665   4
   4  -6  -2 1537.51 362.142   1
   4  -6  -1 10381.5 563.157   2
   4  -6  -1 10543.9 863.261   1
  -4   6   1 10992.1 808.199   4
   4  -6   0 29111.5 969.182   2
   4  -6   0 28218.3 1423.88   1
  -4   6   0 29940.9 1370.26   4
  -4   6  -1 40768.6 1548.94   3
   4  -6   1 40087.1 1167.68   2
   4  -6   1 39907.1 1714.67   1
  -4   6  -1 39518.5 1624.12   4
  -4   6  -2 24584.7 1164.36   3
   4  -6   2 23319.4 868.635   2
   4  -6   2 24430.0 1304.79   1
  -4   6  -2 26007.1 1272.38   4
   4  -6   3 5502.03 621.876   1
  -4   6  -3 6349.27 586.451   3
   4  -6   3 6993.87 463.754   2
  -4   6  -3 7100.14 676.257   4
   4  -6   4 1377.25 345.369   1
  -4   6  -4 1076.63 295.081   4
  -4   6  -4 1425.14 311.742   3
  -4   6  -5 17944.3 1016.24   3
  -4   6  -5 16283.5 1035.18   4
  -4   6  -6 23942.5 1254.18   3
  -4   6  -6 25482.4 1320.39   4
  -4   6  -7 39308.8 1667.23   3
  -4   6  -7 35827.4 1630.90   4
  -4   6  -8 17545.1 1125.59   3
  -4   6  -8 16789.2 1085.98   4
  -4   6  -9 1520.41 343.361   4
  -4   6  -9 1471.31 403.216   3
   4  -6  10 883.862 351.270   8
  -4   6 -10 348.552 248.299   7
  -4   6 -10 554.520 284.123   3
  -4   6 -11 5657.12 698.911   3
  -4   5  12 6173.35 639.878   8
   4  -5 -12 5908.42 644.791   1
  -4   5  11 11042.5 841.924   8
   4  -5 -11 11230.4 871.020   1
  -4   5  11 9226.72 1007.61   6
  -4   5  10 13642.4 948.842   8
   4  -5 -10 13872.5 977.383   1
  -4   5  10 12753.2 1145.90   6
  -4   5   9 1744.57 390.434   8
   4  -5  -9 2064.54 350.323   2
   4  -5  -9 1546.11 409.881   1
  -4   5   9 1703.31 492.839   6
  -4   5   8-284.223 280.740   8
  -4   5   8 111.050 199.228   7
   4  -5  -8-23.5906 152.495   2
   4  -5  -8 570.488 311.472   1
  -4   5   7 9584.06 854.965   8
  -4   5   7 11588.3 784.256   7
   4  -5  -7 11033.2 832.417   1
   4  -5  -7 11223.7 697.300   2
   4  -5  -6 28298.3 1351.83   1
   4  -5  -6 28405.9 1107.61   2
   4  -5  -5 43818.6 1377.25   2
   4  -5  -5 46512.7 1779.84   1
  -4   5   5 47581.8 1738.73   4
   4  -5  -4 53662.0 1934.74   1
  -4   5   4 55631.8 1891.01   4
   4  -5  -4 53946.6 1485.50   2
  -4   5   3 6567.50 601.416   4
   4  -5  -3 7123.74 657.560   1
   4  -5  -3 6581.48 415.399   2
  -4   5   2 263.734 209.774   4
   4  -5  -2 54.8888 100.047   2
   4  -5  -2-240.985 241.307   1
   4  -5  -1 13924.0 946.398   1
   4  -5  -1 13822.6 605.635   2
  -4   5   1 13626.7 850.505   4
   4  -5   0 58453.3 2087.70   1
   4  -5   0 62005.3 1473.90   2
  -4   5   0 57857.3 1928.41   4
   4  -5   1 50882.8 1286.94   2
   4  -5   1 49960.3 1886.69   1
  -4   5  -1 52452.1 1679.57   3
  -4   5  -1 52166.7 1782.01   4
  -4   5  -2 67521.1 1969.71   3
   4  -5   2 66109.5 1584.75   2
   4  -5   2 68015.1 2225.38   1
  -4   5  -2 65009.2 2068.60   4
  -4   5  -3 17611.7 902.522   3
   4  -5   3 15512.5 981.118   1
  -4   5  -3 15393.4 398.197   5
  -4   5  -3 17803.1 977.042   4
  -4   5  -4-72.3366 203.625   4
   4  -5   4 25.1296 206.625   1
  -4   5  -4 88.2253 166.245   3
  -4   5  -4-32.8135 62.1108   5
  -4   5  -5 17310.1 939.173   3
  -4   5  -5 15293.0 937.663   4
  -4   5  -6 41329.6 1569.51   3
  -4   5  -6 38823.9 1167.30   5
  -4   5  -6 38597.3 1565.77   4
  -4   5  -7 50590.3 1832.87   3
  -4   5  -7 48208.8 1444.88   5
  -4   5  -7 49633.1 1862.33   4
  -4   5  -8 34042.8 1524.55   3
  -4   5  -8 31658.3 1456.93   4
   4  -5   8 33803.1 1484.38   8
  -4   5  -9 9398.28 829.212   3
  -4   5  -9 8540.31 728.564   4
   4  -5   9 7967.87 751.289   8
  -4   5 -10 235.473 237.027   4
   4  -5  10 276.394 309.419   8
  -4   5 -10 337.024 320.738   3
   4  -5  11 676.046 345.515   8
  -4   5 -11 201.481 292.314   3
  -4   5 -12 11748.3 996.756   3
  -4   4  12 16034.8 1031.59   8
   4  -4 -12 16752.3 1080.02   1
  -4   4  12 17411.1 1294.18   6
  -4   4  11 16555.9 1062.96   8
   4  -4 -11 14101.3 998.689   1
  -4   4  11 16158.9 1256.62   6
  -4   4  10 13995.2 984.185   8
   4  -4 -10 13933.8 981.054   1
  -4   4  10 13056.5 1150.88   6
   4  -4 -10 12372.8 855.510   2
  -4   4   9 3972.27 558.839   8
   4  -4  -9 3556.15 454.992   2
   4  -4  -9 3757.46 528.223   1
  -4   4   9 4281.40 670.413   6
  -4   4   8 1337.02 339.440   8
  -4   4   8 1035.40 265.899   7
   4  -4  -8 1284.87 299.619   2
   4  -4  -8 1607.68 375.386   1
  -4   4   7 19817.4 1197.69   8
   4  -4  -7 20531.5 1130.48   1
   4  -4  -7 20111.0 974.096   2
   4  -4  -6 39858.8 1599.00   1
   4  -4  -6 41177.8 1360.19   2
   4  -4  -5 70297.4 2238.04   1
   4  -4  -5 71019.8 1595.77   5
  -4   4   5 72043.6 2126.91   4
   4  -4  -5 74177.8 1879.46   2
   4  -4  -4 46400.4 1301.35   2
   4  -4  -4 43890.0 968.630   5
   4  -4  -4 43995.9 1681.11   1
  -4   4   4 47968.0 1609.41   4
   4  -4  -3 52565.5 1890.00   1
  -4   4   3 55148.7 1774.18   4
   4  -4  -3 56820.6 1408.27   2
  -4   4   2 1527.56 298.036   4
   4  -4  -2 1315.44 164.122   2
   4  -4  -2 1491.26 329.876   1
  -4   4   1 28742.0 1186.93   4
   4  -4  -1 27639.5 1296.56   1
   4  -4  -1 28670.7 822.031   2
   4  -4   0 74681.6 2336.54   1
   4  -4   0 73751.3 1590.36   2
  -4   4   0 71775.4 2075.71   4
   4  -4   1 166017. 3950.58   1
  -4   4  -1 171372. 3611.72   3
   4  -4   1 166624. 3103.14   2
  -4   4  -1 168732. 3744.73   4
  -4   4  -2 56657.3 1643.29   3
   4  -4   2 55957.1 1895.14   1
   4  -4   2 56873.3 1305.93   2
   4  -4   2 54630.1 1269.36   2
  -4   4  -2 53739.7 1738.72   4
  -4   4  -3 45290.7 1438.96   3
   4  -4   3 43874.3 1629.10   1
  -4   4  -3 42371.4 888.887   5
   4  -4   3 42923.7 1121.50   2
  -4   4  -3 43219.8 1532.21   4
  -4   4  -4 855.697 255.521   4
   4  -4   4 590.335 228.580   1
  -4   4  -4 301.473 163.207   3
  -4   4  -4 548.971 108.347   5
  -4   4  -5 28847.2 1175.53   3
  -4   4  -5 28188.3 1223.82   4
  -4   4  -6 36686.4 1384.30   3
  -4   4  -6 34060.9 1389.18   4
  -4   4  -7 57672.2 1882.70   3
  -4   4  -7 54620.6 1859.40   4
   4  -4   7 55139.1 1864.41   8
  -4   4  -8 47069.3 1760.64   3
  -4   4  -8 47515.1 1739.11   4
   4  -4   8 47250.6 1744.64   8
  -4   4  -9 9604.26 782.273   3
  -4   4  -9 8670.77 716.663   4
   4  -4   9 10096.4 793.471   8
  -4   4 -10 4.54507 184.553   4
   4  -4  10-95.9638 267.122   8
  -4   4 -10-286.917 307.630   3
  -4   4 -11 6693.40 741.698   3
  -4   4 -11 6153.90 600.290   4
   4  -4  11 8447.00 818.871   8
  -4   4 -12 12648.5 1037.74   3
   4  -4  12 13377.6 1032.59   8
  -4   3  13 5761.57 749.335   6
   4  -3 -13 5188.26 744.198   3
   4  -3 -13 6811.28 725.531   1
   4  -3 -12 8228.21 775.803   1
  -4   3  12 7891.04 857.463   6
   4  -3 -12 8014.28 865.766   3
  -4   3  12 7685.49 741.724   8
  -4   3  11 26006.2 1384.59   8
   4  -3 -11 26159.4 1407.38   1
  -4   3  11 23148.4 1485.99   6
  -4   3  10 14529.8 1017.28   8
   4  -3 -10 14173.8 1027.52   1
  -4   3  10 14571.3 1170.32   6
   4  -3 -10 12852.4 899.866   2
  -4   3   9 4740.60 607.009   8
   4  -3  -9 4614.20 577.673   1
   4  -3  -9 4302.82 496.662   2
  -4   3   9 4821.71 689.886   6
  -4   3   8 91.5063 237.655   8
   4  -3  -8 295.540 193.910   2
   4  -3  -8 482.849 278.381   1
  -4   3   8 240.164 153.559   7
  -4   3   7 13073.9 944.692   8
   4  -3  -7 12522.9 865.700   1
   4  -3  -7 12132.5 719.874   2
  -4   3   6 71107.0 2002.53   4
   4  -3  -6 69217.3 1859.72   2
   4  -3  -5 46054.5 1703.30   1
   4  -3  -5 46575.1 1260.69   5
  -4   3   5 48293.9 1545.38   4
   4  -3  -5 47391.5 1361.07   2
  -4   3   4 60612.8 1624.01   2
   4  -3  -4 54003.8 1866.43   1
   4  -3  -4 57077.4 1313.68   5
  -4   3   4 57847.3 1723.46   4
   4  -3  -4 57463.5 1449.90   2
  -4   3   3 5877.95 338.616   2
   4  -3  -3 5294.90 233.744   5
   4  -3  -3 5315.28 543.612   1
  -4   3   3 5528.86 466.095   4
   4  -3  -3 4964.55 306.723   2
   4  -3  -2 19.2566 153.758   1
   4  -3  -2 79.4986 56.2826   2
  -4   3   2 350.504 173.006   4
   4  -3  -1 48916.7 1716.78   1
  -4   3   1 48534.4 1522.77   4
   4  -3  -1 48495.8 1043.02   2
   4  -3   0 99528.1 1881.35   2
  -4   3   0 100279. 2478.03   4
   4  -3   0 102961. 2742.97   1
   4  -3   1 96468.3 2626.77   1
   4  -3   1 96209.0 1810.84   2
  -4   3  -1 95071.5 2245.81   3
   4  -3   1 95929.8 1789.63   2
  -4   3  -1 99126.4 2441.79   4
   4  -3   2 77061.3 2239.12   1
  -4   3  -2 80956.3 1947.17   3
   4  -3   2 76046.6 1546.64   2
   4  -3   2 77779.7 1564.32   2
  -4   3  -2 78330.6 2115.71   4
  -4   3  -3 11764.3 612.714   3
  -4   3  -3 11912.2 718.004   4
   4  -3   3 10928.7 723.981   1
   4  -3   3 11048.1 445.904   2
  -4   3  -4 379.394 209.373   4
   4  -3   4 65.9078 146.693   1
   4  -3   4 236.262 92.2702   2
  -4   3  -4 201.842 139.055   3
  -4   3  -5 10447.9 637.403   3
   4  -3   5 11742.4 744.390   1
  -4   3  -5 10714.1 707.991   4
  -4   3  -6 80419.7 2159.95   3
  -4   3  -6 75938.6 2195.92   4
  -4   3  -7 28082.0 1189.54   3
   4  -3   7 28407.1 1213.17   8
  -4   3  -7 29393.1 1232.59   4
  -4   3  -8 47791.6 1720.94   3
  -4   3  -8 48998.2 1703.50   4
   4  -3   8 47542.5 1708.16   8
  -4   3  -9 22363.6 1164.51   3
  -4   3  -9 21391.9 1094.15   4
   4  -3   9 20934.8 1115.20   8
   4  -3  10 1175.05 342.910   8
  -4   3 -10 1418.18 318.158   4
  -4   3 -10 1127.30 330.646   3
  -4   3 -11 4392.32 484.763   4
   4  -3  11 5135.67 625.687   8
  -4   3 -11 4378.39 603.974   3
  -4   3 -12 15616.3 1125.36   3
   4  -3  12 15670.6 1120.55   8
  -4   3 -13 15595.1 1185.31   3
   4  -3  13 16115.4 1167.70   8
  -4   2  13 3236.55 567.325   6
   4  -2 -13 3542.72 535.625   5
   4  -2 -13 1845.69 498.419   3
   4  -2 -13 3501.72 571.705   1
  -4   2  12 13979.2 1086.87   6
   4  -2 -12 12839.0 1101.22   3
  -4   2  12 14382.7 1043.36   8
   4  -2 -12 13489.7 1045.24   1
  -4   2  11 8914.32 831.810   8
  -4   2  11 8742.65 877.714   6
   4  -2 -11 6924.68 810.468   3
   4  -2 -11 8550.94 831.196   1
  -4   2  10 14132.3 1029.32   8
   4  -2 -10 12489.1 991.289   1
  -4   2  10 11955.6 1039.19   6
  -4   2   9 6352.65 684.021   8
   4  -2  -9 5481.36 647.410   1
  -4   2   9 5614.09 696.953   6
   4  -2  -8 2321.46 413.842   1
   4  -2  -8 3025.22 389.966   2
   4  -2  -7 3063.72 450.331   1
   4  -2  -7 2719.29 341.143   2
  -4   2   7 2248.39 422.674   8
   4  -2  -6 47043.2 1748.93   1
  -4   2   6 49141.7 1903.15   8
   4  -2  -6 43487.0 1368.92   2
  -4   2   6 45903.9 1439.09   4
  -4   2   5 62513.6 1572.50   2
   4  -2  -5 60550.3 1559.51   5
   4  -2  -5 57383.2 1959.57   1
   4  -2  -5 60339.8 1572.87   2
  -4   2   5 62122.2 1716.03   4
   4  -2  -4 28577.9 1252.72   1
   4  -2  -4 29978.3 887.258   5
   4  -2  -4 28894.6 886.813   2
  -4   2   4 31133.0 1093.16   4
  -4   2   4 26817.7 892.291   2
  -4   2   3 12525.6 563.116   2
   4  -2  -3 11454.8 771.859   1
   4  -2  -3 11821.7 449.615   5
   4  -2  -3 13085.9 471.817   2
  -4   2   3 11839.3 631.674   4
  -4   2   2 74.5740 127.367   4
   4  -2  -2 11.5046 141.838   1
   4  -2  -2 71.6385 45.6922   2
  -4   2   2 149.940 59.3907   2
   4  -2  -2 21.5666 40.9297   5
   4  -2  -1 31475.8 1279.95   1
  -4   2   1 30528.5 1087.71   4
  -4   2   0 30072.8 1096.73   4
   4  -2   0 31517.2 1265.45   1
  -4   2  -1 110591. 2353.05   3
  -4   2  -1 108207. 2548.09   4
   4  -2   1 106969. 2764.81   1
  -4   2  -2 66941.3 1633.13   3
  -4   2  -2 71241.7 1862.83   4
   4  -2   2 67388.5 1299.67   2
  -4   2  -2 65797.1 1223.88   5
   4  -2   2 68793.8 2002.50   1
   4  -2   3 23106.9 1033.48   1
  -4   2  -3 25078.2 869.358   3
   4  -2   3 25037.7 687.508   2
  -4   2  -3 24864.1 1005.04   4
  -4   2  -4 1629.59 277.910   4
   4  -2   4 1887.37 184.993   2
   4  -2   4 1817.45 290.259   1
  -4   2  -4 1793.45 238.230   3
  -4   2  -5 10993.5 674.433   4
  -4   2  -5 10921.1 602.997   3
   4  -2   5 10879.6 684.730   1
  -4   2  -6 45421.9 1461.08   3
   4  -2   6 46304.1 1501.79   8
  -4   2  -6 45334.7 1511.62   4
   4  -2   7 69693.3 1799.46   6
  -4   2  -7 68269.9 1971.36   3
  -4   2  -7 71456.5 2028.20   4
   4  -2   7 69952.7 2016.54   8
   4  -2   8 29221.7 1046.48   6
  -4   2  -8 27704.8 1199.32   3
  -4   2  -8 28493.9 1187.51   4
   4  -2   8 28272.3 1211.58   8
   4  -2   9 12567.3 687.967   6
  -4   2  -9 15029.2 906.087   3
   4  -2   9 13310.2 850.511   8
  -4   2  -9 12670.4 794.109   4
   4  -2  10 687.640 249.769   8
   4  -2  10 743.481 196.123   6
  -4   2 -10 577.616 267.223   3
  -4   2 -10 845.057 251.131   4
   4  -2  11 1025.62 328.310   8
  -4   2 -11 713.382 231.551   4
   4  -2  11 1020.11 234.295   6
  -4   2 -11 522.258 283.435   3
   4  -2  12 11138.8 672.728   6
  -4   2 -12 11015.1 930.512   3
  -4   2 -12 10651.1 747.202   4
   4  -2  12 12547.0 994.192   8
  -4   2 -13 13972.4 1072.43   3
   4  -2  13 13484.4 1064.78   8
  -4   2 -14 7718.70 837.794   3
   4  -2  14 9068.50 892.172   8
   4  -1 -13 1871.90 454.536   1
   4  -1 -13 2479.69 549.555   3
   4  -1 -13 2191.65 452.696   5
  -4   1  12 6791.09 760.027   8
  -4   1  12 5612.27 678.940   6
   4  -1 -12 5174.96 649.727   5
   4  -1 -12 5244.94 714.625   3
   4  -1 -12 4894.04 694.147   1
  -4   1  11 20421.6 1294.59   8
  -4   1  11 22695.8 1356.45   6
   4  -1 -11 19767.4 1300.30   3
   4  -1 -11 19103.4 1292.37   1
  -4   1  10 16178.4 1126.23   8
   4  -1 -10 15996.4 1173.23   1
  -4   1  10 15995.3 1158.02   6
   4  -1 -10 15367.1 1116.07   3
  -4   1   9 8034.76 766.649   8
   4  -1  -9 7614.61 786.736   1
  -4   1   9 6797.06 743.965   6
   4  -1  -9 5344.71 636.270   3
  -4   1   8 1203.52 361.976   8
   4  -1  -8 249.853 240.115   1
  -4   1   7 21480.0 1221.97   8
   4  -1  -7 20594.8 1204.05   1
  -4   1   6 22826.6 1245.02   8
   4  -1  -6 22412.1 1207.82   1
   4  -1  -6 22730.0 943.820   5
  -4   1   6 24301.1 882.610   4
  -4   1   5 104433. 3067.12   8
   4  -1  -5 101971. 2374.44   5
  -4   1   5 106048. 2369.59   4
  -4   1   4 84557.9 1919.02   2
   4  -1  -4 85128.0 2470.27   1
   4  -1  -4 87397.5 1953.34   5
  -4   1   4 87113.8 2033.40   4
   4  -1  -3 34109.6 1378.86   1
   4  -1  -3 36503.2 985.943   5
  -4   1   3 36097.8 981.452   2
  -4   1   3 36108.0 1121.71   4
  -4   1   2 9597.40 409.531   2
   4  -1  -2 9997.29 516.820   3
   4  -1  -2 10489.2 705.363   1
   4  -1  -2 9678.90 393.966   5
  -4   1   2 9480.73 533.568   4
  -4   1   1 5753.06 408.618   4
   4  -1  -1 4871.37 318.738   3
   4  -1  -1 5191.94 494.180   1
   4  -1  -1 5621.11 254.302   5
   4  -1   0 77077.8 1667.23   3
   4  -1   0 82069.3 2206.78   1
  -4   1   0 77066.0 1921.39   4
   4  -1   1 50254.7 1186.55   3
  -4   1  -1 49524.5 1224.49   3
  -4   1  -1 48971.6 975.002   5
   4  -1   1 49518.0 1595.99   1
  -4   1  -1 51860.3 1445.09   4
  -4   1  -2 130251. 2605.89   3
   4  -1   2 137040. 2609.66   3
  -4   1  -2 135771. 2393.03   5
   4  -1   2 130938. 3068.45   1
  -4   1  -2 131556. 2910.06   4
  -4   1  -3 42590.4 1126.98   3
   4  -1   3 43579.6 1111.01   3
   4  -1   3 40654.7 1392.42   1
  -4   1  -3 42141.5 1324.67   4
   4  -1   3 42938.7 983.551   2
   4  -1   4 13132.1 505.594   2
   4  -1   4 12937.1 699.715   1
  -4   1  -4 12541.9 565.759   3
  -4   1  -4 13435.9 693.427   4
   4  -1   5 8072.14 421.001   2
  -4   1  -5 7923.42 542.943   4
   4  -1   5 7465.82 461.326   6
  -4   1  -5 8025.78 479.687   3
   4  -1   5 8187.72 536.956   1
   4  -1   6 34413.3 1108.68   6
  -4   1  -6 33678.5 1155.50   3
   4  -1   6 34053.2 1192.30   1
  -4   1  -6 34445.4 1235.39   4
   4  -1   6 37491.9 1249.49   8
   4  -1   7 114877. 2727.75   8
   4  -1   7 111678. 2530.03   6
  -4   1  -7 113049. 2672.86   3
  -4   1  -7 112583. 2713.03   4
  -4   1  -8 74870.7 2064.40   4
   4  -1   8 74209.9 1912.85   6
  -4   1  -8 75800.7 2111.79   3
   4  -1   8 72401.0 2086.80   8
  -4   1  -9 36971.4 1380.74   4
   4  -1   9 37053.0 1258.32   6
  -4   1  -9 39054.8 1471.42   3
   4  -1   9 38588.3 1453.06   8
   4  -1  10 839.138 264.095   8
  -4   1 -10 1544.78 293.270   4
   4  -1  10 1541.54 264.640   6
  -4   1 -10 1358.26 315.273   3
   4  -1  10 1180.08 205.439   9
   4  -1  11 3305.43 478.853   8
  -4   1 -11 2424.74 355.359   4
   4  -1  11 3093.74 369.285   6
  -4   1 -11 2689.65 446.577   3
   4  -1  12 7717.78 591.581   6
  -4   1 -12 8787.51 810.360   3
  -4   1 -12 8700.69 665.454   4
   4  -1  12 9615.58 821.017   8
   4  -1  13 22230.3 1023.10   6
  -4   1 -13 19873.0 1288.96   3
   4  -1  13 19803.6 1258.31   8
  -4   1 -14 17484.0 1253.05   3
   4  -1  14 20067.7 1301.58   8
   4  -1  15 3156.90 559.390   8
   4   0 -13 842.832 373.569   3
   4   0 -13 840.932 362.384   5
   4   0 -13 406.673 344.209   1
  -4   0  12 15036.8 1149.45   8
  -4   0  12 14662.1 1034.72   6
   4   0 -12 12672.7 1027.11   3
   4   0 -12 15016.9 1090.25   5
   4   0 -12 11562.2 1062.68   1
  -4   0  11 30085.4 1521.75   6
   4   0 -11 28180.4 1514.53   3
  -4   0  11 31624.9 1668.57   8
   4   0 -11 27529.2 1462.88   5
   4   0 -11 26673.1 1627.19   1
  -4   0  10 28222.6 1521.29   8
  -4   0  10 25247.8 1409.78   6
   4   0 -10 25785.9 1395.23   3
   4   0 -10 25202.6 1335.98   5
   4   0 -10 25034.0 1567.11   1
   4   0  -9 27417.5 1587.14   1
  -4   0   9 27590.9 1472.75   8
  -4   0   9 26641.0 1440.15   6
   4   0  -9 24371.7 1292.03   3
   4   0  -9 24938.1 1251.93   5
   4   0  -8 544.579 323.575   1
   4   0  -8 260.315 205.964   5
   4   0  -8 286.446 227.249   3
  -4   0   8 301.708 258.971   8
   4   0  -7 7966.40 757.642   1
   4   0  -7 7177.36 598.310   3
   4   0  -7 7737.59 587.365   5
  -4   0   7 8122.00 751.101   8
  -4   0   6 45059.2 1805.51   8
  -4   0   6 42257.0 1125.07   7
   4   0  -6 41181.0 1384.90   5
  -4   0   6 41216.0 1140.53   4
   4   0  -6 42524.8 1700.85   1
   4   0  -6 42696.2 1085.51   4
  -4   0   5 78657.1 2528.69   8
   4   0  -5 74524.9 2312.30   1
   4   0  -5 77925.8 1973.71   5
  -4   0   5 80543.2 1806.03   4
   4   0  -5 79552.8 1744.85   4
   4   0  -4 115565. 2932.16   1
   4   0  -4 117328. 2505.70   5
  -4   0   4 113670. 2390.08   4
  -4   0   4 111114. 2316.25   2
   4   0  -3 70083.2 2011.87   1
   4   0  -3 68709.3 1611.69   5
  -4   0   3 66674.6 1622.87   4
  -4   0   3 67363.1 1482.52   2
   4   0  -2 5101.70 462.840   1
  -4   0   2 5170.72 360.666   4
   4   0  -2 5390.85 319.021   5
  -4   0   2 5119.05 257.819   2
  -4   0   1 6590.96 241.267   2
   4   0  -1 7170.50 341.292   3
  -4   0   1 6988.73 422.700   4
   4   0  -1 6875.68 509.779   1
   4   0  -1 7225.95 338.830   5
  -4   0   0 186183. 3602.34   4
   4   0   0 184511. 3263.31   3
   4   0   0 189839. 3865.33   1
  -4   0   0 182822. 3276.84   5
   4   0   1 297467. 5068.48   3
  -4   0  -1 296827. 5064.97   5
   4   0   1 284539. 5633.87   1
  -4   0  -1 291352. 5467.75   4
  -4   0  -2 284619. 4951.33   3
   4   0   2 293026. 4966.72   3
  -4   0  -2 291613. 5553.51   1
  -4   0  -2 287287. 4954.18   5
   4   0   2 286866. 5473.87   1
  -4   0  -2 286506. 5358.99   4
   4   0   3 144675. 3067.35   1
   4   0   3 145884. 2639.55   2
  -4   0  -3 137236. 2661.26   3
   4   0   3 140720. 2659.46   3
  -4   0  -3 140248. 2510.45   2
  -4   0  -3 138441. 2984.82   4
   4   0   4 6179.46 361.718   2
   4   0   4 6497.05 457.497   1
   4   0   4 5133.31 371.859   6
  -4   0  -4 5712.61 338.899   3
   4   0   4 5759.19 328.443   3
  -4   0  -4 5549.28 295.269   2
  -4   0  -4 6293.93 449.249   4
   4   0   5 5330.47 410.091   1
   4   0   5 5558.29 390.859   6
  -4   0  -5 5462.46 361.841   3
  -4   0  -5 5304.26 331.257   2
  -4   0  -5 5469.85 427.436   4
   4   0   5 5577.43 362.040   2
  -4   0  -6 69357.4 1886.71   4
   4   0   6 70646.4 1782.93   6
   4   0   6 75294.4 1826.50   1
  -4   0  -6 70431.9 1785.90   3
  -4   0  -6 73859.4 1748.39   2
   4   0   7 87335.0 2094.33   6
  -4   0  -7 89404.3 2183.04   3
   4   0   7 87479.8 2063.88   1
  -4   0  -7 86487.8 2122.53   2
  -4   0  -7 87360.0 2219.03   4
   4   0   7 86084.9 2194.11   8
  -4   0  -8 66511.1 1869.87   4
   4   0   8 65508.3 1757.95   6
  -4   0  -8 64268.0 1870.24   3
  -4   0  -8 65178.2 1840.82   2
   4   0   8 64742.1 1875.44   8
   4   0   8 65639.6 1624.16   9
   4   0   9 47489.2 1478.36   6
  -4   0  -9 49290.1 1652.33   3
  -4   0  -9 51651.0 1659.17   2
   4   0   9 49221.0 1326.64   9
  -4   0  -9 46868.4 1554.09   4
   4   0   9 49718.4 1637.85   8
   4   0  10 4062.91 469.885   8
   4   0  10 4085.49 319.123   9
   4   0  10 3671.83 397.446   6
  -4   0 -10 3243.50 443.643   2
  -4   0 -10 3927.74 472.384   3
  -4   0 -10 3947.22 440.757   4
   4   0  11 2322.79 392.032   8
  -4   0 -11 1929.49 316.055   4
   4   0  11 2065.52 335.315   6
  -4   0 -11 2495.96 419.113   3
   4   0  11 2631.16 241.041   9
   4   0  12 19348.8 982.654   6
  -4   0 -12 18467.8 1153.83   3
  -4   0 -12 17895.3 958.844   4
   4   0  12 17972.7 1105.97   8
   4   0  13 22415.6 1107.09   6
  -4   0 -13 23906.3 1405.07   3
   4   0  13 25285.8 1373.60   8
   4   0  14 22615.7 1121.29   6
  -4   0 -14 26545.0 1547.36   3
   4   0  14 25115.2 1404.54   8
   4   0  15 15374.3 1153.52   8
  -4   0 -15 15729.7 1223.18   3
   4   1 -13 3080.08 539.004   3
   4   1 -13 2936.37 588.199   1
   4   1 -12 12910.7 1039.79   3
   4   1 -12 16499.3 1325.59   1
   4   1 -12 15354.7 1129.63   5
  -4  -1  12 17870.2 1282.34   8
   4   1 -11 20647.3 1274.59   3
  -4  -1  11 23577.7 1275.03   6
   4   1 -11 20000.8 1507.61   1
   4   1 -11 24945.9 1397.76   5
  -4  -1  11 23175.6 1471.65   8
   4   1 -10 32381.0 1851.77   1
   4   1 -10 29853.1 1485.41   3
  -4  -1  10 33154.0 1561.85   6
   4   1 -10 32736.2 1561.17   5
  -4  -1  10 34217.0 1751.59   8
  -4  -1   9 11509.1 973.470   8
   4   1  -9 10261.1 791.670   3
  -4  -1   9 9489.11 815.161   6
   4   1  -9 9883.20 789.271   5
   4   1  -9 10247.4 952.455   1
  -4  -1   8 6552.76 731.966   8
   4   1  -8 6267.12 580.658   3
   4   1  -8 6975.75 629.395   5
   4   1  -8 7169.30 742.734   1
   4   1  -7 23835.5 1273.11   1
  -4  -1   7 22194.5 1316.15   8
   4   1  -7 23718.0 1060.29   3
   4   1  -7 23034.3 1080.20   5
   4   1  -6 54942.6 1229.72   4
  -4  -1   6 55224.6 2086.25   8
   4   1  -6 57820.8 1976.50   1
  -4  -1   6 57098.4 1397.66   7
   4   1  -6 53843.2 1626.10   3
   4   1  -6 55136.3 1696.59   5
  -4  -1   6 54604.6 1246.45   4
  -4  -1   5 108666. 3111.39   8
   4   1  -5 105955. 2844.43   1
   4   1  -5 107550. 2471.10   3
   4   1  -5 107932. 2562.64   5
  -4  -1   5 110022. 2257.71   7
  -4  -1   5 108926. 2189.36   4
   4   1  -5 109256. 2162.46   4
  -4  -1   4 102710. 2998.06   8
  -4  -1   4 104371. 2165.40   4
   4   1  -4 104051. 2663.32   1
   4   1  -4 104977. 2297.70   3
   4   1  -4 105563. 2408.82   5
  -4  -1   4 105244. 2195.61   2
  -4  -1   4 105916. 2170.85   7
   4   1  -4 105611. 2144.74   4
  -4  -1   3 72004.7 1615.67   7
   4   1  -3 69046.9 1958.18   1
  -4  -1   3 69976.2 1621.51   4
  -4  -1   3 70779.6 1563.91   2
   4   1  -3 73571.3 1637.29   3
   4   1  -3 72056.6 1740.25   5
   4   1  -3 73539.7 1616.62   4
  -4  -1   2 38.9833 79.7200   4
   4   1  -2 332.557 104.471   4
   4   1  -2 289.319 143.204   1
  -4  -1   2 364.204 84.3073   2
   4   1  -2 199.432 84.7879   5
  -4  -1   1 19488.8 707.981   4
   4   1  -1 19609.2 833.679   1
   4   1  -1 19845.5 671.669   5
  -4  -1   1 20599.9 542.761   2
   4   1   0 97845.5 1750.18   3
  -4  -1   0 102816. 1818.76   2
   4   1   0 98126.3 2277.27   1
  -4  -1   0 103587. 2004.96   5
   4   1   0 102849. 2048.01   5
  -4  -1   0 98915.9 1785.98   2
  -4  -1   0 102305. 2179.84   4
  -4  -1  -1 166649. 2905.93   2
  -4  -1  -1 165978. 3216.12   4
   4   1   1 163658. 3244.79   1
   4   1   1 153561. 2672.26   3
  -4  -1  -1 168633. 2974.18   5
  -4  -1  -1 178174. 3618.39   1
  -4  -1  -2 152529. 3109.70   4
  -4  -1  -2 149348. 2627.80   3
   4   1   2 153062. 2633.75   3
   4   1   2 152468. 3062.61   1
  -4  -1  -2 158097. 2849.42   5
  -4  -1  -2 150066. 2691.65   2
   4   1   3 121894. 2297.21   2
   4   1   3 124516. 2542.82   6
  -4  -1  -3 119893. 2241.99   3
  -4  -1  -3 118543. 2278.43   2
  -4  -1  -3 122752. 2626.69   1
   4   1   3 122685. 2522.51   1
  -4  -1  -3 127678. 2511.06   8
  -4  -1  -3 124192. 2645.90   4
   4   1   4 3449.38 276.950   2
  -4  -1  -4 3092.73 229.626   2
   4   1   4 3700.55 312.455   6
  -4  -1  -4 3259.18 227.429   3
   4   1   4 3356.07 275.262   1
  -4  -1  -4 4015.20 349.845   4
   4   1   5 29680.8 1006.87   2
   4   1   5 29892.3 982.552   6
  -4  -1  -5 28902.3 876.140   3
  -4  -1  -5 29638.6 906.314   2
   4   1   5 29106.5 955.208   9
   4   1   5 28742.6 885.548   1
  -4  -1  -5 30261.4 1057.57   4
   4   1   6 55245.2 1349.26   1
   4   1   6 55691.3 1492.44   6
  -4  -1  -6 53664.4 1430.92   3
  -4  -1  -6 54494.4 1470.50   2
   4   1   6 55583.7 1432.80   9
  -4  -1  -6 54129.3 1564.57   4
   4   1   7 129344. 2685.13   9
   4   1   7 125497. 2814.98   6
   4   1   7 126520. 2560.50   1
  -4  -1  -7 132032. 2837.55   3
  -4  -1  -7 130864. 2887.39   2
  -4  -1  -7 128803. 2929.09   4
   4   1   7 133191. 2861.13   8
   4   1   8 98667.5 2190.70   9
   4   1   8 98827.2 2090.59   1
   4   1   8 103583. 2420.61   6
  -4  -1  -8 102067. 2470.86   3
   4   1   8 102579. 1924.39   1
  -4  -1  -8 96982.6 2485.94   2
  -4  -1  -8 98164.2 2459.57   4
   4   1   8 103668. 2460.88   8
   4   1   9 19534.2 887.917   6
  -4  -1  -9 18793.9 925.971   3
   4   1   9 17939.4 647.997   1
   4   1   9 19455.9 541.175   1
  -4  -1  -9 17742.5 936.697   2
   4   1   9 18713.4 710.188   9
  -4  -1  -9 19923.6 924.071   4
   4   1   9 17858.0 882.121   8
   4   1  10 22372.3 992.385   6
  -4  -1 -10 21663.0 1071.41   3
  -4  -1 -10 22090.5 1017.18   4
  -4  -1 -10 21712.8 1104.77   2
   4   1  10 21824.0 776.596   9
   4   1  10 20541.2 1007.95   8
   4   1  11 5112.77 493.913   6
  -4  -1 -11 4492.31 474.328   4
  -4  -1 -11 4309.26 523.520   3
   4   1  11 5306.34 537.641   8
  -4  -1 -11 5042.14 563.578   2
   4   1  11 5314.58 339.460   9
   4   1  12 13506.9 851.169   6
  -4  -1 -12 12130.0 911.551   3
  -4  -1 -12 12490.7 951.392   2
   4   1  12 13223.1 891.540   8
  -4  -1 -12 12255.0 792.228   4
  -4  -1 -13 21255.5 1062.31   4
   4   1  13 21497.0 1123.41   6
  -4  -1 -13 20817.1 1279.86   3
  -4  -1 -13 18235.7 1238.02   2
   4   1  13 20622.8 1191.13   8
   4   1  14 21796.3 1170.09   6
  -4  -1 -14 19969.1 1343.03   3
   4   1  14 21476.8 1281.68   8
   4   1  15 6747.55 746.897   8
   4   1  15 6884.39 673.941   6
  -4  -1 -15 5203.20 739.214   3
   4   1  16 1850.78 436.880   8
   4   2 -13 1974.62 547.156   1
   4   2 -13 1965.31 434.303   3
   4   2 -12 8926.82 879.209   5
   4   2 -12 8454.43 807.584   3
   4   2 -12 8372.28 1054.00   1
  -4  -2  12 10038.8 1007.51   8
  -4  -2  11 19824.6 1421.61   8
   4   2 -11 17145.2 1126.42   3
   4   2 -11 20025.1 1277.01   5
   4   2 -11 17264.5 1388.58   1
  -4  -2  10 17760.8 1309.87   8
   4   2 -10 15035.5 1000.11   3
  -4  -2  10 18903.4 1094.42   6
   4   2 -10 17268.2 1143.14   5
   4   2 -10 15325.4 1243.11   1
  -4  -2   9 5468.55 716.845   8
   4   2  -9 4976.28 558.065   3
  -4  -2   9 5392.94 592.819   6
   4   2  -9 5967.22 621.585   5
   4   2  -9 4583.19 631.115   1
  -4  -2   8 2781.15 540.309   8
   4   2  -8 2014.28 428.360   1
  -4  -2   8 2104.35 367.530   6
   4   2  -8 1959.80 340.296   3
   4   2  -8 2270.84 376.475   5
   4   2  -7 1670.96 364.025   1
  -4  -2   7 2142.47 469.953   8
   4   2  -7 2282.39 335.198   3
   4   2  -7 2202.52 354.626   5
  -4  -2   6 39010.2 1783.26   8
  -4  -2   6 43539.2 1242.01   7
   4   2  -6 40651.9 1572.55   1
   4   2  -6 41125.0 1329.67   3
   4   2  -6 41900.8 1452.48   5
  -4  -2   6 38129.9 832.921   4
   4   2  -5 53268.7 1767.48   1
  -4  -2   5 49743.1 2028.23   8
  -4  -2   5 55142.0 1400.44   7
   4   2  -5 53872.2 1487.75   3
   4   2  -5 54000.4 1635.13   5
  -4  -2   5 53752.8 1174.34   4
  -4  -2   4 111682. 2283.33   7
   4   2  -4 111894. 2707.46   1
   4   2  -4 106332. 2315.71   3
   4   2  -4 109009. 2525.75   5
  -4  -2   4 107878. 2135.98   4
   4   2  -3 36013.7 964.240   4
  -4  -2   3 33666.3 1544.12   8
   4   2  -3 33111.3 1215.39   1
  -4  -2   3 34257.4 988.970   7
   4   2  -3 34524.5 950.498   3
   4   2  -3 35404.6 1128.30   5
  -4  -2   3 36131.0 984.636   2
  -4  -2   3 34892.4 933.547   4
   4   2  -2 18479.7 650.782   4
  -4  -2   2 17937.5 647.664   7
   4   2  -2 16836.1 775.929   1
   4   2  -2 18187.0 541.367   3
   4   2  -2 18152.4 725.270   5
  -4  -2   2 18238.6 605.147   2
  -4  -2   2 17318.6 620.369   4
   4   2  -1 19196.4 688.559   4
  -4  -2   1 20563.0 698.025   7
   4   2  -1 19182.2 770.291   1
  -4  -2   1 20178.2 676.169   6
   4   2  -1 18847.4 474.343   3
  -4  -2   1 19863.0 675.372   5
   4   2  -1 20036.0 716.864   5
  -4  -2   1 19673.7 690.148   4
  -4  -2   0 93992.7 1988.22   7
   4   2   0 88217.0 2051.78   1
  -4  -2   0 95093.4 1968.85   6
  -4  -2   0 93470.8 2144.28   1
  -4  -2   0 94725.8 1943.22   5
   4   2   0 90359.1 1976.91   5
  -4  -2   0 91353.5 2002.83   4
  -4  -2  -1 103107. 2026.37   2
   4   2   1 99873.4 2189.98   1
  -4  -2  -1 108178. 2178.42   6
  -4  -2  -1 103974. 2112.77   5
  -4  -2  -1 107007. 2395.84   1
  -4  -2  -1 105852. 2260.80   4
  -4  -2  -2 49157.9 1299.21   2
   4   2   2 53842.4 1295.83   1
   4   2   2 54326.9 1343.65   6
  -4  -2  -2 55040.6 1285.97   5
  -4  -2  -2 58886.2 1605.69   1
  -4  -2  -2 53151.2 1416.34   4
  -4  -2  -3 43230.2 1313.33   2
  -4  -2  -3 44653.8 1339.93   1
   4   2   3 44625.6 1056.83   2
   4   2   3 43838.3 1191.79   6
   4   2   3 43235.3 1057.17   1
  -4  -2  -3 43239.2 891.914   3
   4   2   3 43388.4 1225.13   9
  -4  -2  -3 44377.6 1280.81   4
   4   2   4 15037.8 586.204   2
   4   2   4 13825.8 615.909   9
   4   2   4 13487.4 604.678   6
   4   2   4 13840.7 463.165   1
  -4  -2  -4 13660.2 460.696   3
  -4  -2  -4 13737.6 529.823   1
  -4  -2  -4 14807.8 547.446   8
  -4  -2  -4 13241.9 620.557   2
  -4  -2  -4 13035.2 648.255   4
   4   2   5 5836.43 416.710   2
   4   2   5 5593.29 395.775   6
   4   2   5 6032.33 267.144   1
  -4  -2  -5 6124.80 342.729   3
   4   2   5 5892.04 388.324   9
  -4  -2  -5 5715.28 415.400   2
  -4  -2  -5 6200.46 350.110   8
  -4  -2  -5 5492.76 424.812   4
   4   2   6 48931.9 1393.03   6
  -4  -2  -6 47273.7 1296.34   3
   4   2   6 48063.6 1292.53   9
   4   2   6 48156.3 999.849   1
  -4  -2  -6 47793.9 1446.08   2
  -4  -2  -6 49865.0 1476.58   4
   4   2   7 38111.2 1236.56   6
  -4  -2  -7 38965.7 1201.90   3
   4   2   7 37910.1 795.250   1
   4   2   7 38289.6 762.121   1
   4   2   7 36504.3 1087.66   9
  -4  -2  -7 35794.4 1279.01   2
   4   2   7 37892.7 1165.54   8
  -4  -2  -7 36915.3 1280.44   4
   4   2   8 86002.4 1523.33   1
   4   2   8 91541.7 2235.23   6
  -4  -2  -8 91511.6 2252.46   3
  -4  -2  -8 91413.9 2394.93   2
   4   2   8 85844.4 1564.56   1
   4   2   8 89579.8 1986.73   9
   4   2   8 91589.4 2163.51   8
  -4  -2  -8 92824.4 2309.64   4
   4   2   9 42267.5 1403.59   6
  -4  -2  -9 42408.0 1435.39   3
  -4  -2  -9 41344.5 1528.15   2
   4   2   9 40092.5 1130.00   9
   4   2   9 36696.0 746.729   1
   4   2   9 41841.1 1340.62   8
  -4  -2  -9 41362.5 1404.94   4
   4   2  10 4880.87 477.166   6
  -4  -2 -10 4536.09 462.258   4
  -4  -2 -10 4076.94 468.667   3
   4   2  10 5078.42 351.579   9
  -4  -2 -10 4782.24 540.704   2
   4   2  10 4803.62 450.058   8
   4   2  10 3647.00 142.323   1
   4   2  11 384.784 187.105   8
  -4  -2 -11 1005.90 292.735   4
  -4  -2 -11 717.699 302.067   2
   4   2  11 447.885 130.331   9
   4   2  11 757.672 254.639   6
  -4  -2 -11 732.704 257.780   3
  -4  -2 -12 9457.69 715.138   4
   4   2  12 9581.41 742.376   6
  -4  -2 -12 8971.28 792.965   3
  -4  -2 -12 9130.75 847.846   2
   4   2  12 9250.00 717.043   8
   4   2  13 16421.7 1031.20   6
  -4  -2 -13 13885.9 1079.22   3
  -4  -2 -13 15998.9 1207.80   2
  -4  -2 -13 16258.0 950.669   4
   4   2  13 15134.7 985.965   8
   4   2  14 11434.5 889.962   6
  -4  -2 -14 8985.94 906.555   3
  -4  -2 -14 8838.58 935.580   2
   4   2  14 9236.73 797.560   8
   4   2  15 13693.3 977.031   6
  -4  -2 -15 11196.0 1080.88   3
  -4  -2 -15 12256.3 1179.94   2
   4   2  15 11720.3 890.237   8
   4   2  16 1005.59 305.768   8
   4   2  16 1302.46 388.698   6
   4   3 -12 2839.53 599.401   1
   4   3 -12 2696.59 475.056   3
   4   3 -12 3168.50 564.000   5
  -4  -3  11 14601.4 1281.14   8
   4   3 -11 14307.1 1015.42   3
   4   3 -11 15851.6 1152.07   5
   4   3 -11 12534.4 1187.59   1
  -4  -3  10 18476.8 1425.79   8
   4   3 -10 16209.4 1040.34   3
   4   3 -10 16198.5 1132.26   5
   4   3 -10 16075.6 1246.65   1
  -4  -3   9 18780.7 1401.22   8
   4   3  -9 18283.4 1055.00   3
   4   3  -9 18347.0 1143.93   5
   4   3  -9 19855.4 1284.84   1
  -4  -3   8 255.131 320.714   8
  -4  -3   8 261.058 228.567   6
   4   3  -8 192.292 190.519   3
   4   3  -8 86.3520 211.440   5
   4   3  -8-260.437 304.187   1
  -4  -3   7 180.112 271.057   8
  -4  -3   7 497.288 223.843   6
   4   3  -7 189.505 162.921   3
   4   3  -7 200.389 194.002   5
   4   3  -7-13.9923 188.190   1
  -4  -3   6 32262.1 1723.52   8
   4   3  -6 32267.1 1388.82   1
   4   3  -6 34913.5 1213.76   3
   4   3  -6 35819.8 1367.61   5
  -4  -3   5 52970.6 1544.34   7
   4   3  -5 50236.2 1449.45   3
   4   3  -5 53338.0 1661.03   5
  -4  -3   5 49411.8 2121.72   8
  -4  -3   5 51682.3 1079.56   4
   4   3  -5 52190.0 1732.64   1
  -4  -3   4 63505.5 1639.53   7
   4   3  -4 63939.4 1569.52   3
   4   3  -4 66743.3 1816.39   5
  -4  -3   4 63784.7 1359.98   4
   4   3  -4 61363.3 1833.61   1
  -4  -3   3 62436.8 1386.66   4
  -4  -3   3 63624.8 1559.15   7
  -4  -3   3 63980.9 1420.27   6
   4   3  -3 61337.3 1443.08   3
   4   3  -3 65401.3 1731.02   5
   4   3  -3 58928.9 1736.17   1
   4   3  -2 14032.6 692.880   1
  -4  -3   2 11898.7 903.319   8
  -4  -3   2 14248.9 528.602   6
   4   3  -2 13448.1 477.529   3
   4   3  -2 14077.8 662.396   5
  -4  -3   2 13263.4 525.198   4
   4   3  -1 218.980 119.029   1
  -4  -3   1 299.336 102.827   4
  -4  -3   1 250.956 87.3921   6
   4   3  -1 192.131 59.0764   3
   4   3  -1 468.634 142.635   5
   4   3   0 1861.76 220.771   1
  -4  -3   0 1615.16 199.775   4
   4   3   0 1587.83 87.7533   3
  -4  -3   0 1703.89 181.451   6
  -4  -3   0 1562.85 183.658   5
   4   3   0 1794.63 220.362   5
   4   3   1 302295. 5469.56   1
  -4  -3  -1 296441. 5406.66   2
   4   3   1 306759. 5460.74   6
  -4  -3  -1 319217. 5457.62   6
  -4  -3  -1 314739. 5598.70   1
  -4  -3  -1 311205. 5484.59   5
  -4  -3  -1 303543. 5572.49   4
   4   3   2 48785.1 1193.67   1
  -4  -3  -2 49372.4 1260.58   2
   4   3   2 49345.6 1265.01   6
  -4  -3  -2 52414.9 1279.33   6
  -4  -3  -2 51180.1 1349.71   1
  -4  -3  -2 52006.0 1273.29   5
  -4  -3  -2 48259.7 1346.09   4
   4   3   3 127444. 2388.30   1
  -4  -3  -3 120364. 2682.50   2
   4   3   3 126389. 2600.04   6
   4   3   3 134033. 2508.10   2
  -4  -3  -3 123407. 2699.89   4
  -4  -3  -3 124502. 2243.26   3
  -4  -3  -3 128620. 2708.40   1
  -4  -3  -3 129545. 2571.62   5
   4   3   3 119500. 2650.10   9
  -4  -3  -4 47442.3 1528.92   2
  -4  -3  -4 49531.2 1427.24   4
   4   3   4 51025.8 1060.30   1
   4   3   4 51998.9 1322.33   2
   4   3   4 51817.5 1366.01   6
  -4  -3  -4 48460.5 1123.54   3
   4   3   4 50380.5 1359.08   9
  -4  -3  -4 49706.0 1171.33   8
  -4  -3  -4 49301.6 1259.92   1
   4   3   5 4540.54 184.132   1
   4   3   5 4138.15 337.614   9
   4   3   5 4552.61 357.737   6
  -4  -3  -5 4941.04 314.775   3
  -4  -3  -5 4611.86 281.330   8
  -4  -3  -5 4337.09 436.106   2
  -4  -3  -5 4854.72 411.395   4
   4   3   6 19384.0 807.836   6
  -4  -3  -6 19521.2 747.245   3
   4   3   6 19741.2 756.976   9
  -4  -3  -6 20113.1 1014.22   2
  -4  -3  -6 19774.8 650.644   8
  -4  -3  -6 18642.9 854.592   4
   4   3   7 61097.3 1700.37   6
  -4  -3  -7 60036.0 1628.61   3
   4   3   7 59261.6 1526.73   9
  -4  -3  -7 61435.6 1991.91   2
  -4  -3  -7 59299.1 1732.11   4
   4   3   8 66287.8 1873.47   6
  -4  -3  -8 68490.5 1859.73   3
   4   3   8 65100.3 1628.18   9
  -4  -3  -8 65231.0 2118.71   2
   4   3   8 65745.2 1682.80   8
  -4  -3  -8 65161.2 1906.97   4
   4   3   9 45410.0 1520.48   6
  -4  -3  -9 42062.1 1504.46   3
  -4  -3  -9 43639.6 1754.74   2
   4   3   9 45705.5 1269.01   9
   4   3   9 45259.8 1363.85   8
  -4  -3  -9 44537.1 1524.04   4
  -4  -3 -10 13277.1 960.274   2
   4   3  10 14851.1 845.695   6
  -4  -3 -10 13345.5 850.175   3
   4   3  10 14518.6 637.654   9
   4   3  10 14375.8 752.810   8
  -4  -3 -10 14119.9 835.131   4
   4   3  11 1048.19 246.204   8
  -4  -3 -11 715.996 252.810   4
  -4  -3 -11 1284.99 344.134   2
   4   3  11 860.828 279.769   6
  -4  -3 -11 689.416 295.430   3
   4   3  11 892.619 180.459   9
   4   3  12 9505.28 763.422   6
  -4  -3 -12 8878.40 803.940   3
  -4  -3 -12 10161.3 958.050   2
   4   3  12 8780.85 682.844   8
  -4  -3 -12 9789.80 755.625   4
   4   3  13 20922.0 1219.41   6
  -4  -3 -13 18450.3 1256.75   3
  -4  -3 -13 19478.5 1405.58   2
  -4  -3 -13 19868.3 1117.68   4
   4   3  13 23500.5 1169.03   8
   4   3  14 21092.3 1281.68   6
  -4  -3 -14 16264.5 1279.03   3
  -4  -3 -14 19519.2 1487.02   2
  -4  -3 -14 20346.4 1115.93   4
   4   3  14 18610.7 1064.62   8
   4   3  15 9839.88 909.861   6
  -4  -3 -15 9444.70 1068.38   2
  -4  -3 -15 8553.84 977.802   3
   4   3  15 9382.76 756.165   8
   4   3  16 6880.14 661.607   8
  -4  -3 -16 5975.69 895.990   2
   4   3  16 7008.62 794.551   6
  -4  -3 -16 6187.55 884.938   3
   4   4 -12 3513.92 552.188   3
   4   4 -11 16365.0 1080.86   3
  -4  -4  11 16491.2 1432.56   8
   4   4 -11 16160.2 1193.15   5
   4   4 -11 13047.3 1190.82   1
  -4  -4  10 28194.0 1892.00   8
   4   4 -10 28354.1 1407.28   3
   4   4 -10 28958.1 1541.52   5
   4   4 -10 26996.8 1625.41   1
   4   4  -9 23893.9 1226.05   3
  -4  -4   9 25053.5 1746.48   8
   4   4  -9 25063.0 1364.27   5
   4   4  -9 25426.5 1476.53   1
  -4  -4   8 11483.9 1174.66   8
   4   4  -8 11901.3 798.058   3
   4   4  -8 11744.1 865.916   5
   4   4  -8 12361.3 949.898   1
  -4  -4   7 419.535 289.047   8
  -4  -4   7 709.541 222.881   6
   4   4  -7 461.587 206.406   3
   4   4  -7 1423.03 342.881   5
   4   4  -7 594.286 264.848   1
  -4  -4   6 23366.7 1492.38   8
   4   4  -6 22844.3 992.980   3
   4   4  -6 22573.0 1147.57   1
   4   4  -6 26898.5 1189.63   5
  -4  -4   5 75429.1 2710.75   8
  -4  -4   5 75056.8 1468.10   4
  -4  -4   5 77540.4 1640.70   6
   4   4  -5 76042.5 1962.67   3
   4   4  -5 78155.3 2200.08   5
   4   4  -5 74930.7 2213.08   1
  -4  -4   4 101078. 3123.39   8
  -4  -4   4 102850. 2037.33   4
  -4  -4   4 105933. 2071.13   6
   4   4  -4 102738. 2326.51   3
   4   4  -4 102534. 2580.27   5
   4   4  -4 102881. 2623.36   1
  -4  -4   3 90557.1 1819.14   6
   4   4  -3 88350.2 1969.77   3
  -4  -4   3 86795.8 2703.94   8
   4   4  -3 89528.5 2249.21   5
   4   4  -3 91748.6 2244.48   9
   4   4  -3 88083.6 2267.82   1
  -4  -4   3 88687.7 1850.00   4
  -4  -4   2 18887.9 1077.57   8
   4   4  -2 20495.3 665.126   3
  -4  -4   2 20090.0 624.884   6
   4   4  -2 19818.7 835.562   5
   4   4  -2 21181.9 877.350   9
   4   4  -2 19953.3 858.919   1
  -4  -4   2 19037.3 672.756   4
  -4  -4   1 919.172 267.772   8
  -4  -4   1 1059.03 167.785   4
   4   4  -1 950.821 167.356   7
   4   4  -1 1057.60 197.230   1
  -4  -4   1 800.532 120.290   6
   4   4  -1 902.787 118.277   3
  -4  -4   1 1001.01 123.020   3
   4   4  -1 948.365 192.426   5
   4   4  -1 1166.10 213.973   9
   4   4   0 67352.6 1663.97   1
   4   4   0 68174.4 1639.24   7
   4   4   0 67247.4 1350.38   3
  -4  -4   0 70756.2 1515.86   6
  -4  -4   0 68947.6 1342.89   3
   4   4   0 64848.7 1744.56   9
  -4  -4   0 64748.6 2093.99   8
   4   4   0 67818.2 1705.33   5
  -4  -4   0 66294.1 1630.75   4
  -4  -4  -1 63851.9 1610.73   4
   4   4   1 64482.4 1693.24   9
   4   4   1 63533.1 1581.58   7
  -4  -4  -1 66772.3 1553.53   1
  -4  -4  -1 62537.0 1537.71   2
   4   4   1 62587.4 1469.67   6
  -4  -4  -1 66537.4 1477.67   6
  -4  -4  -1 62872.7 1232.70   3
   4   4   1 64024.7 1606.93   5
   4   4   1 64121.3 1533.89   1
  -4  -4  -2 486898. 7915.02   4
   4   4   2 493975. 7829.52   7
  -4  -4  -2 484239. 7793.40   2
  -4  -4  -2 485920. 7322.58   3
  -4  -4  -2 494069. 7702.04   1
   4   4   2 498147. 7694.69   6
  -4  -4  -2 518863. 7693.80   6
   4   4   2 494771. 7619.86   1
  -4  -4  -3 81872.5 2014.58   4
   4   4   3 83641.8 1946.67   7
  -4  -4  -3 81203.8 1969.23   2
  -4  -4  -3 79892.1 1609.97   3
   4   4   3 79460.9 1972.48   9
   4   4   3 83189.5 1877.08   6
  -4  -4  -3 82399.4 1799.33   1
   4   4   3 81950.3 1684.06   1
  -4  -4  -4 46432.8 1416.63   4
  -4  -4  -4 46057.8 1444.12   2
   4   4   4 46217.2 1337.08   7
   4   4   4 47019.4 1292.71   6
  -4  -4  -4 48787.4 1210.08   1
   4   4   4 46147.8 1010.01   1
   4   4   4 45177.1 1324.79   9
  -4  -4  -4 44898.9 1049.24   8
  -4  -4  -5 336.312 80.7073   8
  -4  -4  -5 152.265 143.008   4
   4   4   5 208.364 126.160   6
  -4  -4  -5 275.774 148.809   2
  -4  -4  -5 368.040 76.9121   1
   4   4   5 200.450 131.741   9
  -4  -4  -6 52252.1 1613.72   4
  -4  -4  -6 49173.5 1703.16   2
   4   4   6 54821.3 1538.94   6
   4   4   6 52076.5 1446.85   9
  -4  -4  -6 52884.0 1184.83   8
  -4  -4  -7 98587.5 2519.13   4
   4   4   7 99753.7 2420.12   6
   4   4   7 97150.2 2240.57   9
  -4  -4  -7 101031. 1985.22   8
  -4  -4  -8 103471. 2089.29   8
   4   4   8 103551. 2577.75   6
  -4  -4  -8 103051. 2655.91   4
   4   4   8 103425. 2330.69   9
  -4  -4  -8 98526.4 2921.00   2
   4   4   9 79273.8 1913.82   9
   4   4   9 82189.7 2250.01   6
  -4  -4  -9 77430.4 2284.10   3
  -4  -4  -9 75070.7 2586.69   2
   4   4   9 79530.0 1913.07   8
  -4  -4  -9 79265.0 2289.01   4
   4   4  10 10777.0 760.418   6
  -4  -4 -10 11123.4 810.618   3
  -4  -4 -10 13470.2 1028.02   2
   4   4  10 12202.9 596.667   9
   4   4  10 11814.6 639.417   8
  -4  -4 -10 11469.8 790.542   4
   4   4  11 5103.80 557.223   6
  -4  -4 -11 5663.84 718.053   2
  -4  -4 -11 5232.58 608.191   3
   4   4  11 5738.59 482.142   8
  -4  -4 -11 6251.67 628.012   4
   4   4  12 10831.1 710.516   8
   4   4  12 10151.7 813.851   6
  -4  -4 -12 9236.79 856.820   3
  -4  -4 -12 10711.8 1051.80   2
  -4  -4 -12 10964.4 854.012   4
   4   4  13 21241.9 1279.00   6
  -4  -4 -13 18873.2 1339.32   3
   4   4  13 22905.5 1071.38   8
  -4  -4 -13 21944.0 1544.71   2
  -4  -4 -13 20683.1 1213.49   4
   4   4  14 27620.4 1558.30   6
  -4  -4 -14 26146.8 1703.74   3
  -4  -4 -14 26231.0 1787.26   2
   4   4  14 26840.2 1208.07   8
  -4  -4 -14 31538.3 1517.37   4
   4   4  15 12600.6 1068.66   6
  -4  -4 -15 10835.7 1155.74   3
  -4  -4 -15 10774.5 1190.36   2
   4   4  15 11867.8 796.894   8
  -4  -4 -16 2513.48 620.922   2
   4   4  16 2280.60 500.557   6
  -4  -4 -16 2715.33 677.508   3
   4   5 -12 13866.5 1048.55   3
   4   5 -11 17831.6 1130.49   3
   4   5 -11 18583.2 1276.37   5
  -4  -5  11 16896.2 1585.96   8
  -4  -5  10 31983.5 2165.41   8
   4   5 -10 29645.7 1447.04   3
   4   5 -10 33553.6 1705.43   5
  -4  -5   9 25353.3 1810.54   8
   4   5  -9 24640.1 1270.45   3
   4   5  -9 27069.5 1452.94   5
   4   5  -9 27098.8 1553.08   1
  -4  -5   8 2046.01 522.549   8
   4   5  -8 1347.36 362.472   1
   4   5  -8 1066.93 275.763   3
   4   5  -8 1516.89 384.075   5
  -4  -5   7 39.4076 263.564   8
   4   5  -7 281.242 188.970   3
   4   5  -7 223.986 199.141   1
   4   5  -7 322.850 258.547   5
  -4  -5   6 24610.2 1433.78   8
   4   5  -6 23051.0 1030.71   3
  -4  -5   6 21320.7 910.704   6
   4   5  -6 24556.3 1195.35   5
   4   5  -6 24181.4 1219.39   1
  -4  -5   5 92654.5 2847.14   8
   4   5  -5 90316.9 2232.17   3
   4   5  -5 89726.5 2467.14   5
   4   5  -5 90376.6 2517.44   1
  -4  -5   5 87046.5 1686.57   4
  -4  -5   4 80896.2 2505.51   8
   4   5  -4 78569.9 1815.53   7
   4   5  -4 75190.7 1941.95   3
  -4  -5   4 80540.5 1582.42   6
   4   5  -4 83247.5 2244.97   5
   4   5  -4 77453.3 2230.05   1
  -4  -5   4 79518.2 1670.66   4
  -4  -5   3 95269.1 2640.39   8
   4   5  -3 93495.1 2091.54   7
   4   5  -3 92311.6 2128.39   3
  -4  -5   3 94427.5 1842.13   6
   4   5  -3 101207. 2494.56   9
   4   5  -3 96944.8 2426.75   5
   4   5  -3 91149.9 2381.65   1
  -4  -5   3 91795.3 1984.03   4
  -4  -5   2 26060.8 844.866   4
  -4  -5   2 26768.5 1159.42   8
   4   5  -2 24729.9 869.576   7
   4   5  -2 25807.1 837.589   3
  -4  -5   2 26391.5 710.687   6
  -4  -5   2 25389.9 789.089   3
   4   5  -2 27231.9 1053.57   5
   4   5  -2 24684.7 1004.55   1
   4   5  -2 27066.1 1071.97   9
  -4  -5   1 6623.24 412.351   4
   4   5  -1 6874.57 431.446   7
   4   5  -1 6508.66 496.101   9
   4   5  -1 6698.13 364.555   3
  -4  -5   1 6505.24 322.858   6
  -4  -5   1 6652.00 340.967   3
  -4  -5   1 6631.12 525.275   8
   4   5  -1 7273.57 503.651   5
   4   5  -1 6292.89 458.830   1
  -4  -5   0 82611.8 1963.89   4
  -4  -5   0 81210.1 2123.10   8
   4   5   0 81149.9 1948.34   7
   4   5   0 80444.1 1717.60   3
   4   5   0 82346.7 1737.07   6
  -4  -5   0 85495.6 1751.16   6
  -4  -5   0 84118.0 1698.32   3
   4   5   0 82380.6 2036.30   5
   4   5   0 81961.9 1980.41   1
   4   5   0 83611.5 2124.59   9
  -4  -5  -1 134821. 2952.60   4
  -4  -5  -1 133784. 3016.50   8
   4   5   1 139347. 2718.45   6
  -4  -5  -1 138995. 2917.30   2
  -4  -5  -1 141342. 2605.47   3
  -4  -5  -1 145337. 2738.08   6
   4   5   1 139354. 2939.22   7
   4   5   1 140366. 2972.23   5
   4   5   1 137167. 2858.79   1
   4   5   1 140882. 3074.95   9
   4   5   2 187703. 3852.28   9
  -4  -5  -2 185669. 3536.57   1
  -4  -5  -2 184182. 3760.84   8
   4   5   2 185242. 3747.92   7
  -4  -5  -2 187325. 3737.28   2
  -4  -5  -2 186036. 3378.23   3
   4   5   2 185697. 3547.86   6
  -4  -5  -2 194989. 3556.84   6
   4   5   2 186182. 3550.54   1
   4   5   3 153064. 3198.69   7
  -4  -5  -3 154341. 2927.27   1
  -4  -5  -3 151222. 3199.45   2
  -4  -5  -3 146206. 2843.30   3
   4   5   3 152440. 3033.00   6
   4   5   3 154921. 3252.82   9
   4   5   4 43174.2 1317.04   9
  -4  -5  -4 40930.5 1351.96   2
   4   5   4 41290.6 1294.51   7
  -4  -5  -4 39936.2 1099.32   3
  -4  -5  -4 41105.6 1029.88   1
   4   5   4 40591.9 1210.92   6
  -4  -5  -4 40149.4 901.463   8
  -4  -5  -5 10690.7 676.949   4
  -4  -5  -5 9933.80 663.528   2
   4   5   5 10914.0 604.300   9
   4   5   5 10223.6 608.748   7
  -4  -5  -5 10208.7 416.895   1
   4   5   5 9947.25 565.134   6
  -4  -5  -5 10924.5 360.971   8
  -4  -5  -6 34307.3 1323.20   4
  -4  -5  -6 36064.6 1428.90   2
   4   5   6 33013.7 1130.71   9
   4   5   6 33753.2 1218.02   7
   4   5   6 33577.4 1179.00   6
  -4  -5  -6 34478.2 800.294   8
  -4  -5  -7 134090. 2446.05   8
  -4  -5  -7 129331. 3216.99   4
  -4  -5  -7 127940. 3287.56   2
   4   5   7 129257. 3042.43   7
   4   5   7 135743. 3062.20   6
   4   5   7 132172. 2902.73   9
  -4  -5  -8 87530.3 1749.79   8
   4   5   8 86690.0 2341.73   6
  -4  -5  -8 86939.2 2485.50   4
   4   5   8 87275.1 2125.30   9
  -4  -5  -8 85440.7 2563.81   2
  -4  -5  -9 64283.3 1436.54   8
  -4  -5  -9 63109.5 2111.66   4
  -4  -5  -9 61587.9 2188.88   2
   4   5   9 64291.3 2002.82   6
   4   5  10 8264.68 687.144   6
  -4  -5 -10 9111.68 768.654   4
  -4  -5 -10 8144.48 776.184   2
   4   5  10 8073.39 489.760   8
   4   5  11 244.172 145.247   8
  -4  -5 -11 1119.76 341.766   4
  -4  -5 -11 870.232 314.056   2
   4   5  11 464.620 207.184   6
  -4  -5 -12 4143.79 588.412   4
  -4  -5 -12 5038.70 691.842   2
   4   5  12 4351.52 573.490   6
   4   5  12 5458.02 450.825   8
  -4  -5 -13 19404.2 1386.47   2
   4   5  13 20000.8 1275.17   6
  -4  -5 -13 16540.5 1352.72   3
   4   5  13 18740.4 882.822   8
  -4  -5 -13 19559.0 1295.60   4
   4   5  14 24672.9 1519.48   6
  -4  -5 -14 21749.0 1661.65   3
  -4  -5 -14 26176.6 1682.79   2
  -4  -5 -14 27558.4 1541.54   4
   4   5  15 12729.8 1118.57   6
  -4  -5 -15 10816.2 1213.90   3
  -4  -5 -15 12833.2 1206.29   2
   4   5  16 5170.02 750.765   6
  -4  -5 -16 2930.44 721.982   3
   4   6 -11 12911.4 966.503   3
   4   6 -10 15147.6 1013.95   3
   4   6 -10 15911.3 1169.96   5
  -4  -6  10 16413.3 1487.70   8
  -4  -6   9 12340.2 1196.02   8
   4   6  -9 11128.8 844.470   3
   4   6  -9 12291.3 998.056   5
  -4  -6   8 9780.04 1001.96   8
   4   6  -8 7860.58 683.399   3
   4   6  -8 8966.15 822.467   5
  -4  -6   7 11081.6 976.315   8
   4   6  -7 9635.26 724.398   3
   4   6  -7 11199.8 862.733   5
  -4  -6   6 8462.80 797.090   8
   4   6  -6 8736.57 648.473   3
   4   6  -6 9159.68 748.351   5
   4   6  -6 8334.71 728.082   1
   4   6  -5 64996.4 1607.20   7
   4   6  -5 61457.8 1822.89   3
   4   6  -5 62273.0 2011.56   5
   4   6  -5 59947.9 2020.55   1
  -4  -6   5 66150.2 2200.48   8
  -4  -6   5 61068.1 1329.54   4
  -4  -6   4 91568.2 2563.03   8
   4   6  -4 88747.5 2049.12   7
   4   6  -4 88142.3 2195.62   3
   4   6  -4 90399.9 2466.26   5
   4   6  -4 89010.5 2478.11   1
  -4  -6   4 84519.6 1874.41   4
  -4  -6   3 47014.8 1285.76   4
  -4  -6   3 50928.5 1673.29   8
   4   6  -3 49796.8 1387.97   7
   4   6  -3 48893.3 1428.24   3
  -4  -6   3 49642.5 1035.70   6
   4   6  -3 50651.7 1653.28   5
   4   6  -3 49070.2 1634.65   1
  -4  -6   2 27537.6 931.857   4
  -4  -6   2 27687.8 1100.28   8
   4   6  -2 28389.0 988.574   7
   4   6  -2 26124.6 929.666   3
  -4  -6   2 27257.6 703.259   6
   4   6  -2 27965.5 1128.90   5
   4   6  -2 27655.6 1117.72   1
  -4  -6   1 205.000 113.022   8
   4   6  -1 368.433 160.912   7
  -4  -6   1 164.472 77.4341   6
   4   6  -1-62.0311 89.8096   3
   4   6  -1 41.1766 138.605   1
  -4  -6   1 20.4160 68.1049   3
   4   6  -1 90.5139 151.819   5
  -4  -6   0 43458.3 1260.28   8
   4   6   0 41915.2 1146.96   3
   4   6   0 42168.3 1038.65   6
   4   6   0 39672.1 1295.54   7
  -4  -6   0 42880.9 1102.59   3
  -4  -6   0 43684.0 1067.64   6
   4   6   0 41984.7 1361.16   5
   4   6   0 42526.8 1457.89   9
  -4  -6  -1 71106.5 1684.57   8
   4   6   1 70912.8 1667.52   3
   4   6   1 69125.3 1578.30   6
  -4  -6  -1 70102.7 1856.22   2
   4   6   1 71967.8 1996.17   9
  -4  -6  -1 72512.5 1592.55   3
  -4  -6  -1 70230.5 1593.71   6
   4   6   1 70860.4 1868.13   5
   4   6   1 72183.6 1870.68   7
  -4  -6  -2 81542.9 1768.11   8
   4   6   2 81054.6 2086.22   7
  -4  -6  -2 80264.4 2051.67   2
  -4  -6  -2 81236.6 1754.82   3
   4   6   2 81746.8 1832.88   6
   4   6   2 82208.6 2160.45   9
  -4  -6  -3 47848.7 1203.17   1
  -4  -6  -3 44931.7 1420.10   2
  -4  -6  -3 45033.3 1176.75   3
   4   6   3 45043.1 1270.85   6
  -4  -6  -3 46032.9 1081.87   8
   4   6   3 45317.5 1465.04   9
   4   6   3 46998.3 1456.43   7
  -4  -6  -4 9533.88 356.236   8
  -4  -6  -4 10072.3 443.994   1
   4   6   4 10102.8 635.251   7
  -4  -6  -4 9792.49 629.020   2
  -4  -6  -4 9443.10 475.597   3
   4   6   4 9988.20 547.454   6
  -4  -6  -4 9677.85 296.972   8
   4   6   4 10279.1 632.370   9
  -4  -6  -5 605.299 60.6000   8
  -4  -6  -5 634.519 114.621   1
   4   6   5 319.229 171.761   7
   4   6   5 724.128 185.826   6
   4   6   5 550.012 188.503   9
  -4  -6  -6 20916.4 467.031   8
  -4  -6  -6 22080.3 1098.13   2
   4   6   6 20378.1 972.096   7
  -4  -6  -6 21713.2 598.917   1
   4   6   6 21889.8 941.815   6
  -4  -6  -7 35786.0 1486.24   2
  -4  -6  -7 32265.4 702.492   8
   4   6   7 34447.4 1321.92   7
   4   6   7 32027.3 1244.63   6
   4   6   8 59438.9 1905.69   7
  -4  -6  -8 57616.5 1194.67   8
   4   6   8 61044.3 1894.73   6
  -4  -6  -8 58689.8 2036.98   2
  -4  -6  -9 42628.1 1762.75   4
   4   6   9 41095.8 1598.17   7
   4   6   9 45902.3 1666.81   6
  -4  -6  -9 42240.1 1721.75   2
  -4  -6 -10 30653.6 1536.99   4
   4   6  10 28565.4 1366.25   6
  -4  -6 -10 29929.7 1482.29   2
   4   6  11 231.577 120.055   8
  -4  -6 -11 467.319 282.344   4
  -4  -6 -11 307.227 243.571   2
   4   6  11 91.9601 265.946   6
  -4  -6 -12 3401.83 613.596   4
  -4  -6 -12 3432.66 566.057   2
   4   6  12 1891.25 426.246   6
   4   6  13 18638.2 1291.25   6
  -4  -6 -13 17372.3 1276.89   2
  -4  -6 -13 14788.0 1403.75   3
  -4  -6 -13 18597.4 1357.90   4
  -4  -6 -14 12216.6 1079.48   4
   4   6  14 12570.6 1115.14   6
  -4  -6 -14 10070.3 1189.10   3
  -4  -6 -14 12808.6 1133.54   2
   4   6  15 11698.1 1125.09   6
  -4  -6 -15 9902.33 1048.56   2
  -4  -6 -16 1784.91 549.392   3
  -4  -7  10 10426.8 1100.13   8
   4   7 -10 8241.37 764.061   3
   4   7  -9 11118.7 859.268   3
   4   7  -9 13384.4 1050.43   5
  -4  -7   9 12733.4 1160.65   8
  -4  -7   8 7551.91 848.493   8
   4   7  -8 5619.06 588.286   3
   4   7  -8 7384.66 769.425   5
  -4  -7   7 637.997 303.087   8
   4   7  -7 1102.63 300.522   3
   4   7  -7 1078.94 332.553   5
  -4  -7   6 9600.08 818.130   8
   4   7  -6 9551.94 528.444   7
   4   7  -6 9635.12 703.097   3
   4   7  -6 10573.4 827.582   5
  -4  -7   5 19964.7 1101.21   8
   4   7  -5 19986.3 828.640   7
   4   7  -5 20164.2 990.336   3
   4   7  -5 20606.2 1111.45   5
  -4  -7   4 36011.6 1423.15   8
  -4  -7   4 37272.7 1071.69   4
   4   7  -4 36157.7 1204.15   7
   4   7  -4 34065.1 1277.70   3
   4   7  -4 38120.9 1493.12   5
  -4  -7   3 47988.0 1583.49   8
   4   7  -3 46955.2 1477.92   3
   4   7  -3 48676.2 1451.66   7
   4   7  -3 49807.1 1692.60   5
  -4  -7   2 11937.9 671.640   8
   4   7  -2 12412.3 679.100   7
   4   7  -2 13441.5 679.390   3
  -4  -7   2 12685.1 425.653   6
   4   7  -2 13104.7 778.488   5
  -4  -7   1 3646.14 341.594   8
   4   7  -1 4203.49 397.350   7
   4   7  -1 3792.28 350.462   3
  -4  -7   1 3702.66 246.009   6
   4   7  -1 3636.88 405.820   5
  -4  -7   0 9529.47 500.991   8
   4   7   0 9432.35 606.094   7
   4   7   0 9041.52 522.849   3
   4   7   0 10458.3 421.338   6
  -4  -7   0 9123.12 425.432   6
   4   7   0 9196.24 612.731   5
  -4  -7  -1 48342.2 1224.82   8
   4   7   1 47618.9 1527.41   7
   4   7   1 48710.9 1385.50   3
  -4  -7  -1 46590.7 1494.09   2
   4   7   1 49939.5 1208.14   6
  -4  -7  -1 47839.1 1238.60   6
   4   7   1 48601.2 1512.80   5
  -4  -7  -2 82145.9 1705.76   8
   4   7   2 82548.1 2219.09   7
  -4  -7  -2 84240.4 2182.12   2
   4   7   2 84133.0 1878.28   6
  -4  -7  -3 107229. 1987.15   8
  -4  -7  -3 108502. 2646.53   2
   4   7   3 108780. 2387.10   6
   4   7   3 107955. 2701.86   7
   4   7   4 35474.5 1357.11   7
  -4  -7  -4 38816.8 1384.76   2
   4   7   4 37045.3 1191.22   6
  -4  -7  -4 36276.2 1031.03   1
  -4  -7  -5 11999.6 772.408   2
   4   7   5 10572.8 717.915   7
   4   7   5 11394.7 645.434   6
  -4  -7  -5 11364.3 478.888   1
  -4  -7  -6 2546.13 207.299   1
   4   7   6 2266.25 368.338   7
   4   7   6 2219.51 315.452   6
  -4  -7  -6 2311.11 388.318   2
  -4  -7  -7 24443.6 1275.19   2
  -4  -7  -7 25577.0 666.728   1
   4   7   7 24219.6 1173.88   7
   4   7   7 25241.2 1111.40   6
  -4  -7  -7 24940.4 678.399   1
  -4  -7  -8 31434.4 1462.89   2
   4   7   8 31454.0 1392.91   7
   4   7   8 34007.2 1382.20   6
   4   7   9 34373.2 1513.97   7
   4   7   9 33563.2 1470.27   6
  -4  -7  -9 36907.4 1611.07   2
   4   7  10 16511.6 1034.59   7
   4   7  10 17105.4 1070.25   6
  -4  -7 -10 17992.9 1129.75   2
  -4  -7 -11 5714.44 742.153   4
   4   7  11 6889.54 714.534   6
  -4  -7 -11 8036.37 782.505   2
  -4  -7 -12 2561.79 543.246   4
  -4  -7 -12 2022.42 449.179   2
   4   7  12 1799.61 428.983   6
  -4  -7 -13 5476.32 747.696   4
   4   7  13 5660.64 753.062   6
  -4  -7 -13 6388.34 791.832   2
  -4  -7 -14 12270.6 1102.66   2
   4   7  14 14715.8 1236.73   6
  -4  -7 -14 13582.5 1127.05   4
   4   7  15 11164.0 1094.57   6
  -4  -7 -15 11489.4 1225.18   3
  -4  -7 -15 12866.7 1051.24   4
   4   8 -10 13842.1 1003.32   3
   4   8  -9 13311.6 948.226   3
   4   8  -9 14770.0 1123.63   5
  -4  -8   9 13576.9 1157.84   8
   4   8  -8 7893.93 720.450   3
   4   8  -8 10675.1 930.460   5
  -4  -8   8 9311.54 910.958   8
  -4  -8   7 2042.86 436.080   8
   4   8  -7 1907.06 378.878   3
   4   8  -7 2185.72 447.883   5
   4   8  -6 6774.61 469.660   7
   4   8  -6 5544.25 567.757   3
   4   8  -6 6131.97 675.129   5
  -4  -8   6 6169.43 673.800   8
   4   8  -5 27832.3 1063.34   7
   4   8  -5 25477.7 1198.09   3
   4   8  -5 29335.6 1392.70   5
  -4  -8   5 28213.7 1326.01   8
   4   8  -4 66532.8 1902.32   7
   4   8  -4 69738.0 2068.46   3
   4   8  -4 71229.4 2249.66   5
  -4  -8   4 67749.6 2093.52   8
   4   8  -3 40906.6 1410.83   7
   4   8  -3 40559.8 1439.56   3
   4   8  -3 43459.8 1614.47   5
  -4  -8   3 42449.8 1452.65   8
   4   8  -2 36327.9 1319.95   7
   4   8  -2 35888.9 1294.21   3
   4   8  -2 37104.0 1440.23   5
  -4  -8   2 38220.1 1285.45   8
  -4  -8   1 1060.39 215.588   8
   4   8  -1 1049.41 252.287   7
   4   8  -1 1355.22 247.606   3
   4   8  -1 1416.97 301.308   5
   4   8   0 3986.32 381.262   3
   4   8   0 3209.56 391.712   7
   4   8   0 3872.56 246.596   6
  -4  -8   0 3365.39 289.673   6
   4   8   0 3927.37 431.431   5
  -4  -8   0 3244.10 398.713   2
  -4  -8   0 3509.58 303.471   8
   4   8   1 57700.4 1665.01   3
   4   8   1 56894.8 1798.85   7
  -4  -8  -1 57637.3 1785.79   2
   4   8   1 56890.0 1357.32   6
  -4  -8  -1 54266.4 1487.66   6
  -4  -8  -1 57857.6 1372.63   8
   4   8   2 57872.5 1859.40   7
  -4  -8  -2 58175.8 1801.20   2
   4   8   2 59355.4 1478.21   6
  -4  -8  -2 57675.0 1280.83   8
   4   8   3 112961. 2914.66   7
  -4  -8  -3 117647. 2850.10   2
   4   8   3 115874. 2501.38   6
  -4  -8  -3 109877. 2003.83   8
   4   8   4 59339.3 1950.77   7
  -4  -8  -4 59994.2 1887.54   2
   4   8   4 59958.9 1661.23   6
  -4  -8  -5 11355.1 785.177   2
   4   8   5 10779.2 772.356   7
   4   8   5 10551.9 649.048   6
   4   8   6 3206.41 466.898   7
   4   8   6 3887.20 418.482   6
  -4  -8  -6 3215.13 457.111   2
  -4  -8  -7 41494.9 1705.64   2
   4   8   7 39454.2 1617.77   7
   4   8   7 37667.4 1458.06   6
  -4  -8  -8 92802.4 2858.56   2
   4   8   8 89209.3 2675.22   7
  -4  -8  -8 90435.1 1831.08   1
   4   8   8 90127.0 2621.60   6
   4   8   9 42221.6 1691.71   6
   4   8   9 36447.1 1570.71   7
  -4  -8  -9 41240.3 1768.56   2
   4   8  10 30517.3 1428.75   7
   4   8  10 33645.2 1594.09   6
   4   8  11 1041.82 298.267   7
  -4  -8 -11 1691.24 433.883   2
   4   8  11 1485.80 421.809   6
   4   8  12 637.248 243.126   7
  -4  -8 -12 501.039 282.523   2
   4   8  12 155.802 291.776   6
  -4  -8 -13 8444.22 889.471   4
   4   8  13 9461.82 964.862   6
  -4  -8 -13 10119.4 975.908   2
  -4  -8 -14 18479.0 1279.60   4
   4   8  14 18455.7 1366.32   6
  -4  -8 -14 19619.5 1376.94   2
   4   8  15 11853.0 1103.19   6
  -4  -8 -15 9391.72 901.243   4
   4   9  -9 15683.1 1067.03   3
  -4  -9   8 5578.76 706.507   8
   4   9  -8 3569.95 501.547   3
   4   9  -8 4467.48 641.639   5
  -4  -9   7 510.931 311.061   8
   4   9  -7 72.1049 246.060   3
   4   9  -7-98.3919 287.631   5
  -4  -9   6 5926.23 648.783   8
   4   9  -6 6285.37 626.764   3
   4   9  -6 8081.32 803.179   5
   4   9  -5 20899.7 968.905   7
   4   9  -5 21120.1 1116.24   3
   4   9  -5 23061.0 1266.80   5
  -4  -9   5 22375.5 1164.85   8
   4   9  -4 58136.5 1835.83   7
  -4  -9   4 61546.5 1965.28   8
   4   9  -4 61273.4 1984.42   3
   4   9  -4 63542.8 2164.74   5
   4   9  -3 55233.5 1808.72   7
   4   9  -3 55127.2 1817.37   3
   4   9  -3 56300.3 1971.08   5
  -4  -9   3 55961.6 1765.52   8
   4   9  -2 30313.8 1254.05   3
   4   9  -2 31548.2 1373.20   5
   4   9  -2 30156.8 1270.28   7
  -4  -9   2 30821.3 1150.52   8
   4   9  -1 2327.63 368.451   7
   4   9  -1 3168.84 397.700   3
   4   9  -1 2922.69 426.346   5
  -4  -9   1 2931.68 318.298   8
   4   9   0 11609.8 775.326   7
   4   9   0 11301.6 718.009   3
   4   9   0 11686.6 428.852   6
  -4  -9   0 12628.9 803.525   2
   4   9   0 12463.9 796.790   5
  -4  -9   0 12400.2 580.546   8
   4   9   1 64296.1 1900.76   3
   4   9   1 61275.6 2006.72   7
  -4  -9  -1 61864.2 1966.81   2
   4   9   1 63152.8 1460.37   6
  -4  -9  -1 60551.2 1461.56   8
   4   9   2 112267. 3045.58   7
  -4  -9  -2 115656. 2962.00   2
   4   9   2 118812. 2500.64   6
  -4  -9  -2 115030. 2212.51   8
  -4  -9  -3 50522.4 977.528   8
   4   9   3 50923.1 1847.52   7
  -4  -9  -3 57318.0 1843.01   2
   4   9   3 56330.9 1506.11   6
   4   9   4 33480.4 1471.82   7
  -4  -9  -4 35392.9 1429.56   2
   4   9   4 33513.8 1189.08   6
   4   9   5 182.065 218.416   7
   4   9   5-34.1412 156.504   6
  -4  -9  -5 522.902 274.770   2
  -4  -9  -6 16099.7 1018.04   2
   4   9   6 15241.7 994.072   7
   4   9   6 16110.2 885.352   6
  -4  -9  -7 40489.4 1737.53   2
   4   9   7 37662.0 1625.03   7
   4   9   7 42330.2 1591.86   6
  -4  -9  -8 64714.2 2362.42   2
   4   9   8 61749.5 2150.61   7
  -4  -9  -8 64066.2 1521.94   1
   4   9   8 65917.8 2177.63   6
  -4  -9  -9 58253.1 2239.46   2
   4   9   9 53576.2 1974.93   7
   4   9   9 58920.0 2128.34   6
   4   9  10 11180.3 841.649   7
   4   9  10 10382.7 906.483   6
  -4  -9 -10 11340.1 939.124   2
   4   9  11 4144.56 508.015   7
  -4  -9 -11 4596.33 657.950   2
   4   9  11 4276.12 624.673   6
   4   9  12 2640.12 439.897   7
  -4  -9 -12 2524.05 506.055   2
   4   9  12 2342.24 465.825   6
  -4  -9 -13 11866.9 1046.52   4
  -4  -9 -13 12574.7 1083.38   2
   4   9  13 10580.5 1014.30   6
  -4  -9 -14 10297.7 945.787   4
   4   9  14 10724.1 1045.49   6
  -4  -9 -14 12181.2 1082.55   2
  -4  -9 -15 13749.0 1074.91   4
   4  10  -8 5371.85 633.140   3
  -4 -10   7 311.152 264.038   8
   4  10  -7-2.83981 231.038   3
   4  10  -7 117.810 279.335   5
   4  10  -6 7102.09 681.025   3
   4  10  -6 7591.88 786.096   5
  -4 -10   6 7090.27 673.048   8
   4  10  -5 27238.4 1163.81   7
   4  10  -5 25877.9 1274.10   3
   4  10  -5 27053.7 1440.16   5
  -4 -10   5 27684.1 1276.12   8
   4  10  -4 22940.5 1101.33   7
   4  10  -4 23243.1 1187.63   3
   4  10  -4 24239.5 1309.24   5
  -4 -10   4 22692.0 1098.47   8
   4  10  -3 45404.4 1684.70   7
   4  10  -3 45122.7 1699.84   3
   4  10  -3 46973.1 1838.05   5
  -4 -10   3 46513.1 1569.69   8
   4  10  -2 9761.67 757.970   7
   4  10  -2 9837.30 732.390   3
   4  10  -2 10856.4 824.716   5
  -4 -10   2 10364.4 630.769   8
  -4 -10   1 657.603 176.730   8
   4  10  -1 1091.62 293.999   7
   4  10  -1 525.115 250.815   3
  -4 -10   1 687.567 268.619   2
   4  10  -1 920.934 299.101   5
   4  10   0 4227.82 513.879   7
   4  10   0 4125.94 475.058   3
  -4 -10   0 4244.23 334.124   8
  -4 -10   0 4183.65 524.272   2
   4  10   0 3803.27 475.827   5
  -4 -10  -1 34296.8 1489.40   2
   4  10   1 35604.4 966.396   6
   4  10   1 35061.7 1518.21   7
  -4 -10  -1 36187.8 991.454   8
  -4 -10  -2 53988.9 1887.88   2
   4  10   2 52159.8 1406.96   6
   4  10   2 55134.0 1978.29   7
   4  10   3 49722.2 1940.53   7
  -4 -10  -3 51900.1 1875.67   2
   4  10   3 54177.7 1525.07   6
   4  10   4 25281.3 1328.85   7
  -4 -10  -4 25551.1 1265.82   2
   4  10   4 24589.9 1025.94   6
   4  10   5 435.302 270.553   7
   4  10   5 601.130 209.455   6
  -4 -10  -5 470.789 244.431   2
   4  10   6 663.644 320.755   7
   4  10   6 1534.13 296.320   6
  -4 -10  -6 1067.66 310.129   2
  -4 -10  -7 26912.7 1427.59   2
   4  10   7 24652.6 1301.35   7
   4  10   7 24974.2 1244.82   6
  -4 -10  -8 15404.2 1116.35   2
   4  10   8 16159.7 1044.96   7
   4  10   8 15857.5 1016.89   6
  -4 -10  -9 31329.1 1632.22   2
   4  10   9 29258.9 1502.26   6
   4  10   9 30211.2 1461.52   7
   4  10  10 8208.53 745.436   7
   4  10  10 9297.83 862.008   6
  -4 -10 -10 10711.5 949.887   2
   4  10  11 592.623 263.300   7
  -4 -10 -11 1000.01 382.624   2
   4  10  11 532.521 280.238   6
   4  10  12 942.201 302.472   7
  -4 -10 -12 1524.40 433.127   2
   4  10  12 468.430 326.915   6
  -4 -10 -13 5897.13 761.762   2
   4  10  13 6665.04 817.421   6
  -4 -10 -14 15941.8 1170.04   4
  -4 -11   6 365.408 239.430   8
   4  11  -6 121.247 228.991   3
   4  11  -5 9198.07 779.137   3
   4  11  -5 8941.08 846.639   5
  -4 -11   5 8928.80 695.391   8
   4  11  -5 9402.35 695.842   7
   4  11  -4 18303.3 1020.09   7
   4  11  -4 20650.3 1147.31   3
   4  11  -4 21382.3 1256.25   5
  -4 -11   4 19378.5 981.404   8
   4  11  -3 18154.3 1061.45   7
   4  11  -3 20050.3 1117.56   3
   4  11  -3 20438.6 1215.08   5
  -4 -11   3 19977.5 934.093   8
   4  11  -2 19758.3 1128.42   7
   4  11  -2 19101.3 1104.29   3
  -4 -11   2 20844.4 1223.66   2
   4  11  -2 21010.8 1194.46   5
   4  11  -1 2160.57 426.755   7
   4  11  -1 2309.36 406.950   3
  -4 -11   1 2419.60 466.944   2
   4  11  -1 3115.53 477.439   5
   4  11   0 4131.99 556.741   7
   4  11   0 3558.51 491.619   3
  -4 -11   0 3900.66 532.169   2
   4  11   1 4892.86 607.359   7
  -4 -11  -1 4312.27 545.203   2
   4  11   2 32875.4 1561.94   7
  -4 -11  -2 33702.1 1519.70   2
   4  11   3 26857.1 1431.72   7
  -4 -11  -3 25781.7 1320.91   2
   4  11   3 25228.5 961.874   6
  -4 -11  -4 21232.9 1196.58   2
   4  11   4 19201.3 907.964   6
   4  11   4 19488.2 1208.48   7
  -4 -11  -5 12349.9 934.942   2
   4  11   5 10969.9 892.630   7
   4  11   5 11568.1 739.934   6
   4  11   6 703.455 329.156   7
   4  11   6 1079.52 287.395   6
  -4 -11  -6 1071.31 366.966   2
   4  11   7 3933.01 557.170   7
   4  11   7 2860.39 443.869   6
  -4 -11  -7 3594.23 572.988   2
  -4 -11  -8 20175.6 1328.65   2
   4  11   8 18604.1 1160.18   7
   4  11   8 19002.5 1168.76   6
  -4 -11  -9 16720.7 1243.18   2
   4  11   9 17777.1 1123.96   7
   4  11   9 16065.9 1137.82   6
  -4 -11 -10 17842.9 1289.29   2
   4  11  10 19460.1 1276.11   6
   4  11  10 16785.8 1101.20   7
   4  11  11 7495.86 700.272   7
   4  11  11 7490.84 818.957   6
  -4 -11 -11 7761.04 874.383   2
   4  11  12 374.362 268.184   7
  -4 -11 -12 300.655 361.035   2
   4  11  12 529.671 353.619   6
   4  12  -5 3515.62 532.180   3
   4  12  -4 14785.1 941.710   7
   4  12  -4 13334.7 956.473   3
   4  12  -4 15019.9 1042.66   5
   4  12  -3 17854.7 1077.33   7
   4  12  -3 21246.0 1192.16   3
  -4 -12   3 20385.9 1274.11   2
   4  12  -3 20070.7 1197.16   5
   4  12  -2 15917.4 1045.76   7
   4  12  -2 15112.8 1015.01   3
  -4 -12   2 16772.3 1126.25   2
   4  12  -2 16407.5 1069.71   5
   4  12  -1 8263.32 779.985   7
   4  12  -1 7220.41 716.876   3
  -4 -12   1 7893.80 795.069   2
   4  12   0 67.7669 273.156   7
  -4 -12   0 163.927 288.125   2
   4  12   1 11805.8 987.143   7
  -4 -12  -1 11999.1 964.110   2
   4  12   2 17701.2 1211.41   7
  -4 -12  -2 18078.8 1170.12   2
   4  12   3 42183.8 1889.54   7
  -4 -12  -3 38723.6 1758.60   2
   4  12   4 29594.5 1549.71   7
  -4 -12  -4 29824.7 1542.75   2
   4  12   4 30705.8 1158.40   6
   4  12   5 11072.1 933.407   7
   4  12   5 9598.67 678.574   6
   4  12   6 2416.03 497.984   7
   4  12   6 1821.69 331.309   6
  -4 -12  -6 2318.25 503.997   2
  -4 -12  -7 8713.02 871.083   2
   4  12   7 9288.78 848.067   7
   4  12   7 8273.99 728.299   6
  -4 -12  -8 20476.6 1400.18   2
   4  12   8 21016.9 1263.34   7
   4  12   8 21652.4 1251.44   6
  -4 -12  -9 29578.1 1710.17   2
   4  12   9 25311.4 1380.58   7
   4  12   9 25191.8 1417.86   6
  -4 -12 -10 20945.3 1432.94   2
   4  12  10 18665.0 1148.38   7
   4  12  10 17902.1 1204.21   6
   4  12  11 3433.43 514.275   7
  -4 -12 -11 3490.36 634.844   2
   4  12  11 3812.94 601.296   6
   4  12  12 595.100 265.265   7
   4  13  -3 21578.0 1218.73   7
   4  13  -3 18758.1 1171.25   3
   4  13  -2 15876.7 1077.65   7
   4  13  -2 15978.4 1060.00   3
   4  13  -1 4239.84 581.196   3
   4  13  -1 4874.25 625.413   7
  -4 -13   1 5544.50 706.559   2
   4  13   0 90.6430 295.015   7
  -4 -13   0 688.071 371.935   2
   4  13   1 10421.0 954.074   7
  -4 -13  -1 10908.6 951.821   2
   4  13   2 27741.7 1562.20   7
  -4 -13  -2 25971.8 1468.99   2
   4  13   3 27105.3 1555.10   7
  -4 -13  -3 30875.0 1605.38   2
   4  13   4 17206.9 1214.75   7
  -4 -13  -4 19674.9 1282.00   2
   4  13   5 4186.47 628.080   7
  -4 -13  -5 3786.03 592.755   2
   4  13   6 912.334 338.317   7
  -4 -13  -6 1681.05 440.913   2
   4  13   7 5926.26 732.053   7
   4  13   7 8442.75 711.129   6
  -4 -13  -7 8235.25 905.339   2
  -4 -13  -8 20460.7 1434.33   2
   4  13   8 20947.6 1298.24   7
   4  13   8 19234.4 1156.20   6
  -4 -13  -9 22637.4 1535.95   2
   4  13   9 22496.7 1308.46   7
   4  13   9 21123.5 1251.46   6
   4  13  10 14542.9 1032.72   7
   4  13  10 12531.8 1005.21   6
   4  13  11 2473.88 456.859   7
  -5   9   6 4273.54 634.757   7
  -5   9   5 2002.95 485.290   7
  -5   9   4 3196.07 608.459   7
  -5   9   3 12746.1 1121.46   7
   5  -9  -3 12804.3 1085.07   1
  -5   9   2 17217.7 1296.94   7
   5  -9  -2 17624.5 1307.31   1
  -5   9   1 12492.1 1146.35   7
   5  -9  -1 12112.5 1076.00   1
   5  -9   0 3743.42 660.838   1
  -5   9   0 3844.26 655.749   7
  -5   9   0 2698.19 563.829   4
  -5   9  -1-92.7432 360.343   4
  -5   9  -1 927.891 424.351   7
   5  -9   1 313.607 290.641   1
  -5   9  -2 6946.27 835.182   4
  -5   9  -2 6477.31 871.605   7
   5  -9   2 6994.45 863.530   1
  -5   9  -4 13803.2 1052.96   3
  -5   8   7 9897.49 879.315   7
   5  -8  -6 1822.48 491.835   1
  -5   8   6 2207.91 493.458   7
   5  -8  -5-355.047 322.251   1
  -5   8   5 429.271 351.901   7
  -5   8   4 10453.7 965.170   7
   5  -8  -4 9669.51 908.979   1
  -5   8   3 14165.9 1133.93   7
   5  -8  -3 15038.7 1167.63   1
   5  -8  -2 19222.6 1340.32   1
  -5   8   2 18341.3 1283.36   4
  -5   8   1 13914.1 1101.23   4
   5  -8  -1 11251.3 1051.02   1
  -5   8   0 2578.99 503.218   4
   5  -8   0 1545.40 464.869   1
  -5   8  -1 59.1683 291.418   4
   5  -8   1 383.630 341.836   1
  -5   8  -2 2564.58 521.445   4
   5  -8   2 4322.14 696.662   1
  -5   8  -3 21935.2 1289.74   3
   5  -8   3 25691.4 1576.62   1
  -5   8  -3 24382.2 1472.91   4
  -5   8  -4 19784.3 1228.20   3
   5  -8   4 19275.1 1348.50   1
  -5   8  -4 18663.3 1295.42   4
  -5   8  -5 20212.4 1244.44   3
   5  -8   5 22335.3 1459.61   1
  -5   8  -5 21182.8 1363.38   4
  -5   8  -6 4667.68 668.823   4
   5  -8   6 4582.38 690.313   1
  -5   8  -6 5378.21 653.292   3
  -5   8  -7 418.049 292.606   4
  -5   8  -7 105.009 340.550   7
  -5   8  -7 119.651 284.743   3
  -5   7   8 13372.7 1003.06   8
   5  -7  -8 15188.4 1056.86   1
  -5   7   7 4082.60 542.888   7
   5  -7  -7 4079.10 595.618   1
   5  -7  -6 1627.75 443.759   1
  -5   7   6 1605.50 402.375   7
   5  -7  -5-29.2557 240.823   1
  -5   7   5 152.845 261.330   7
   5  -7  -4 8704.54 877.834   1
  -5   7   4 9358.41 875.098   4
  -5   7   3 13979.3 1057.22   4
   5  -7  -3 14528.1 1119.65   1
  -5   7   2 29660.8 1545.71   4
   5  -7  -2 29690.9 1602.18   1
  -5   7   1 15708.2 1104.38   4
   5  -7  -1 14224.1 1107.51   1
  -5   7   0 3839.88 578.516   4
   5  -7   0 3492.06 603.349   1
  -5   7  -1 794.889 342.624   4
   5  -7   1 1238.95 376.843   1
   5  -7   2 11280.2 1007.96   1
  -5   7  -2 10802.8 860.056   3
  -5   7  -2 11846.5 964.480   4
  -5   7  -3 23865.1 1288.24   3
   5  -7   3 21917.6 1425.63   1
  -5   7  -3 22590.2 1357.89   4
  -5   7  -4 19118.6 1135.84   3
   5  -7   4 19139.3 1324.75   1
  -5   7  -4 18436.0 1245.94   4
  -5   7  -5 14085.3 1003.35   3
   5  -7   5 13643.7 1103.94   1
  -5   7  -5 14953.5 1108.35   4
  -5   7  -6 2625.46 495.270   4
  -5   7  -6 3207.17 524.074   3
   5  -7   6 2517.76 502.366   1
  -5   7  -7-113.928 284.889   4
  -5   7  -7-448.129 316.480   3
   5  -7   7 139.917 309.930   1
  -5   7  -8 3139.37 528.952   4
  -5   7  -8 2375.13 432.460   3
   5  -7   8 1974.89 480.572   1
  -5   7  -9 5809.47 731.011   4
   5  -7   9 6213.64 760.807   1
  -5   7  -9 5346.87 746.561   7
  -5   6  10 2599.74 469.075   8
  -5   6   9 8037.48 765.501   8
   5  -6  -9 9207.55 825.334   1
  -5   6   8 7669.01 772.904   8
   5  -6  -8 8780.47 804.436   1
  -5   6   7 11047.6 981.937   8
  -5   6   7 11709.0 868.288   7
   5  -6  -7 9599.68 858.997   1
   5  -6  -6 374.357 295.373   1
   5  -6  -5 534.135 324.946   1
   5  -6  -4 8817.61 834.863   1
  -5   6   4 7728.78 754.438   4
  -5   6   3 19854.8 1185.03   4
   5  -6  -3 17048.6 1157.86   1
   5  -6  -2 22914.7 1342.45   1
  -5   6   2 24636.2 1308.94   4
  -5   6   1 22939.2 1268.73   4
   5  -6  -1 22696.9 1346.85   1
  -5   6   0 9691.89 820.315   4
   5  -6   0 10516.8 911.461   1
   5  -6   1-272.013 294.778   1
  -5   6  -1-103.458 212.904   4
  -5   6  -2 2807.36 450.208   4
  -5   6  -2 2518.10 414.198   3
   5  -6   2 1667.60 399.309   1
  -5   6  -3 22171.0 1162.34   3
   5  -6   3 21273.8 1314.80   1
  -5   6  -3 21905.4 1261.00   4
  -5   6  -4 28144.0 1342.65   3
   5  -6   4 28360.9 1540.89   1
  -5   6  -4 27611.1 1424.52   4
  -5   6  -5 10802.0 828.060   3
   5  -6   5 8155.33 839.832   1
  -5   6  -5 9876.12 863.693   4
  -5   6  -6 8572.31 751.102   3
   5  -6   6 8977.54 893.295   1
  -5   6  -6 8298.29 787.130   4
  -5   6  -7 395.581 311.001   4
   5  -6   7 539.819 310.842   1
  -5   6  -7 487.680 298.749   3
   5  -6   8 3138.06 536.212   1
  -5   6  -8 3236.52 528.891   3
  -5   6  -8 4039.29 564.711   4
  -5   6  -9 7829.13 762.327   4
   5  -6   9 6548.32 747.224   1
  -5   6 -10 11804.7 949.344   3
   5  -6  10 12419.1 1025.73   1
  -5   6 -10 11936.9 948.830   4
  -5   5  10 1956.01 406.908   8
   5  -5 -10 1384.14 367.037   1
  -5   5   9 6628.55 709.723   8
   5  -5  -9 7904.77 785.382   1
  -5   5   9 6256.50 875.815   6
   5  -5  -8 11794.8 934.472   1
  -5   5   8 12185.4 979.312   8
  -5   5   7 20327.9 1314.31   8
   5  -5  -7 20571.8 1220.42   1
   5  -5  -6 10164.1 858.474   1
   5  -5  -5 1019.95 332.989   1
  -5   5   5 663.151 267.750   4
   5  -5  -4 7372.75 731.811   1
  -5   5   4 7240.45 688.710   4
   5  -5  -3 27510.8 1419.98   1
  -5   5   3 28585.0 1343.72   4
  -5   5   2 38578.7 1593.54   4
   5  -5  -2 37764.8 1686.71   1
   5  -5  -1 41673.4 1796.75   1
  -5   5   1 43882.4 1694.63   4
  -5   5   0 12543.2 865.226   4
   5  -5   0 13203.5 967.196   1
  -5   5  -1 50.7009 229.307   4
   5  -5   1 22.3398 264.380   1
  -5   5  -2 4757.62 548.394   4
   5  -5   2 4976.06 299.968   2
  -5   5  -2 4473.54 485.625   3
   5  -5   2 5059.72 618.455   1
   5  -5   3 25257.3 1358.31   1
  -5   5  -3 25358.4 1156.56   3
   5  -5   3 24250.3 783.348   2
  -5   5  -3 26688.2 1302.34   4
  -5   5  -4 45828.8 1650.12   3
   5  -5   4 46911.8 1921.85   1
  -5   5  -4 46370.6 1808.49   4
  -5   5  -5 40497.7 1571.84   3
   5  -5   5 40215.6 1783.79   1
  -5   5  -5 41726.7 1720.84   4
  -5   5  -6 16464.9 978.901   3
   5  -5   6 16625.5 1130.09   1
  -5   5  -6 16555.4 1065.78   4
  -5   5  -7 4611.96 584.473   4
   5  -5   7 2993.79 502.776   1
  -5   5  -7 3901.82 528.608   3
  -5   5  -8 1433.95 392.612   4
  -5   5  -8 1037.50 352.296   3
   5  -5   8 755.089 291.046   1
  -5   5  -9 12959.9 970.531   3
   5  -5   9 12802.6 996.133   1
  -5   5  -9 12055.5 938.390   4
  -5   5 -10 12837.5 981.857   3
   5  -5  10 11472.9 944.521   1
  -5   5 -10 11762.7 910.582   4
  -5   5 -11 14667.4 1067.50   3
  -5   4  11 762.621 325.916   8
   5  -4 -11 880.243 310.768   1
  -5   4  10 4443.95 603.979   8
   5  -4 -10 4376.16 590.130   1
  -5   4  10 5260.06 772.606   6
  -5   4   9 15489.3 1083.97   8
   5  -4  -9 12839.2 980.530   1
  -5   4   8 25911.7 1478.42   8
   5  -4  -8 28463.8 1479.97   1
  -5   4   7 19863.2 1301.50   8
   5  -4  -7 20844.1 1223.71   1
   5  -4  -6 17178.0 1086.42   1
  -5   4   6 18190.7 1033.46   4
  -5   4   5-28.5666 217.913   4
   5  -4  -5 668.291 293.524   1
   5  -4  -4 2564.49 457.291   1
  -5   4   4 2790.62 418.471   4
   5  -4  -3 52217.4 1983.78   1
  -5   4   3 57526.9 1896.75   4
   5  -4  -2 42804.3 1755.77   1
  -5   4   2 45871.1 1652.38   4
  -5   4   1 61941.5 1990.70   4
   5  -4  -1 64024.9 2203.81   1
   5  -4   0 31707.6 1474.11   1
  -5   4   0 30637.1 1313.35   4
   5  -4   1 4726.47 216.388   2
   5  -4   1 4717.21 566.350   1
  -5   4  -1 5740.03 545.206   4
   5  -4   2 20088.4 581.170   2
  -5   4  -2 21901.7 983.472   3
   5  -4   2 21146.3 1203.36   1
  -5   4  -2 20958.7 1068.51   4
   5  -4   3 16392.7 1058.36   1
  -5   4  -3 16714.7 854.708   3
   5  -4   3 17171.5 571.209   2
  -5   4  -3 17044.2 990.581   4
  -5   4  -4 74877.7 2097.85   3
   5  -4   4 75424.8 2431.94   1
  -5   4  -4 72700.9 2285.35   4
  -5   4  -5 54265.8 1716.97   3
   5  -4   5 50823.8 1928.70   1
  -5   4  -5 49875.6 1171.89   5
  -5   4  -5 51560.8 1848.93   4
  -5   4  -6 30226.2 1304.63   3
   5  -4   6 29696.5 1436.16   1
  -5   4  -6 30219.3 1373.81   4
  -5   4  -7 4226.06 525.713   4
   5  -4   7 2838.60 478.219   1
  -5   4  -7 3289.16 452.754   3
  -5   4  -8 4340.38 548.859   4
  -5   4  -8 5933.41 605.240   3
   5  -4   8 4133.51 566.505   1
  -5   4  -9 19778.4 1153.50   3
   5  -4   9 18977.6 1162.11   1
  -5   4  -9 17561.8 1097.12   4
  -5   4 -10 27079.7 1416.39   3
   5  -4  10 25492.4 1355.06   1
  -5   4 -10 27192.9 1362.43   4
  -5   4 -11 20247.5 1260.79   3
  -5   4 -11 20056.2 1159.85   4
  -5   4 -12 6290.92 739.316   3
  -5   3  11 192.913 245.652   8
   5  -3 -11 778.522 369.389   1
  -5   3  11-151.096 375.520   6
   5  -3 -11 116.580 273.447   3
  -5   3  10 4249.84 610.287   8
   5  -3 -10 4649.11 616.043   1
  -5   3  10 3489.70 639.809   6
  -5   3   9 15134.9 1089.81   8
   5  -3  -9 15071.1 1076.12   1
  -5   3   8 37787.1 1770.61   8
   5  -3  -8 38040.5 1722.48   1
  -5   3   7 26901.6 1499.23   8
   5  -3  -7 29964.2 1457.68   1
   5  -3  -6 9917.03 814.040   1
  -5   3   6 10054.2 702.416   4
  -5   3   5 133.037 168.714   4
   5  -3  -5 191.027 221.745   1
   5  -3  -4 8152.56 712.929   1
  -5   3   4 9024.28 655.645   4
   5  -3  -3 31392.6 1420.04   1
  -5   3   3 31905.0 1280.75   4
   5  -3  -2 71412.3 2300.71   1
  -5   3   2 74203.5 2111.78   4
   5  -3  -1 36524.1 1557.45   1
  -5   3   1 37472.2 1399.72   4
  -5   3   0 25888.6 1131.17   4
   5  -3   0 25676.6 1268.06   1
  -5   3  -1 3406.99 417.391   4
   5  -3   1 3598.82 484.867   1
   5  -3   2 7954.24 691.953   1
  -5   3  -2 7255.78 509.667   3
   5  -3   2 6001.46 205.658   2
  -5   3  -2 7172.69 596.658   4
   5  -3   3 59290.6 2061.43   1
  -5   3  -3 62578.3 1961.65   4
  -5   3  -3 63329.8 1739.86   3
   5  -3   3 59821.6 1255.86   2
   5  -3   3 62090.4 1291.19   2
   5  -3   4 43998.3 1695.25   1
  -5   3  -4 45753.0 1435.66   3
   5  -3   4 44581.7 1108.53   2
  -5   3  -4 40845.4 1577.19   4
  -5   3  -5 48978.2 1731.72   4
  -5   3  -5 49075.6 1552.58   3
   5  -3   5 47080.5 1772.81   1
  -5   3  -6 18837.2 926.905   3
   5  -3   6 18778.8 1057.73   1
  -5   3  -6 18126.4 1030.26   4
  -5   3  -7 1957.44 365.027   4
  -5   3  -7 1992.88 328.418   3
   5  -3   7 1657.93 350.163   1
  -5   3  -8 1882.62 357.257   4
  -5   3  -8 2327.87 385.270   3
   5  -3   8 1978.58 381.661   1
  -5   3  -9 18063.1 1063.35   3
   5  -3   9 18624.9 1102.61   1
  -5   3  -9 18516.2 1095.96   4
  -5   3 -10 25545.2 1333.30   3
   5  -3  10 27121.5 1338.34   1
  -5   3 -10 25559.0 1311.86   4
  -5   3 -11 14868.7 1058.38   3
  -5   3 -11 17193.3 1049.00   4
   5  -3  11 17941.0 1147.33   8
  -5   3 -12 12574.9 1000.07   3
   5  -3  12 13647.6 1034.27   8
  -5   3 -13 362.306 276.931   3
  -5   2  12 1408.02 444.185   6
   5  -2 -12 553.078 328.638   3
   5  -2 -11 1056.03 354.931   1
  -5   2  11 139.015 270.824   8
  -5   2  11 107.742 279.527   6
   5  -2 -11 326.028 302.074   3
  -5   2  10 1278.02 418.026   8
   5  -2 -10 1705.83 445.969   1
  -5   2  10 1017.25 354.506   6
   5  -2 -10 1287.99 413.544   3
  -5   2   9 13145.6 1035.29   8
   5  -2  -9 11547.8 963.444   1
   5  -2  -9 13040.8 830.048   5
  -5   2   8 14153.1 1056.37   8
   5  -2  -8 13006.3 998.361   1
   5  -2  -8 14402.7 823.665   5
  -5   2   7 12894.1 1014.57   8
   5  -2  -7 12851.8 946.109   1
   5  -2  -7 14476.6 771.358   5
  -5   2   6 11426.8 959.730   8
   5  -2  -6 12665.8 921.268   1
   5  -2  -6 12354.3 665.836   5
  -5   2   6 13434.8 745.371   4
  -5   2   5 573.521 193.268   4
   5  -2  -5 272.080 215.566   1
   5  -2  -5 722.482 172.114   5
   5  -2  -4 7193.63 650.540   1
   5  -2  -4 7586.38 414.529   5
  -5   2   4 7918.68 559.912   4
  -5   2   3 21298.8 608.882   2
   5  -2  -3 23998.8 1175.25   1
   5  -2  -3 22568.9 678.821   5
  -5   2   3 24114.2 1013.84   4
   5  -2  -2 69056.4 2205.58   1
  -5   2   2 70437.7 1957.62   4
   5  -2  -1 53572.1 1858.21   1
  -5   2   1 53880.5 1655.81   4
  -5   2   0 33585.6 1260.60   4
   5  -2   0 35208.7 1452.18   1
  -5   2  -1 2807.39 358.014   4
   5  -2   1 2644.46 394.223   1
  -5   2  -2 261.648 179.902   4
  -5   2  -2 180.155 106.047   3
   5  -2   2 455.073 224.605   1
   5  -2   3 31920.1 1375.35   1
  -5   2  -3 34027.2 1091.40   3
  -5   2  -3 32020.2 717.298   5
  -5   2  -3 34458.6 1309.06   4
   5  -2   3 33281.2 769.423   2
   5  -2   4 59092.0 1960.13   1
  -5   2  -4 59676.6 1619.38   3
  -5   2  -4 61115.0 1889.57   4
   5  -2   4 60417.7 1345.74   2
   5  -2   5 60183.3 1968.85   1
  -5   2  -5 62242.8 1714.18   3
  -5   2  -5 62511.9 1941.25   4
   5  -2   5 61518.6 1467.95   2
   5  -2   6 9755.44 709.208   1
  -5   2  -6 8487.16 577.556   3
  -5   2  -6 9110.04 685.138   4
  -5   2  -7 5545.13 486.670   3
   5  -2   7 5211.98 541.066   1
  -5   2  -7 5267.25 534.861   4
  -5   2  -8 3318.99 441.265   4
  -5   2  -8 2521.53 369.705   3
   5  -2   8 3611.61 463.809   1
  -5   2  -9 7860.26 665.085   3
   5  -2   9 7891.67 657.890   1
  -5   2  -9 9032.25 729.071   4
   5  -2  10 19085.0 1105.84   8
  -5   2 -10 19043.6 1103.37   3
   5  -2  10 19682.2 1055.47   1
  -5   2 -10 17947.4 1068.93   4
  -5   2 -11 11943.9 912.641   3
  -5   2 -11 12291.3 882.239   4
   5  -2  11 13634.9 978.552   8
   5  -2  12 8610.50 622.617   6
  -5   2 -12 8676.53 827.557   3
  -5   2 -12 8697.78 744.081   4
   5  -2  12 9201.01 848.274   8
  -5   2 -13 2428.46 509.212   3
   5  -2  13 2820.81 520.028   8
  -5   2 -14-18.3818 328.509   3
  -5   1  12 4711.60 667.792   6
   5  -1 -12 3299.72 571.291   3
   5  -1 -12 2803.77 545.852   1
   5  -1 -11 619.575 330.724   1
  -5   1  11-103.155 310.575   8
  -5   1  11 1.80943 332.444   6
   5  -1 -11 138.515 264.669   3
   5  -1 -11-323.010 304.326   5
   5  -1 -10 1456.80 448.882   1
  -5   1  10 528.202 293.839   8
  -5   1  10 732.574 296.146   6
   5  -1 -10 1388.19 369.399   3
   5  -1 -10 1014.06 327.203   5
  -5   1   9 11103.0 963.037   8
   5  -1  -9 12173.7 1018.69   1
   5  -1  -9 9352.34 811.489   3
   5  -1  -9 10769.5 790.323   5
  -5   1   8 19240.6 1242.91   8
   5  -1  -8 18098.6 1213.21   1
   5  -1  -8 19050.2 1127.69   3
   5  -1  -8 19314.9 1028.88   5
   5  -1  -8 22703.4 1037.02   9
  -5   1   7 34305.0 1646.28   8
   5  -1  -7 30976.2 1554.71   1
   5  -1  -7 31883.4 1280.06   5
   5  -1  -7 36484.2 1374.44   9
  -5   1   6 13632.6 1024.00   8
   5  -1  -6 13265.1 960.693   1
   5  -1  -6 12693.5 719.208   5
  -5   1   6 14222.7 712.325   4
   5  -1  -5 15445.2 1009.22   1
   5  -1  -5 16195.1 752.341   5
  -5   1   5 16374.4 780.243   4
  -5   1   4 3583.40 273.848   2
   5  -1  -4 3601.45 485.712   1
   5  -1  -4 4027.32 336.220   5
  -5   1   4 3402.87 351.336   4
  -5   1   3 27826.5 792.511   2
   5  -1  -3 26726.9 1270.48   1
   5  -1  -3 28943.2 888.412   5
  -5   1   3 26932.5 1033.25   4
   5  -1  -2 50866.5 1788.34   1
   5  -1  -2 49195.2 1191.17   5
  -5   1   2 48364.6 1490.32   4
   5  -1  -1 100996. 2107.70   3
   5  -1  -1 101349. 2764.08   1
  -5   1   1 101594. 2448.59   4
   5  -1   0 36187.7 974.201   3
   5  -1   0 37781.0 1464.91   1
  -5   1   0 37612.2 1286.05   4
  -5   1  -1 5968.11 478.016   4
   5  -1   1 5122.39 307.951   3
   5  -1   1 6234.80 562.980   1
  -5   1  -2 5045.17 454.262   4
  -5   1  -2 4795.74 334.279   3
   5  -1   2 5228.62 311.496   3
  -5   1  -2 4958.52 222.875   5
   5  -1   2 6364.72 564.953   1
  -5   1  -3 22801.2 982.213   4
  -5   1  -3 22103.7 766.191   3
  -5   1  -3 22003.5 598.002   5
   5  -1   3 22430.5 1070.85   1
  -5   1  -4 54822.8 1471.35   3
  -5   1  -4 57787.7 1764.47   4
   5  -1   4 58264.6 1878.43   1
   5  -1   5 82725.0 2286.30   1
  -5   1  -5 79118.5 1934.00   3
   5  -1   5 77655.7 1778.93   2
  -5   1  -5 80543.4 2210.34   4
   5  -1   6 71458.4 2092.95   1
  -5   1  -6 69678.6 1850.66   3
  -5   1  -6 72534.0 2079.82   4
   5  -1   7 6651.58 552.775   1
   5  -1   7 6638.54 494.909   6
  -5   1  -7 6538.19 499.975   3
  -5   1  -7 7236.69 592.749   4
  -5   1  -8 1872.61 322.543   4
   5  -1   8 1292.63 275.186   1
   5  -1   8 1928.14 297.847   6
  -5   1  -8 1196.29 244.922   3
  -5   1  -9 13335.4 855.776   4
   5  -1   9 13583.3 755.408   6
  -5   1  -9 14834.2 873.455   3
   5  -1   9 12988.4 780.158   1
   5  -1   9 13085.1 843.274   8
   5  -1  10 31068.1 1228.99   6
  -5   1 -10 28421.0 1321.83   3
   5  -1  10 29271.5 1198.41   1
   5  -1  10 29362.8 1352.36   8
   5  -1  10 30827.2 1112.54   9
  -5   1 -10 30401.4 1366.36   4
   5  -1  11 34522.5 1344.13   6
  -5   1 -11 33809.5 1546.55   3
  -5   1 -11 34135.9 1492.46   4
   5  -1  11 33835.1 1147.21   9
   5  -1  11 33636.0 1526.56   8
  -5   1 -12 13411.5 894.927   4
   5  -1  12 11840.9 770.237   6
  -5   1 -12 13248.6 1000.48   3
   5  -1  12 13109.0 969.547   8
   5  -1  13 5102.03 659.666   8
   5  -1  13 4179.57 460.267   6
  -5   1 -13 4546.78 616.753   3
   5  -1  14 1.69306 283.932   8
  -5   1 -14-179.064 323.768   3
   5   0 -12 6367.40 795.435   1
   5   0 -12 8551.67 844.200   3
   5   0 -12 9021.58 840.923   5
  -5   0  11 821.101 366.123   8
  -5   0  11 1348.47 406.890   6
   5   0 -11 1157.59 381.520   3
   5   0 -11 255.881 243.539   5
   5   0 -11 987.459 398.028   1
  -5   0  10 1859.83 475.742   8
  -5   0  10 1283.37 417.938   6
   5   0 -10 502.190 278.389   3
   5   0 -10 683.007 269.657   5
   5   0 -10 868.322 343.581   1
   5   0  -9 10335.1 1010.60   1
  -5   0   9 9783.69 919.458   8
   5   0  -9 10954.7 829.944   3
   5   0  -9 10954.4 830.282   5
  -5   0   8 40895.4 1851.56   8
   5   0  -8 40358.7 1948.92   1
   5   0  -8 38223.8 1563.76   3
   5   0  -8 38835.1 1575.77   5
   5   0  -8 44804.1 1534.28   9
  -5   0   7 56711.5 2182.81   8
   5   0  -7 59870.3 1802.38   9
   5   0  -7 54253.1 2235.78   1
   5   0  -7 51860.2 1791.93   3
   5   0  -7 52649.5 1769.77   5
  -5   0   6 38516.9 1761.97   8
   5   0  -6 37502.7 1708.73   1
   5   0  -6 40545.1 1428.66   9
   5   0  -6 35919.1 1360.28   3
   5   0  -6 38567.6 1377.00   5
  -5   0   6 39595.4 1184.04   4
  -5   0   5 11117.4 927.283   8
   5   0  -5 12135.6 676.915   5
  -5   0   5 12460.3 619.879   4
   5   0  -5 13001.1 743.994   9
  -5   0   4 1398.54 222.993   4
   5   0  -4 622.703 270.204   1
  -5   0   4 644.862 131.190   2
   5   0  -4 1254.37 227.600   5
   5   0  -3 21382.6 1094.23   1
   5   0  -3 21689.0 800.834   5
  -5   0   3 23069.0 885.870   4
  -5   0   3 21041.0 660.625   2
  -5   0   2 112071. 2166.95   2
  -5   0   2 115968. 2604.38   4
   5   0  -2 119243. 2387.63   3
   5   0  -2 119749. 2969.29   1
   5   0  -2 114764. 2401.07   5
   5   0  -1 97052.2 1934.30   3
   5   0  -1 96445.1 2536.61   1
   5   0  -1 98371.3 2036.03   5
  -5   0   1 94908.2 2282.56   4
   5   0   0 106788. 2038.03   3
   5   0   0 107328. 2675.70   1
  -5   0   0 105955. 2471.38   4
   5   0   1 27739.3 698.398   3
   5   0   1 25945.7 1096.27   1
  -5   0  -1 25749.9 692.393   5
  -5   0  -1 27472.5 1031.49   4
  -5   0  -2 8971.13 392.476   3
   5   0   2 8925.88 363.462   3
  -5   0  -2 9349.59 369.441   5
   5   0   2 9701.74 620.421   1
  -5   0  -2 9585.71 590.066   4
  -5   0  -3 63410.2 1769.01   4
  -5   0  -3 65315.2 1398.68   3
   5   0   3 64564.4 1363.46   3
  -5   0  -3 64702.9 1352.41   5
   5   0   3 63793.8 1791.34   1
   5   0   4 104960. 2068.53   2
  -5   0  -4 105185. 2191.00   3
   5   0   4 105018. 2136.98   3
   5   0   4 106030. 2545.15   1
  -5   0  -4 107263. 2590.64   4
   5   0   5 112207. 2362.48   2
   5   0   5 104822. 2470.73   6
  -5   0  -5 106480. 2316.15   3
   5   0   5 106335. 2572.09   1
  -5   0  -5 110365. 2679.18   4
   5   0   6 71742.2 1896.14   6
  -5   0  -6 73559.8 1819.01   3
  -5   0  -6 71738.0 2055.63   4
   5   0   6 73635.0 1961.05   1
   5   0   7 25717.6 1007.88   1
   5   0   7 24530.5 986.307   6
  -5   0  -7 24635.9 975.178   3
  -5   0  -7 24981.5 918.402   2
  -5   0  -7 24092.2 1079.36   4
  -5   0  -8 465.467 195.730   4
   5   0   8 706.954 204.221   6
  -5   0  -8 849.353 224.799   3
   5   0   8 789.165 206.167   1
   5   0   9 12893.0 661.272   1
   5   0   9 11091.3 681.859   6
  -5   0  -9 11977.8 753.389   3
   5   0   9 11029.1 623.709   9
  -5   0  -9 11204.5 752.692   4
   5   0   9 12751.1 795.088   8
   5   0  10 36369.3 1197.62   1
   5   0  10 36634.9 1363.15   6
  -5   0 -10 39092.7 1514.09   3
  -5   0 -10 36917.3 1492.18   4
   5   0  10 37288.4 1224.92   9
   5   0  10 38303.1 1495.82   8
   5   0  11 46840.7 1633.88   6
  -5   0 -11 47131.2 1801.94   3
  -5   0 -11 45517.5 1729.18   4
   5   0  11 46238.0 1350.89   9
   5   0  11 46882.7 1779.47   8
   5   0  12 25932.9 1201.31   6
  -5   0 -12 24886.8 1355.10   3
  -5   0 -12 27065.1 1311.00   4
   5   0  12 27606.7 1383.57   8
   5   0  13 5071.76 641.695   8
  -5   0 -13 4984.45 564.290   4
   5   0  13 5782.74 566.362   6
  -5   0 -13 6183.50 704.748   3
   5   0  14 4.73235 250.727   8
   5   0  14 163.172 192.464   6
  -5   0 -14 414.476 322.567   3
   5   0  15 3682.37 557.643   8
  -5   0 -15 4596.76 671.240   3
   5   1 -12 6625.97 765.232   5
  -5  -1  11 2536.17 512.329   8
   5   1 -11 2277.45 551.100   1
   5   1 -11 2230.62 451.781   3
   5   1 -11 1662.83 400.457   5
  -5  -1  10 2555.95 535.530   8
  -5  -1  10 1090.34 337.304   6
   5   1 -10 2153.87 411.261   3
   5   1 -10 1336.98 378.806   5
   5   1 -10 1826.80 579.600   1
  -5  -1   9 17338.2 1237.81   8
   5   1  -9 15859.3 981.179   3
  -5  -1   9 16290.1 1116.42   6
   5   1  -9 17838.1 1085.37   5
   5   1  -9 16873.8 1320.86   1
   5   1  -8 35671.7 1840.66   1
  -5  -1   8 34417.0 1724.77   8
   5   1  -8 34607.6 1421.92   3
   5   1  -8 34564.5 1491.07   5
  -5  -1   7 54395.7 2182.72   8
   5   1  -7 57875.8 2237.67   1
   5   1  -7 50912.0 1717.89   3
   5   1  -7 50716.5 1792.76   5
   5   1  -7 62126.8 1869.00   9
  -5  -1   6 44895.8 1936.84   8
   5   1  -6 44521.1 1844.90   1
   5   1  -6 44689.7 1468.35   3
   5   1  -6 48149.1 1556.81   9
   5   1  -6 42964.3 1520.02   5
  -5  -1   6 43102.2 1171.81   4
  -5  -1   5 2618.04 463.954   8
   5   1  -5 2209.49 406.053   1
   5   1  -5 2405.91 293.562   3
   5   1  -5 2896.79 356.855   5
  -5  -1   5 2520.47 259.129   4
   5   1  -5 2332.30 331.074   9
  -5  -1   4 7399.23 751.003   8
   5   1  -4 6417.98 602.533   1
   5   1  -4 7117.68 441.812   3
   5   1  -4 6173.12 465.630   5
  -5  -1   4 6744.68 430.466   4
   5   1  -4 7100.95 532.903   9
  -5  -1   4 7050.75 392.228   2
   5   1  -3 73627.2 2179.77   1
  -5  -1   3 73880.7 1616.79   2
   5   1  -3 78460.4 1730.29   3
  -5  -1   3 76036.3 1839.32   4
   5   1  -3 74071.5 1871.05   5
   5   1  -3 77798.4 2038.53   9
  -5  -1   2 77204.8 1878.82   4
   5   1  -2 78038.3 2180.66   1
   5   1  -2 78676.1 1852.67   5
   5   1  -2 79616.7 2055.76   9
  -5  -1   2 77122.7 1573.82   2
  -5  -1   1 133530. 2402.44   2
  -5  -1   1 131375. 2851.82   4
   5   1  -1 136569. 2436.56   3
   5   1  -1 132880. 3095.66   1
   5   1  -1 137219. 2751.25   5
   5   1   0 68839.5 1252.61   3
   5   1   0 74130.6 1925.47   1
  -5  -1   0 74193.9 1529.74   5
  -5  -1   0 68497.5 1207.89   2
  -5  -1   0 72845.4 1802.34   4
  -5  -1  -1 26574.2 984.827   4
   5   1   1 25537.1 982.569   1
  -5  -1  -1 27102.1 764.082   5
  -5  -1  -2 1526.97 244.270   4
   5   1   2 1900.76 116.080   3
  -5  -1  -2 1575.27 165.153   5
  -5  -1  -2 1706.99 86.9897   2
   5   1   2 1696.64 248.339   1
  -5  -1  -3 27990.0 700.652   3
  -5  -1  -3 29586.1 1080.24   4
   5   1   3 28448.5 1000.03   1
  -5  -1  -3 28749.2 827.220   5
  -5  -1  -3 28692.7 673.710   2
   5   1   4 117942. 2271.16   2
  -5  -1  -4 116125. 2274.01   3
   5   1   4 119025. 2612.90   6
   5   1   4 114976. 2553.32   1
  -5  -1  -4 117473. 2262.38   2
  -5  -1  -4 122849. 2768.29   4
   5   1   5 83615.4 1853.03   2
   5   1   5 83303.2 2024.27   6
  -5  -1  -5 78370.4 1771.18   3
   5   1   5 79639.8 1909.91   1
  -5  -1  -5 82320.0 1787.19   2
  -5  -1  -5 79685.6 2148.05   4
   5   1   6 86133.6 2118.55   6
  -5  -1  -6 83972.9 1948.92   3
  -5  -1  -6 86261.8 1966.99   2
   5   1   6 83705.9 1959.25   1
   5   1   6 84193.3 2083.50   9
  -5  -1  -6 83848.7 2245.98   4
   5   1   7 7868.05 532.932   6
  -5  -1  -7 8355.00 508.743   3
   5   1   7 7723.82 448.768   1
  -5  -1  -7 8226.95 510.570   2
   5   1   7 8053.88 516.521   9
  -5  -1  -7 8245.21 601.193   4
  -5  -1  -8 1596.26 290.957   4
   5   1   8 2372.72 288.258   9
  -5  -1  -8 2225.24 298.201   2
   5   1   8 2168.19 308.869   6
  -5  -1  -8 2197.55 302.230   3
   5   1   8 2309.89 247.625   1
   5   1   9 27245.5 1118.82   6
  -5  -1  -9 28702.2 1166.63   3
  -5  -1  -9 28534.0 1233.17   4
  -5  -1  -9 28778.1 1173.86   2
   5   1   9 28445.1 1020.64   9
   5   1   9 27974.6 890.847   1
   5   1  10 43196.2 1138.55   1
   5   1  10 42787.8 1303.01   9
   5   1  10 42489.5 1497.10   6
  -5  -1 -10 42240.0 1562.06   3
  -5  -1 -10 42541.2 1580.71   2
  -5  -1 -10 42916.9 1589.88   4
   5   1  10 43265.9 1575.40   8
   5   1  11 37094.2 1431.39   6
  -5  -1 -11 36921.2 1530.95   3
  -5  -1 -11 36641.3 1509.65   4
  -5  -1 -11 37018.7 1554.08   2
   5   1  11 35315.6 1151.30   9
   5   1  11 36912.7 1489.01   8
   5   1  12 23898.3 1179.50   6
  -5  -1 -12 23172.9 1277.44   3
  -5  -1 -12 23026.2 1284.25   2
  -5  -1 -12 24281.6 1221.86   4
   5   1  12 25832.5 1291.76   8
  -5  -1 -13 4570.18 551.525   4
   5   1  13 5224.76 562.082   6
  -5  -1 -13 6490.47 713.604   3
  -5  -1 -13 5806.67 702.607   2
   5   1  13 5708.68 628.521   8
   5   1  14-45.3795 228.329   8
   5   1  14 83.3186 209.036   6
   5   1  15 3820.00 507.962   6
  -5  -1 -15 2845.82 582.998   3
   5   1  15 4131.20 599.186   8
  -5  -2  11 784.806 369.669   8
   5   2 -11 329.061 291.340   3
   5   2 -11 1450.91 429.113   5
   5   2 -11 947.959 471.913   1
  -5  -2  10 569.872 317.300   8
   5   2 -10 549.568 244.761   3
   5   2 -10 313.065 231.972   5
   5   2 -10 500.392 388.006   1
  -5  -2   9 10071.8 985.738   8
   5   2  -9 10700.6 783.646   3
  -5  -2   9 10327.3 842.646   6
   5   2  -9 10250.5 842.248   5
   5   2  -9 9747.08 992.088   1
  -5  -2   8 31118.8 1667.33   8
   5   2  -8 30825.0 1305.30   3
   5   2  -8 31003.1 1442.96   5
   5   2  -8 31223.9 1667.69   1
  -5  -2   7 18653.8 1261.96   8
   5   2  -7 18481.9 933.535   3
   5   2  -7 20990.6 1103.99   5
   5   2  -7 18385.6 1204.56   1
   5   2  -6 20237.9 1168.93   1
  -5  -2   6 20622.9 1297.00   8
   5   2  -6 20609.0 920.927   3
   5   2  -6 21119.3 1033.24   5
  -5  -2   6 21586.2 651.069   4
   5   2  -6 23756.3 1075.32   9
   5   2  -5 8526.26 710.636   1
  -5  -2   5 7486.35 757.439   8
   5   2  -5 8763.86 527.351   3
   5   2  -5 8196.63 597.617   5
  -5  -2   5 9136.25 441.576   4
   5   2  -5 10437.8 660.028   9
  -5  -2   4 570.243 142.864   4
  -5  -2   4 430.780 262.361   8
   5   2  -4 703.350 246.365   1
   5   2  -4 281.069 122.311   3
   5   2  -4 377.655 177.736   5
   5   2  -4 527.823 168.120   9
  -5  -2   3 29739.2 1521.55   8
   5   2  -3 29977.3 1229.77   1
   5   2  -3 29313.3 850.088   3
   5   2  -3 31260.9 1094.33   5
  -5  -2   3 29378.3 871.636   2
   5   2  -3 31758.7 1143.94   9
  -5  -2   3 29153.6 940.598   4
  -5  -2   2 66980.8 1614.65   4
   5   2  -2 64660.8 1868.58   1
   5   2  -2 64797.8 1347.93   3
   5   2  -2 66448.5 1704.79   5
  -5  -2   2 61219.7 1424.83   2
   5   2  -2 68788.4 1818.61   9
   5   2  -1 74586.3 1459.44   3
   5   2  -1 81014.4 2074.53   1
   5   2  -1 78085.2 1433.95   3
   5   2  -1 86248.8 1941.11   5
  -5  -2   1 84593.8 1633.80   2
  -5  -2   1 83512.2 1915.90   4
   5   2  -1 86321.0 2102.18   9
   5   2   0 44059.2 1355.21   1
  -5  -2   0 44787.0 1046.66   2
  -5  -2   0 44894.5 1154.45   5
   5   2   0 45522.9 1246.10   5
  -5  -2   0 45526.8 1309.86   4
   5   2   0 44758.0 1388.91   9
  -5  -2  -1 17078.9 576.824   2
   5   2   1 16964.8 732.724   1
  -5  -2  -1 16675.3 608.306   5
   5   2   1 16941.5 783.460   9
  -5  -2  -1 18232.6 767.688   4
  -5  -2  -2 3883.91 321.338   2
   5   2   2 3626.57 362.571   9
   5   2   2 3486.07 309.579   1
  -5  -2  -2 3680.61 270.432   5
  -5  -2  -2 3930.83 360.758   4
  -5  -2  -3 32919.7 1207.97   1
   5   2   3 32491.5 1050.90   6
   5   2   3 32217.6 959.262   1
  -5  -2  -3 32227.4 916.247   5
   5   2   3 30492.0 1080.64   9
  -5  -2  -3 33513.9 1142.30   4
  -5  -2  -3 32445.2 919.472   2
   5   2   4 56748.9 1611.28   9
   5   2   4 60249.7 1349.45   2
   5   2   4 61067.9 1597.36   6
  -5  -2  -4 59302.4 1231.91   3
   5   2   4 58105.4 1409.10   1
  -5  -2  -4 56118.7 1528.29   1
  -5  -2  -4 57899.2 1446.27   2
  -5  -2  -4 62408.3 1723.08   4
   5   2   5 102081. 2164.44   2
   5   2   5 102201. 2348.28   6
  -5  -2  -5 99615.6 2043.10   3
   5   2   5 99693.0 2064.32   1
   5   2   5 102235. 2359.55   9
  -5  -2  -5 98450.0 2214.09   2
  -5  -2  -5 100225. 2482.96   4
   5   2   6 45146.2 1397.85   6
  -5  -2  -6 46773.1 1223.78   3
   5   2   6 45705.8 1099.24   1
   5   2   6 44030.1 1350.92   9
  -5  -2  -6 46412.4 1345.32   2
  -5  -2  -6 45255.6 1495.94   4
   5   2   7 23556.8 974.374   6
  -5  -2  -7 24548.3 895.641   3
   5   2   7 24355.9 676.044   1
  -5  -2  -7 23885.1 972.799   2
   5   2   7 23749.5 912.167   9
  -5  -2  -7 24219.8 1060.09   4
  -5  -2  -8 1548.98 273.765   4
  -5  -2  -8 741.637 213.932   2
   5   2   8 891.539 187.258   9
   5   2   8 1441.27 264.969   6
   5   2   8 1454.33 129.990   1
  -5  -2  -8 1198.59 230.412   3
   5   2   9 12019.3 724.511   6
   5   2   9 11574.6 612.949   9
  -5  -2  -9 11550.6 692.483   3
   5   2   9 11333.5 336.221   1
  -5  -2  -9 11031.1 740.014   2
  -5  -2  -9 12064.0 766.196   4
   5   2  10 13036.7 793.740   6
  -5  -2 -10 12383.1 787.867   3
  -5  -2 -10 13477.5 869.948   2
   5   2  10 13242.0 655.775   9
   5   2  10 12595.4 768.272   8
  -5  -2 -10 12830.7 825.450   4
   5   2  11 22257.0 1090.43   8
   5   2  11 21572.0 1080.30   6
  -5  -2 -11 22714.7 1153.54   3
  -5  -2 -11 22632.1 1223.89   2
   5   2  11 22919.6 877.846   9
  -5  -2 -11 22360.1 1146.48   4
   5   2  12 12840.6 864.874   6
  -5  -2 -12 12262.6 898.102   3
  -5  -2 -12 11202.1 929.425   2
  -5  -2 -12 13764.8 921.811   4
   5   2  12 12990.0 866.941   8
   5   2  13 6092.94 642.000   6
  -5  -2 -13 5932.31 730.563   2
  -5  -2 -13 5980.76 696.159   3
  -5  -2 -13 6683.19 665.053   4
   5   2  13 7475.62 694.202   8
   5   2  14 424.618 255.940   8
  -5  -2 -14-35.6745 201.215   4
  -5  -2 -14 817.318 390.603   2
   5   2  14-294.340 291.592   6
  -5  -2 -14 186.021 252.484   3
   5   2  15 700.292 328.230   8
  -5  -2 -15 658.398 333.309   2
   5   2  15 608.691 279.354   6
  -5  -2 -15 502.326 272.918   3
   5   2  16 7083.71 713.378   8
   5   2  16 5727.79 673.881   6
   5   3 -11 1532.79 393.565   3
   5   3 -11 2226.36 594.013   1
   5   3 -11 1850.79 451.929   5
  -5  -3  10 437.422 370.888   8
   5   3 -10 158.224 210.864   3
   5   3 -10 126.774 237.925   5
   5   3 -10 571.448 330.925   1
  -5  -3   9 5089.07 750.322   8
   5   3  -9 3937.95 492.232   3
   5   3  -9 3828.59 630.618   1
  -5  -3   8 17318.8 1291.92   8
   5   3  -8 16534.5 936.905   3
  -5  -3   8 17254.1 1041.73   6
   5   3  -8 17191.6 1085.79   5
   5   3  -8 19101.0 1263.66   1
  -5  -3   7 36605.7 1884.60   8
   5   3  -7 36643.9 1374.84   3
   5   3  -7 38729.3 1579.20   5
   5   3  -7 37395.2 1727.85   1
  -5  -3   6 14757.0 1130.04   8
   5   3  -6 14065.8 750.329   3
   5   3  -6 15794.2 912.090   5
   5   3  -6 17583.5 951.903   9
   5   3  -6 13911.4 956.172   1
  -5  -3   5 5993.34 721.395   8
   5   3  -5 6185.06 446.742   3
   5   3  -5 7123.83 582.595   5
  -5  -3   5 7552.39 364.018   4
   5   3  -5 7014.94 568.242   9
   5   3  -5 6501.48 618.238   1
   5   3  -4 1968.02 339.332   1
  -5  -3   4 1765.77 203.956   4
  -5  -3   4 1220.57 372.369   8
   5   3  -4 1857.85 288.718   9
   5   3  -4 1641.73 218.567   3
   5   3  -3 6721.97 546.911   1
   5   3  -3 6345.86 495.865   9
  -5  -3   3 6936.96 392.896   4
   5   3  -3 6027.12 346.793   3
  -5  -3   3 5376.32 655.248   8
   5   3  -3 7569.21 537.821   5
   5   3  -2 45522.5 1495.17   1
  -5  -3   2 43446.4 1901.47   8
   5   3  -2 49697.2 1507.30   9
   5   3  -2 47775.6 1069.86   3
   5   3  -2 48097.9 1442.93   5
  -5  -3   2 46965.2 1196.22   2
  -5  -3   2 48588.4 1283.77   4
   5   3  -1 71894.0 1887.41   1
   5   3  -1 75394.1 1823.71   5
   5   3  -1 75573.5 1923.02   9
  -5  -3   1 72270.5 1722.33   4
   5   3   0 81100.7 2030.95   1
  -5  -3   0 83061.8 1813.64   2
   5   3   0 85932.0 2016.67   5
   5   3   0 85284.1 2121.92   9
  -5  -3   0 84597.8 1992.52   4
   5   3   1 32299.4 1040.80   1
  -5  -3  -1 33595.0 949.243   2
   5   3   1 34138.6 1166.06   9
  -5  -3  -1 32692.8 1089.31   4
  -5  -3  -2 4269.12 330.105   2
   5   3   2 3733.77 306.669   1
   5   3   2 3500.87 312.210   6
   5   3   2 4418.63 381.296   9
  -5  -3  -2 3994.33 364.365   4
  -5  -3  -3 14383.6 708.184   2
   5   3   3 15394.1 585.694   1
   5   3   3 14441.7 666.720   6
   5   3   3 15202.0 720.486   9
  -5  -3  -3 16888.5 856.287   1
  -5  -3  -3 13753.8 709.678   4
  -5  -3  -4 68125.9 1764.84   1
   5   3   4 67228.2 1488.97   1
   5   3   4 69271.2 1553.95   2
   5   3   4 69548.1 1754.25   6
  -5  -3  -4 67906.7 1331.40   3
   5   3   4 69075.6 1798.84   9
  -5  -3  -4 68661.2 1874.02   4
  -5  -3  -4 63736.6 1927.27   2
   5   3   5 86959.1 2092.23   9
   5   3   5 84745.9 1693.23   1
   5   3   5 87298.7 2089.93   6
  -5  -3  -5 83143.2 1740.36   3
  -5  -3  -5 81495.0 1811.21   1
  -5  -3  -5 83315.9 2257.70   2
  -5  -3  -5 87090.1 2233.47   4
   5   3   6 53860.9 1120.12   1
   5   3   6 56698.9 1600.54   6
  -5  -3  -6 55866.8 1367.45   3
  -5  -3  -6 53576.1 1703.22   2
   5   3   6 54443.7 1536.99   9
  -5  -3  -6 55080.2 1699.19   4
   5   3   7 36661.4 730.458   1
  -5  -3  -7 36852.5 1405.43   2
   5   3   7 39684.0 1318.85   6
  -5  -3  -7 37936.8 1143.56   3
   5   3   7 38059.6 1210.16   9
  -5  -3  -7 38806.7 1394.22   4
  -5  -3  -8 967.097 264.520   4
   5   3   8 842.781 182.269   9
  -5  -3  -8 835.731 226.699   2
   5   3   8 1022.30 227.717   6
  -5  -3  -8 1705.28 269.407   3
  -5  -3  -9 389.023 224.335   4
  -5  -3  -9-49.4853 181.578   2
   5   3   9 427.711 183.502   6
  -5  -3  -9 475.398 215.497   3
   5   3   9 341.938 142.152   9
   5   3  10 36710.2 1422.31   6
  -5  -3 -10 36146.0 1411.48   3
  -5  -3 -10 35383.5 1585.84   2
   5   3  10 38816.8 1224.64   9
  -5  -3 -10 37374.2 1496.76   4
   5   3  11 24403.9 933.788   9
   5   3  11 24531.1 1182.79   6
  -5  -3 -11 24751.0 1219.22   3
  -5  -3 -11 25084.2 1386.01   2
   5   3  11 26082.7 1135.91   8
  -5  -3 -11 23722.8 1205.53   4
   5   3  12 27728.6 1312.08   6
  -5  -3 -12 22312.9 1258.38   3
  -5  -3 -12 24119.1 1450.83   2
   5   3  12 25216.4 904.377   9
   5   3  12 25788.9 1188.58   8
  -5  -3 -12 24385.9 1285.16   4
   5   3  13 10602.1 860.492   6
  -5  -3 -13 8793.92 832.241   3
  -5  -3 -13 9851.24 982.230   2
  -5  -3 -13 10311.2 835.815   4
   5   3  13 10347.5 771.069   8
   5   3  14 1104.66 294.249   8
  -5  -3 -14 1319.32 359.787   4
  -5  -3 -14 1460.69 496.784   2
   5   3  14 1829.74 433.407   6
  -5  -3 -14 2091.68 496.142   3
   5   3  15 1503.14 368.023   8
  -5  -3 -15 941.077 397.128   2
   5   3  15 1420.86 380.136   6
  -5  -3 -15 688.432 368.789   3
   5   3  16 1722.55 430.558   6
  -5  -3 -16 1379.91 432.559   3
  -5  -4  10 583.687 390.431   8
   5   4 -10-70.9892 223.963   3
   5   4 -10-184.151 367.689   1
   5   4 -10-180.837 325.810   5
  -5  -4   9 2795.70 589.269   8
   5   4  -9 3075.70 435.150   3
   5   4  -9 3630.95 616.105   1
   5   4  -9 3880.94 568.846   5
  -5  -4   8 20931.3 1528.10   8
   5   4  -8 19528.3 1034.31   3
   5   4  -8 21271.1 1227.34   5
   5   4  -8 22482.1 1367.29   1
  -5  -4   7 44747.4 2216.62   8
   5   4  -7 42402.6 1842.99   1
   5   4  -7 46953.0 1581.82   3
   5   4  -7 46574.9 1796.34   5
  -5  -4   6 56123.6 2499.73   8
   5   4  -6 63151.5 1826.70   3
   5   4  -6 62064.4 2056.45   5
   5   4  -6 58698.1 2136.16   1
  -5  -4   5 30751.6 1733.61   8
  -5  -4   5 32749.7 831.427   4
   5   4  -5 31552.3 1103.77   3
   5   4  -5 31319.7 1312.09   5
   5   4  -5 36055.1 1415.88   9
   5   4  -5 31763.3 1395.86   1
  -5  -4   4 134.694 97.0033   4
  -5  -4   4 245.500 313.866   8
   5   4  -4 114.374 105.812   3
   5   4  -4-123.041 167.407   5
   5   4  -4 482.347 238.992   1
   5   4  -4-10.1559 177.325   9
  -5  -4   3 6501.85 739.867   8
   5   4  -3 7435.81 397.599   3
   5   4  -3 6846.76 529.890   5
   5   4  -3 6977.49 547.475   9
  -5  -4   3 6349.55 386.189   4
   5   4  -3 7486.44 580.362   1
  -5  -4   2 63683.2 2425.43   8
   5   4  -2 72079.2 1978.56   9
   5   4  -2 70285.3 1495.75   3
   5   4  -2 68898.7 1899.93   5
  -5  -4   2 69180.5 1661.32   4
   5   4  -2 66443.6 1920.08   1
   5   4  -1 123408. 2246.90   3
   5   4  -1 123733. 2883.35   9
   5   4  -1 124766. 2809.66   5
  -5  -4   1 122872. 2631.46   4
   5   4  -1 125215. 2816.94   1
  -5  -4   0 104734. 2314.57   2
   5   4   0 112084. 2496.72   5
   5   4   0 109557. 2596.46   9
  -5  -4   0 106435. 2409.90   4
   5   4   0 109132. 2468.22   1
   5   4   1 43749.4 1386.29   9
  -5  -4  -1 42441.9 1200.79   2
  -5  -4  -1 42084.5 1291.48   4
   5   4   1 43796.0 1258.87   1
  -5  -4  -2 2047.61 278.661   4
   5   4   2 2384.03 260.476   6
  -5  -4  -2 2474.82 263.395   2
   5   4   2 2662.54 329.758   9
   5   4   2 2278.64 241.471   1
   5   4   3 18118.1 733.477   6
  -5  -4  -3 16518.3 752.992   2
  -5  -4  -3 15780.6 373.210   3
   5   4   3 18250.9 818.359   9
  -5  -4  -3 18325.4 785.847   1
  -5  -4  -3 16711.8 786.800   4
   5   4   3 18048.8 638.523   1
  -5  -4  -4 73442.8 2071.82   2
   5   4   4 76881.8 1997.68   9
  -5  -4  -4 74750.2 1548.81   3
   5   4   4 75919.3 1907.27   6
  -5  -4  -4 78811.2 1529.39   3
  -5  -4  -4 80625.9 2012.02   1
   5   4   4 81212.7 1651.82   1
  -5  -4  -4 75712.6 2032.09   4
  -5  -4  -5 106043. 2840.46   2
  -5  -4  -5 111656. 2341.49   1
   5   4   5 113063. 2610.54   9
   5   4   5 116354. 2605.00   6
  -5  -4  -5 116166. 2253.20   3
   5   4   5 113543. 2137.22   1
  -5  -4  -5 111751. 2268.30   8
  -5  -4  -5 117225. 2764.53   4
   5   4   6 108593. 2488.58   6
  -5  -4  -6 101517. 2201.13   3
   5   4   6 101940. 1842.10   1
   5   4   6 103663. 2444.20   9
  -5  -4  -6 95494.4 2715.68   2
  -5  -4  -6 102019. 2590.04   4
   5   4   7 22526.2 969.891   6
  -5  -4  -7 21721.1 845.198   3
   5   4   7 22372.2 903.898   9
  -5  -4  -7 22410.9 1181.94   2
  -5  -4  -7 21497.9 1033.14   4
   5   4   8 6153.00 522.707   6
  -5  -4  -8 4986.10 429.561   3
   5   4   8 6211.14 470.275   9
  -5  -4  -8 6399.49 682.159   2
  -5  -4  -8 5925.40 543.603   4
   5   4   9 7830.68 609.571   6
  -5  -4  -9 5371.66 641.829   2
  -5  -4  -9 7357.89 563.145   3
   5   4   9 6135.19 473.547   9
  -5  -4  -9 7433.89 629.926   4
   5   4  10 25642.0 1000.21   9
   5   4  10 27679.4 1238.33   6
  -5  -4 -10 25954.8 1192.39   3
  -5  -4 -10 25290.9 1453.54   2
  -5  -4 -10 26419.4 1267.90   4
   5   4  11 65718.2 2128.17   6
  -5  -4 -11 61598.5 2111.30   3
   5   4  11 63285.7 1719.07   9
  -5  -4 -11 62111.4 2162.30   4
  -5  -4 -11 61521.6 2476.04   2
   5   4  12 45693.7 1803.07   6
  -5  -4 -12 43480.7 1837.11   3
  -5  -4 -12 41106.5 2096.04   2
   5   4  12 44025.5 1320.69   9
   5   4  12 45785.9 1566.44   8
  -5  -4 -12 43192.0 1833.76   4
   5   4  13 14885.1 1052.55   6
  -5  -4 -13 12223.4 1014.55   3
  -5  -4 -13 13979.4 1246.93   2
   5   4  13 15474.4 882.095   8
  -5  -4 -13 15642.4 1091.45   4
   5   4  14 2219.19 387.853   8
  -5  -4 -14 2756.93 509.120   4
  -5  -4 -14 2552.37 649.421   2
   5   4  14 2108.05 449.600   6
  -5  -4 -14 3346.06 594.964   3
  -5  -4 -15 1002.87 390.363   2
   5   4  15 1346.90 424.857   6
  -5  -4 -15 565.508 390.180   3
   5   4  16 8669.67 887.260   6
  -5  -4 -16 9507.72 1056.04   3
  -5  -5  10 52.5255 416.829   8
   5   5 -10 399.014 385.495   1
   5   5 -10 248.607 262.823   3
   5   5 -10 92.5597 273.483   5
  -5  -5   9 7142.37 1008.85   8
   5   5  -9 7891.34 671.973   3
   5   5  -9 7800.04 810.601   5
   5   5  -9 9592.86 972.687   1
  -5  -5   8 22327.3 1721.98   8
   5   5  -8 23166.0 1131.51   3
   5   5  -8 24701.8 1357.23   5
   5   5  -8 23524.6 1435.40   1
  -5  -5   7 31704.1 1950.73   8
   5   5  -7 32844.7 1313.89   3
   5   5  -7 33746.9 1545.65   5
   5   5  -7 36779.5 1690.93   1
  -5  -5   6 46814.4 2236.63   8
   5   5  -6 45707.9 1505.05   3
   5   5  -6 48299.2 1793.70   5
   5   5  -6 44237.8 1805.01   1
   5   5  -5 17175.0 1022.44   9
   5   5  -5 15065.5 748.029   3
   5   5  -5 15639.2 932.808   5
   5   5  -5 14463.0 925.514   1
  -5  -5   4 565.838 283.240   8
  -5  -5   4 664.270 132.368   4
   5   5  -4 499.137 151.327   3
   5   5  -4 597.710 257.891   5
   5   5  -4 615.474 244.635   1
   5   5  -4 1126.19 295.064   9
  -5  -5   3 44016.2 1860.72   8
   5   5  -3 43983.5 1234.61   3
   5   5  -3 46264.9 1570.05   5
   5   5  -3 49097.3 1624.16   9
  -5  -5   3 43504.3 1205.87   4
   5   5  -3 45202.0 1572.52   1
   5   5  -2 76959.0 1735.05   3
   5   5  -2 82719.6 2177.01   5
   5   5  -2 80514.7 2157.24   1
   5   5  -2 81288.0 2216.09   9
  -5  -5   2 79854.1 1871.22   4
   5   5  -1 127790. 2434.48   3
   5   5  -1 128711. 2933.63   5
   5   5  -1 128980. 2911.40   1
   5   5  -1 131212. 3039.00   9
  -5  -5   1 123351. 2699.16   4
  -5  -5   0 125688. 3372.49   8
   5   5   0 135735. 2524.65   3
  -5  -5   0 136817. 2472.08   3
   5   5   0 138504. 3064.85   5
   5   5   0 144504. 3188.15   9
   5   5   0 139092. 2983.58   1
  -5  -5   0 132430. 2908.66   4
  -5  -5  -1 41587.9 1239.10   2
   5   5   1 41063.7 1147.77   6
  -5  -5  -1 39775.3 851.067   3
   5   5   1 41465.5 1402.39   9
   5   5   1 42041.9 1237.58   1
  -5  -5  -1 40659.9 1282.74   4
  -5  -5  -2 2769.25 318.867   4
   5   5   2 2402.28 267.111   6
  -5  -5  -2 2265.01 140.511   3
  -5  -5  -2 2404.82 272.718   2
   5   5   2 2498.66 267.059   1
   5   5   2 2398.47 324.707   9
   5   5   3 16102.6 624.770   1
  -5  -5  -3 15516.1 749.171   2
  -5  -5  -3 16425.4 471.580   3
   5   5   3 16698.8 708.608   6
  -5  -5  -3 16185.5 675.557   1
   5   5   3 16908.1 819.434   9
  -5  -5  -3 15633.8 790.125   4
  -5  -5  -4 78264.0 2129.74   4
  -5  -5  -4 79971.8 2133.26   2
  -5  -5  -4 77047.7 1611.50   3
   5   5   4 77970.7 1947.11   6
  -5  -5  -4 82291.8 1927.11   1
   5   5   4 78474.6 1690.06   1
   5   5   4 79104.3 2088.72   9
  -5  -5  -5 120964. 2898.88   4
  -5  -5  -5 113888. 2952.55   2
   5   5   5 120622. 2791.74   9
   5   5   5 120197. 2703.21   6
  -5  -5  -5 117391. 2493.52   1
   5   5   5 120411. 2261.19   1
  -5  -5  -5 116873. 2288.59   8
  -5  -5  -6 97294.6 2704.69   2
  -5  -5  -6 94306.9 1866.26   1
   5   5   6 99979.2 2412.74   6
   5   5   6 103809. 2450.24   9
  -5  -5  -6 99352.1 1960.65   8
  -5  -5  -6 101012. 2617.09   4
   5   5   7 52311.4 1652.30   6
   5   5   7 56444.4 1645.29   9
  -5  -5  -7 56346.1 1255.15   8
  -5  -5  -7 51082.7 1870.50   2
  -5  -5  -7 53289.6 1795.09   4
  -5  -5  -8-27.1428 201.493   4
  -5  -5  -8 133.323 198.671   2
   5   5   8 314.841 209.762   6
   5   5   8 58.8139 163.928   9
   5   5   9 15343.9 882.802   6
  -5  -5  -9 14815.8 857.447   3
   5   5   9 16467.4 789.795   9
  -5  -5  -9 14300.7 1009.27   2
  -5  -5  -9 15456.0 964.448   4
  -5  -5 -10 24716.8 1417.81   2
   5   5  10 26567.6 1254.13   6
  -5  -5 -10 23798.4 1215.29   3
   5   5  10 27371.2 1056.33   9
  -5  -5 -10 27007.6 1338.63   4
   5   5  11 42676.9 1693.89   6
  -5  -5 -11 40633.4 1735.91   3
   5   5  11 42595.4 1363.33   9
  -5  -5 -11 37046.7 1870.31   2
  -5  -5 -11 42112.6 1814.17   4
   5   5  12 27391.5 1384.01   6
  -5  -5 -12 23807.2 1397.85   3
  -5  -5 -12 24228.3 1554.96   2
  -5  -5 -12 27534.3 1499.53   4
   5   5  13 8034.42 786.265   6
  -5  -5 -13 7804.70 940.487   2
  -5  -5 -13 7966.65 877.631   3
   5   5  13 8890.75 597.636   8
  -5  -5 -13 7461.77 820.101   4
  -5  -5 -14 278.049 301.232   4
  -5  -5 -14 36.1285 333.775   2
   5   5  14 41.6076 265.415   6
  -5  -5 -14-106.466 385.573   3
  -5  -5 -15 1122.83 360.137   4
  -5  -5 -15 500.029 380.886   2
   5   5  15 1402.32 465.907   6
  -5  -5 -15 1274.81 460.460   3
   5   5  16 5342.50 765.928   6
  -5  -5 -16 3898.94 762.107   3
  -5  -6   9 6080.53 936.075   8
   5   6  -9 4095.17 497.042   3
   5   6  -9 5119.67 674.020   5
  -5  -6   8 19727.8 1507.38   8
   5   6  -8 15793.0 933.743   3
   5   6  -8 18519.7 1214.53   5
   5   6  -8 17401.6 1251.26   1
  -5  -6   7 41187.5 2119.03   8
   5   6  -7 42029.3 1539.10   3
   5   6  -7 43875.2 1843.57   5
   5   6  -7 43808.1 1902.65   1
  -5  -6   6 19744.9 1348.85   8
   5   6  -6 17273.1 891.567   3
   5   6  -6 19021.2 1116.88   5
   5   6  -6 18977.4 1149.80   1
  -5  -6   5 16923.5 1154.97   8
   5   6  -5 16667.7 830.150   3
   5   6  -5 18604.5 1058.34   5
   5   6  -5 17082.3 1044.49   1
  -5  -6   4-105.804 229.171   8
  -5  -6   4 103.271 100.634   4
   5   6  -4-43.2755 126.514   3
   5   6  -4 242.777 235.653   1
   5   6  -4-15.0562 190.401   5
  -5  -6   3 9590.73 764.226   8
   5   6  -3 9818.14 547.305   3
   5   6  -3 11083.6 750.854   5
   5   6  -3 9909.48 714.105   1
   5   6  -3 11252.3 787.305   9
  -5  -6   3 9783.86 512.662   4
  -5  -6   2 47503.9 1735.32   8
   5   6  -2 48443.1 1430.18   7
   5   6  -2 49022.0 1335.50   3
   5   6  -2 52556.1 1690.75   5
   5   6  -2 49387.7 1635.85   1
   5   6  -2 52641.0 1745.95   9
  -5  -6   2 50698.7 1393.22   4
  -5  -6   1 66486.6 2022.88   8
   5   6  -1 69543.1 1803.45   7
   5   6  -1 68651.3 1587.02   3
  -5  -6   1 64192.9 1508.75   6
  -5  -6   1 66366.2 1491.94   3
   5   6  -1 68974.2 1975.00   5
   5   6  -1 67889.3 1931.33   1
   5   6  -1 70841.4 2061.26   9
  -5  -6   1 68522.2 1763.15   4
  -5  -6   0 54197.2 1577.14   4
  -5  -6   0 55875.7 1740.61   8
   5   6   0 56179.3 1593.92   7
   5   6   0 56955.2 1362.61   3
  -5  -6   0 53779.7 1598.29   2
  -5  -6   0 57428.9 1274.49   3
   5   6   0 59102.8 1719.87   5
   5   6   0 55494.9 1626.44   1
   5   6   0 58127.2 1811.27   9
  -5  -6  -1 31825.2 1153.82   4
  -5  -6  -1 30558.2 1153.98   8
   5   6   1 31329.3 1125.18   7
  -5  -6  -1 32542.9 1134.66   2
   5   6   1 30915.4 959.714   6
  -5  -6  -1 30976.6 805.790   3
   5   6   1 31120.0 1087.86   1
   5   6   1 32583.2 1255.31   9
  -5  -6  -2 147.511 115.139   8
   5   6   2 601.812 188.292   7
   5   6   2 282.250 124.091   6
  -5  -6  -2 407.622 88.1811   3
   5   6   2 278.999 131.274   1
  -5  -6  -2 352.370 133.261   2
   5   6   2 370.163 201.819   9
  -5  -6  -2 228.527 146.966   4
  -5  -6  -3 15155.7 811.343   4
  -5  -6  -3 13459.3 692.019   8
   5   6   3 15285.5 781.788   7
  -5  -6  -3 14027.5 738.237   2
  -5  -6  -3 14643.8 504.380   3
   5   6   3 14747.1 667.389   6
   5   6   3 14676.4 621.657   1
   5   6   3 13996.0 780.885   9
  -5  -6  -4 38957.5 1420.21   4
   5   6   4 38833.1 1362.20   7
  -5  -6  -4 40833.9 1415.57   2
  -5  -6  -4 38302.4 1011.70   3
  -5  -6  -4 39427.2 1123.10   1
   5   6   4 40900.1 1258.40   6
   5   6   4 40434.6 1387.19   9
  -5  -6  -5 70735.7 2132.76   4
  -5  -6  -5 78920.4 2216.27   2
   5   6   5 71929.1 2044.42   7
  -5  -6  -5 70475.6 1674.32   3
   5   6   5 73621.0 1914.68   6
  -5  -6  -5 71522.7 1683.95   1
   5   6   5 73660.9 2033.79   9
  -5  -6  -5 72792.0 1463.59   8
  -5  -6  -6 47573.3 1690.28   4
  -5  -6  -6 47721.8 1748.72   2
   5   6   6 46753.6 1590.68   7
   5   6   6 49203.2 1529.65   6
  -5  -6  -6 45537.6 1121.34   1
   5   6   6 46779.3 1520.99   9
  -5  -6  -6 48061.8 1034.10   8
  -5  -6  -7 33175.5 1417.47   4
  -5  -6  -7 33248.1 1466.76   2
   5   6   7 34584.0 1349.28   7
   5   6   7 32139.0 1252.98   6
   5   6   7 35877.9 1276.96   9
  -5  -6  -7 32772.4 797.299   8
  -5  -6  -8 8143.20 337.991   8
  -5  -6  -8 7632.26 700.746   4
   5   6   8 8205.98 627.743   6
   5   6   8 7661.79 565.626   9
  -5  -6  -8 8461.46 727.392   2
  -5  -6  -9 2373.47 409.700   4
  -5  -6  -9 2835.81 451.505   2
   5   6   9 3604.23 449.274   6
   5   6   9 3677.56 391.685   9
   5   6  10 25975.1 1249.99   6
  -5  -6 -10 22920.7 1321.47   2
  -5  -6 -10 24590.9 1347.62   4
   5   6  11 21885.3 1211.00   6
  -5  -6 -11 21697.2 1334.92   2
  -5  -6 -11 18769.2 1232.93   4
   5   6  12 25198.5 1381.34   6
  -5  -6 -12 22067.6 1462.11   3
  -5  -6 -12 22696.2 1440.71   2
  -5  -6 -12 24757.0 1490.13   4
   5   6  13 9846.71 913.156   6
  -5  -6 -13 9344.61 1015.39   3
  -5  -6 -13 9701.54 977.422   2
  -5  -6 -13 11281.0 1062.12   4
  -5  -6 -14 1049.33 467.125   4
  -5  -6 -14 1505.13 486.479   2
   5   6  14 1486.73 480.475   6
  -5  -6 -14 432.016 395.573   3
  -5  -6 -15 411.401 429.270   4
  -5  -6 -15 240.773 342.670   2
   5   6  15 636.665 360.673   6
  -5  -6 -15-386.939 365.139   3
  -5  -6 -16 565.059 447.275   3
  -5  -7   9 1243.25 494.680   8
   5   7  -9 2475.54 529.436   5
  -5  -7   8 10751.2 1081.46   8
   5   7  -8 8697.93 706.102   3
   5   7  -8 12353.0 1004.43   5
  -5  -7   7 17790.8 1311.78   8
   5   7  -7 17171.3 960.571   3
   5   7  -7 18599.2 1199.77   5
  -5  -7   6 27174.8 1506.51   8
   5   7  -6 26035.2 1156.59   3
   5   7  -6 27933.4 1414.08   5
  -5  -7   5 10437.1 853.680   8
   5   7  -5 11008.8 695.701   3
   5   7  -5 10072.0 812.950   5
  -5  -7   4 3698.92 491.564   8
   5   7  -4 3671.44 368.029   7
   5   7  -4 3778.94 392.439   3
   5   7  -4 4294.66 526.204   1
   5   7  -4 4087.68 502.487   5
  -5  -7   4 4194.68 314.007   4
  -5  -7   3 142.774 117.136   4
   5   7  -3 132.161 140.283   7
   5   7  -3 209.076 167.822   3
   5   7  -3 491.096 249.070   1
   5   7  -3-95.4413 225.177   5
  -5  -7   2 20535.5 855.638   4
  -5  -7   2 21144.2 1021.47   8
   5   7  -2 20964.2 908.697   7
   5   7  -2 20440.4 837.677   3
   5   7  -2 20577.8 1037.01   5
   5   7  -2 22853.4 1076.70   1
  -5  -7   1 28921.0 1071.77   4
  -5  -7   1 27704.1 1119.06   8
   5   7  -1 28345.9 1091.78   7
   5   7  -1 28426.0 974.221   3
   5   7  -1 29553.2 1223.50   5
   5   7  -1 29767.1 1200.92   1
  -5  -7   0 50390.4 1565.44   4
  -5  -7   0 54414.8 1567.92   8
   5   7   0 52293.1 1600.03   7
   5   7   0 53213.7 1422.35   3
  -5  -7   0 51890.1 1622.46   2
   5   7   0 53092.4 1699.43   5
  -5  -7  -1 49421.7 1580.75   4
  -5  -7  -1 48610.1 1389.52   8
   5   7   1 48217.4 1539.13   7
  -5  -7  -1 48223.1 1537.57   2
   5   7   1 48703.4 1279.90   6
  -5  -7  -1 47711.9 1208.11   3
   5   7   1 52165.0 1736.48   9
  -5  -7  -2 6934.24 547.207   4
  -5  -7  -2 7416.90 441.170   8
   5   7   2 6200.42 529.813   7
  -5  -7  -2 7853.06 564.637   2
   5   7   2 7437.72 444.243   6
  -5  -7  -2 6945.47 375.898   3
   5   7   2 7066.47 584.197   9
  -5  -7  -3 1282.50 184.520   8
   5   7   3 1996.04 314.027   7
   5   7   3 1635.29 231.868   6
  -5  -7  -3 1046.36 160.314   3
  -5  -7  -3 1473.30 277.672   2
   5   7   3 1703.57 314.629   9
  -5  -7  -4 33591.4 892.956   8
   5   7   4 32463.8 1279.01   7
  -5  -7  -4 33212.0 1292.37   2
  -5  -7  -4 31178.0 953.337   3
   5   7   4 31581.3 1114.30   6
   5   7   4 33054.3 1305.62   9
  -5  -7  -5 63063.9 1352.26   8
  -5  -7  -5 66151.8 2055.14   2
   5   7   5 66957.1 1991.52   7
  -5  -7  -5 63902.8 1526.96   1
   5   7   5 64302.6 1793.94   6
   5   7   5 66182.0 1958.68   9
  -5  -7  -5 63557.3 1236.07   8
  -5  -7  -6 53144.6 1903.83   4
  -5  -7  -6 51105.1 1097.04   8
  -5  -7  -6 54998.3 1908.72   2
   5   7   6 52726.5 1776.32   7
  -5  -7  -6 54170.9 1293.58   1
   5   7   6 53204.3 1644.29   6
   5   7   6 56463.0 1752.88   9
  -5  -7  -6 50648.8 996.249   8
  -5  -7  -7 25008.3 539.026   8
  -5  -7  -7 26652.3 1328.03   4
  -5  -7  -7 27367.9 1355.79   2
   5   7   7 28063.8 1255.60   7
   5   7   7 26452.1 1134.85   6
  -5  -7  -7 25363.1 643.246   1
  -5  -7  -8 8226.83 744.912   2
  -5  -7  -8 7484.95 724.981   4
   5   7   8 8776.62 708.277   7
   5   7   8 9112.52 680.401   6
   5   7   9 233.838 227.185   7
  -5  -7  -9 457.750 233.597   4
   5   7   9-9.52231 194.178   6
  -5  -7  -9 396.047 263.656   2
  -5  -7 -10 4546.77 622.581   4
  -5  -7 -10 4568.25 606.388   2
   5   7  10 4666.21 565.443   6
  -5  -7 -11 20017.9 1335.26   4
   5   7  11 20435.8 1210.58   6
  -5  -7 -11 18911.8 1237.17   2
   5   7  12 15930.9 1124.74   6
  -5  -7 -12 15740.7 1164.72   2
  -5  -7 -12 16107.8 1281.24   4
   5   7  13 13332.0 1085.14   6
  -5  -7 -13 11260.6 1204.72   3
  -5  -7 -13 14861.1 1186.34   2
  -5  -7 -13 13779.0 1228.28   4
  -5  -7 -14 5522.23 806.631   4
  -5  -7 -14 5559.26 776.639   2
   5   7  14 6096.07 785.964   6
  -5  -7 -15 315.380 357.878   2
   5   7  15 80.3969 318.840   6
  -5  -7 -15-258.989 477.895   3
  -5  -8   8 7663.81 876.798   8
   5   8  -8 6015.28 615.629   3
   5   8  -8 8625.03 849.200   5
   5   8  -7 15305.1 917.097   3
   5   8  -7 17650.9 1191.41   5
  -5  -8   7 17734.0 1234.96   8
  -5  -8   6 31380.5 1577.53   8
   5   8  -6 29560.2 1287.87   3
   5   8  -6 33359.5 1619.84   5
  -5  -8   5 19109.6 1149.41   8
   5   8  -5 21466.2 901.811   7
   5   8  -5 18620.6 969.250   3
   5   8  -5 20379.5 1201.86   5
  -5  -8   4 7296.42 657.649   8
   5   8  -4 6781.51 519.357   7
   5   8  -4 6590.20 538.960   3
   5   8  -4 6057.54 636.482   5
  -5  -8   3 2117.60 353.648   8
  -5  -8   3 1823.25 252.710   4
   5   8  -3 2275.40 322.667   7
   5   8  -3 1851.29 294.684   3
   5   8  -3 2307.43 399.762   5
  -5  -8   2 22256.1 1015.71   8
  -5  -8   2 23472.2 964.254   4
   5   8  -2 20562.5 963.608   7
   5   8  -2 22172.4 937.235   3
   5   8  -2 23504.3 1162.68   5
  -5  -8   1 77334.4 2039.24   8
  -5  -8   1 75451.0 2071.71   4
   5   8  -1 73785.6 2095.63   7
   5   8  -1 75348.9 1963.86   3
   5   8  -1 76955.6 2285.61   5
  -5  -8   0 63619.8 1693.35   8
   5   8   0 63992.2 1893.96   7
   5   8   0 60756.0 1697.43   3
  -5  -8   0 60762.6 1904.43   2
   5   8   0 65025.3 1980.43   5
  -5  -8  -1 49525.3 1344.27   8
   5   8   1 48140.9 1612.45   7
  -5  -8  -1 48098.1 1632.18   2
   5   8   1 46772.4 1262.97   6
  -5  -8  -2 24812.8 796.183   8
   5   8   2 25241.7 1134.03   7
  -5  -8  -2 24658.9 1101.34   2
   5   8   2 23709.8 865.248   6
  -5  -8  -3 166.458 91.5388   8
   5   8   3 215.248 197.191   7
   5   8   3 101.085 121.806   6
  -5  -8  -3-46.3657 169.920   2
  -5  -8  -4 17715.4 480.118   8
   5   8   4 18209.1 994.003   7
  -5  -8  -4 18733.9 987.072   2
   5   8   4 18304.1 811.271   6
  -5  -8  -5 37457.3 1501.49   2
   5   8   5 39253.0 1546.28   7
   5   8   5 38082.4 1325.63   6
  -5  -8  -6 82856.0 2506.10   2
   5   8   6 81734.5 2452.72   7
   5   8   6 78172.7 2191.93   6
  -5  -8  -7 32959.0 1532.53   2
   5   8   7 32718.9 1453.58   7
   5   8   7 31811.4 1308.57   6
  -5  -8  -8 14229.9 1011.21   2
   5   8   8 13393.3 939.329   7
   5   8   8 14031.2 871.043   6
  -5  -8  -9 838.298 340.785   4
   5   8   9 678.984 280.210   7
   5   8   9 1140.10 316.143   6
  -5  -8  -9 1763.99 422.013   2
  -5  -8 -10 13077.5 1104.26   4
   5   8  10 13205.8 1005.69   7
   5   8  10 14777.5 989.397   6
  -5  -8 -10 13669.9 1022.76   2
  -5  -8 -11 24828.4 1586.42   4
   5   8  11 25299.2 1395.20   6
  -5  -8 -11 24955.1 1447.50   2
  -5  -8 -12 39389.1 2073.84   4
   5   8  12 36342.9 1792.43   6
  -5  -8 -12 37742.0 1853.58   2
  -5  -8 -13 15718.3 1305.58   4
   5   8  13 16558.5 1242.86   6
  -5  -8 -13 18630.4 1332.29   2
  -5  -8 -14 3417.01 616.156   4
  -5  -8 -14 2971.50 602.665   2
   5   8  14 3004.36 581.228   6
  -5  -8 -15-578.288 401.206   4
  -5  -8 -15 689.807 398.821   3
  -5  -9   8 8551.42 875.782   8
   5   9  -7 19662.1 1093.51   3
   5   9  -7 23674.6 1400.11   5
  -5  -9   7 23705.9 1362.78   8
   5   9  -6 23978.8 1152.99   3
   5   9  -6 26151.7 1455.61   5
  -5  -9   6 23560.3 1318.27   8
   5   9  -5 23127.6 991.063   7
   5   9  -5 24904.1 1153.86   3
   5   9  -5 26034.0 1420.50   5
  -5  -9   5 24827.5 1278.47   8
  -5  -9   4 1778.48 339.901   8
   5   9  -4 2604.14 362.290   7
   5   9  -4 2336.31 361.556   3
   5   9  -4 2084.33 424.421   5
  -5  -9   3 1137.34 266.215   8
   5   9  -3 1128.70 270.064   7
   5   9  -3 739.615 227.435   3
   5   9  -3 1051.47 340.253   5
  -5  -9   3 1123.19 234.524   4
  -5  -9   2 25696.5 1093.88   8
  -5  -9   2 25705.6 1079.01   4
   5   9  -2 26613.2 1169.48   7
   5   9  -2 25606.3 1110.68   3
   5   9  -2 26961.3 1306.43   5
  -5  -9   1 72637.9 1948.78   8
   5   9  -1 72897.8 2148.25   7
   5   9  -1 73034.4 2059.45   3
  -5  -9   1 72726.0 2231.24   2
   5   9  -1 72080.1 2260.78   5
  -5  -9   0 77271.9 1940.00   8
   5   9   0 75721.3 2262.88   7
   5   9   0 80940.2 2154.49   3
  -5  -9   0 78923.9 2333.11   2
   5   9   0 83047.0 2389.54   5
   5   9   1 39854.5 1525.89   7
  -5  -9  -1 40818.5 1540.53   2
   5   9   1 39290.4 1093.15   6
  -5  -9  -1 39248.0 1138.84   8
   5   9   2 4259.20 350.413   6
  -5  -9  -2 3139.21 435.619   2
  -5  -9  -2 3792.58 273.516   8
   5   9   3 7161.85 646.393   7
  -5  -9  -3 5908.07 572.927   2
   5   9   3 7035.65 474.133   6
  -5  -9  -3 6125.05 281.421   8
   5   9   4 26899.5 1300.45   7
  -5  -9  -4 28483.7 1294.74   2
   5   9   4 29503.0 1099.25   6
  -5  -9  -5 80745.8 2474.96   2
   5   9   5 80929.3 2511.99   7
   5   9   5 81903.7 2189.80   6
  -5  -9  -6 58514.3 2081.66   2
   5   9   6 54377.1 2006.77   7
   5   9   6 55230.4 1762.53   6
  -5  -9  -7 39872.9 1739.57   2
   5   9   7 37738.1 1671.71   7
   5   9   7 40271.6 1521.23   6
  -5  -9  -8 8637.12 849.689   2
   5   9   8 10792.6 878.963   7
   5   9   8 11630.7 816.250   6
   5   9   9 562.086 291.116   7
   5   9   9 332.494 238.873   6
  -5  -9  -9 1068.89 381.140   2
   5   9  10 11915.5 933.931   7
   5   9  10 12718.5 964.779   6
  -5  -9 -10 13685.0 1062.45   2
  -5  -9 -11 24211.9 1600.83   4
   5   9  11 27982.1 1419.54   7
   5   9  11 25998.0 1453.58   6
  -5  -9 -11 27564.8 1546.50   2
  -5  -9 -12 18462.7 1364.32   4
   5   9  12 16509.7 1221.46   6
  -5  -9 -12 19104.1 1311.14   2
   5   9  13 13959.5 1173.27   6
  -5  -9 -13 15051.0 1183.20   2
  -5  -9 -14 1095.68 437.074   4
  -5  -9 -14 1948.14 508.508   2
   5   9  14 1393.46 463.403   6
  -5  -9 -15 1149.25 357.306   4
  -5 -10   7 16172.7 1098.38   8
   5  10  -6 20659.0 1120.08   3
   5  10  -6 20754.0 1315.13   5
  -5 -10   6 23967.4 1260.46   8
   5  10  -5 9164.86 710.576   3
   5  10  -5 9393.77 877.623   5
  -5 -10   5 9364.69 756.570   8
  -5 -10   4 2141.55 360.516   8
   5  10  -4 2190.97 345.240   7
   5  10  -4 2410.76 399.391   3
   5  10  -4 1892.93 396.102   5
   5  10  -3 7894.88 648.719   7
   5  10  -3 7408.65 619.473   3
   5  10  -3 8067.78 777.451   5
  -5 -10   3 8691.81 648.717   8
   5  10  -2 12573.2 844.995   7
   5  10  -2 12702.9 799.336   3
   5  10  -2 13034.7 935.168   5
  -5 -10   2 13789.9 766.379   8
   5  10  -1 33143.1 1443.50   7
   5  10  -1 34705.5 1368.02   3
  -5 -10   1 34227.6 1511.61   2
   5  10  -1 35257.0 1532.95   5
  -5 -10   1 34008.8 1185.34   8
   5  10   0 35524.3 1513.00   7
   5  10   0 40740.5 1490.49   3
  -5 -10   0 36595.0 1555.36   2
  -5 -10   0 37308.2 1170.85   8
   5  10   1 25796.8 1275.54   7
  -5 -10  -1 27334.9 1313.06   2
  -5 -10  -1 27310.2 869.280   8
   5  10   2 4612.35 551.048   7
   5  10   2 4434.25 345.436   6
  -5 -10  -2 5107.88 559.301   2
   5  10   3 1191.50 310.722   7
   5  10   3 1743.03 254.091   6
  -5 -10  -3 1625.63 355.036   2
   5  10   4 21925.7 1218.77   7
  -5 -10  -4 22203.3 1187.47   2
   5  10   4 20466.0 924.355   6
  -5 -10  -5 30433.2 1441.72   2
   5  10   5 31092.3 1492.35   7
   5  10   5 29267.6 1197.31   6
  -5 -10  -6 55041.1 2083.87   2
   5  10   6 53155.6 2073.25   7
   5  10   6 52724.6 1772.03   6
  -5 -10  -7 23077.7 1345.70   2
   5  10   7 25431.4 1380.53   7
   5  10   7 24763.3 1204.53   6
   5  10   8 1031.66 321.142   7
   5  10   8 1379.59 338.243   6
  -5 -10  -8 1452.76 401.451   2
   5  10   9 614.385 320.889   7
   5  10   9 341.844 280.171   6
  -5 -10  -9 376.664 295.113   2
   5  10  10 9980.33 859.304   7
   5  10  10 10533.1 906.403   6
  -5 -10 -10 11549.7 1012.40   2
   5  10  11 14468.6 1015.19   7
   5  10  11 17097.2 1193.20   6
  -5 -10 -11 14975.1 1164.40   2
  -5 -10 -12 16596.0 1293.42   4
   5  10  12 15092.1 1017.07   7
   5  10  12 13375.2 1121.85   6
  -5 -10 -12 17195.6 1250.58   2
  -5 -10 -13 7309.13 872.649   4
  -5 -10 -13 7529.09 853.854   2
   5  10  13 7879.64 890.845   6
  -5 -10 -14 2993.55 565.426   4
  -5 -11   5 12927.0 852.533   8
   5  11  -4 3284.59 431.944   7
   5  11  -4 2887.78 445.969   3
   5  11  -4 2905.95 513.499   5
   5  11  -3 128.731 189.465   7
   5  11  -3 494.994 241.834   3
   5  11  -3 528.426 333.167   5
   5  11  -2 7168.92 671.669   7
   5  11  -2 8760.68 696.786   3
  -5 -11   2 8078.93 775.176   2
   5  11  -2 8744.72 794.345   5
   5  11  -1 13985.3 954.939   7
   5  11  -1 15035.9 925.579   3
  -5 -11   1 15072.2 1033.51   2
   5  11  -1 15453.8 1040.82   5
   5  11   0 23005.1 1253.29   7
  -5 -11   0 23032.9 1275.54   2
   5  11   1 15270.6 1021.76   7
  -5 -11  -1 16010.1 1046.62   2
   5  11   2 12329.8 927.234   7
  -5 -11  -2 12007.2 910.847   2
   5  11   3 417.534 290.302   7
   5  11   3 551.011 175.566   6
  -5 -11  -3 34.6335 239.392   2
   5  11   4 4723.67 624.071   7
   5  11   4 5526.90 467.386   6
  -5 -11  -4 5358.38 622.420   2
  -5 -11  -5 17356.8 1135.11   2
   5  11   5 16549.7 1131.13   7
   5  11   5 15488.9 850.588   6
  -5 -11  -6 19217.1 1228.35   2
   5  11   6 21890.1 1312.40   7
   5  11   6 20266.8 1048.48   6
  -5 -11  -7 23956.7 1417.05   2
   5  11   7 22935.3 1339.67   7
   5  11   7 23024.9 1177.71   6
  -5 -11  -8 8446.81 887.684   2
   5  11   8 6873.38 744.825   7
   5  11   8 6806.60 679.628   6
   5  11   9 4.29489 243.674   7
   5  11   9-85.4724 219.932   6
  -5 -11  -9-377.260 361.054   2
   5  11  10 461.595 301.750   7
   5  11  10 770.316 359.630   6
  -5 -11 -10 938.902 385.661   2
   5  11  11 5900.80 660.373   7
   5  11  11 6804.58 788.066   6
  -5 -11 -11 7435.71 842.932   2
   5  11  12 12491.1 917.044   7
   5  11  12 13403.5 1115.78   6
  -5 -11 -12 13209.9 1108.08   2
   5  11  13 8640.60 741.857   7
  -5 -11 -13 8774.42 928.783   4
   5  12  -3 161.096 207.378   7
   5  12  -3 414.866 264.139   3
  -5 -12   3 373.105 314.768   2
   5  12  -3 288.394 243.240   5
   5  12  -2 2751.91 457.283   7
   5  12  -2 2693.75 429.649   3
  -5 -12   2 1945.16 484.069   2
   5  12  -2 3641.19 570.761   5
   5  12  -1 12133.0 915.303   7
   5  12  -1 10509.0 820.031   3
  -5 -12   1 11312.5 936.396   2
   5  12   0 36087.4 1683.78   7
  -5 -12   0 43110.0 1854.82   2
   5  12   1 20451.5 1246.80   7
  -5 -12  -1 20450.2 1243.35   2
   5  12   2 17826.8 1188.04   7
  -5 -12  -2 16832.5 1160.75   2
   5  12   3 3023.71 536.082   7
  -5 -12  -3 2805.08 505.482   2
   5  12   4 2256.16 521.440   7
  -5 -12  -4 2018.78 470.526   2
  -5 -12  -5 20801.4 1315.75   2
   5  12   5 20143.0 1312.72   7
   5  12   5 18747.8 935.269   6
  -5 -12  -6 20019.7 1321.89   2
   5  12   6 21839.2 1346.66   7
   5  12   6 19421.2 1021.21   6
  -5 -12  -7 29972.0 1668.26   2
   5  12   7 28697.3 1550.26   7
   5  12   7 27297.6 1298.07   6
  -5 -12  -8 15846.5 1238.74   2
   5  12   8 14427.2 1087.23   7
   5  12   8 14671.5 986.632   6
   5  12   9 860.345 372.354   7
   5  12   9 430.960 293.526   6
  -5 -12  -9 1037.36 372.908   2
   5  12  10 1799.94 431.307   7
   5  12  10 1322.32 397.066   6
  -5 -12 -10 1390.64 432.121   2
   5  12  11 7279.47 724.481   7
   5  12  11 6349.95 753.587   6
  -5 -12 -11 7780.01 862.696   2
   5  12  12 9255.69 808.828   7
   5  13  -2 4196.61 551.100   7
   5  13  -1 16916.5 1092.16   7
   5  13   0 20454.2 1248.14   7
  -5 -13   0 20427.8 1287.19   2
   5  13   1 34383.6 1695.67   7
  -5 -13  -1 36269.3 1751.42   2
   5  13   2 4458.97 635.636   7
  -5 -13  -2 4193.97 624.594   2
   5  13   3 106.327 289.078   7
  -5 -13  -3 307.106 302.030   2
   5  13   4 5650.81 728.150   7
  -5 -13  -4 7254.51 798.506   2
  -5 -13  -5 19861.2 1322.82   2
   5  13   5 19487.5 1305.93   7
  -5 -13  -6 27585.0 1605.15   2
   5  13   6 29143.4 1588.25   7
  -5 -13  -7 14669.7 1196.46   2
   5  13   7 14617.4 1094.92   7
   5  13   7 12635.1 855.529   6
  -5 -13  -8 11140.4 1066.28   2
   5  13   8 10133.8 914.277   7
   5  13   8 9596.42 793.720   6
   5  13   9 1389.76 472.083   7
   5  13   9 754.496 324.013   6
  -5 -13  -9 883.466 372.346   2
   5  13  10 940.765 305.777   7
   5  13  10 1432.60 398.180   6
  -6   8   1 992.643 403.796   4
  -6   8   0 12996.3 1101.48   4
   6  -8   0 10537.6 1020.27   1
   6  -8   1 9010.61 972.418   1
  -6   8  -4 1519.40 395.904   3
  -6   8  -5 1445.15 377.324   3
  -6   7   7 1962.91 476.437   8
  -6   7   6 8356.70 818.947   7
   6  -7  -4 12175.8 1059.90   1
  -6   7   4 9738.75 917.447   4
  -6   7   3 5660.88 722.229   4
   6  -7  -3 5485.23 731.579   1
  -6   7   2 139.586 276.184   4
   6  -7  -2 474.918 377.135   1
  -6   7   1 4964.60 684.503   4
   6  -7  -1 5438.31 733.660   1
  -6   7   0 12688.8 1057.36   4
   6  -7   0 12353.1 1093.50   1
  -6   7  -1 28679.8 1574.51   4
   6  -7   1 24652.6 1554.21   1
  -6   7  -2 11907.4 1031.91   4
   6  -7   2 14047.5 1167.89   1
  -6   7  -3 3850.49 623.704   4
   6  -7   3 3642.48 645.397   1
  -6   7  -4 29.8036 303.363   4
   6  -7   4 103.901 292.420   1
  -6   7  -4 71.7746 251.999   3
  -6   7  -5-30.6378 304.781   3
   6  -7   5 567.918 404.498   1
  -6   7  -6 5196.22 697.854   4
  -6   7  -6 4718.34 602.004   3
   6  -7   6 4618.47 702.068   1
  -6   7  -7 9473.52 831.263   3
   6  -7   7 9671.18 969.815   1
  -6   6   8-93.0614 305.188   8
  -6   6   7 1991.76 468.044   8
   6  -6  -6 7418.80 775.030   1
   6  -6  -5 15596.4 1120.36   1
  -6   6   5 14196.6 1049.51   4
  -6   6   4 6678.87 748.005   4
   6  -6  -4 9368.85 891.661   1
  -6   6   3 2801.14 509.739   4
   6  -6  -3 3447.97 563.758   1
  -6   6   2 126.683 303.428   4
   6  -6  -2 285.088 299.330   1
  -6   6   1 2764.70 513.944   4
   6  -6  -1 3420.49 588.923   1
   6  -6   0 7386.87 825.509   1
  -6   6   0 7249.41 761.629   4
  -6   6  -1 16181.4 1138.14   4
   6  -6   1 17087.8 1239.93   1
  -6   6  -2 17368.8 1186.33   4
   6  -6   2 17769.0 1284.38   1
   6  -6   3 8769.82 926.753   1
  -6   6  -3 9296.20 765.629   3
  -6   6  -3 9717.06 891.043   4
  -6   6  -4 273.472 267.757   4
   6  -6   4 305.976 295.411   1
  -6   6  -4 549.292 279.250   3
  -6   6  -5 2791.79 513.715   4
  -6   6  -5 2635.42 415.286   3
   6  -6   5 2461.58 544.861   1
   6  -6   6 9442.21 908.148   1
  -6   6  -6 8018.11 733.244   3
   6  -6   7 14169.6 1136.93   1
  -6   6  -7 13219.2 949.970   3
  -6   6  -7 13240.3 1056.95   4
  -6   6  -8 13300.9 947.379   3
   6  -6   8 12341.2 1047.96   1
  -6   6  -8 11817.4 974.348   4
  -6   6  -9 5660.44 711.904   4
  -6   6  -9 4874.79 626.904   3
  -6   5   8-178.097 273.833   8
   6  -5  -8 344.780 342.579   1
  -6   5   7 663.490 383.937   8
   6  -5  -7 495.712 326.088   1
   6  -5  -6 7219.39 777.613   1
   6  -5  -5 18365.5 1209.18   1
  -6   5   5 20958.3 1211.99   4
   6  -5  -4 19416.9 1258.21   1
  -6   5   4 22140.1 1246.63   4
   6  -5  -3 14043.6 1060.72   1
  -6   5   3 14637.8 1023.78   4
  -6   5   2 1564.41 406.671   4
   6  -5  -2 1405.41 375.253   1
  -6   5   1 1406.43 344.792   4
   6  -5  -1 938.059 343.685   1
  -6   5   0 11919.0 914.087   4
   6  -5   0 11606.8 976.124   1
  -6   5  -1 20564.8 1195.59   4
   6  -5   1 20275.0 1289.46   1
  -6   5  -2 29972.4 1485.29   4
   6  -5   2 29707.5 1607.72   1
   6  -5   3 14844.7 1137.79   1
  -6   5  -3 15006.6 926.682   3
  -6   5  -3 15640.5 1066.42   4
  -6   5  -4 4420.86 595.262   4
   6  -5   4 4148.46 621.573   1
  -6   5  -4 3677.53 475.256   3
  -6   5  -5 397.437 238.500   4
  -6   5  -5 469.137 235.746   3
   6  -5   5 826.769 347.844   1
   6  -5   6 14253.6 1110.13   1
  -6   5  -6 14388.3 941.906   3
  -6   5  -6 14709.5 1077.99   4
   6  -5   7 17087.5 1215.96   1
  -6   5  -7 16972.1 1036.92   3
  -6   5  -7 19521.6 1233.63   4
   6  -5   8 17401.3 1225.86   1
  -6   5  -8 18408.1 1095.45   3
  -6   5  -8 18291.0 1209.29   4
  -6   5  -9 13654.4 971.756   3
   6  -5   9 13204.2 1055.87   1
  -6   5  -9 13573.2 1045.73   4
  -6   5 -10 757.019 338.264   4
  -6   5 -10 1098.61 342.449   3
  -6   4   9 6019.14 697.786   8
   6  -4  -9 4691.77 618.572   1
  -6   4   8 107.798 274.098   8
   6  -4  -8 428.424 316.139   1
  -6   4   7 3076.28 559.121   8
   6  -4  -7 2525.36 489.832   1
   6  -4  -6 10670.8 921.435   1
  -6   4   6 10665.9 816.295   4
   6  -4  -5 20722.2 1270.25   1
  -6   4   5 23598.0 1231.33   4
   6  -4  -4 27560.0 1435.63   1
  -6   4   4 27586.6 1356.73   4
   6  -4  -3 27280.1 1435.53   1
  -6   4   3 28633.9 1369.88   4
   6  -4  -2 7339.30 743.527   1
  -6   4   2 6377.92 635.774   4
  -6   4   1 401.664 222.985   4
   6  -4  -1 699.896 306.426   1
   6  -4   0 20711.9 1240.51   1
  -6   4   0 18329.3 1077.57   4
  -6   4  -1 44360.0 1743.95   4
   6  -4   1 45426.8 1908.39   1
  -6   4  -2 46743.6 1796.00   4
   6  -4   2 48602.5 1987.92   1
  -6   4  -3 32031.0 1308.68   3
  -6   4  -3 33000.3 1493.55   4
   6  -4   3 31586.4 1585.44   1
   6  -4   4 6768.85 746.212   1
  -6   4  -4 7544.14 618.987   3
  -6   4  -4 7646.57 723.331   4
  -6   4  -5 255.605 267.804   4
   6  -4   5 635.799 327.305   1
  -6   4  -5 8.50947 184.205   3
   6  -4   6 10132.4 902.901   1
  -6   4  -6 9944.00 732.488   3
  -6   4  -6 10969.3 879.851   4
   6  -4   7 27039.3 1475.22   1
  -6   4  -7 25760.4 1245.47   3
  -6   4  -7 25824.7 1396.87   4
   6  -4   8 19915.1 1272.14   1
  -6   4  -8 21842.3 1155.47   3
  -6   4  -8 19635.2 1231.49   4
   6  -4   9 12055.3 979.912   1
  -6   4  -9 13230.4 936.617   3
  -6   4  -9 12620.0 968.012   4
  -6   4 -10 4248.95 583.695   4
   6  -4  10 4448.98 613.439   1
  -6   4 -10 5158.35 615.188   3
  -6   4 -11 1882.52 407.904   4
  -6   4 -11 1345.14 382.076   3
  -6   3   9 5575.25 683.393   8
   6  -3  -9 3369.24 535.836   1
  -6   3   8 3530.57 587.801   8
   6  -3  -8 1966.81 443.707   1
  -6   3   7 1067.71 366.401   8
   6  -3  -7 1611.84 434.631   1
   6  -3  -6 11055.4 911.632   1
  -6   3   6 10082.4 746.563   4
   6  -3  -5 26893.4 1423.38   1
  -6   3   5 31030.6 1356.96   4
   6  -3  -4 34350.3 1597.28   1
  -6   3   4 36343.0 1492.81   4
   6  -3  -3 9713.29 816.685   1
  -6   3   3 8793.95 701.387   4
   6  -3  -2 6946.43 686.881   1
  -6   3   2 6935.74 613.641   4
  -6   3   1 3168.79 425.640   4
   6  -3  -1 2681.97 458.697   1
   6  -3   0 30254.5 1460.77   1
  -6   3   0 28763.2 1288.90   4
   6  -3   1 31478.1 1504.64   1
  -6   3  -1 33076.7 1398.92   4
  -6   3  -2 62811.7 2072.37   4
   6  -3   2 63628.9 2234.30   1
  -6   3  -3 15582.6 813.908   3
  -6   3  -3 16674.1 993.703   4
   6  -3   3 16372.4 1058.34   1
   6  -3   4 3997.43 545.651   1
  -6   3  -4 4874.86 554.615   4
  -6   3  -4 4403.85 440.312   3
  -6   3  -5 686.128 286.001   4
   6  -3   5 427.813 276.558   1
  -6   3  -5 446.516 182.569   3
   6  -3   6 10783.2 889.806   1
  -6   3  -6 11579.8 745.338   3
  -6   3  -6 10814.1 840.861   4
  -6   3  -7 26106.2 1333.37   4
   6  -3   7 23457.5 1322.82   1
  -6   3  -7 23890.5 1150.64   3
   6  -3   8 21303.9 1264.28   1
  -6   3  -8 22506.1 1148.66   3
  -6   3  -8 23021.8 1302.88   4
   6  -3   9 16290.1 1091.40   1
  -6   3  -9 16708.4 1030.78   3
  -6   3  -9 16917.8 1112.73   4
  -6   3 -10 6465.74 689.754   4
   6  -3  10 6591.29 677.039   1
  -6   3 -10 6106.89 639.852   3
  -6   3 -11 544.636 282.056   4
  -6   3 -11 575.051 317.500   3
  -6   3 -12 5185.46 650.176   4
  -6   3 -12 4989.84 634.403   3
   6  -2 -10 8811.49 894.665   1
  -6   2  10 10378.1 1022.18   6
  -6   2   9 4254.26 617.083   8
   6  -2  -9 4647.56 641.328   1
  -6   2   8 1377.75 423.551   8
   6  -2  -8 1046.03 391.376   1
  -6   2   7 1143.85 422.099   8
   6  -2  -7 686.814 292.308   1
  -6   2   6 4903.08 693.364   8
   6  -2  -6 5043.83 640.392   1
  -6   2   6 5208.70 500.346   4
   6  -2  -5 27409.7 1415.37   1
  -6   2   5 28244.4 1218.94   4
   6  -2  -4 21987.3 1234.20   1
  -6   2   4 22569.6 1079.29   4
   6  -2  -3 22354.6 1233.26   1
  -6   2   3 23992.9 1100.00   4
  -6   2   2 200.292 163.490   4
   6  -2  -2 228.840 208.226   1
   6  -2  -1 144.130 246.646   1
  -6   2   1-134.204 166.755   4
   6  -2   0 14087.6 951.407   1
  -6   2   0 14876.0 869.426   4
   6  -2   1 44636.1 1765.40   1
  -6   2  -1 44059.7 1602.19   4
   6  -2   2 24425.4 1249.14   1
  -6   2  -2 22833.0 1127.96   4
  -6   2  -3 44859.0 1387.74   3
  -6   2  -3 45867.2 1678.65   4
   6  -2   3 46619.8 1809.08   1
  -6   2  -4 4648.64 404.503   3
   6  -2   4 3694.04 493.156   1
  -6   2  -4 5087.26 543.810   4
  -6   2  -5 625.324 242.320   4
  -6   2  -5 426.845 178.190   3
   6  -2   5 244.248 196.948   1
  -6   2  -6 3812.05 496.875   4
   6  -2   6 3984.83 533.627   1
  -6   2  -6 3634.83 387.198   3
   6  -2   7 42087.6 1736.45   1
  -6   2  -7 37736.4 1416.44   3
  -6   2  -7 39169.1 1617.51   4
   6  -2   8 25617.9 1292.13   1
  -6   2  -8 25149.0 1154.76   3
  -6   2  -8 25359.7 1313.04   4
   6  -2   9 10516.8 807.545   1
  -6   2  -9 9947.85 753.528   3
  -6   2  -9 9816.53 827.458   4
  -6   2 -10 3995.08 551.830   4
  -6   2 -10 4180.64 514.510   3
   6  -2  10 4128.51 507.378   1
  -6   2 -11-19.9957 239.863   4
  -6   2 -11-256.697 289.511   3
  -6   2 -12 1110.17 346.935   4
  -6   2 -12 1569.20 394.824   3
  -6   2 -13 6277.49 715.615   3
  -6   1  11 8613.03 880.817   6
   6  -1 -10 6562.04 791.352   1
  -6   1  10 6621.42 784.148   8
  -6   1  10 6422.06 744.555   6
   6  -1  -9 9382.63 935.768   1
  -6   1   9 7370.06 805.311   8
  -6   1   8 3989.51 612.648   8
   6  -1  -8 2952.22 531.708   1
   6  -1  -8 2770.38 443.726   3
  -6   1   7 912.034 389.935   8
   6  -1  -7 1094.32 294.592   9
   6  -1  -7 1223.64 366.042   1
  -6   1   6 10062.8 958.867   8
   6  -1  -6 12531.8 977.396   1
   6  -1  -6 12343.7 701.951   5
  -6   1   6 11263.9 682.318   4
   6  -1  -6 12183.4 838.104   9
   6  -1  -5 16593.9 1110.04   1
   6  -1  -5 16940.0 779.725   5
  -6   1   5 16626.2 861.555   4
   6  -1  -4 52133.7 1993.89   1
   6  -1  -4 51862.7 1452.75   5
  -6   1   4 54562.9 1700.24   4
   6  -1  -3 28001.6 1384.57   1
   6  -1  -3 29899.9 946.313   5
  -6   1   3 28858.2 1168.99   4
   6  -1  -2 15534.2 988.702   1
  -6   1   2 15450.3 828.903   4
  -6   1   1 111.585 167.873   4
   6  -1  -1 199.506 230.295   1
   6  -1   0 7965.07 401.591   3
   6  -1   0 8371.84 714.399   1
  -6   1   0 8150.30 621.166   4
   6  -1   1 23961.6 754.837   3
   6  -1   1 26096.8 1251.81   1
  -6   1  -1 26644.3 1145.35   4
  -6   1  -2 40771.5 685.073   5
   6  -1   2 43331.0 1546.85   1
  -6   1  -2 43793.6 1431.63   4
  -6   1  -3 33710.0 1043.98   3
  -6   1  -3 30350.2 749.466   5
   6  -1   3 33341.7 1420.44   1
  -6   1  -3 35336.1 1361.45   4
  -6   1  -4 18763.8 746.830   3
  -6   1  -4 16608.9 544.345   5
  -6   1  -4 18242.0 971.878   4
   6  -1   4 18614.9 1021.86   1
  -6   1  -5 291.567 207.060   4
  -6   1  -5 524.157 163.771   3
   6  -1   5 395.757 183.186   1
  -6   1  -6 11669.0 650.018   3
  -6   1  -6 12371.1 827.792   4
   6  -1   6 12257.6 818.287   1
  -6   1  -7 15498.3 800.576   3
  -6   1  -7 14656.6 930.785   4
   6  -1   7 15603.0 914.893   1
   6  -1   8 70096.3 2128.95   1
  -6   1  -8 65498.4 1981.93   3
  -6   1  -8 65768.1 2190.79   4
   6  -1   9 25916.7 1173.98   1
  -6   1  -9 26542.8 1205.49   3
  -6   1  -9 26476.1 1324.70   4
  -6   1 -10 7761.26 673.413   3
   6  -1  10 6976.30 577.191   9
  -6   1 -10 7669.98 737.777   4
  -6   1 -11 306.116 263.259   4
   6  -1  11 388.853 236.256   6
  -6   1 -11-329.517 298.717   3
   6  -1  11 95.9839 178.014   9
  -6   1 -12 2216.45 444.716   4
   6  -1  12 2554.65 396.459   6
  -6   1 -12 2057.29 411.188   3
  -6   1 -13 6370.63 673.121   4
   6  -1  13 7508.84 632.976   6
  -6   1 -13 6765.44 729.901   3
  -6   1 -14 9939.13 897.760   3
   6   0 -10 18783.0 1365.86   1
  -6   0  10 21679.4 1378.05   8
  -6   0  10 19933.1 1309.71   6
   6   0  -9 14371.4 1190.24   1
  -6   0   9 14324.4 1136.33   8
   6   0  -9 14516.8 928.039   5
  -6   0   8 3159.81 582.244   8
   6   0  -8 2894.28 575.760   1
   6   0  -8 2985.05 417.667   3
   6   0  -8 3995.13 494.866   5
  -6   0   7 1409.38 404.757   8
   6   0  -7 950.297 364.792   1
   6   0  -7 1548.75 305.777   3
   6   0  -7 1707.21 340.132   5
   6   0  -7 1843.01 354.229   9
  -6   0   6 19782.0 1310.94   8
   6   0  -6 21380.3 1093.67   9
   6   0  -6 19330.0 1265.50   1
   6   0  -6 18237.1 909.768   3
   6   0  -6 19918.0 966.759   5
  -6   0   6 21292.5 871.759   4
  -6   0   5 20473.4 1353.19   8
   6   0  -5 20552.2 1238.20   1
   6   0  -5 19667.6 892.144   3
   6   0  -5 20557.2 932.942   5
  -6   0   5 20529.2 895.334   4
   6   0  -5 21631.1 1100.79   9
   6   0  -4 40822.0 1748.54   1
   6   0  -4 41185.1 1335.97   5
  -6   0   4 39394.8 1347.92   4
   6   0  -4 44982.0 1612.46   9
   6   0  -3 50527.1 1925.41   1
   6   0  -3 52702.7 1469.59   5
  -6   0   3 52181.7 1606.55   4
   6   0  -2 23165.9 1183.69   1
   6   0  -2 22459.2 833.616   5
  -6   0   2 23791.9 1001.25   4
  -6   0   1-53.3589 162.345   4
   6   0  -1-92.5114 69.2098   3
   6   0  -1 240.253 200.438   1
   6   0   0 9140.66 360.556   3
   6   0   0 8990.04 686.861   1
  -6   0   0 9903.95 640.465   4
   6   0   1 102853. 1945.57   3
   6   0   1 103374. 2691.30   1
  -6   0  -1 98311.2 1973.68   5
  -6   0  -1 104846. 2586.26   4
   6   0   2 93444.2 1832.78   3
   6   0   2 95355.8 2522.85   1
  -6   0  -2 91809.1 1849.42   5
  -6   0  -2 97712.4 2476.34   4
  -6   0  -3 95497.0 1993.06   3
   6   0   3 93739.1 1879.72   3
   6   0   3 95790.8 2483.70   1
  -6   0  -3 91150.4 1880.65   5
  -6   0  -3 96163.4 2514.40   4
  -6   0  -4 35659.3 1001.26   3
   6   0   4 33345.1 923.174   3
  -6   0  -4 34642.0 933.602   5
   6   0   4 34897.4 1311.73   1
  -6   0  -4 35740.9 1372.86   4
  -6   0  -5 499.062 214.735   4
   6   0   5 527.312 184.278   1
  -6   0  -5 417.764 128.008   3
   6   0   5 814.205 123.356   2
  -6   0  -6 13663.2 663.475   3
   6   0   6 15544.3 815.663   1
  -6   0  -6 14027.2 865.333   4
   6   0   7 29662.9 1162.21   6
  -6   0  -7 28806.7 1072.34   3
  -6   0  -7 28490.3 1291.56   4
   6   0   7 28232.3 1142.67   1
  -6   0  -8 37417.4 1522.71   4
   6   0   8 38280.0 1378.77   6
  -6   0  -8 37857.5 1326.41   3
   6   0   8 35724.5 1322.50   9
   6   0   8 35714.4 1286.48   1
   6   0   9 37240.5 1397.06   6
  -6   0  -9 36676.8 1405.11   3
   6   0   9 35575.8 1328.11   9
  -6   0  -9 35720.1 1529.89   4
   6   0   9 36249.8 1254.72   1
   6   0  10 14440.6 853.875   6
  -6   0 -10 15489.5 930.326   3
   6   0  10 13498.7 765.742   9
  -6   0 -10 13801.2 947.800   4
  -6   0 -11 930.761 328.277   4
   6   0  11 1064.62 309.414   6
  -6   0 -11 820.525 303.906   3
   6   0  11 896.435 237.892   9
  -6   0 -12 3870.87 541.274   4
   6   0  12 3980.76 497.675   6
  -6   0 -12 3800.69 508.027   3
   6   0  13 8201.56 682.724   6
  -6   0 -13 7888.75 766.797   3
  -6   0 -13 9189.75 805.301   4
   6   0  14 12879.7 857.758   6
  -6   0 -14 11840.0 974.135   3
  -6  -1  10 14644.3 1166.04   8
   6   1 -10 15384.5 1039.26   5
   6   1 -10 13636.0 1226.69   1
  -6  -1   9 14540.8 1154.50   8
   6   1  -9 14302.9 980.761   5
   6   1  -9 16174.7 1316.79   1
   6   1  -8 7294.18 905.849   1
  -6  -1   8 8343.61 889.518   8
   6   1  -8 7142.28 598.074   3
   6   1  -8 8378.42 723.136   5
   6   1  -7 211.803 338.841   1
  -6  -1   7 397.813 310.781   8
   6   1  -7 446.480 209.763   3
   6   1  -7 122.237 187.799   5
   6   1  -7 285.050 250.692   9
  -6  -1   6 6107.05 752.213   8
   6   1  -6 5393.02 690.232   1
   6   1  -6 5946.47 481.028   3
   6   1  -6 5679.94 544.255   5
   6   1  -6 6368.77 592.210   9
  -6  -1   5 53184.5 2239.70   8
   6   1  -5 57366.1 2150.07   1
   6   1  -5 54705.6 1563.85   3
   6   1  -5 57009.5 1770.06   5
  -6  -1   5 58454.6 1581.49   4
   6   1  -5 61113.4 1941.74   9
  -6  -1   4 44786.8 2039.83   8
   6   1  -4 44864.4 1796.19   1
   6   1  -4 44286.1 1263.35   3
   6   1  -4 48293.4 1513.84   5
  -6  -1   4 44308.8 1376.36   4
   6   1  -4 47704.0 1645.42   9
   6   1  -3 46354.5 1747.87   1
   6   1  -3 46772.0 1193.18   3
   6   1  -3 46227.2 1428.42   5
   6   1  -3 46004.0 1606.68   9
  -6  -1   3 46767.8 1434.49   4
   6   1  -2 22699.1 662.158   3
   6   1  -2 24030.1 1154.06   1
   6   1  -2 23684.6 678.843   3
   6   1  -2 25052.0 923.039   5
   6   1  -2 25461.2 1116.24   9
  -6  -1   2 24207.3 962.342   4
  -6  -1   2 21877.0 602.508   2
  -6  -1   1 569.045 185.778   4
   6   1  -1 474.974 203.131   1
   6   1  -1 448.770 66.9170   3
   6   1  -1 501.163 77.7846   3
   6   1  -1 806.575 239.264   9
   6   1   0 17862.5 901.556   1
   6   1   0 18099.3 901.419   9
  -6  -1   0 17870.6 830.548   4
   6   1   1 46334.1 1503.77   1
  -6  -1  -1 43174.9 1107.22   5
  -6  -1  -1 48019.1 1502.27   4
   6   1   2 110627. 2659.70   1
  -6  -1  -2 108533. 2213.60   5
  -6  -1  -2 114338. 2715.23   4
  -6  -1  -3 56575.2 1737.82   4
   6   1   3 55206.4 1624.22   1
  -6  -1  -3 55585.3 1322.28   5
  -6  -1  -4 39914.5 977.179   3
   6   1   4 40683.3 1304.80   1
  -6  -1  -4 39425.6 870.390   2
  -6  -1  -4 40678.9 1440.00   4
   6   1   5 94.4341 121.400   1
  -6  -1  -5 154.146 180.548   4
  -6  -1  -5 142.249 88.5436   2
  -6  -1  -5-4.05605 85.9145   3
   6   1   5 23.9804 73.0600   2
   6   1   5 66.1701 160.805   9
   6   1   6 10198.4 500.147   2
   6   1   6 11161.7 669.022   6
  -6  -1  -6 11223.0 537.716   3
   6   1   6 11045.0 595.736   1
  -6  -1  -6 10646.4 509.379   2
   6   1   6 10640.9 670.701   9
  -6  -1  -6 11299.7 748.983   4
   6   1   7 53928.9 1685.27   6
  -6  -1  -7 54352.4 1522.19   3
   6   1   7 54956.3 1496.49   1
  -6  -1  -7 52744.5 1465.97   2
   6   1   7 52413.7 1644.84   9
  -6  -1  -7 54796.6 1829.95   4
  -6  -1  -8 46212.0 1681.99   4
   6   1   8 44466.1 1529.72   6
  -6  -1  -8 44899.3 1430.46   3
   6   1   8 42317.1 1260.44   1
  -6  -1  -8 43954.9 1382.77   2
   6   1   8 44873.5 1479.61   9
   6   1   9 37646.0 1416.95   6
  -6  -1  -9 38459.5 1384.33   3
  -6  -1  -9 37841.3 1364.28   2
   6   1   9 38616.7 1121.16   1
   6   1   9 38946.8 1355.90   9
  -6  -1  -9 36993.9 1532.15   4
   6   1  10 12144.2 795.236   6
  -6  -1 -10 12544.5 809.346   3
  -6  -1 -10 12818.1 797.324   2
   6   1  10 11744.3 691.981   9
  -6  -1 -10 12351.9 876.478   4
  -6  -1 -11 2292.31 413.616   4
   6   1  11 2636.37 406.300   6
  -6  -1 -11 2869.31 438.327   3
  -6  -1 -11 2259.15 384.856   2
   6   1  11 2144.58 306.449   9
  -6  -1 -12 1486.31 391.852   4
   6   1  12 2182.34 391.773   6
  -6  -1 -12 1806.03 405.126   3
   6   1  13 12433.2 875.907   6
  -6  -1 -13 12495.2 950.920   3
  -6  -1 -13 14295.6 1008.58   4
  -6  -1 -14 12382.3 954.661   4
   6   1  14 11592.0 866.276   6
  -6  -1 -14 11294.2 938.229   3
   6   1  15 5715.77 615.851   6
  -6  -1 -15 5875.48 720.867   3
   6   2 -11 7628.15 790.929   5
  -6  -2  10 11039.6 1035.72   8
   6   2 -10 10058.2 858.982   5
   6   2 -10 10221.1 1118.77   1
  -6  -2   9 13042.4 1115.58   8
   6   2  -9 13268.6 961.390   5
   6   2  -9 11295.1 1171.71   1
  -6  -2   8 1549.79 461.985   8
   6   2  -8 1001.27 310.783   5
   6   2  -8 962.251 369.336   1
  -6  -2   7 1137.76 406.265   8
   6   2  -7 962.668 249.594   3
   6   2  -7 1222.05 335.379   5
   6   2  -7 909.006 296.862   9
   6   2  -7 915.937 350.688   1
   6   2  -6 3486.41 572.283   1
  -6  -2   6 4871.22 682.211   8
   6   2  -6 5108.86 431.005   3
   6   2  -6 5454.00 550.220   5
   6   2  -6 5834.14 581.790   9
  -6  -2   5 25470.3 1466.01   8
   6   2  -5 24516.4 1316.19   1
   6   2  -5 24833.7 911.648   3
   6   2  -5 24614.0 1130.76   5
  -6  -2   5 25274.8 879.301   4
   6   2  -5 27493.4 1224.00   9
  -6  -2   4 44492.1 2004.05   8
   6   2  -4 44575.1 1772.30   1
   6   2  -4 45346.9 1234.05   3
   6   2  -4 49925.5 1676.21   9
   6   2  -4 48075.2 1565.38   5
  -6  -2   4 48580.9 1391.59   4
  -6  -2   3 39035.7 1877.46   8
   6   2  -3 38571.0 1539.88   1
   6   2  -3 37720.3 983.089   3
   6   2  -3 38908.3 1323.76   5
  -6  -2   3 39260.3 1240.30   4
   6   2  -3 41571.1 1481.23   9
   6   2  -2 19529.9 1003.41   1
   6   2  -2 20334.0 556.309   3
   6   2  -2 19210.1 528.740   3
   6   2  -2 20438.6 875.746   5
  -6  -2   2 20220.7 625.172   2
   6   2  -2 21685.3 1012.80   9
  -6  -2   2 20545.5 861.442   4
  -6  -2   1 1264.87 232.820   4
   6   2  -1 977.744 245.591   1
  -6  -2   1 1099.09 120.965   2
  -6  -2   1 971.518 134.840   2
   6   2  -1 875.864 187.141   5
   6   2  -1 1306.22 285.473   9
  -6  -2   0 21259.7 655.320   2
   6   2   0 22757.8 993.500   1
  -6  -2   0 22080.6 555.084   2
  -6  -2   0 22899.0 938.150   4
   6   2   0 22008.9 1003.74   9
  -6  -2  -1 34961.9 920.409   2
   6   2   1 35705.6 1236.35   1
  -6  -2  -1 33819.6 730.420   2
   6   2   1 36595.4 1318.59   9
  -6  -2  -1 37381.7 1267.25   4
   6   2   2 59013.9 1635.06   1
   6   2   2 59768.1 1768.68   9
  -6  -2  -2 61197.1 1747.75   4
  -6  -2  -2 55962.7 1184.60   2
  -6  -2  -3 32471.8 806.360   2
   6   2   3 31862.2 1085.74   1
   6   2   3 34182.2 1253.42   9
  -6  -2  -3 33824.3 1246.75   4
  -6  -2  -4 13116.2 389.496   3
   6   2   4 12645.4 607.776   1
   6   2   4 13108.7 731.814   9
  -6  -2  -4 12848.0 491.855   2
  -6  -2  -4 12768.5 753.198   4
  -6  -2  -5 2376.15 350.851   4
   6   2   5 2480.00 214.469   2
  -6  -2  -5 2387.92 196.359   3
   6   2   5 2542.76 323.352   6
   6   2   5 2436.52 251.404   1
  -6  -2  -5 2722.38 245.408   2
   6   2   5 2341.06 315.398   9
   6   2   6 10138.7 642.580   6
  -6  -2  -6 10417.6 489.748   3
   6   2   6 9741.10 485.240   1
  -6  -2  -6 9757.34 519.103   2
   6   2   6 9836.30 640.085   9
  -6  -2  -6 10319.3 709.186   4
   6   2   7 22166.8 982.933   6
  -6  -2  -7 21921.1 824.073   3
   6   2   7 21068.8 713.303   1
  -6  -2  -7 22014.7 886.695   2
   6   2   7 22475.2 966.207   9
  -6  -2  -7 22888.8 1098.74   4
   6   2   8 35266.7 1327.51   6
  -6  -2  -8 36975.6 1224.11   3
   6   2   8 35419.6 930.379   1
  -6  -2  -8 34753.5 1260.71   2
   6   2   8 36560.0 1280.53   9
  -6  -2  -8 38804.3 1496.37   4
   6   2   9 48328.8 1636.55   6
  -6  -2  -9 48814.5 1550.63   3
   6   2   9 44870.5 1033.48   1
  -6  -2  -9 48280.1 1607.18   2
   6   2   9 45710.7 1486.15   9
  -6  -2  -9 48008.4 1758.76   4
   6   2  10 9489.53 611.905   9
   6   2  10 9335.87 689.233   6
  -6  -2 -10 8957.48 660.658   3
  -6  -2 -10 8764.93 680.696   2
  -6  -2 -10 8387.06 718.413   4
  -6  -2 -11 4305.31 554.992   4
  -6  -2 -11 4181.47 510.820   2
   6   2  11 4735.46 531.168   6
  -6  -2 -11 4520.36 510.072   3
   6   2  11 3752.37 394.295   9
  -6  -2 -12 589.312 265.931   4
  -6  -2 -12 162.296 229.125   2
   6   2  12 759.756 292.646   6
  -6  -2 -12 897.027 312.821   3
   6   2  12 592.362 173.442   9
  -6  -2 -13 5213.15 625.204   4
  -6  -2 -13 5244.27 657.158   2
   6   2  13 5013.53 591.644   6
  -6  -2 -13 4927.82 608.289   3
   6   2  14 11437.3 877.545   6
  -6  -2 -14 9815.83 874.867   3
  -6  -2 -14 11631.3 981.829   2
  -6  -2 -14 10582.5 891.974   4
   6   2  15 6753.77 692.540   6
  -6  -2 -15 4935.23 658.131   3
   6   3 -10 10170.7 892.176   5
   6   3 -10 10974.9 1174.30   1
  -6  -3   9 9021.65 974.471   8
   6   3  -9 10303.1 874.364   5
   6   3  -9 9206.37 1002.28   1
  -6  -3   8 8224.26 900.532   8
   6   3  -8 8267.20 752.582   5
   6   3  -8 8190.19 906.261   1
  -6  -3   7 734.072 381.030   8
   6   3  -7 890.694 237.287   3
   6   3  -7 841.959 312.627   5
   6   3  -7 397.795 292.029   1
   6   3  -7 597.443 255.188   9
  -6  -3   6 1442.51 438.415   8
   6   3  -6 1203.05 230.257   3
   6   3  -6 1045.14 288.941   5
   6   3  -6 1166.15 327.189   9
   6   3  -6 1234.25 397.586   1
   6   3  -5 24941.9 1316.42   1
  -6  -3   5 21015.6 1369.22   8
   6   3  -5 23782.4 879.791   3
   6   3  -5 24245.1 1145.30   5
  -6  -3   5 24347.5 813.555   4
   6   3  -4 29706.8 1384.19   1
  -6  -3   4 28150.6 1574.34   8
   6   3  -4 31069.5 945.545   3
   6   3  -4 32448.0 1279.70   5
  -6  -3   4 31997.1 1026.74   4
   6   3  -4 32670.2 1346.71   9
   6   3  -3 36987.9 1489.39   1
  -6  -3   3 37416.4 1819.07   8
   6   3  -3 39583.4 994.548   3
   6   3  -3 41701.4 1425.39   5
   6   3  -3 42742.5 1508.37   9
  -6  -3   3 40033.3 1223.88   4
  -6  -3   2 13101.2 1062.00   8
   6   3  -2 12777.8 803.487   1
   6   3  -2 12594.0 380.301   3
   6   3  -2 13256.9 728.698   5
   6   3  -2 14392.8 809.069   9
  -6  -3   2 12928.7 649.150   4
   6   3  -1 9056.16 627.590   1
   6   3  -1 10251.5 672.988   9
   6   3  -1 9439.92 584.855   5
  -6  -3   1 8974.70 402.513   2
  -6  -3   1 9543.38 562.413   4
  -6  -3   0 2974.76 326.877   4
   6   3   0 3352.11 369.076   1
  -6  -3   0 3530.10 281.716   2
   6   3   0 2837.88 370.880   9
   6   3   1 23276.8 931.479   1
  -6  -3  -1 21650.8 779.866   2
   6   3   1 22774.4 1017.98   9
  -6  -3  -1 24345.1 979.638   4
   6   3   2 65835.0 1711.38   1
   6   3   2 68206.6 1909.11   9
  -6  -3  -2 68045.0 1858.37   4
  -6  -3  -3 68732.7 1908.86   2
   6   3   3 66937.3 1674.66   1
   6   3   3 65586.9 1887.94   9
  -6  -3  -3 67944.6 1932.62   4
   6   3   4 29360.1 926.574   1
   6   3   4 29933.0 1095.02   6
   6   3   4 29239.7 1133.20   9
  -6  -3  -4 27373.1 1150.00   4
  -6  -3  -4 28504.3 1033.35   2
   6   3   5 13638.2 555.353   1
   6   3   5 13820.4 732.190   6
  -6  -3  -5 14148.4 450.732   3
  -6  -3  -5 13071.8 622.105   1
   6   3   5 14884.1 774.724   9
  -6  -3  -5 12874.4 677.474   2
  -6  -3  -5 13845.8 799.127   4
  -6  -3  -6 94.3143 171.313   4
   6   3   6 426.652 112.895   1
  -6  -3  -6 105.194 132.558   2
   6   3   6 79.3049 168.353   6
  -6  -3  -6 150.238 94.9470   3
   6   3   6 477.964 193.240   9
   6   3   7 26121.7 696.579   1
   6   3   7 25071.3 1073.12   6
  -6  -3  -7 26119.1 881.374   3
   6   3   7 24539.1 1031.34   9
  -6  -3  -7 26267.9 1074.55   2
  -6  -3  -7 26180.2 1195.81   4
   6   3   8 26512.0 615.789   1
   6   3   8 26817.7 1154.48   6
  -6  -3  -8 28624.8 1017.31   3
  -6  -3  -8 27128.3 1161.44   2
  -6  -3  -8 28465.8 1271.09   4
   6   3   8 27269.6 1079.86   9
   6   3   9 29454.9 1231.52   6
  -6  -3  -9 27337.2 1088.38   3
  -6  -3  -9 27855.7 1257.70   2
   6   3   9 27102.9 1083.88   9
  -6  -3  -9 28221.3 1309.75   4
   6   3  10 30560.1 1320.35   6
  -6  -3 -10 30227.5 1231.06   3
  -6  -3 -10 29020.0 1380.51   2
   6   3  10 30283.9 1161.40   9
  -6  -3 -10 30036.7 1396.42   4
  -6  -3 -11 211.971 239.788   4
  -6  -3 -11 200.151 249.595   2
   6   3  11 61.2874 202.277   6
  -6  -3 -11-31.3083 205.947   3
   6   3  11 228.440 160.816   9
  -6  -3 -12 647.842 267.076   4
  -6  -3 -12 221.455 266.542   2
   6   3  12 216.471 219.380   6
  -6  -3 -12-2.35270 245.039   3
   6   3  12 183.030 153.773   9
   6   3  13 6559.46 691.221   6
  -6  -3 -13 6634.92 775.839   2
  -6  -3 -13 6873.11 691.310   3
  -6  -3 -13 8622.68 809.426   4
   6   3  14 13193.5 982.496   6
  -6  -3 -14 11146.1 933.705   3
  -6  -3 -14 11286.5 1031.62   2
  -6  -3 -14 13264.5 1013.57   4
  -6  -3 -15 7677.64 894.236   2
   6   3  15 7042.64 739.551   6
  -6  -3 -15 5699.02 717.864   3
   6   4 -10 11543.7 952.233   5
  -6  -4   9 14467.8 1273.76   8
   6   4  -9 15097.4 1077.14   5
   6   4  -9 14372.8 1233.97   1
  -6  -4   8 17948.3 1394.98   8
   6   4  -8 17206.0 1120.83   5
   6   4  -8 16875.6 1281.37   1
  -6  -4   7 1284.02 443.455   8
   6   4  -7 452.142 269.229   5
   6   4  -7 1107.50 398.615   1
  -6  -4   6 2351.78 544.574   8
   6   4  -6 2673.68 324.716   3
   6   4  -6 3299.27 467.733   5
   6   4  -6 2120.82 450.549   1
   6   4  -6 2876.68 448.263   9
  -6  -4   5 16455.1 1243.28   8
   6   4  -5 16353.3 724.014   3
   6   4  -5 18182.3 1027.64   5
   6   4  -5 19581.4 1099.12   9
   6   4  -5 17569.6 1087.74   1
  -6  -4   4 51981.1 2275.15   8
   6   4  -4 67806.5 2081.55   9
   6   4  -4 58684.6 1476.85   3
   6   4  -4 60128.8 1933.34   5
  -6  -4   4 61582.7 1523.51   4
   6   4  -4 56309.4 2010.63   1
  -6  -4   3 40480.4 1930.83   8
   6   4  -3 43842.6 1099.90   3
   6   4  -3 44661.1 1556.69   5
  -6  -4   3 44262.3 1278.67   4
   6   4  -3 44181.5 1627.42   1
   6   4  -2 42720.3 949.032   3
   6   4  -2 44395.9 1492.28   5
   6   4  -2 46065.6 1582.72   9
  -6  -4   2 45104.2 1320.01   4
   6   4  -2 46292.1 1581.73   1
   6   4  -1 2681.17 346.283   1
  -6  -4   1 2521.73 294.924   4
  -6  -4   1 1975.18 405.419   8
   6   4  -1 3192.84 359.943   5
   6   4  -1 2741.92 371.627   9
   6   4   0 4608.38 433.351   1
  -6  -4   0 5197.56 373.700   2
   6   4   0 4835.08 432.238   5
   6   4   0 4518.86 468.576   9
  -6  -4   0 4941.48 410.836   4
   6   4   1 22682.1 917.790   1
  -6  -4  -1 22320.0 827.191   2
   6   4   1 22344.8 1011.88   9
  -6  -4  -1 22518.3 952.491   4
   6   4   2 102552. 2315.77   1
   6   4   2 102048. 2561.92   9
  -6  -4  -2 96794.3 2305.60   2
  -6  -4  -2 101481. 2491.18   4
   6   4   3 111519. 2408.37   1
  -6  -4  -3 106155. 2619.48   2
   6   4   3 113027. 2570.85   6
   6   4   3 113576. 2747.15   9
  -6  -4  -3 111660. 2736.98   4
  -6  -4  -4 51265.5 1774.94   2
   6   4   4 54172.1 1368.24   1
   6   4   4 56614.8 1615.50   6
   6   4   4 55927.9 1699.14   9
  -6  -4  -4 56750.9 1754.44   4
   6   4   5 6641.27 358.430   1
  -6  -4  -5 6487.70 434.744   1
   6   4   5 6842.16 512.204   6
  -6  -4  -5 6527.52 277.414   3
   6   4   5 6846.46 527.920   9
  -6  -4  -5 6285.23 561.180   4
  -6  -4  -5 5946.17 562.855   2
  -6  -4  -6 1526.04 310.059   4
  -6  -4  -6 1157.46 292.903   2
   6   4   6 1552.70 275.670   6
  -6  -4  -6 1705.37 185.842   3
   6   4   6 1482.17 270.965   9
   6   4   6 1599.27 156.693   1
   6   4   7 23585.7 1033.99   6
  -6  -4  -7 24432.2 827.171   3
   6   4   7 23223.2 1003.36   9
   6   4   7 22344.7 562.147   1
  -6  -4  -7 25158.9 1233.93   2
  -6  -4  -7 21067.7 1086.20   4
  -6  -4  -8 70084.0 2315.73   2
   6   4   8 75348.1 2121.05   6
  -6  -4  -8 72471.8 1836.25   3
   6   4   8 69775.8 1974.12   9
  -6  -4  -8 68589.9 2192.72   4
   6   4   9 43487.7 1566.78   6
  -6  -4  -9 42387.7 1400.37   3
  -6  -4  -9 42181.3 1766.99   2
   6   4   9 40418.8 1395.97   9
  -6  -4  -9 39559.0 1625.46   4
   6   4  10 27831.3 1280.71   6
  -6  -4 -10 27947.1 1185.85   3
  -6  -4 -10 26837.6 1434.36   2
   6   4  10 28305.6 1131.55   9
  -6  -4 -10 27137.7 1352.38   4
   6   4  11 10006.9 786.667   6
  -6  -4 -11 10614.0 759.655   3
  -6  -4 -11 10604.9 949.588   2
   6   4  11 10205.5 648.097   9
  -6  -4 -11 9256.14 820.372   4
  -6  -4 -12 784.170 335.363   4
  -6  -4 -12 367.670 306.326   2
   6   4  12 316.209 252.531   6
  -6  -4 -12 664.809 279.957   3
   6   4  12 794.816 213.979   9
  -6  -4 -13 6269.68 730.553   4
  -6  -4 -13 6488.99 833.913   2
   6   4  13 6023.58 678.409   6
  -6  -4 -13 5211.12 629.812   3
   6   4  14 12797.8 999.164   6
  -6  -4 -14 13106.0 1004.64   3
  -6  -4 -14 10617.8 1091.24   2
  -6  -4 -14 12229.6 1020.96   4
   6   4  15 17912.2 1213.78   6
  -6  -4 -15 16247.4 1203.08   3
  -6  -4 -15 17280.2 1439.36   2
  -6  -4 -15 14372.0 1130.79   4
  -6  -4 -16 2474.07 523.035   3
  -6  -5   9 19122.3 1508.85   8
   6   5  -9 18917.8 1248.14   5
   6   5  -9 20866.9 1477.76   1
  -6  -5   8 6997.73 939.745   8
   6   5  -8 8872.92 838.755   5
   6   5  -8 6905.91 847.932   1
  -6  -5   7 4294.29 770.961   8
   6   5  -7 4068.95 584.159   5
   6   5  -7 3799.44 581.474   1
  -6  -5   6 6744.37 885.190   8
   6   5  -6 6017.85 475.558   3
   6   5  -6 7005.41 689.347   5
   6   5  -6 6074.44 705.000   1
  -6  -5   5 14614.6 1273.75   8
   6   5  -5 15638.8 729.240   3
   6   5  -5 17723.5 1040.64   5
   6   5  -5 16718.9 1070.70   1
  -6  -5   4 47029.2 2248.56   8
   6   5  -4 50469.0 1365.61   3
   6   5  -4 52952.9 1831.69   5
   6   5  -4 50424.2 1870.91   1
  -6  -5   4 50851.9 1322.04   4
  -6  -5   3 54340.2 2355.78   8
   6   5  -3 58396.4 1398.08   3
   6   5  -3 59851.7 1899.02   5
   6   5  -3 55318.5 1896.81   1
  -6  -5   3 57129.3 1531.05   4
  -6  -5   2 32567.8 1711.87   8
   6   5  -2 35162.6 887.775   3
   6   5  -2 37279.9 1400.20   5
   6   5  -2 36674.6 1460.36   9
   6   5  -2 35089.9 1376.17   1
  -6  -5   2 34845.9 1145.25   4
  -6  -5   1 5775.96 695.234   8
   6   5  -1 5271.98 228.720   3
   6   5  -1 6080.17 516.146   5
   6   5  -1 5700.25 499.767   1
   6   5  -1 6448.75 567.834   9
  -6  -5   1 5734.61 437.590   4
  -6  -5   0 3243.79 531.735   8
  -6  -5   0 3744.09 350.958   2
   6   5   0 4205.94 465.240   9
   6   5   0 3706.72 398.900   5
   6   5   0 4397.34 425.921   1
  -6  -5   0 3328.16 352.159   4
  -6  -5  -1 105695. 2445.13   2
   6   5   1 109297. 2746.37   9
   6   5   1 105548. 2498.27   1
  -6  -5  -1 106089. 2572.10   4
  -6  -5  -2 28128.2 1044.81   2
   6   5   2 29683.0 1038.32   6
   6   5   2 30144.7 1218.18   9
   6   5   2 29656.3 1024.71   1
  -6  -5  -2 29612.2 1148.41   4
  -6  -5  -3 167007. 3620.45   2
   6   5   3 170251. 3496.87   6
   6   5   3 168276. 3750.67   9
   6   5   3 164421. 3338.29   1
  -6  -5  -3 167329. 3704.79   4
  -6  -5  -4 47467.9 1597.94   2
   6   5   4 51638.3 1493.58   6
   6   5   4 51327.4 1623.03   9
   6   5   4 51437.3 1271.11   1
  -6  -5  -4 50863.7 1627.44   4
  -6  -5  -5 7205.28 625.451   2
  -6  -5  -5 7692.62 321.499   3
   6   5   5 8303.98 566.449   6
  -6  -5  -5 7859.98 332.495   3
   6   5   5 7568.82 382.912   1
   6   5   5 7739.07 586.804   9
  -6  -5  -5 7489.66 479.989   1
  -6  -5  -5 6265.86 559.268   4
  -6  -5  -6 5752.28 341.251   1
   6   5   6 6960.77 535.027   6
  -6  -5  -6 6991.03 383.872   3
   6   5   6 6378.71 307.909   1
   6   5   6 7284.68 569.648   9
  -6  -5  -6 6388.57 581.168   4
  -6  -5  -6 6196.68 593.934   2
   6   5   7 37963.6 1364.35   6
  -6  -5  -7 36720.5 1117.67   3
   6   5   7 36371.1 1343.43   9
  -6  -5  -7 37695.4 1500.37   4
   6   5   8 64389.6 1938.01   6
  -6  -5  -8 61217.3 1684.49   3
   6   5   8 60899.2 1823.47   9
  -6  -5  -8 61423.5 2060.95   4
   6   5   9 49827.8 1736.57   6
  -6  -5  -9 50518.7 1598.27   3
   6   5   9 51214.0 1625.26   9
  -6  -5  -9 48267.3 2054.30   2
  -6  -5  -9 50700.0 1906.49   4
   6   5  10 27455.3 1272.21   6
  -6  -5 -10 26495.8 1175.03   3
   6   5  10 25324.1 1093.35   9
  -6  -5 -10 24837.2 1496.33   2
  -6  -5 -10 25221.5 1343.50   4
  -6  -5 -11 1638.24 396.752   4
   6   5  11 1664.66 361.228   6
  -6  -5 -11 1072.30 301.534   3
   6   5  11 1323.31 274.456   9
  -6  -5 -12-171.534 304.939   4
  -6  -5 -12-173.348 309.064   2
   6   5  12 139.821 263.738   6
  -6  -5 -12-119.188 206.892   3
   6   5  12 16.6948 147.224   9
  -6  -5 -13 6212.06 766.985   4
   6   5  13 6757.47 724.320   6
  -6  -5 -13 6757.24 917.847   2
  -6  -5 -13 6171.23 705.294   3
   6   5  14 11114.0 962.316   6
  -6  -5 -14 9517.89 1086.87   2
  -6  -5 -14 10527.3 939.929   3
  -6  -5 -14 11313.7 1028.77   4
   6   5  15 14261.7 1127.09   6
  -6  -5 -15 11287.4 1186.86   2
  -6  -5 -15 12108.5 1050.28   3
  -6  -5 -15 13381.7 1153.26   4
  -6  -5 -16 6716.30 855.200   3
  -6  -6   8 8376.18 1060.21   8
   6   6  -8 7539.26 798.284   5
   6   6  -8 8306.97 914.411   1
  -6  -6   7 65.1819 364.134   8
   6   6  -7 214.061 300.526   1
   6   6  -7 274.942 295.545   5
  -6  -6   6 2722.06 615.735   8
   6   6  -6 3407.41 551.277   1
   6   6  -6 3047.01 501.893   5
  -6  -6   5 15189.7 1249.49   8
   6   6  -5 17012.4 786.586   3
   6   6  -5 18929.7 1122.20   5
   6   6  -5 17202.3 1104.53   1
  -6  -6   4 40928.4 1968.52   8
   6   6  -4 43851.9 1299.64   3
   6   6  -4 45665.2 1747.88   5
   6   6  -4 43973.5 1752.19   1
  -6  -6   3 44548.5 1963.19   8
   6   6  -3 47981.2 1290.90   3
   6   6  -3 50411.4 1776.19   5
   6   6  -3 49640.2 1782.65   1
   6   6  -3 51074.2 1860.13   9
  -6  -6   3 49379.2 1374.60   4
  -6  -6   2 27861.6 1451.92   8
   6   6  -2 29238.4 861.362   3
   6   6  -2 31155.8 1297.46   5
   6   6  -2 27211.8 1218.78   1
   6   6  -2 29306.8 1335.36   9
  -6  -6   2 28611.6 1033.78   4
  -6  -6   1 8666.30 749.091   8
   6   6  -1 7577.78 601.289   1
   6   6  -1 8239.99 376.560   3
   6   6  -1 8755.70 651.005   5
   6   6  -1 8564.32 679.312   9
  -6  -6   1 8384.51 546.407   4
  -6  -6   0 2387.53 407.406   8
  -6  -6   0 2222.61 307.785   4
  -6  -6   0 2216.94 302.981   2
   6   6   0 2108.31 330.061   5
   6   6   0 2097.07 310.208   1
   6   6   0 2295.50 363.374   9
  -6  -6  -1 21743.9 1139.76   8
  -6  -6  -1 23975.9 986.706   2
   6   6   1 23283.8 968.726   1
   6   6   1 25668.9 1159.27   9
  -6  -6  -1 24899.1 1027.16   4
  -6  -6  -2 81639.1 2454.18   8
   6   6   2 91742.2 2444.05   9
  -6  -6  -2 91858.5 2244.77   2
   6   6   2 88587.6 2071.44   6
  -6  -6  -2 80999.3 1488.71   3
   6   6   2 87743.6 2092.57   1
  -6  -6  -2 86993.2 2276.74   4
   6   6   3 15554.3 868.166   9
  -6  -6  -3 15231.9 807.481   2
   6   6   3 14852.2 719.362   6
  -6  -6  -3 14408.6 388.566   3
   6   6   3 15075.2 671.672   1
  -6  -6  -3 15359.7 842.049   4
  -6  -6  -4 38618.0 1425.66   2
  -6  -6  -4 37140.6 851.089   3
   6   6   4 37867.2 1264.72   6
   6   6   4 37581.3 1098.08   1
   6   6   4 39494.2 1443.79   9
  -6  -6  -4 36830.1 1415.68   4
  -6  -6  -5 4950.90 518.174   2
  -6  -6  -5 5111.14 281.021   3
   6   6   5 4794.85 433.637   6
  -6  -6  -5 5631.82 446.355   1
   6   6   5 4485.61 309.799   1
   6   6   5 6084.83 541.792   9
  -6  -6  -5 4572.45 502.506   4
  -6  -6  -6 3838.35 465.498   4
  -6  -6  -6 3123.25 265.000   3
   6   6   6 3418.50 396.001   6
  -6  -6  -6 3937.93 516.521   2
  -6  -6  -6 3106.82 259.159   1
   6   6   6 3092.56 402.185   9
  -6  -6  -7 9732.65 790.066   2
   6   6   7 11600.8 728.885   6
   6   6   7 10413.5 706.560   9
  -6  -6  -7 10078.9 773.500   4
   6   6   8 34961.1 1365.34   6
   6   6   8 33067.7 1290.97   9
  -6  -6  -8 30029.6 1471.80   2
  -6  -6  -8 33273.4 1485.74   4
   6   6   9 40015.8 1527.28   6
  -6  -6  -9 37449.2 1398.56   3
   6   6   9 37152.6 1393.15   9
  -6  -6  -9 37551.5 1645.71   4
   6   6  10 21552.7 1156.04   6
  -6  -6 -10 21044.4 1091.49   3
   6   6  10 22496.0 1044.54   9
  -6  -6 -10 21697.4 1325.63   2
  -6  -6 -10 21758.6 1277.01   4
  -6  -6 -11 12225.7 1041.48   2
   6   6  11 11497.5 880.129   6
  -6  -6 -11 11936.5 865.442   3
   6   6  11 11856.8 747.049   9
  -6  -6 -11 11670.8 986.587   4
  -6  -6 -12 1036.53 384.641   4
  -6  -6 -12 2016.71 441.530   2
   6   6  12 2169.11 435.681   6
  -6  -6 -12 1878.38 416.914   3
  -6  -6 -13 3381.63 634.123   4
  -6  -6 -13 3497.83 607.655   2
   6   6  13 3136.46 539.854   6
  -6  -6 -13 3863.76 591.723   3
  -6  -6 -14 9470.26 1019.93   4
   6   6  14 12564.5 1057.06   6
  -6  -6 -14 9317.12 1045.50   2
  -6  -6 -14 8937.88 909.147   3
  -6  -6 -15 9478.75 1031.91   4
   6   6  15 8731.81 912.347   6
  -6  -6 -15 7607.66 950.317   2
  -6  -6 -15 7926.38 923.663   3
  -6  -6 -16 4454.64 725.051   3
  -6  -7   8 4749.79 777.842   8
   6   7  -8 4508.49 637.491   5
  -6  -7   7 6239.31 842.762   8
   6   7  -7 7337.08 781.024   5
   6   7  -7 5993.43 758.699   1
  -6  -7   6 1212.47 410.907   8
   6   7  -6 1048.19 352.551   1
   6   7  -6 1144.68 349.115   5
  -6  -7   5 7182.48 814.559   8
   6   7  -5 6925.83 706.698   5
   6   7  -5 7082.86 731.828   1
  -6  -7   4 14061.0 1054.88   8
   6   7  -4 14553.6 707.129   3
   6   7  -4 15438.8 1004.10   5
   6   7  -4 13905.1 970.930   1
  -6  -7   3 33347.5 1565.21   8
   6   7  -3 33601.8 1091.53   3
   6   7  -3 35289.9 1497.10   5
   6   7  -3 35397.7 1516.61   1
  -6  -7   3 35218.8 1132.92   4
  -6  -7   2 17531.5 1045.08   8
   6   7  -2 18539.3 718.803   3
   6   7  -2 17511.6 1005.84   5
   6   7  -2 18360.5 1013.91   1
   6   7  -2 18765.3 1098.40   9
  -6  -7   2 17972.9 816.336   4
  -6  -7   1 6406.59 591.127   8
   6   7  -1 5447.77 360.238   3
   6   7  -1 6525.13 594.907   5
   6   7  -1 6522.23 576.020   1
   6   7  -1 5869.42 593.985   9
  -6  -7   1 6557.34 489.898   4
  -6  -7   0 367.261 203.751   8
   6   7   0 180.038 176.503   7
  -6  -7   0 77.8893 148.193   4
   6   7   0-90.2907 164.720   1
  -6  -7   0 204.038 171.111   2
   6   7   0 188.911 172.423   5
   6   7   0 14.5410 199.831   9
  -6  -7  -1 8498.46 619.310   8
   6   7   1 8642.14 612.983   7
  -6  -7  -1 9415.09 638.259   2
   6   7   1 8751.51 599.441   1
   6   7   1 10290.4 751.957   9
  -6  -7  -1 8598.99 608.608   4
  -6  -7  -2 44408.1 1545.10   4
  -6  -7  -2 44282.3 1464.08   8
   6   7   2 46348.2 1537.94   7
  -6  -7  -2 45031.0 1517.14   2
   6   7   2 44763.4 1325.85   6
   6   7   2 43254.5 1392.02   1
   6   7   2 46531.8 1665.60   9
  -6  -7  -3 54023.0 1792.74   4
  -6  -7  -3 53758.1 1623.54   8
   6   7   3 56853.1 1780.10   7
  -6  -7  -3 58011.3 1793.60   2
   6   7   3 57879.2 1597.77   6
   6   7   3 56952.6 1883.01   9
  -6  -7  -4 40484.5 1550.58   4
  -6  -7  -4 38848.5 1295.22   8
   6   7   4 42613.3 1515.69   7
  -6  -7  -4 41731.8 1544.06   2
   6   7   4 41548.7 1343.30   6
   6   7   4 44148.6 1591.95   9
  -6  -7  -5 10975.6 793.071   4
  -6  -7  -5 12883.5 841.345   2
   6   7   5 12642.7 796.176   7
   6   7   5 11917.3 691.540   6
   6   7   5 12360.5 798.959   9
  -6  -7  -6 3164.38 463.160   4
   6   7   6 3818.25 424.233   6
  -6  -7  -6 3186.19 471.227   2
   6   7   6 3494.61 451.204   9
  -6  -7  -7 10550.7 821.263   4
  -6  -7  -7 10141.6 839.864   2
   6   7   7 9666.41 685.886   6
   6   7   7 9525.10 697.835   9
  -6  -7  -8 13469.9 962.428   4
   6   7   8 12447.6 812.253   6
   6   7   8 12626.4 802.898   9
  -6  -7  -8 13222.2 953.435   2
   6   7   9 27935.7 1292.98   6
   6   7   9 28040.8 1223.40   9
  -6  -7  -9 28822.1 1469.53   2
  -6  -7  -9 26567.4 1428.95   4
   6   7  10 14433.4 963.824   6
  -6  -7 -10 13104.7 1016.75   2
  -6  -7 -10 12880.3 1025.48   4
   6   7  11 12387.9 928.764   6
  -6  -7 -11 10232.6 862.854   3
  -6  -7 -11 10836.0 966.314   2
  -6  -7 -11 9983.69 953.234   4
  -6  -7 -12 1016.06 409.186   4
  -6  -7 -12 1006.30 369.882   2
   6   7  12 817.482 342.816   6
  -6  -7 -12 343.984 276.696   3
  -6  -7 -13 2046.84 527.357   4
  -6  -7 -13 2122.09 529.554   2
   6   7  13 1920.38 468.249   6
  -6  -7 -13 1599.68 425.360   3
  -6  -7 -14 7195.28 919.378   4
   6   7  14 8456.18 895.523   6
  -6  -7 -14 7717.90 910.591   2
  -6  -7 -14 5904.90 763.184   3
  -6  -7 -15 6598.38 895.093   4
  -6  -7 -15 6425.73 853.558   2
  -6  -7 -15 4567.45 744.076   3
  -6  -7 -16 3503.28 703.025   3
  -6  -8   7 1860.65 454.966   8
   6   8  -7 1669.05 436.366   5
  -6  -8   6 2091.70 450.920   8
   6   8  -6 2498.36 477.114   5
  -6  -8   5 11205.6 937.808   8
   6   8  -5 13295.3 1000.07   5
  -6  -8   4 21749.2 1247.70   8
   6   8  -4 22440.0 1269.98   5
  -6  -8   3 32922.3 1463.72   8
   6   8  -3 30157.4 1096.56   3
   6   8  -3 32877.4 1506.94   5
  -6  -8   2 36296.7 1482.39   8
   6   8  -2 36505.1 1348.80   7
   6   8  -2 36371.8 1168.90   3
   6   8  -2 37150.2 1564.18   5
  -6  -8   2 36964.2 1257.19   4
  -6  -8   1 8850.08 655.458   8
   6   8  -1 8976.28 649.921   7
   6   8  -1 8820.76 513.322   3
  -6  -8   1 8630.44 666.456   2
   6   8  -1 7894.39 688.041   5
  -6  -8   1 8874.86 611.923   4
  -6  -8   0-113.279 187.479   8
  -6  -8   0 193.603 170.317   4
   6   8   0 41.9060 179.831   7
  -6  -8   0 22.3230 188.507   2
   6   8   0-8.02658 186.429   5
  -6  -8  -1 5820.76 530.780   4
  -6  -8  -1 5863.84 471.094   8
   6   8   1 6287.00 552.462   7
  -6  -8  -1 6711.96 575.544   2
  -6  -8  -2 35335.0 1401.60   4
  -6  -8  -2 33730.8 1117.07   8
   6   8   2 33110.4 1333.14   7
  -6  -8  -2 31812.1 1318.77   2
   6   8   2 33422.4 1099.90   6
   6   8   2 34817.5 1496.41   9
  -6  -8  -3 49699.3 1770.81   4
  -6  -8  -3 50445.0 1364.79   8
   6   8   3 47336.6 1689.07   7
  -6  -8  -3 50129.3 1722.74   2
   6   8   3 52115.3 1502.04   6
   6   8   3 51247.1 1837.16   9
  -6  -8  -4 59071.0 2008.08   4
  -6  -8  -4 59241.2 1428.84   8
   6   8   4 57327.7 1927.71   7
  -6  -8  -4 59853.0 1973.58   2
   6   8   4 58448.6 1706.88   6
   6   8   4 59860.7 2017.20   9
  -6  -8  -5 26405.6 1325.51   4
  -6  -8  -5 27503.9 779.758   8
  -6  -8  -5 30340.4 1355.61   2
   6   8   5 25625.8 1237.56   7
   6   8   5 27534.6 1114.53   6
   6   8   5 29876.9 1320.99   9
  -6  -8  -6 1784.88 392.782   4
   6   8   6 1327.57 332.752   7
   6   8   6 1688.58 308.332   6
  -6  -8  -6 1484.25 334.443   2
   6   8   6 796.767 270.584   9
  -6  -8  -7 4822.73 603.261   4
   6   8   7 4595.82 558.371   7
   6   8   7 4389.90 478.123   6
  -6  -8  -7 3573.18 528.584   2
  -6  -8  -8 34757.0 1670.21   4
  -6  -8  -8 35208.6 1667.95   2
   6   8   8 32095.5 1531.24   7
   6   8   8 33918.1 1416.22   6
  -6  -8  -9 40005.1 1873.06   4
   6   8   9 40815.1 1646.90   6
  -6  -8  -9 41836.8 1854.85   2
  -6  -8 -10 29740.9 1671.37   4
   6   8  10 33221.6 1530.38   6
  -6  -8 -10 35440.6 1713.93   2
  -6  -8 -11 4770.65 702.624   4
  -6  -8 -11 4969.86 663.484   2
   6   8  11 4574.96 608.584   6
  -6  -8 -12 1796.64 507.977   4
  -6  -8 -12 2399.77 539.128   2
   6   8  12 2197.36 480.048   6
  -6  -8 -13 2492.01 602.798   4
  -6  -8 -13 3800.14 647.158   2
   6   8  13 3763.00 630.888   6
  -6  -8 -13 2790.61 572.742   3
  -6  -8 -14 5692.03 824.173   4
  -6  -8 -14 6421.63 816.955   2
   6   8  14 6438.41 784.910   6
  -6  -8 -14 4956.84 764.039   3
  -6  -8 -15 8945.58 1007.15   4
  -6  -8 -15 7184.45 949.393   3
  -6  -9   7 1617.85 422.478   8
  -6  -9   6 238.958 255.808   8
   6   9  -6 512.367 320.061   5
  -6  -9   5 4706.73 576.192   8
   6   9  -5 4713.72 635.878   5
  -6  -9   4 24187.9 1236.70   8
   6   9  -4 23054.4 1350.38   5
  -6  -9   3 45651.1 1704.76   8
   6   9  -3 46567.0 1585.61   7
   6   9  -3 47085.0 1911.12   5
  -6  -9   2 28718.0 1241.06   8
   6   9  -2 27491.6 1214.57   7
   6   9  -2 29263.7 1099.62   3
   6   9  -2 28542.7 1419.19   5
  -6  -9   2 32000.8 1174.01   4
  -6  -9   1 17903.7 934.463   4
  -6  -9   1 20159.7 939.141   8
   6   9  -1 21600.2 1061.85   7
   6   9  -1 19324.1 865.821   3
  -6  -9   1 19376.9 1084.11   2
   6   9  -1 22093.9 1182.40   5
  -6  -9   0 216.017 171.874   8
  -6  -9   0 424.896 222.658   4
   6   9   0 554.472 251.970   7
  -6  -9   0 329.965 246.507   2
   6   9   0 272.481 234.471   5
  -6  -9  -1 14129.4 677.882   8
  -6  -9  -1 13855.4 869.707   4
   6   9   1 13448.5 854.716   7
  -6  -9  -1 13275.0 868.792   2
  -6  -9  -2 52441.1 1387.95   8
  -6  -9  -2 49893.4 1820.49   4
   6   9   2 54472.4 1830.78   7
  -6  -9  -2 53601.3 1865.74   2
   6   9   2 52391.0 1466.98   6
  -6  -9  -3 60725.4 1432.17   8
  -6  -9  -3 62389.9 2119.87   4
   6   9   3 62725.9 2064.95   7
  -6  -9  -3 62568.6 2053.03   2
   6   9   3 62769.4 1721.10   6
  -6  -9  -4 33154.4 1507.07   4
   6   9   4 34267.0 1479.05   7
  -6  -9  -4 35530.3 1491.47   2
   6   9   4 32684.1 1211.27   6
  -6  -9  -5 12366.3 934.958   4
   6   9   5 14387.3 942.443   7
   6   9   5 13952.8 781.896   6
  -6  -9  -6 724.796 265.293   4
   6   9   6 205.807 226.212   7
   6   9   6 755.669 264.418   6
  -6  -9  -6 449.753 245.183   2
  -6  -9  -7 13810.7 1064.25   4
  -6  -9  -7 16076.0 1112.51   2
   6   9   7 15002.6 1030.92   7
   6   9   7 15053.5 895.975   6
  -6  -9  -8 27334.8 1562.94   4
  -6  -9  -8 33893.9 1695.51   2
   6   9   8 31629.2 1562.43   7
   6   9   8 29565.3 1347.64   6
  -6  -9  -9 49129.6 2091.10   2
  -6  -9  -9 44312.1 2084.72   4
   6   9   9 45238.5 1996.70   7
   6   9   9 48074.3 1849.42   6
  -6  -9 -10 22308.9 1494.39   4
   6   9  10 25040.3 1349.36   6
  -6  -9 -10 25319.7 1471.57   2
  -6  -9 -11 10307.1 1072.51   4
   6   9  11 10329.9 914.963   6
  -6  -9 -11 10212.3 951.881   2
  -6  -9 -12-352.762 394.083   4
  -6  -9 -12 115.159 301.944   2
   6   9  12 212.815 299.943   6
  -6  -9 -13 562.745 411.702   4
  -6  -9 -13 1279.75 464.764   2
   6   9  13 995.292 402.226   6
  -6  -9 -14 6395.93 826.870   4
  -6  -9 -14 6675.44 821.035   3
  -6  -9 -15 8071.35 928.439   4
  -6  -9 -15 9985.35 1044.92   3
  -6 -10   6 1060.29 322.170   8
  -6 -10   5 7122.04 698.366   8
   6  10  -5 8256.31 827.546   5
   6  10  -4 19833.9 971.364   7
   6  10  -4 23076.8 1353.35   5
  -6 -10   4 20005.9 1088.32   8
   6  10  -3 21418.6 1056.47   7
  -6 -10   3 20881.3 1058.79   8
   6  10  -2 26236.2 1210.32   7
  -6 -10   2 25281.6 1327.65   2
   6  10  -2 26681.6 1396.50   5
  -6 -10   2 23985.0 1080.27   8
   6  10  -1 4622.87 527.736   7
  -6 -10   1 4394.38 476.274   4
  -6 -10   1 4880.63 586.310   2
   6  10  -1 4841.05 601.095   5
  -6 -10   1 4304.04 417.054   8
  -6 -10   0 429.304 178.304   8
  -6 -10   0 86.3122 184.424   4
   6  10   0 334.424 249.462   7
  -6 -10   0 238.978 225.819   2
  -6 -10  -1 11628.0 849.347   4
   6  10   1 11656.2 839.393   7
  -6 -10  -1 11423.2 849.438   2
   6  10   2 20127.2 1129.19   7
  -6 -10  -2 23528.3 1231.31   2
   6  10   2 21825.9 840.180   6
   6  10   3 57508.2 2052.67   7
  -6 -10  -3 55712.3 2013.62   2
   6  10   3 56034.2 1616.23   6
   6  10   4 26255.4 1343.97   7
  -6 -10  -4 26131.3 1322.05   2
   6  10   4 24384.2 1032.04   6
   6  10   5 11618.8 907.477   7
  -6 -10  -5 11096.3 884.630   2
   6  10   5 10639.6 703.469   6
   6  10   6 219.799 265.733   7
   6  10   6 156.483 195.994   6
  -6 -10  -6 295.227 304.863   2
   6  10   7 6522.82 723.620   7
   6  10   7 5374.16 557.860   6
  -6 -10  -7 6434.65 733.700   2
  -6 -10  -8 17218.2 1292.06   4
   6  10   8 18401.8 1242.04   7
   6  10   8 18266.5 1077.53   6
  -6 -10  -9 13498.0 1107.67   2
  -6 -10  -9 12638.0 1163.84   4
   6  10   9 13459.5 1073.22   7
   6  10   9 14502.0 992.962   6
  -6 -10 -10 20386.3 1508.50   4
   6  10  10 21421.7 1338.90   7
   6  10  10 23830.9 1347.76   6
  -6 -10 -10 23962.4 1474.93   2
   6  10  11 1917.38 434.640   7
  -6 -10 -11 2241.97 556.550   4
  -6 -10 -11 3288.11 609.629   2
   6  10  11 2108.94 477.114   6
  -6 -10 -12 83.5432 288.149   4
  -6 -10 -12 789.532 397.123   2
   6  10  12 426.311 366.582   6
  -6 -10 -13 2874.32 622.873   4
  -6 -10 -13 2812.87 537.695   2
   6  10  13 2957.85 566.186   6
  -6 -10 -14 6432.26 822.870   4
   6  11  -3 12149.7 799.865   7
  -6 -11   3 13112.0 992.783   2
   6  11  -3 12101.4 992.326   5
   6  11  -2 18463.2 1032.55   7
  -6 -11   2 19084.5 1181.24   2
   6  11  -2 20641.1 1265.97   5
  -6 -11   1 7483.30 618.581   4
   6  11  -1 8074.54 701.672   7
  -6 -11   1 7471.63 742.221   2
  -6 -11   0 93.6656 195.608   4
   6  11   0 469.550 253.945   7
  -6 -11   0 355.822 280.161   2
   6  11   1 3348.00 515.126   7
  -6 -11  -1 3048.27 511.670   2
   6  11   2 12679.6 942.491   7
  -6 -11  -2 12169.9 932.482   2
   6  11   3 17153.6 1120.96   7
  -6 -11  -3 16401.1 1090.70   2
   6  11   4 26167.3 1409.30   7
  -6 -11  -4 25493.6 1376.58   2
   6  11   4 23980.3 1009.34   6
   6  11   5 10215.8 896.673   7
  -6 -11  -5 10247.1 884.216   2
   6  11   5 9045.13 638.029   6
   6  11   6 1513.12 422.895   7
   6  11   6 1539.97 321.680   6
  -6 -11  -6 1342.30 403.978   2
   6  11   7 336.219 319.116   7
   6  11   7 194.139 200.308   6
  -6 -11  -7-66.7647 267.976   2
  -6 -11  -8 9278.20 934.621   2
   6  11   8 10282.3 962.924   7
   6  11   8 9599.61 781.260   6
  -6 -11  -9 14137.3 1178.06   2
   6  11   9 10960.4 957.909   7
   6  11   9 12623.4 941.795   6
  -6 -11 -10 12376.6 1092.48   2
  -6 -11 -10 12017.6 1160.43   4
   6  11  10 11276.7 956.010   7
   6  11  10 9614.90 858.998   6
  -6 -11 -11 12099.1 1169.15   4
   6  11  11 10875.0 929.550   7
   6  11  11 12295.4 1009.65   6
  -6 -11 -11 14494.2 1161.50   2
   6  11  12 874.286 317.534   7
  -6 -11 -12 996.844 432.999   4
   6  11  12 1776.44 464.249   6
   6  12  -3 14891.9 931.883   7
   6  12  -2 9310.95 755.118   7
  -6 -12   2 10784.3 921.717   2
   6  12  -1 12146.8 877.476   7
  -6 -12   1 12904.4 994.513   2
   6  12   0 3128.62 491.969   7
  -6 -12   0 3294.43 554.432   2
   6  12   1 1762.61 395.920   7
  -6 -12  -1 1590.41 417.766   2
   6  12   2 7016.15 745.737   7
  -6 -12  -2 6840.26 752.589   2
   6  12   3 21467.3 1311.98   7
  -6 -12  -3 21706.3 1324.39   2
   6  12   4 24337.6 1437.80   7
  -6 -12  -4 25410.7 1441.24   2
  -6 -12  -5 17386.2 1197.02   2
   6  12   5 17393.7 1225.08   7
   6  12   5 16101.7 849.926   6
  -6 -12  -6 9320.66 910.063   2
   6  12   6 9812.18 935.920   7
   6  12   6 8578.31 650.015   6
   6  12   7 724.393 335.756   7
   6  12   7 573.877 246.910   6
  -6 -12  -7 83.0411 370.655   2
   6  12   8 3605.59 583.230   7
   6  12   8 4467.79 556.835   6
  -6 -12  -8 3961.70 640.129   2
  -6 -12  -9 27839.8 1691.12   2
   6  12   9 24288.0 1432.25   7
   6  12   9 24432.3 1324.72   6
  -6 -12 -10 13869.6 1159.48   2
   6  12  10 12128.1 990.554   7
   6  12  10 12838.3 985.356   6
   6  12  11 9517.40 871.028   7
   6  12  11 9076.84 863.956   6
   6  12  12 1666.54 409.768   7
   6  13  -1 8591.94 767.865   7
   6  13   0 2206.67 452.404   7
   6  13   1 332.892 325.894   7
  -6 -13  -1 131.579 271.309   2
   6  13   2 17116.8 1186.29   7
  -6 -13  -2 16799.3 1202.99   2
   6  13   3 16614.1 1195.40   7
  -6 -13  -3 17729.9 1229.06   2
   6  13   4 22533.4 1416.61   7
  -6 -13  -4 23818.2 1443.92   2
  -6 -13  -5 12212.0 1063.83   2
   6  13   5 12719.2 1073.39   7
   6  13   6 281.651 323.008   7
  -6 -13  -6 530.214 273.868   2
   6  13   7 451.181 381.315   7
   6  13   7 798.185 302.699   6
  -6 -13  -7-186.591 352.056   2
  -6 -13  -8 9873.69 1008.18   2
   6  13   8 10997.8 964.572   7
   6  13   8 10375.5 791.873   6
   6  13   9 14005.3 1085.93   7
   6  13   9 13777.0 982.967   6
   6  13  10 15945.3 1091.06   6
  -7   6   4 1747.49 420.242   4
  -7   6   3 3751.19 589.143   4
   7  -6  -2 7546.88 847.156   1
  -7   6   2 9561.21 913.409   4
   7  -6  -1 10028.6 970.697   1
  -7   6   1 11411.3 969.840   4
  -7   6   0 6794.39 773.908   4
   7  -6   0 7407.72 833.832   1
  -7   6  -1 3549.45 590.212   4
   7  -6   1 2199.81 476.645   1
  -7   6  -2 24.1263 307.720   4
   7  -6   2-217.245 332.342   1
  -7   6  -3 5979.02 748.287   4
   7  -6   3 5845.25 756.578   1
  -7   6  -4 7185.48 792.075   4
   7  -6   4 8343.52 912.231   1
  -7   6  -5 9323.49 773.247   3
  -7   6  -5 11163.1 1007.25   4
   7  -6   5 11306.7 1034.45   1
   7  -6   6 3526.48 628.186   1
  -7   6  -6 4086.78 526.506   3
   7  -6   7 652.872 387.134   1
  -7   5   5 2281.02 468.478   4
   7  -5  -5 3006.26 549.943   1
  -7   5   4 46.6314 265.942   4
   7  -5  -4-133.392 316.075   1
  -7   5   3 2688.67 487.679   4
   7  -5  -3 4860.24 705.685   1
   7  -5  -2 16203.0 1201.05   1
  -7   5   2 17546.2 1168.41   4
   7  -5  -1 14602.9 1126.85   1
  -7   5   1 13568.1 1041.31   4
   7  -5   0 11798.1 1021.41   1
  -7   5   0 13215.2 1029.95   4
  -7   5  -1 2421.64 510.132   4
   7  -5   1 2446.63 519.488   1
  -7   5  -2-72.3572 290.825   4
   7  -5   2 99.4987 312.560   1
  -7   5  -3 4855.46 663.366   4
   7  -5   3 4151.40 658.004   1
  -7   5  -4 11406.3 802.035   3
  -7   5  -4 13066.4 1035.50   4
   7  -5   4 11187.9 1027.61   1
  -7   5  -5 21028.5 1109.09   3
  -7   5  -5 19841.7 1313.19   4
   7  -5   5 20505.0 1390.13   1
  -7   5  -6 9525.93 756.506   3
  -7   5  -6 10391.1 943.109   4
   7  -5   6 9343.20 939.656   1
  -7   5  -7 6078.44 746.690   4
   7  -5   7 5067.07 711.041   1
  -7   5  -7 5527.42 577.158   3
  -7   5  -8 278.080 320.826   4
   7  -5   8 457.475 382.961   1
  -7   5  -8 154.607 206.486   3
  -7   5  -9 1510.58 357.826   3
  -7   4   6 7250.85 703.466   4
   7  -4  -6 6100.39 730.901   1
  -7   4   5 6286.33 649.311   4
   7  -4  -5 5759.15 700.308   1
  -7   4   4 374.947 223.558   4
   7  -4  -4 613.766 326.704   1
  -7   4   3 4253.89 565.344   4
   7  -4  -3 5622.13 691.965   1
   7  -4  -2 18316.1 1236.58   1
  -7   4   2 18390.0 1151.79   4
   7  -4  -1 24640.8 1427.62   1
  -7   4   1 23597.3 1318.32   4
   7  -4   0 21217.2 1330.14   1
  -7   4   0 22434.4 1272.36   4
   7  -4   1 7535.80 806.110   1
  -7   4  -1 7077.22 735.169   4
  -7   4  -2 471.364 329.311   4
   7  -4   2 512.676 330.641   1
  -7   4  -3 7789.12 779.039   4
   7  -4   3 7517.59 806.793   1
  -7   4  -4 12825.1 819.615   3
  -7   4  -4 14081.2 1037.42   4
   7  -4   4 14708.4 1123.67   1
  -7   4  -5 20455.4 1039.76   3
  -7   4  -5 22053.9 1325.70   4
   7  -4   5 21678.1 1364.01   1
  -7   4  -6 25595.1 1187.00   3
  -7   4  -6 26241.2 1479.18   4
   7  -4   6 25903.2 1514.79   1
  -7   4  -7 5265.96 687.490   4
   7  -4   7 5472.21 708.205   1
  -7   4  -7 4087.42 502.674   3
  -7   4  -8 1097.86 392.677   4
   7  -4   8 899.214 375.727   1
  -7   4  -8 211.741 224.641   3
  -7   4  -9 2227.83 474.725   4
   7  -4   9 2668.36 532.454   1
  -7   4  -9 2743.00 447.509   3
  -7   4 -10 11754.7 888.555   3
  -7   4 -10 9913.16 897.650   4
  -7   3   7 18199.6 1322.45   8
   7  -3  -7 18390.6 1236.79   1
  -7   3   6 9582.46 1031.85   8
   7  -3  -6 9713.84 918.680   1
  -7   3   5 3465.46 469.016   4
   7  -3  -5 4165.72 617.061   1
  -7   3   4 454.199 263.821   4
   7  -3  -4 198.097 276.610   1
  -7   3   3 3413.69 490.740   4
   7  -3  -3 3616.72 567.095   1
   7  -3  -2 19920.6 1246.36   1
  -7   3   2 17524.8 1074.44   4
   7  -3  -1 24669.5 1383.69   1
  -7   3   1 24995.2 1287.82   4
   7  -3   0 14833.1 1074.02   1
  -7   3   0 15776.7 1015.23   4
   7  -3   1 5613.61 674.679   1
  -7   3  -1 7104.30 675.473   4
  -7   3  -2 845.958 331.195   4
   7  -3   2 446.990 284.233   1
   7  -3   3 9591.66 884.647   1
  -7   3  -3 11149.2 861.617   4
  -7   3  -4 18416.2 909.807   3
   7  -3   4 17986.3 1206.78   1
  -7   3  -4 18125.2 1143.50   4
  -7   3  -5 22212.9 1031.51   3
  -7   3  -5 23375.1 1319.27   4
   7  -3   5 23491.3 1376.85   1
  -7   3  -6 15697.8 869.689   3
  -7   3  -6 15859.4 1116.22   4
   7  -3   6 15467.5 1121.73   1
  -7   3  -7 6768.46 583.248   3
  -7   3  -7 6576.75 725.363   4
   7  -3   7 6471.04 737.155   1
   7  -3   8 206.438 257.266   1
  -7   3  -8 60.0139 277.175   4
  -7   3  -8 60.9637 181.812   3
  -7   3  -9 2483.64 496.995   4
   7  -3   9 3045.45 507.293   1
  -7   3  -9 2562.86 397.198   3
  -7   3 -10 7376.25 783.922   4
  -7   3 -10 5954.27 615.212   3
  -7   3 -11 13002.6 940.145   3
  -7   3 -11 13575.3 1045.66   4
  -7   2   8 5210.94 737.113   8
  -7   2   7 7783.68 891.314   8
   7  -2  -7 9385.13 897.851   1
   7  -2  -7 8625.03 757.346   9
  -7   2   6 9011.05 970.252   8
   7  -2  -6 9386.93 905.807   1
  -7   2   5 820.580 248.842   4
   7  -2  -5 1386.76 407.996   1
  -7   2   4-13.1269 227.230   4
   7  -2  -4-175.466 289.962   1
   7  -2  -3 11871.6 944.338   1
  -7   2   3 9861.43 759.489   4
   7  -2  -2 7871.70 776.881   1
  -7   2   2 8481.57 704.486   4
   7  -2  -1 35478.0 1645.77   1
  -7   2   1 36401.9 1504.77   4
   7  -2   0 18829.2 1167.65   1
  -7   2   0 18675.7 1063.97   4
   7  -2   1 9798.45 823.291   1
  -7   2  -1 9194.12 749.964   4
  -7   2  -2 62.8006 255.172   4
   7  -2   2 487.515 278.462   1
  -7   2  -3 160.110 246.316   4
   7  -2   3 118.736 238.091   1
  -7   2  -4 32810.4 1181.65   3
   7  -2   4 31677.6 1572.78   1
  -7   2  -4 33170.7 1504.55   4
  -7   2  -5 20428.8 912.245   3
   7  -2   5 20560.6 1246.27   1
  -7   2  -5 19808.9 1176.93   4
  -7   2  -6 19543.4 923.888   3
  -7   2  -6 19571.7 1172.01   4
   7  -2   6 21082.3 1233.12   1
  -7   2  -7 4376.11 584.688   4
  -7   2  -7 4336.81 441.913   3
   7  -2   7 4417.91 575.204   1
  -7   2  -8-5.72035 258.968   4
  -7   2  -8-68.6503 170.366   3
   7  -2   8 129.152 219.956   1
  -7   2  -9 1282.50 361.601   4
  -7   2  -9 1098.69 280.260   3
   7  -2   9 1259.22 320.184   1
  -7   2 -10 5218.58 671.857   4
  -7   2 -10 6508.27 616.222   3
  -7   2 -11 6570.94 744.756   4
  -7   2 -11 7226.56 671.832   3
  -7   2 -12 5461.95 673.715   4
  -7   2 -12 5382.58 619.720   3
  -7   1   8 7772.30 855.531   8
   7  -1  -8 6900.00 802.132   1
  -7   1   7 9265.28 962.612   8
   7  -1  -7 8954.64 896.545   1
  -7   1   6 10443.6 1024.22   8
   7  -1  -6 9804.15 933.670   1
   7  -1  -6 12712.1 918.970   9
   7  -1  -5 8325.79 756.789   9
   7  -1  -5 9170.41 864.087   1
  -7   1   5 8143.48 632.245   4
  -7   1   4 543.793 234.998   4
   7  -1  -4 553.321 321.634   1
  -7   1   3 3158.87 422.094   4
   7  -1  -3 4284.12 578.573   1
   7  -1  -2 18392.3 1134.68   1
  -7   1   2 18438.8 989.962   4
   7  -1  -1 22989.6 1270.27   1
  -7   1   1 22613.7 1121.35   4
   7  -1   0 35951.8 1597.32   1
  -7   1   0 33482.6 1406.78   4
   7  -1   1 14226.5 966.048   1
  -7   1  -1 13805.9 877.636   4
   7  -1   2 34.5205 210.534   1
  -7   1  -2 27.8526 199.306   4
  -7   1  -3 4621.61 539.102   4
   7  -1   3 3625.19 493.807   1
  -7   1  -4 9351.72 534.513   3
   7  -1   4 10288.7 793.362   1
  -7   1  -4 10356.7 792.941   4
  -7   1  -5 31486.3 1084.80   3
   7  -1   5 31002.8 1410.64   1
  -7   1  -5 33421.6 1481.92   4
  -7   1  -6 33258.6 1159.01   3
   7  -1   6 32690.2 1442.31   1
  -7   1  -6 32589.9 1494.12   4
  -7   1  -7 14070.6 748.823   3
   7  -1   7 13214.7 862.695   1
  -7   1  -7 12377.8 927.422   4
  -7   1  -8 2610.54 464.887   4
  -7   1  -8 2809.05 375.550   3
   7  -1   8 1978.57 351.607   1
  -7   1  -9 563.422 302.496   4
  -7   1  -9 273.158 191.166   3
   7  -1   9 770.076 240.776   1
  -7   1 -10 6773.77 598.964   3
   7  -1  10 7134.46 627.208   9
  -7   1 -10 7463.48 766.287   4
  -7   1 -11 12875.8 877.919   3
   7  -1  11 15044.9 854.394   9
  -7   1 -11 13841.2 1038.00   4
  -7   1 -12 13139.9 911.351   3
  -7   1 -12 13145.5 1005.73   4
  -7   1 -13 3468.70 554.104   4
  -7   1 -13 2571.60 464.329   3
   7   0  -8 8476.27 908.336   1
  -7   0   8 7234.49 830.129   8
  -7   0   7 18692.0 1346.30   8
   7   0  -7 18258.8 1322.35   1
  -7   0   6 25337.7 1586.92   8
   7   0  -6 24892.5 1502.93   1
   7   0  -6 28397.0 1366.65   9
  -7   0   5 9110.29 972.097   8
   7   0  -5 7275.06 805.860   1
  -7   0   5 8941.96 608.181   4
   7   0  -5 8474.66 754.470   9
   7   0  -4 6394.66 720.706   1
  -7   0   4 5807.20 513.289   4
   7   0  -4 6091.37 643.613   9
  -7   0   3 1838.61 355.997   4
   7   0  -3 2330.39 471.133   1
   7   0  -3 2166.10 412.604   9
   7   0  -2 26801.7 1370.62   1
  -7   0   2 25773.3 1153.53   4
   7   0  -1 33920.5 1521.81   1
  -7   0   1 34922.7 1369.00   4
   7   0   0 47953.1 1814.04   1
  -7   0   0 50817.8 1720.47   4
   7   0   1 22692.9 1163.36   1
  -7   0  -1 26965.1 1202.47   4
   7   0   2 4960.58 537.098   1
  -7   0  -2 5652.19 561.890   4
   7   0   3 11921.6 789.771   1
  -7   0  -3 12127.8 819.773   4
  -7   0  -4 27659.8 879.338   3
   7   0   4 28271.0 1232.86   1
  -7   0  -4 27619.1 1283.32   4
  -7   0  -5 44508.9 1237.29   3
   7   0   5 43585.6 1575.59   1
  -7   0  -5 45469.7 1719.33   4
  -7   0  -6 31016.3 1043.21   3
   7   0   6 31429.4 1285.62   1
  -7   0  -7 33894.7 1169.52   3
   7   0   7 34560.5 1332.24   1
  -7   0  -7 37467.2 1584.97   4
  -7   0  -8 1378.73 363.648   4
   7   0   8 1280.17 257.649   1
  -7   0  -8 1162.07 248.360   3
   7   0   8 1458.76 317.019   9
  -7   0  -9 560.344 286.492   4
  -7   0  -9 132.126 170.898   3
   7   0   9 105.828 196.912   9
  -7   0 -10 9988.50 709.192   3
   7   0  10 9156.76 692.175   9
  -7   0 -10 9218.47 838.545   4
   7   0  11 17231.5 1001.83   6
  -7   0 -11 16000.7 943.968   3
   7   0  11 16188.0 887.186   9
  -7   0 -11 14513.8 1065.43   4
   7   0  12 19917.8 1104.13   6
  -7   0 -12 21572.1 1152.84   3
  -7   0 -12 19649.9 1237.28   4
  -7   0 -13 8895.58 842.784   4
   7   0  13 8451.05 717.455   6
  -7   0 -13 8491.72 761.138   3
   7   0  14 2437.49 427.741   6
  -7   0 -14 1505.33 380.185   3
   7   1  -8 10497.5 1072.85   1
  -7  -1   8 10523.2 1019.41   8
  -7  -1   7 24081.1 1515.88   8
   7   1  -7 25421.8 1616.71   1
  -7  -1   6 23201.3 1491.66   8
   7   1  -6 23155.7 1486.39   1
   7   1  -6 22385.2 1088.68   5
   7   1  -6 24742.1 1253.02   9
  -7  -1   5 19135.9 1359.46   8
   7   1  -5 17502.6 1225.39   1
   7   1  -5 18295.8 945.078   5
   7   1  -5 19876.8 1126.66   9
  -7  -1   4 133.934 170.547   4
  -7  -1   4-115.257 337.838   8
   7   1  -4 489.729 312.968   1
   7   1  -4 110.824 149.511   5
   7   1  -4 330.056 257.477   9
   7   1  -3 4869.47 587.255   1
   7   1  -3 5602.68 474.727   5
  -7  -1   3 5476.75 491.548   4
   7   1  -3 4833.03 554.988   9
   7   1  -2 26420.5 1324.44   1
   7   1  -2 28681.2 1315.13   9
  -7  -1   2 27932.7 1166.91   4
   7   1  -1 59989.6 2045.91   1
   7   1  -1 60922.9 2014.76   9
  -7  -1   1 60350.0 1852.55   4
   7   1   0 35282.6 1459.20   1
   7   1   0 36745.5 1489.66   9
  -7  -1   0 37238.1 1385.35   4
   7   1   1 27903.4 1220.06   1
   7   1   1 28200.2 1281.47   9
  -7  -1  -1 28470.6 1219.48   4
   7   1   2 8781.14 642.455   1
   7   1   2 9158.14 703.433   9
  -7  -1  -2 8503.65 648.431   4
  -7  -1  -3 426.947 219.490   4
   7   1   3 198.448 172.079   1
   7   1   3 220.753 182.133   9
   7   1   4 22438.2 1003.38   1
   7   1   4 23781.5 1131.15   9
  -7  -1  -4 22690.1 1124.84   4
  -7  -1  -5 48716.2 1180.84   3
   7   1   5 46821.7 1520.26   1
   7   1   5 46192.7 1651.86   9
  -7  -1  -5 50300.3 1787.16   4
  -7  -1  -6 41732.7 1149.52   3
   7   1   6 40698.4 1362.88   1
   7   1   6 40795.9 1533.24   9
  -7  -1  -6 39842.9 1595.49   4
  -7  -1  -7 14585.2 665.711   3
   7   1   7 14807.8 740.443   1
   7   1   7 16611.6 921.039   9
  -7  -1  -7 15936.0 989.570   4
   7   1   8 5810.49 548.071   6
  -7  -1  -8 5256.54 433.830   3
   7   1   8 6040.32 440.742   1
   7   1   8 5680.44 541.848   9
  -7  -1  -8 5597.27 613.294   4
  -7  -1  -9 5094.96 609.914   4
   7   1   9 5739.36 570.881   6
  -7  -1  -9 5296.84 468.089   3
   7   1   9 5573.74 536.763   9
   7   1  10 15232.8 940.987   6
  -7  -1 -10 15246.2 862.200   3
   7   1  10 14182.6 847.798   9
  -7  -1 -10 14832.4 1036.76   4
   7   1  11 22827.5 1181.98   6
  -7  -1 -11 19771.3 1038.48   3
   7   1  11 19320.5 970.113   9
  -7  -1 -11 19582.3 1230.23   4
   7   1  12 15452.6 986.050   6
  -7  -1 -12 15392.5 961.722   3
  -7  -1 -12 14479.5 1065.24   4
   7   1  13 10140.7 805.228   6
  -7  -1 -13 10882.6 843.547   3
  -7  -1 -13 11250.5 944.475   4
  -7  -1 -14 714.722 285.963   4
   7   1  14 1284.54 325.434   6
  -7  -1 -14 699.473 289.284   3
   7   2  -9 1764.62 409.357   5
  -7  -2   8 7321.62 863.849   8
   7   2  -8 8034.60 717.608   5
   7   2  -7 13210.6 1144.88   1
  -7  -2   7 15043.5 1212.35   8
   7   2  -7 12097.5 857.458   5
   7   2  -6 12562.9 1059.99   1
  -7  -2   6 12797.4 1120.05   8
   7   2  -6 12316.1 843.737   5
   7   2  -6 14214.4 951.781   9
  -7  -2   5 11746.0 1054.11   8
   7   2  -5 12409.4 1006.60   1
   7   2  -5 11590.3 784.458   5
   7   2  -5 11540.3 860.078   9
  -7  -2   4 1041.48 216.013   4
  -7  -2   4 568.769 290.530   8
   7   2  -4 1044.56 305.402   1
   7   2  -4 838.183 252.055   5
   7   2  -4 1466.77 345.630   9
  -7  -2   3 1012.40 238.919   4
  -7  -2   3 1112.38 426.876   8
   7   2  -3 1247.82 361.092   1
   7   2  -3 1207.82 264.559   5
   7   2  -3 958.677 285.997   9
   7   2  -2 26396.8 1273.63   1
   7   2  -2 25377.1 1068.59   5
   7   2  -2 26494.2 1250.14   9
  -7  -2   2 26637.0 1097.53   4
   7   2  -1 23816.9 1170.86   1
   7   2  -1 25119.6 1192.55   9
  -7  -2   1 26368.8 1094.28   4
   7   2   0 45814.9 1620.89   1
   7   2   0 47953.7 1698.74   9
  -7  -2   0 46715.1 1562.48   4
   7   2   1 16587.7 882.027   1
   7   2   1 16740.4 945.080   9
  -7  -2  -1 15951.4 864.805   4
  -7  -2  -2 812.327 247.565   4
   7   2   2 765.756 229.556   1
   7   2   2 1139.35 288.559   9
  -7  -2  -3 1122.78 271.465   4
   7   2   3 1573.36 261.367   1
   7   2   3 1495.25 306.805   9
  -7  -2  -4 15676.3 906.834   4
   7   2   4 17238.4 797.279   1
  -7  -2  -4 15525.6 433.889   2
   7   2   4 16998.4 934.789   9
  -7  -2  -5 39382.3 898.917   3
   7   2   5 41161.1 1293.09   1
  -7  -2  -5 40291.0 982.458   2
   7   2   5 40068.3 1485.14   9
  -7  -2  -5 41226.7 1571.76   4
  -7  -2  -6 35289.7 953.231   3
   7   2   6 39050.5 1401.67   6
   7   2   6 35988.0 1148.03   1
  -7  -2  -6 35427.4 1008.96   2
   7   2   6 35902.2 1389.02   9
  -7  -2  -6 35938.6 1480.16   4
   7   2   7 22350.8 1064.74   6
  -7  -2  -7 22175.8 794.748   3
   7   2   7 22539.9 812.565   1
  -7  -2  -7 21815.1 823.242   2
   7   2   7 21416.5 1044.06   9
  -7  -2  -7 22526.7 1171.03   4
  -7  -2  -8 3277.46 461.792   4
   7   2   8 3372.78 276.401   1
   7   2   8 3916.58 465.891   6
  -7  -2  -8 2994.07 308.457   3
  -7  -2  -8 3826.96 361.844   2
   7   2   8 3096.58 410.792   9
  -7  -2  -9 429.036 262.119   4
  -7  -2  -9-170.651 167.769   2
   7   2   9 42.9466 189.692   6
  -7  -2  -9-10.1313 142.058   3
   7   2   9-72.5815 198.888   9
   7   2  10 5903.82 593.423   6
  -7  -2 -10 6519.94 538.127   3
  -7  -2 -10 6622.94 559.613   2
   7   2  10 6757.28 574.727   9
  -7  -2 -10 6147.03 675.962   4
   7   2  11 11324.7 848.259   6
  -7  -2 -11 13172.4 812.551   3
  -7  -2 -11 10434.1 744.170   2
   7   2  11 12057.7 757.099   9
  -7  -2 -11 13018.9 982.837   4
   7   2  12 10576.1 838.163   6
  -7  -2 -12 10403.3 767.435   3
  -7  -2 -12 8605.69 709.023   2
   7   2  12 8814.57 614.654   9
  -7  -2 -12 7889.80 798.871   4
  -7  -2 -13 6112.33 700.806   4
   7   2  13 5361.42 601.747   6
  -7  -2 -13 5814.84 607.367   3
  -7  -2 -13 6083.13 627.154   2
  -7  -2 -14 1372.12 358.216   4
   7   2  14 2236.16 464.844   6
  -7  -2 -14 1853.71 403.806   3
   7   3  -9 552.951 290.374   5
  -7  -3   8 6208.62 823.101   8
   7   3  -8 4606.29 571.824   5
   7   3  -8 4035.98 677.728   1
  -7  -3   7 15167.6 1247.15   8
   7   3  -7 13268.5 934.343   5
   7   3  -7 14210.1 1183.29   1
  -7  -3   6 14352.7 1192.33   8
   7   3  -6 14082.5 939.810   5
   7   3  -6 17745.5 1077.81   9
   7   3  -6 13924.8 1114.24   1
   7   3  -5 5028.49 642.445   1
  -7  -3   5 6057.88 772.071   8
   7   3  -5 5615.99 572.481   5
   7   3  -5 6698.38 669.219   9
   7   3  -4 3316.77 494.213   1
  -7  -3   4 3133.65 329.662   4
  -7  -3   4 3197.45 575.133   8
   7   3  -4 3232.56 434.782   5
   7   3  -4 3465.03 491.560   9
  -7  -3   3 282.158 164.542   4
   7   3  -3 48.7149 216.037   1
  -7  -3   3 176.199 275.031   8
   7   3  -3 158.448 171.437   5
   7   3  -3 200.786 196.834   9
   7   3  -2 5232.88 560.229   1
  -7  -3   2 5118.73 357.093   2
   7   3  -2 4817.48 469.083   5
   7   3  -2 4783.88 526.982   9
  -7  -3   2 5279.56 462.572   4
   7   3  -1 30792.1 1312.83   1
  -7  -3   1 31064.6 941.773   2
   7   3  -1 32868.7 1236.99   5
   7   3  -1 31289.4 1342.88   9
  -7  -3   1 30918.1 1184.26   4
   7   3   0 34184.7 1327.35   1
  -7  -3   0 31692.0 961.933   2
   7   3   0 34949.1 1399.59   9
  -7  -3   0 33304.9 1256.46   4
   7   3   1 33207.2 1347.86   9
  -7  -3  -1 30270.7 1033.26   2
   7   3   1 30951.9 1213.78   1
  -7  -3  -1 32572.4 1258.14   4
   7   3   2 10097.6 627.904   1
   7   3   2 10628.4 741.292   9
  -7  -3  -2 10362.8 699.864   4
  -7  -3  -2 10395.1 487.859   2
  -7  -3  -3 191.253 170.077   4
   7   3   3 535.264 190.990   1
  -7  -3  -3 527.135 113.223   2
   7   3   3 636.025 231.288   9
   7   3   4 14259.7 685.636   1
   7   3   4 16421.5 894.397   9
  -7  -3  -4 15697.6 602.399   2
  -7  -3  -4 14417.8 867.075   4
  -7  -3  -5 23361.7 818.256   2
   7   3   5 23509.5 869.458   1
   7   3   5 24418.1 1070.86   6
   7   3   5 23748.1 1096.72   9
  -7  -3  -5 25795.7 1188.26   4
   7   3   6 49333.2 1300.96   1
  -7  -3  -6 48637.3 1088.11   3
   7   3   6 47314.6 1598.79   6
  -7  -3  -6 47204.2 1368.16   2
   7   3   6 47842.9 1631.30   9
  -7  -3  -6 48197.8 1761.28   4
   7   3   7 18109.8 639.274   1
   7   3   7 17954.3 940.123   6
  -7  -3  -7 17469.7 648.871   3
  -7  -3  -7 17368.7 803.184   2
   7   3   7 16675.8 909.091   9
  -7  -3  -7 18618.0 1056.46   4
   7   3   8 8703.66 684.521   6
  -7  -3  -8 9843.20 528.808   3
  -7  -3  -8 9140.58 609.423   2
   7   3   8 10748.7 716.500   9
  -7  -3  -8 9260.41 761.953   4
  -7  -3  -9 186.073 233.841   4
  -7  -3  -9 442.171 207.880   2
   7   3   9 174.983 193.877   6
  -7  -3  -9 49.2546 145.226   3
   7   3   9 194.867 184.021   9
  -7  -3 -10 4471.07 568.881   4
  -7  -3 -10 4740.98 448.969   3
  -7  -3 -10 4045.87 480.585   2
   7   3  10 3720.96 486.920   6
   7   3  10 4519.24 477.063   9
   7   3  11 11976.2 868.123   6
  -7  -3 -11 11968.8 758.608   3
  -7  -3 -11 11893.4 855.575   2
   7   3  11 12097.3 752.133   9
  -7  -3 -11 11158.7 928.624   4
   7   3  12 16958.5 1071.44   6
  -7  -3 -12 15399.0 930.427   3
  -7  -3 -12 15592.2 1033.39   2
   7   3  12 15490.7 828.910   9
  -7  -3 -12 14793.8 1096.82   4
  -7  -3 -13 6405.34 742.113   4
   7   3  13 8018.97 753.446   6
  -7  -3 -13 7563.61 679.371   3
  -7  -3 -13 7654.53 761.561   2
  -7  -3 -14 3016.74 552.314   4
  -7  -3 -14 1953.86 427.975   2
   7   3  14 2536.35 496.802   6
  -7  -3 -14 2275.09 386.935   3
  -7  -3 -15 101.959 309.819   4
  -7  -3 -15 655.566 384.471   2
  -7  -3 -15 144.135 244.519   3
   7   4  -9 200.860 310.003   5
  -7  -4   8 4732.55 753.868   8
   7   4  -8 4681.11 611.751   5
   7   4  -8 3498.96 684.911   1
  -7  -4   7 11377.6 1098.32   8
   7   4  -7 10378.6 856.241   5
   7   4  -7 12810.2 1106.48   1
  -7  -4   6 31426.3 1834.09   8
   7   4  -6 33756.0 1556.48   5
   7   4  -6 35574.4 1810.94   1
  -7  -4   5 21746.3 1480.89   8
   7   4  -5 23621.4 1232.11   5
   7   4  -5 23801.8 1381.42   1
  -7  -4   4 5641.75 749.623   8
   7   4  -4 7040.61 639.347   5
   7   4  -4 8473.19 746.359   9
   7   4  -4 7599.25 743.095   1
  -7  -4   3 216.476 147.772   4
  -7  -4   3 593.793 318.209   8
   7   4  -3-35.2213 179.373   5
   7   4  -3 42.7349 209.480   9
   7   4  -3 383.776 249.210   1
   7   4  -2 7633.51 665.326   1
  -7  -4   2 8357.56 885.693   8
   7   4  -2 9562.92 689.834   5
   7   4  -2 9842.62 762.830   9
  -7  -4   2 10019.5 624.141   4
   7   4  -1 38664.2 1490.27   1
  -7  -4   1 39004.9 1978.88   8
  -7  -4   1 39487.2 1205.27   2
   7   4  -1 41715.5 1466.39   5
   7   4  -1 40743.1 1580.83   9
  -7  -4   1 39119.5 1350.70   4
   7   4   0 48370.3 1633.44   1
  -7  -4   0 47539.0 1371.05   2
   7   4   0 53397.5 1811.94   9
  -7  -4   0 49678.3 1588.85   4
   7   4   1 46120.8 1502.50   1
  -7  -4  -1 43242.6 1319.94   2
   7   4   1 45518.5 1644.37   9
  -7  -4  -1 45034.4 1525.57   4
   7   4   2 8432.34 562.897   1
  -7  -4  -2 7958.09 557.902   2
   7   4   2 9707.66 708.912   9
  -7  -4  -2 9205.47 648.088   4
   7   4   3 6.12140 130.983   1
  -7  -4  -3 239.540 195.191   4
   7   4   3-7.33886 174.793   9
   7   4   4 14601.6 675.640   1
   7   4   4 14524.0 785.437   6
   7   4   4 14487.3 853.553   9
  -7  -4  -4 13733.9 840.421   4
  -7  -4  -4 13561.2 822.710   2
   7   4   5 42085.7 1223.16   1
   7   4   5 45319.4 1519.31   6
   7   4   5 46001.0 1603.06   9
  -7  -4  -5 42083.3 1507.08   2
   7   4   6 42316.5 1126.90   1
   7   4   6 43669.4 1517.59   6
  -7  -4  -6 41042.1 908.703   3
   7   4   6 42242.7 1538.04   9
  -7  -4  -6 42396.8 1500.34   2
  -7  -4  -6 45074.1 1668.06   4
   7   4   7 33485.8 882.470   1
   7   4   7 36015.3 1377.67   6
  -7  -4  -7 34496.8 946.600   3
   7   4   7 32335.8 1313.12   9
  -7  -4  -7 32692.3 1338.70   2
  -7  -4  -7 35888.3 1510.99   4
   7   4   8 10988.5 753.125   6
  -7  -4  -8 10552.0 533.142   3
   7   4   8 9715.70 686.492   9
  -7  -4  -8 9403.35 715.931   2
  -7  -4  -8 11143.1 836.968   4
  -7  -4  -9-249.899 258.563   4
  -7  -4  -9 62.2485 194.735   2
   7   4   9-25.5851 186.660   6
  -7  -4  -9 227.151 153.926   3
   7   4   9 188.761 208.724   9
  -7  -4 -10 3093.94 521.772   4
  -7  -4 -10 2182.13 408.925   2
   7   4  10 2591.66 427.988   6
  -7  -4 -10 2012.65 302.344   3
   7   4  10 2421.12 375.085   9
   7   4  11 25599.6 1302.25   6
  -7  -4 -11 24356.9 1099.30   3
  -7  -4 -11 23360.3 1327.35   2
   7   4  11 24365.4 1121.50   9
  -7  -4 -11 23250.5 1361.27   4
   7   4  12 24025.1 1298.22   6
  -7  -4 -12 25144.8 1179.71   3
  -7  -4 -12 21204.3 1322.29   2
   7   4  12 23801.5 1069.77   9
  -7  -4 -12 22163.8 1359.96   4
   7   4  13 19822.4 1226.43   6
  -7  -4 -13 18459.0 1066.65   3
  -7  -4 -13 19178.7 1300.62   2
  -7  -4 -13 19555.8 1301.33   4
  -7  -4 -14 3779.35 615.697   4
  -7  -4 -14 4042.95 657.125   2
   7   4  14 5212.70 662.373   6
  -7  -4 -14 4039.98 535.724   3
  -7  -4 -15 142.507 319.469   4
  -7  -4 -15-510.810 321.960   2
   7   5  -8 6345.31 716.630   5
  -7  -5   7 14712.5 1289.97   8
   7   5  -7 16938.1 1138.57   5
   7   5  -7 16573.9 1249.53   1
  -7  -5   6 18575.8 1427.88   8
   7   5  -6 15760.2 1073.92   5
   7   5  -6 18051.9 1255.02   1
  -7  -5   5 23211.8 1587.35   8
   7   5  -5 24361.1 1298.55   5
   7   5  -5 26793.4 1425.53   9
   7   5  -5 23119.4 1367.94   1
  -7  -5   4 6958.51 867.195   8
   7   5  -4 7997.81 702.559   5
   7   5  -4 8061.46 775.702   9
   7   5  -4 8526.54 771.935   1
  -7  -5   3 2464.15 296.884   4
  -7  -5   3 1661.84 491.201   8
   7   5  -3 2448.77 395.778   5
   7   5  -3 2131.55 412.057   1
   7   5  -3 1804.46 405.765   9
  -7  -5   2 18713.0 1339.25   8
   7   5  -2 22414.0 1105.76   5
   7   5  -2 23133.1 1215.56   9
  -7  -5   2 22053.6 932.220   4
   7   5  -2 21642.8 1128.52   1
  -7  -5   1 48466.2 1467.37   2
   7   5  -1 48158.1 1660.47   5
   7   5  -1 50390.9 1818.55   9
  -7  -5   1 47835.4 1519.57   4
   7   5  -1 45864.0 1654.06   1
  -7  -5   0 60814.2 2530.38   8
  -7  -5   0 64001.6 1758.40   2
   7   5   0 67551.1 2124.11   9
  -7  -5   0 63870.5 1876.48   4
   7   5   0 63562.6 1923.02   1
  -7  -5  -1 46138.5 1443.18   2
   7   5   1 50241.9 1758.33   9
  -7  -5  -1 46739.5 1561.08   4
   7   5   1 45413.9 1514.43   1
  -7  -5  -2 16471.2 815.385   2
   7   5   2 15866.8 930.969   9
  -7  -5  -2 17184.1 907.733   4
   7   5   2 16008.9 791.025   1
  -7  -5  -3-2.76737 177.106   4
  -7  -5  -3 344.068 164.732   2
   7   5   3 423.919 238.811   9
   7   5   3 302.316 152.873   1
  -7  -5  -4 14088.0 870.110   2
   7   5   4 14593.1 779.593   6
   7   5   4 14582.8 877.835   9
   7   5   4 14696.9 671.529   1
  -7  -5  -4 14247.4 858.319   4
   7   5   5 45261.4 1500.28   6
   7   5   5 43068.5 1565.50   9
   7   5   5 43429.1 1194.73   1
  -7  -5  -5 42905.3 1620.10   4
   7   5   6 56431.0 1788.95   6
   7   5   6 55507.7 1821.79   9
   7   5   6 55425.7 1336.00   1
  -7  -5  -6 57307.2 1960.65   4
  -7  -5  -6 50197.0 1978.78   2
   7   5   7 52323.1 1728.99   6
  -7  -5  -7 49634.0 1201.20   3
   7   5   7 48599.1 1100.57   1
   7   5   7 49922.9 1702.97   9
  -7  -5  -7 46792.7 1981.76   2
  -7  -5  -7 53041.2 1896.64   4
   7   5   8 7716.27 640.471   6
  -7  -5  -8 7754.41 454.288   3
   7   5   8 8384.46 646.498   9
  -7  -5  -8 6756.74 716.595   2
  -7  -5  -8 7398.91 713.958   4
  -7  -5  -9 66.9533 285.261   4
  -7  -5  -9-147.990 302.607   2
   7   5   9 305.882 237.621   6
  -7  -5  -9 200.847 144.805   3
   7   5   9 28.1179 189.309   9
   7   5  10 16291.2 990.789   6
  -7  -5 -10 16230.2 823.540   3
  -7  -5 -10 15426.2 1158.03   2
   7   5  10 16212.3 920.552   9
  -7  -5 -10 14677.7 1056.25   4
   7   5  11 11431.8 874.711   6
  -7  -5 -11 11940.7 760.484   3
   7   5  11 12604.4 795.442   9
  -7  -5 -11 12063.2 1049.41   2
  -7  -5 -11 12445.5 1016.89   4
   7   5  12 22850.2 1299.49   6
  -7  -5 -12 22335.7 1122.26   3
  -7  -5 -12 18418.3 1375.07   2
   7   5  12 21759.9 1033.70   9
  -7  -5 -12 22687.4 1417.87   4
   7   5  13 10805.7 914.444   6
  -7  -5 -13 10649.3 810.904   3
  -7  -5 -13 10433.8 1067.98   2
  -7  -5 -13 12475.4 1072.08   4
  -7  -5 -14 1916.90 477.403   4
  -7  -5 -14 2419.07 535.124   2
   7   5  14 2457.84 501.453   6
  -7  -5 -14 2839.27 479.017   3
  -7  -5 -15 336.208 322.377   4
  -7  -5 -15-661.530 373.593   2
  -7  -6   7 14007.4 1317.33   8
   7   6  -7 15047.5 1078.46   5
   7   6  -7 14272.9 1163.51   1
  -7  -6   6 19720.7 1542.95   8
   7   6  -6 18578.1 1187.29   5
   7   6  -6 18972.5 1287.68   1
  -7  -6   5 12158.4 1177.30   8
   7   6  -5 14141.4 999.180   5
   7   6  -5 13230.8 1030.76   1
   7   6  -5 15016.4 1097.23   9
  -7  -6   4 2168.16 527.359   8
   7   6  -4 2568.34 442.793   5
   7   6  -4 2429.15 459.923   1
   7   6  -4 3073.89 509.439   9
  -7  -6   3 349.909 161.740   4
  -7  -6   3 332.555 329.194   8
   7   6  -3 203.518 207.336   5
   7   6  -3-24.2187 239.806   1
   7   6  -3-194.644 251.413   9
  -7  -6   2 15793.8 1212.13   8
   7   6  -2 17631.4 1013.69   5
   7   6  -2 17207.5 1014.46   1
   7   6  -2 19784.7 1153.78   9
  -7  -6   2 17933.1 832.910   4
  -7  -6   1 28665.5 1593.23   8
  -7  -6   1 30159.2 1191.95   2
   7   6  -1 33270.6 1380.14   5
   7   6  -1 32512.6 1350.39   1
   7   6  -1 34256.8 1502.42   9
  -7  -6   1 29940.1 1167.75   4
  -7  -6   0 32218.7 1671.34   8
  -7  -6   0 34957.1 1281.15   2
   7   6   0 37511.1 1566.13   9
   7   6   0 36671.5 1382.77   1
  -7  -6   0 36349.7 1340.44   4
  -7  -6  -1 27519.0 1493.86   8
  -7  -6  -1 28620.9 1146.05   2
   7   6   1 31842.5 1395.83   9
   7   6   1 29485.8 1180.56   1
  -7  -6  -1 31164.3 1248.44   4
  -7  -6  -2 10113.4 658.553   2
   7   6   2 9947.51 762.434   9
   7   6   2 9898.89 624.853   1
  -7  -6  -2 10489.2 705.853   4
  -7  -6  -3 63.0753 173.793   4
   7   6   3 228.370 191.369   6
  -7  -6  -3 56.8815 144.993   2
   7   6   3 202.634 159.191   1
   7   6   3-72.4440 198.842   9
  -7  -6  -4 12002.6 800.601   2
   7   6   4 11200.8 686.763   6
   7   6   4 11023.3 588.631   1
   7   6   4 13151.2 854.991   9
  -7  -6  -4 11344.9 786.801   4
  -7  -6  -5 27078.2 1310.92   2
   7   6   5 27546.4 1138.76   6
   7   6   5 26744.4 896.775   1
   7   6   5 25994.6 1220.93   9
  -7  -6  -5 25921.6 1253.23   4
  -7  -6  -6 36376.2 1598.88   2
   7   6   6 38519.7 1412.43   6
   7   6   6 35689.4 995.680   1
   7   6   6 38668.1 1499.42   9
  -7  -6  -6 36923.6 1540.27   4
   7   6   7 22255.1 1074.65   6
  -7  -6  -7 22720.3 739.104   3
   7   6   7 24123.4 1153.03   9
  -7  -6  -7 21197.0 1178.18   4
  -7  -6  -7 20650.8 1219.43   2
   7   6   8 18740.2 1006.44   6
  -7  -6  -8 18551.5 741.987   3
   7   6   8 17791.8 980.186   9
  -7  -6  -8 15979.2 1115.87   2
  -7  -6  -8 19630.7 1163.15   4
  -7  -6  -9 313.398 269.307   4
  -7  -6  -9 37.7170 233.874   2
   7   6   9 218.537 195.550   6
  -7  -6  -9 414.587 183.085   3
   7   6   9 236.773 235.145   9
  -7  -6 -10 4611.95 638.510   4
  -7  -6 -10 4739.78 450.386   3
   7   6  10 3608.05 509.693   6
   7   6  10 3639.09 457.029   9
   7   6  11 16385.6 1059.37   6
  -7  -6 -11 14006.7 840.872   3
  -7  -6 -11 13590.9 1165.53   2
   7   6  11 15463.7 900.441   9
  -7  -6 -11 13424.4 1100.39   4
   7   6  12 14485.6 1049.48   6
  -7  -6 -12 13142.1 866.802   3
  -7  -6 -12 10904.6 1079.16   2
   7   6  12 13031.5 810.787   9
  -7  -6 -12 14664.9 1181.36   4
   7   6  13 11025.7 955.229   6
  -7  -6 -13 8550.57 978.262   2
  -7  -6 -13 9739.78 791.593   3
  -7  -6 -13 10050.6 1002.35   4
  -7  -6 -14 4362.64 700.598   4
  -7  -6 -14 4215.07 744.654   2
   7   6  14 3251.51 586.223   6
  -7  -6 -14 3578.28 532.630   3
  -7  -6 -15 254.471 401.927   4
  -7  -6 -15-471.644 406.703   2
  -7  -7   7 7445.37 958.862   8
   7   7  -7 7331.93 782.517   5
  -7  -7   6 17205.5 1386.05   8
   7   7  -6 16881.4 1158.54   5
   7   7  -6 17006.6 1237.94   1
  -7  -7   5 8546.56 935.358   8
   7   7  -5 9286.06 844.634   5
   7   7  -5 9261.08 889.614   1
  -7  -7   4 8522.34 894.129   8
   7   7  -4 8310.66 777.088   5
   7   7  -4 7018.16 733.467   1
  -7  -7   3 46.3010 322.499   8
   7   7  -3-51.1076 248.468   1
   7   7  -3-268.611 271.793   5
   7   7  -3-41.5755 270.651   9
  -7  -7   2 355.637 315.218   8
  -7  -7   2 157.504 124.433   4
   7   7  -2 252.336 214.032   1
   7   7  -2 155.629 217.249   5
   7   7  -2 470.218 274.811   9
  -7  -7   1 13265.2 988.656   8
  -7  -7   1 13786.0 822.591   2
   7   7  -1 15004.7 943.385   5
   7   7  -1 14369.1 903.782   1
   7   7  -1 13644.8 962.082   9
  -7  -7   1 14434.3 789.968   4
  -7  -7   0 26127.1 1348.75   8
  -7  -7   0 26955.1 1171.28   2
   7   7   0 25328.7 1185.01   1
   7   7   0 28845.2 1382.93   9
  -7  -7   0 27501.6 1167.18   4
  -7  -7  -1 19350.1 1109.26   8
  -7  -7  -1 19694.3 989.241   2
   7   7   1 21036.3 998.984   1
   7   7   1 20767.5 1132.87   9
  -7  -7  -1 20575.1 1013.45   4
  -7  -7  -2 16544.5 1002.23   8
  -7  -7  -2 19433.7 973.163   2
   7   7   2 19229.0 911.796   1
   7   7   2 20461.6 1116.16   9
  -7  -7  -2 19511.7 1007.25   4
  -7  -7  -3 969.127 260.326   8
  -7  -7  -3 838.144 272.180   4
   7   7   3 1079.68 241.375   6
  -7  -7  -3 1445.08 305.216   2
   7   7   3 1358.67 255.239   1
   7   7   3 2033.34 377.048   9
  -7  -7  -4 5918.76 575.619   2
   7   7   4 5970.96 508.374   6
   7   7   4 5200.30 413.851   1
   7   7   4 6236.57 616.753   9
  -7  -7  -4 5453.55 568.810   4
  -7  -7  -5 24057.5 1229.71   2
   7   7   5 23625.5 1055.72   6
   7   7   5 22857.3 1167.73   9
  -7  -7  -5 22439.0 1181.50   4
  -7  -7  -6 35530.9 1631.82   2
   7   7   6 37415.8 1405.07   6
   7   7   6 38624.3 1544.44   9
  -7  -7  -6 36584.2 1563.27   4
  -7  -7  -7 27071.3 1425.31   2
   7   7   7 24300.6 1146.74   6
   7   7   7 27963.9 1272.20   9
  -7  -7  -7 25513.4 1337.53   4
   7   7   8 6665.32 610.332   6
  -7  -7  -8 6406.45 452.393   3
   7   7   8 6562.41 621.781   9
  -7  -7  -8 6976.35 717.147   2
  -7  -7  -8 6907.15 705.574   4
  -7  -7  -9 3050.51 505.135   4
  -7  -7  -9 2306.14 453.099   2
   7   7   9 2906.82 444.952   6
  -7  -7  -9 2640.89 324.697   3
   7   7   9 3266.98 460.905   9
  -7  -7 -10 566.090 349.788   4
  -7  -7 -10 28.6816 225.880   2
   7   7  10 274.255 252.802   6
  -7  -7 -10 142.365 189.645   3
   7   7  10 282.079 192.389   9
   7   7  11 7514.32 741.975   6
  -7  -7 -11 6209.30 772.224   2
  -7  -7 -11 6823.57 618.214   3
   7   7  11 7286.11 647.709   9
  -7  -7 -11 7392.10 832.250   4
   7   7  12 7519.83 776.050   6
  -7  -7 -12 7878.53 869.102   2
  -7  -7 -12 7155.42 662.605   3
  -7  -7 -12 8143.88 918.465   4
   7   7  13 9597.57 902.397   6
  -7  -7 -13 8758.02 948.079   2
  -7  -7 -13 9244.62 802.696   3
  -7  -7 -13 9992.41 1052.89   4
  -7  -7 -14 6357.52 892.919   4
  -7  -7 -14 5494.71 768.006   2
   7   7  14 7028.44 787.981   6
  -7  -7 -15 1197.68 524.571   4
  -7  -7 -15 1351.59 444.655   2
  -7  -8   6 8559.78 903.073   8
   7   8  -6 11226.5 951.667   5
  -7  -8   5 21367.4 1374.90   8
   7   8  -5 21623.5 1313.48   5
  -7  -8   4 6141.90 720.062   8
   7   8  -4 7295.43 754.796   5
   7   8  -4 6856.52 737.912   1
  -7  -8   3 184.295 239.894   8
   7   8  -3 397.251 279.138   1
  -7  -8   2 2782.55 444.881   8
  -7  -8   2 2988.15 351.791   4
   7   8  -2 3534.55 517.173   1
  -7  -8   2 2845.40 419.197   2
   7   8  -2 3389.36 504.665   5
  -7  -8   1 18581.3 1057.07   8
  -7  -8   1 17669.8 1001.63   2
   7   8  -1 20756.1 1163.15   5
   7   8  -1 19042.7 1085.48   1
   7   8  -1 19014.2 1195.31   9
  -7  -8   1 17401.9 893.537   4
  -7  -8   0 35616.8 1455.78   8
  -7  -8   0 36238.9 1452.41   2
   7   8   0 35026.2 1452.46   1
   7   8   0 37488.1 1661.26   9
  -7  -8   0 35368.6 1377.89   4
  -7  -8  -1 34707.4 1374.50   8
  -7  -8  -1 36676.2 1454.90   2
   7   8   1 34758.3 1379.34   1
   7   8   1 37246.1 1633.38   9
  -7  -8  -1 34420.4 1399.21   4
  -7  -8  -2 19388.5 941.275   8
  -7  -8  -2 19703.3 1040.57   2
   7   8   2 21230.3 1183.25   9
  -7  -8  -2 19843.6 1056.99   4
  -7  -8  -3 5579.81 476.404   8
  -7  -8  -3 6536.36 603.310   2
   7   8   3 5997.01 493.772   6
   7   8   3 5927.71 626.629   9
  -7  -8  -3 5829.20 585.953   4
  -7  -8  -4 349.945 159.308   8
  -7  -8  -4 220.803 197.707   4
   7   8   4 274.798 177.638   6
  -7  -8  -4 669.095 284.817   2
   7   8   4 563.390 276.931   9
  -7  -8  -5 13517.1 671.315   8
  -7  -8  -5 13484.8 942.914   2
   7   8   5 14254.4 815.408   6
   7   8   5 15790.8 988.628   9
  -7  -8  -5 15897.7 1004.14   4
  -7  -8  -6 26387.4 1397.16   2
   7   8   6 26174.9 1168.76   6
   7   8   6 26914.5 1303.68   9
  -7  -8  -6 26989.2 1370.36   4
  -7  -8  -7 41516.5 1861.52   2
   7   8   7 37577.5 1491.68   6
   7   8   7 38579.0 1587.04   9
  -7  -8  -7 35536.1 1664.03   4
  -7  -8  -8 15049.1 1093.00   2
   7   8   8 14088.9 918.390   6
   7   8   8 14974.3 958.609   9
  -7  -8  -8 13941.9 1047.83   4
  -7  -8  -9 1464.70 401.951   4
   7   8   9 1455.51 360.805   6
  -7  -8  -9 938.504 324.417   2
   7   8   9 1269.18 314.223   9
  -7  -8 -10 1979.45 453.065   4
  -7  -8 -10 1439.07 388.838   2
   7   8  10 1085.71 333.239   6
   7   8  11 7743.00 770.559   6
  -7  -8 -11 6610.05 770.660   2
  -7  -8 -11 7495.75 880.408   4
   7   8  12 22737.6 1363.28   6
  -7  -8 -12 21766.6 1427.47   2
  -7  -8 -12 18308.2 1410.58   4
   7   8  13 16345.5 1186.78   6
  -7  -8 -13 15425.9 1224.57   2
  -7  -8 -13 12787.8 1217.79   4
  -7  -8 -14 4967.74 818.660   4
  -7  -8 -14 6725.49 823.737   2
  -7  -9   6 13117.1 1050.37   8
  -7  -9   5 14901.9 1058.14   8
   7   9  -5 13574.8 1059.75   5
  -7  -9   4 11308.6 890.829   8
   7   9  -4 12959.6 1018.61   5
  -7  -9   3 1399.66 370.586   8
   7   9  -3 992.531 379.642   5
  -7  -9   2 5722.46 584.006   8
  -7  -9   2 5675.86 607.971   2
   7   9  -2 6301.55 713.167   5
  -7  -9   1 17934.2 969.933   8
  -7  -9   1 16791.0 1019.48   2
  -7  -9   1 17293.4 893.850   4
  -7  -9   0 52148.0 1684.02   8
  -7  -9   0 50753.4 1851.06   2
  -7  -9   0 50404.8 1733.43   4
  -7  -9  -1 42931.4 1416.05   8
   7   9   1 40909.4 1596.41   7
  -7  -9  -1 41361.4 1644.04   2
  -7  -9  -1 41048.8 1589.06   4
  -7  -9  -2 13592.0 690.189   8
   7   9   2 13020.0 865.878   7
  -7  -9  -2 13020.7 880.253   2
  -7  -9  -2 13204.6 889.746   4
  -7  -9  -3 1078.80 318.111   4
   7   9   3 1221.73 317.411   7
   7   9   3 957.246 233.798   6
  -7  -9  -3 454.691 224.462   2
  -7  -9  -4 6630.55 674.364   4
   7   9   4 6569.53 654.243   7
  -7  -9  -4 7526.64 705.611   2
   7   9   4 7254.86 562.290   6
  -7  -9  -5 24573.2 1346.50   4
  -7  -9  -5 25506.4 1341.64   2
   7   9   5 24649.8 1285.41   7
   7   9   5 24838.9 1116.93   6
  -7  -9  -6 32272.8 1594.07   4
  -7  -9  -6 33880.5 1642.45   2
   7   9   6 33359.8 1358.65   6
  -7  -9  -7 35899.3 1726.49   4
  -7  -9  -7 35266.1 1728.54   2
   7   9   7 33770.1 1432.23   6
  -7  -9  -8 17553.2 1236.51   4
  -7  -9  -8 18246.8 1272.38   2
   7   9   8 17166.6 1031.64   6
  -7  -9  -9 2764.24 548.653   4
   7   9   9 2363.07 421.786   6
  -7  -9  -9 2802.84 542.898   2
  -7  -9 -10 1662.22 471.610   4
   7   9  10 915.360 338.831   6
  -7  -9 -10 1697.85 485.613   2
   7   9  11 11281.1 935.432   6
  -7  -9 -11 9999.14 963.979   2
  -7  -9 -11 9622.70 1028.03   4
   7   9  12 13492.7 1061.98   6
  -7  -9 -12 11592.9 1040.48   2
  -7  -9 -12 13689.8 1237.25   4
   7   9  13 11977.2 1038.50   6
  -7  -9 -13 13810.9 1140.78   2
  -7  -9 -13 12272.6 1228.45   4
  -7  -9 -14 5039.21 797.489   4
  -7  -9 -14 5864.60 779.239   2
  -7 -10   5 10310.0 861.889   8
  -7 -10   4 6203.79 634.634   8
  -7 -10   3 121.397 247.631   8
  -7 -10   3-114.383 270.742   2
   7  10  -3-116.841 277.709   5
  -7 -10   2 4962.03 509.576   8
  -7 -10   2 3782.42 526.454   2
   7  10  -2 4455.04 600.705   5
   7  10  -1 14229.3 898.054   7
  -7 -10   1 14140.7 985.506   2
  -7 -10   1 15821.9 857.693   4
   7  10   0 20166.3 1102.18   7
  -7 -10   0 21962.8 1210.72   2
  -7 -10   0 18453.6 1011.34   4
   7  10   1 25296.2 1275.63   7
  -7 -10  -1 27093.0 1355.65   2
  -7 -10  -1 26288.6 1264.95   4
  -7 -10  -2 13344.7 924.919   4
   7  10   2 13339.1 926.075   7
  -7 -10  -2 13172.1 932.216   2
  -7 -10  -3 968.340 331.245   4
   7  10   3 734.449 294.722   7
   7  10   3 730.552 188.853   6
  -7 -10  -3 739.952 301.132   2
  -7 -10  -4 3129.19 496.997   4
   7  10   4 4823.35 584.284   7
   7  10   4 3318.50 384.923   6
  -7 -10  -4 3549.75 531.341   2
  -7 -10  -5 14329.8 1063.47   4
   7  10   5 15138.4 1047.54   7
  -7 -10  -5 14327.3 1032.09   2
   7  10   5 13424.4 796.613   6
  -7 -10  -6 34545.7 1730.49   4
  -7 -10  -6 35015.7 1696.31   2
   7  10   6 34703.9 1660.74   7
   7  10   6 35517.7 1415.05   6
  -7 -10  -7 17793.2 1268.32   4
  -7 -10  -7 19701.8 1303.48   2
   7  10   7 19756.3 1266.41   7
   7  10   7 21060.8 1099.51   6
  -7 -10  -8 13340.3 1135.46   4
  -7 -10  -8 15036.6 1166.12   2
   7  10   8 13944.0 1095.22   7
   7  10   8 12493.3 897.953   6
  -7 -10  -9 291.171 319.006   4
   7  10   9 907.379 313.402   6
  -7 -10 -10 902.227 409.721   4
   7  10  10 109.828 265.376   6
  -7 -10 -10 933.498 385.161   2
  -7 -10 -11 5227.84 801.979   4
   7  10  11 7355.53 777.595   6
  -7 -10 -11 6665.98 806.634   2
   7  10  12 14892.8 1125.52   6
  -7 -10 -12 13961.0 1135.20   2
  -7 -10 -13 7362.55 859.124   2
  -7 -11   3 3226.53 515.318   2
   7  11  -2 1034.31 301.733   7
  -7 -11   2 1252.62 371.561   2
   7  11  -2 1057.92 403.827   5
   7  11  -1 6907.88 651.477   7
  -7 -11   1 6789.39 697.175   2
  -7 -11   0 10633.5 765.801   4
   7  11   0 10676.4 831.178   7
  -7 -11   0 11880.7 920.777   2
  -7 -11  -1 14049.7 936.529   4
   7  11   1 14057.8 978.101   7
  -7 -11  -1 15005.8 1032.33   2
  -7 -11  -2 9883.65 811.718   4
   7  11   2 9401.28 824.245   7
  -7 -11  -2 9910.13 842.807   2
  -7 -11  -3 2293.41 443.227   4
   7  11   3 2804.71 505.895   7
  -7 -11  -3 3207.46 512.859   2
  -7 -11  -4 12.1766 305.190   4
   7  11   4-8.55107 236.943   7
   7  11   4 146.563 160.021   6
  -7 -11  -4 292.772 271.010   2
  -7 -11  -5 7543.12 825.601   4
   7  11   5 8795.53 848.187   7
  -7 -11  -5 9415.24 870.711   2
   7  11   5 7803.68 606.593   6
  -7 -11  -6 9278.07 929.851   4
  -7 -11  -6 8323.51 857.145   2
   7  11   6 9113.01 869.733   7
   7  11   6 9899.57 712.387   6
  -7 -11  -7 16592.9 1275.43   4
  -7 -11  -7 17588.9 1265.08   2
   7  11   7 16470.1 1220.75   7
   7  11   7 17118.0 996.155   6
  -7 -11  -8 9930.48 1032.64   4
  -7 -11  -8 12127.1 1082.05   2
   7  11   8 10931.7 998.915   7
   7  11   8 11340.9 837.141   6
  -7 -11  -9 487.384 418.111   4
   7  11   9 1099.12 423.995   7
   7  11   9 1627.09 395.192   6
  -7 -11  -9 1080.87 413.104   2
  -7 -11 -10-278.519 318.810   4
   7  11  10-29.5654 230.622   6
  -7 -11 -10-218.214 283.213   2
  -7 -11 -11 1647.90 505.863   4
   7  11  11 2536.84 499.675   6
  -7 -11 -11 2823.03 580.572   2
  -7 -11 -12 4772.83 700.143   2
   7  12  -2 769.338 283.531   7
   7  12  -1 4443.58 554.991   7
  -7 -12   1 5487.14 669.625   2
   7  12   0 11917.5 895.809   7
  -7 -12   0 11510.8 930.767   2
  -7 -12  -1 19037.1 1119.53   4
   7  12   1 22438.7 1262.00   7
  -7 -12  -1 21742.5 1314.33   2
  -7 -12  -2 13430.0 976.587   4
   7  12   2 15883.4 1080.12   7
  -7 -12  -2 13363.6 1021.10   2
  -7 -12  -3 7002.02 740.207   4
   7  12   3 6028.22 714.443   7
  -7 -12  -3 5226.39 652.745   2
  -7 -12  -4 242.550 283.336   4
   7  12   4 192.413 307.422   7
  -7 -12  -4 446.407 248.735   2
  -7 -12  -5 2303.48 507.428   4
   7  12   5 3016.06 559.188   7
  -7 -12  -5 2557.41 509.591   2
  -7 -12  -6 15833.9 1235.29   4
  -7 -12  -6 14900.8 1139.74   2
   7  12   6 15088.3 1162.31   7
   7  12   6 14728.3 856.681   6
  -7 -12  -7 14546.7 1231.34   4
  -7 -12  -7 14808.5 1189.73   2
   7  12   7 14446.9 1163.01   7
   7  12   7 13737.1 883.012   6
  -7 -12  -8 12707.6 1183.46   4
  -7 -12  -8 12301.9 1102.62   2
   7  12   8 13488.1 1153.41   7
   7  12   8 12783.6 886.851   6
   7  12   9 8466.74 890.435   7
  -7 -12  -9 9596.96 1057.45   4
   7  12   9 8526.36 757.097   6
  -7 -12  -9 9443.60 994.534   2
   7  12  10 506.119 360.131   7
   7  12  10 385.281 298.379   6
  -7 -12 -10-74.9699 289.142   2
   7  12  11 1046.84 364.098   7
   7  12  11 1353.08 427.222   6
  -7 -13  -2 15231.6 1064.76   4
  -7 -13  -2 14512.0 1086.63   2
  -7 -13  -3 1911.22 438.178   4
  -7 -13  -3 2973.83 552.309   2
  -7 -13  -4 651.609 373.223   4
  -7 -13  -4 128.481 368.444   2
  -7 -13  -5 4322.82 653.261   4
  -7 -13  -5 2859.20 543.447   2
  -7 -13  -6 13415.2 1171.37   4
  -7 -13  -6 14291.0 1147.25   2
  -7 -13  -7 17090.9 1263.75   2
   7  13   8 7560.22 681.692   6
   7  13   9 3983.11 537.658   6
   7  13  10 710.261 334.063   6
  -8   5   1-158.791 281.703   4
  -8   5   0 1231.78 396.149   4
  -8   5  -1 8409.30 858.225   4
   8  -5   1 8015.26 859.052   1
   8  -5   2 6173.73 762.699   1
   8  -5   3 8129.18 865.178   1
   8  -5   4 5612.97 728.995   1
   8  -5   5 433.151 294.966   1
   8  -5   6 1292.76 429.557   1
  -8   4   4 8525.74 801.429   4
  -8   4   3 11537.4 925.160   4
  -8   4   2 6396.81 720.154   4
   8  -4  -2 6372.68 755.323   1
  -8   4   1 291.366 290.445   4
   8  -4  -1 374.691 332.277   1
   8  -4   0 735.019 376.913   1
  -8   4   0 598.560 361.684   4
   8  -4   1 10597.1 975.520   1
  -8   4  -1 11489.5 970.159   4
   8  -4   2 14997.3 1152.28   1
  -8   4  -2 16215.5 1157.67   4
   8  -4   3 14218.7 1121.99   1
  -8   4  -3 16926.4 1195.03   4
   8  -4   4 7121.65 829.215   1
  -8   4  -4 8089.73 836.282   4
  -8   4  -5 910.151 383.587   4
   8  -4   5 351.264 269.869   1
  -8   4  -6 75.9510 300.616   4
   8  -4   6 318.988 347.150   1
   8  -4   7 4980.47 697.531   1
   8  -3  -4 11791.4 1020.61   1
  -8   3   4 10725.1 853.755   4
   8  -3  -3 9514.40 901.940   1
  -8   3   3 9863.99 830.067   4
  -8   3   2 5421.90 635.987   4
   8  -3  -2 5209.14 693.482   1
  -8   3   1 766.812 348.090   4
   8  -3  -1 604.685 349.454   1
  -8   3   0 1910.72 419.388   4
   8  -3   0 2034.55 474.986   1
   8  -3   1 9065.75 891.312   1
  -8   3  -1 10787.7 899.244   4
   8  -3   2 19227.9 1287.23   1
  -8   3  -2 19860.8 1249.59   4
   8  -3   3 12173.3 1010.98   1
  -8   3  -3 13596.4 1036.81   4
   8  -3   4 8991.32 881.310   1
  -8   3  -4 10161.3 910.933   4
  -8   3  -5-7.98606 279.383   4
   8  -3   5 225.905 338.482   1
  -8   3  -6 1536.45 449.265   4
   8  -3   6 807.673 315.130   1
  -8   3  -7 3189.11 574.591   4
   8  -3   7 3602.91 560.074   1
  -8   3  -8 10610.7 961.219   4
   8  -2  -6 1516.36 419.492   9
   8  -2  -5 3736.19 613.770   1
   8  -2  -5 4462.61 618.122   9
   8  -2  -4 8865.76 895.197   1
  -8   2   4 11340.7 832.658   4
   8  -2  -3 10568.3 946.928   1
  -8   2   3 11988.4 863.321   4
  -8   2   2 3069.76 479.441   4
   8  -2  -2 2912.39 524.123   1
  -8   2   1 25.7512 240.409   4
   8  -2  -1 265.485 330.142   1
  -8   2   0 1369.45 373.692   4
   8  -2   0 1933.54 443.879   1
   8  -2   1 7822.51 798.397   1
  -8   2  -1 9636.02 837.771   4
   8  -2   2 15465.8 1110.37   1
  -8   2  -2 13020.0 994.957   4
   8  -2   3 19220.7 1233.87   1
  -8   2  -3 17527.2 1166.44   4
   8  -2   4 6538.25 748.998   1
  -8   2  -4 6767.45 743.615   4
  -8   2  -5 1168.24 386.590   4
   8  -2   5 1384.06 386.909   1
  -8   2  -6 1277.15 368.401   4
   8  -2   6 1244.52 376.577   1
  -8   2  -7 5949.65 713.977   4
   8  -2   7 5211.97 614.415   1
   8  -2   8 7882.15 714.672   1
  -8   2  -8 9499.09 916.171   4
  -8   2  -9 10593.6 972.454   4
  -8   2 -10 4312.30 632.332   4
   8  -2  10 4877.30 568.440   9
   8  -1  -6 584.234 325.430   9
  -8   1   5 5871.06 844.285   8
   8  -1  -5 6479.63 812.211   1
   8  -1  -5 7017.11 732.335   9
   8  -1  -4 11982.1 1024.28   1
  -8   1   4 11331.2 788.549   4
   8  -1  -4 12985.1 1006.75   9
   8  -1  -3 11780.4 1000.99   1
  -8   1   3 12446.1 858.024   4
   8  -1  -3 12865.1 1004.60   9
   8  -1  -2 18391.2 1239.58   1
  -8   1   2 17326.2 1028.81   4
  -8   1   1 656.724 281.310   4
   8  -1  -1 420.714 319.876   1
  -8   1   0 382.495 253.832   4
   8  -1   0 786.736 358.945   1
  -8   1  -1 2020.83 410.878   4
   8  -1   1 3312.32 535.008   1
   8  -1   2 19767.9 1198.60   1
  -8   1  -2 20394.6 1187.40   4
   8  -1   3 9944.30 834.651   1
  -8   1  -3 9550.08 819.263   4
   8  -1   4 13206.4 945.762   1
  -8   1  -4 13466.5 988.609   4
  -8   1  -5 3403.62 542.011   4
   8  -1   5 2988.13 469.917   1
  -8   1  -6 307.455 280.295   4
   8  -1   6 509.207 233.707   1
  -8   1  -7 4859.55 643.483   4
   8  -1   7 3876.59 502.621   1
   8  -1   8 11584.8 800.748   1
  -8   1  -8 12212.6 1012.51   4
   8  -1   9 18474.8 1092.78   9
  -8   1  -9 20140.3 1313.65   4
  -8   1 -10 7605.05 820.812   4
   8  -1  10 8261.70 711.658   9
  -8   1 -11 1576.68 441.366   4
   8  -1  11 941.264 283.853   9
  -8   0   6 41.3363 317.750   8
   8   0  -6 273.799 316.535   1
   8   0  -6 122.113 264.566   9
  -8   0   5 9831.90 1071.05   8
   8   0  -5 9529.63 949.959   1
   8   0  -5 10218.8 856.599   9
   8   0  -4 10888.4 990.456   1
  -8   0   4 9232.62 686.353   4
   8   0  -4 11398.5 919.466   9
   8   0  -3 19980.7 1306.72   1
  -8   0   3 20816.4 1071.35   4
   8   0  -3 22907.7 1316.51   9
   8   0  -2 10175.4 909.235   1
  -8   0   2 10000.3 756.071   4
   8   0  -2 11350.3 923.926   9
   8   0  -1 11074.8 909.109   1
  -8   0   1 11233.1 819.204   4
   8   0  -1 12894.3 972.503   9
  -8   0   0 1397.15 343.232   4
   8   0   0 1288.44 366.281   1
   8   0   0 1318.86 385.650   9
   8   0   1 11083.5 854.503   1
  -8   0  -1 11475.1 848.845   4
   8   0   2 24461.9 1277.02   1
  -8   0  -2 25696.8 1296.45   4
   8   0   3 49234.1 1836.51   1
  -8   0  -3 52162.5 1941.40   4
   8   0   4 15735.2 959.445   1
  -8   0  -4 19173.8 1142.90   4
   8   0   5 8305.28 669.495   1
  -8   0  -5 7495.04 723.322   4
  -8   0  -6-14.8871 238.552   4
   8   0   6 274.929 284.177   9
   8   0   6 142.185 185.845   1
   8   0   7 12188.0 776.388   1
   8   0   7 14100.2 961.448   9
  -8   0  -7 13424.8 999.131   4
   8   0   8 6941.60 678.710   9
  -8   0  -8 7373.68 773.368   4
   8   0   9 15999.5 1008.24   9
  -8   0  -9 15425.3 1119.95   4
   8   0  10 12586.7 861.861   9
  -8   0 -10 12217.4 1015.75   4
  -8   0 -11 2060.09 492.708   4
   8   0  11 3182.02 453.566   9
  -8   0 -12 488.530 301.992   4
  -8  -1   6 98.9153 312.340   8
   8   1  -6 428.394 409.253   1
   8   1  -6 150.622 271.732   9
  -8  -1   5 6492.61 855.910   8
   8   1  -5 7286.94 860.144   1
   8   1  -5 8351.37 760.059   9
  -8  -1   4 23914.0 1655.31   8
   8   1  -4 25561.6 1512.47   1
  -8  -1   4 24577.2 1091.33   4
   8   1  -4 27786.4 1416.08   9
   8   1  -3 17989.3 1207.16   1
  -8  -1   3 18297.5 960.335   4
   8   1  -3 19583.4 1188.75   9
   8   1  -2 16880.9 1114.86   1
  -8  -1   2 16698.3 957.045   4
   8   1  -2 16948.8 1110.92   9
  -8  -1   1 4155.62 500.427   4
   8   1  -1 4680.77 598.919   1
   8   1  -1 4305.75 566.132   9
  -8  -1   0 540.171 242.798   4
   8   1   0 59.9657 215.723   1
   8   1   0 255.422 266.340   9
   8   1   1 9407.17 753.164   1
   8   1   1 9646.68 806.214   9
  -8  -1  -1 8258.94 703.318   4
   8   1   2 28783.6 1317.16   1
   8   1   2 30854.4 1444.52   9
  -8  -1  -2 32079.4 1417.16   4
   8   1   3 36045.5 1459.24   1
   8   1   3 36611.3 1579.02   9
  -8  -1  -3 37623.8 1572.27   4
   8   1   4 25624.1 1182.97   1
   8   1   4 26956.9 1321.28   9
  -8  -1  -4 27485.0 1350.07   4
   8   1   5 6989.84 575.406   1
   8   1   5 6159.01 640.530   9
  -8  -1  -5 7419.38 706.875   4
  -8  -1  -6-29.6240 225.825   4
   8   1   6-30.9348 155.313   1
   8   1   6 275.569 231.805   9
   8   1   7 6229.32 503.620   1
   8   1   7 6087.58 626.645   9
  -8  -1  -7 6906.72 711.564   4
   8   1   8 30284.0 1386.52   9
  -8  -1  -8 30196.3 1524.60   4
   8   1   9 10858.5 801.880   9
  -8  -1  -9 10349.4 912.037   4
   8   1  10 12524.9 850.344   9
  -8  -1 -10 15111.5 1111.31   4
  -8  -1 -11 4489.02 645.868   4
   8   1  11 3799.48 482.811   9
  -8  -1 -12 440.377 315.044   4
  -8  -1 -13 1408.44 390.370   4
   8   1  13 3110.07 493.215   6
   8   2  -6 1798.21 482.243   1
  -8  -2   6 1469.45 463.525   8
   8   2  -5 599.195 319.240   1
  -8  -2   5 218.128 353.576   8
   8   2  -5 856.766 322.212   9
  -8  -2   4 20372.5 1480.38   8
   8   2  -4 20216.1 1308.94   1
   8   2  -4 20059.7 1204.92   9
  -8  -2   3 22088.9 1572.77   8
   8   2  -3 21251.2 1303.11   1
   8   2  -3 21781.9 1040.40   5
  -8  -2   3 22922.1 1051.24   4
   8   2  -3 23047.3 1284.46   9
   8   2  -2 14243.5 1002.65   1
   8   2  -2 14511.8 1004.75   9
  -8  -2   2 14476.9 854.814   4
   8   2  -1 4540.28 567.045   1
  -8  -2   1 5104.18 543.620   4
   8   2  -1 4852.93 576.885   9
  -8  -2   0 65.8975 196.590   4
   8   2   0 141.153 206.607   1
   8   2   0 267.172 235.770   9
   8   2   1 13900.3 889.199   1
   8   2   1 15999.6 1014.44   9
  -8  -2  -1 15215.1 915.177   4
   8   2   2 11791.4 783.773   1
   8   2   2 13042.6 897.793   9
  -8  -2  -2 12785.8 855.280   4
   8   2   3 27152.9 1188.06   1
   8   2   3 29391.9 1357.21   9
  -8  -2  -3 29294.0 1345.57   4
   8   2   4 11132.6 706.728   1
   8   2   4 12476.6 859.216   9
  -8  -2  -4 11194.6 833.421   4
  -8  -2  -5 3738.64 511.203   4
   8   2   5 3053.53 360.317   1
   8   2   5 3758.84 501.892   9
  -8  -2  -6-101.627 268.568   4
   8   2   6 96.7552 144.325   1
   8   2   6 311.795 242.475   9
  -8  -2  -7 2897.24 476.431   4
   8   2   7 2621.97 300.775   1
   8   2   7 2391.16 396.234   9
   8   2   8 16112.5 978.038   9
  -8  -2  -8 15586.3 1075.74   4
   8   2   9 20139.1 1128.75   6
   8   2   9 19132.0 1061.38   9
  -8  -2  -9 20003.1 1245.20   4
   8   2  10 13432.8 930.795   6
   8   2  10 12423.7 845.925   9
  -8  -2 -10 12592.5 1008.13   4
  -8  -2 -11 5099.83 685.261   4
   8   2  11 5505.42 621.182   6
   8   2  11 4410.93 513.668   9
  -8  -2 -12 201.959 278.218   4
   8   2  12 62.1273 215.668   6
   8   2  12-27.9308 223.423   9
  -8  -2 -13 103.948 282.515   4
   8   2  13 1011.84 338.764   6
  -8  -2 -14 3745.13 639.929   4
  -8  -3   6-392.374 373.718   8
   8   3  -6-192.866 204.128   5
   8   3  -6 210.691 325.689   1
   8   3  -5 6092.52 764.942   1
  -8  -3   5 6719.82 852.179   8
   8   3  -5 5641.44 577.472   5
   8   3  -5 7848.39 760.973   9
   8   3  -4 6533.25 744.598   1
  -8  -3   4 7642.62 892.663   8
   8   3  -4 6069.03 583.608   5
   8   3  -4 8404.58 792.597   9
   8   3  -3 19386.1 1209.97   1
  -8  -3   3 18853.9 1420.93   8
   8   3  -3 19907.5 1036.18   5
  -8  -3   3 19678.2 941.162   4
   8   3  -3 21469.7 1235.74   9
  -8  -3   2 13695.5 1241.59   8
   8   3  -2 14017.3 979.489   1
   8   3  -2 15249.0 1015.68   9
  -8  -3   2 14505.3 834.035   4
  -8  -3   1 3621.71 431.184   4
   8   3  -1 4515.55 552.559   1
   8   3  -1 4366.94 545.810   9
  -8  -3   0 1086.24 268.090   4
   8   3   0 1856.18 349.427   1
   8   3   0 1132.42 354.793   9
  -8  -3  -1 3956.27 472.635   4
   8   3   1 4166.29 475.097   1
   8   3   1 3738.61 508.091   9
   8   3   2 18179.5 949.327   1
   8   3   2 20339.1 1114.96   9
  -8  -3  -2 16974.7 978.486   4
   8   3   3 22092.6 1002.37   1
   8   3   3 22430.8 1161.56   9
  -8  -3  -3 21010.2 1113.29   4
   8   3   4 31850.1 1182.20   1
   8   3   4 28361.1 1326.60   9
  -8  -3  -4 32027.2 1413.21   4
   8   3   5 6931.49 495.612   1
   8   3   5 6545.70 627.238   9
  -8  -3  -5 7394.81 677.964   4
  -8  -3  -6 2045.79 413.500   4
   8   3   6 2415.72 286.487   1
   8   3   6 1963.31 365.722   9
  -8  -3  -7 2452.92 457.725   4
   8   3   7 2192.81 249.249   1
   8   3   7 2421.90 397.396   9
   8   3   8 8902.15 726.665   6
   8   3   8 7064.47 639.366   9
  -8  -3  -8 7863.23 742.737   4
   8   3   9 16647.4 1017.89   6
   8   3   9 16204.3 971.401   9
  -8  -3  -9 17411.1 1142.24   4
   8   3  10 13088.1 931.542   6
   8   3  10 13963.5 888.845   9
  -8  -3 -10 13056.9 1024.23   4
  -8  -3 -11 4352.32 634.014   4
   8   3  11 5031.89 593.209   6
   8   3  11 5054.94 533.255   9
   8   3  12-295.405 252.171   6
   8   3  12-338.092 219.936   9
  -8  -3 -13 1744.85 481.249   4
   8   3  13 1434.71 383.264   6
  -8  -3 -14 2905.48 536.937   4
   8   4  -7 9597.20 819.014   5
  -8  -4   6 660.656 427.654   8
   8   4  -6 117.817 216.035   5
   8   4  -6 322.307 348.625   1
  -8  -4   5 2939.05 615.859   8
   8   4  -5 2917.22 472.420   5
   8   4  -5 3208.72 539.363   9
   8   4  -5 2676.09 556.333   1
  -8  -4   4 13797.6 1184.57   8
   8   4  -4 13740.6 911.794   5
   8   4  -4 14131.3 1035.34   9
   8   4  -4 14799.0 1094.01   1
  -8  -4   3 21319.5 1512.61   8
   8   4  -3 23699.3 1181.63   5
   8   4  -3 23632.2 1326.46   9
   8   4  -3 22798.6 1309.21   1
   8   4  -2 22624.5 1247.65   1
  -8  -4   2 21271.1 1519.62   8
   8   4  -2 25127.1 1192.11   5
   8   4  -2 25713.4 1353.22   9
  -8  -4   2 23512.8 1047.05   4
   8   4  -1 7848.60 705.230   1
  -8  -4   1 8052.08 959.592   8
   8   4  -1 8904.06 785.559   9
  -8  -4   1 7595.30 601.023   4
   8   4   0 411.117 236.417   1
  -8  -4   0 190.875 229.747   4
   8   4   0 257.476 267.189   9
   8   4   1 3113.08 416.780   1
  -8  -4  -1 2263.83 386.148   4
   8   4   1 2698.14 431.613   9
   8   4   2 22699.9 1048.22   1
   8   4   2 24339.3 1228.27   9
  -8  -4  -2 21631.9 1117.45   4
   8   4   3 34499.2 1266.79   1
   8   4   3 33226.8 1462.89   9
  -8  -4  -3 34799.2 1448.68   4
   8   4   4 38917.8 1326.45   1
   8   4   4 40822.3 1619.96   9
  -8  -4  -4 39556.3 1587.59   4
   8   4   5 15152.9 730.392   1
   8   4   5 18507.0 1046.39   9
  -8  -4  -5 17007.3 1027.86   4
   8   4   6 312.889 132.138   1
  -8  -4  -6 448.729 244.253   4
   8   4   6 202.586 209.365   6
   8   4   6 505.226 270.973   9
  -8  -4  -7 1578.21 374.580   4
  -8  -4  -7 1216.38 220.197   2
   8   4   7 1707.94 334.106   6
   8   4   7 1758.04 367.194   9
   8   4   8 16709.0 987.337   6
  -8  -4  -8 16178.7 834.531   2
   8   4   8 18186.4 1027.59   9
  -8  -4  -8 16962.0 1115.71   4
   8   4   9 26505.1 1301.54   6
  -8  -4  -9 24924.1 1113.54   2
   8   4   9 26095.1 1254.40   9
  -8  -4  -9 27385.7 1460.95   4
   8   4  10 11796.8 876.399   6
  -8  -4 -10 12043.3 790.302   2
   8   4  10 10613.0 788.652   9
  -8  -4 -10 11049.8 957.609   4
   8   4  11 15686.1 1049.91   6
  -8  -4 -11 15257.6 950.343   2
   8   4  11 15327.0 912.969   9
  -8  -4 -11 14947.3 1125.20   4
  -8  -4 -12 779.009 359.399   4
   8   4  12 385.605 321.173   6
   8   4  12 446.344 222.532   9
  -8  -4 -13-89.1555 297.410   4
   8   4  13 39.3068 279.517   6
  -8  -4 -14 4353.32 666.474   4
   8   5  -7 3107.42 509.732   5
  -8  -5   6 1385.18 512.767   8
   8   5  -6 1715.51 398.620   5
   8   5  -6 697.523 396.564   1
  -8  -5   5 6521.71 847.283   8
   8   5  -5 6085.55 647.189   5
   8   5  -5 5376.54 706.978   1
   8   5  -5 5260.59 656.483   9
  -8  -5   4 11091.0 1096.95   8
   8   5  -4 10031.4 803.614   5
   8   5  -4 10731.5 915.746   9
   8   5  -4 10357.5 904.129   1
  -8  -5   3 25723.2 1667.55   8
   8   5  -3 28515.7 1357.16   5
   8   5  -3 29924.9 1515.99   9
   8   5  -3 26601.6 1418.84   1
  -8  -5   2 20349.4 1461.72   8
   8   5  -2 20670.3 1126.20   5
   8   5  -2 20976.9 1250.02   9
  -8  -5   2 19992.5 939.666   4
   8   5  -2 20952.6 1188.80   1
  -8  -5   1 16042.5 1300.06   8
   8   5  -1 18555.7 1145.74   9
  -8  -5   1 18357.1 937.954   4
   8   5  -1 17131.5 1029.21   1
  -8  -5   0 194.329 207.532   4
  -8  -5   0 31.6004 324.787   8
   8   5   0 500.706 273.277   9
   8   5   0 65.1487 223.502   1
   8   5   1 6446.02 669.696   9
  -8  -5  -1 6943.11 610.073   4
   8   5   1 6847.10 596.296   1
  -8  -5  -2 25323.4 1107.27   2
   8   5   2 31824.8 1441.50   9
  -8  -5  -2 26819.5 1255.39   4
   8   5   2 30981.6 1221.62   1
  -8  -5  -3 34492.2 1449.24   2
   8   5   3 39497.7 1616.61   9
  -8  -5  -3 41682.1 1589.21   4
   8   5   3 36604.9 1321.25   1
  -8  -5  -4 39737.2 1656.37   2
   8   5   4 41729.5 1664.43   9
  -8  -5  -4 40497.9 1626.21   4
   8   5   4 39948.2 1321.43   1
   8   5   5 24596.5 1224.36   9
  -8  -5  -5 22995.9 1212.98   4
  -8  -5  -5 22352.1 1121.07   2
   8   5   5 23022.9 896.044   1
  -8  -5  -6 573.797 233.536   4
   8   5   6 545.689 249.226   6
  -8  -5  -6 599.308 213.503   2
   8   5   6 544.081 240.363   9
   8   5   6 449.990 143.827   1
   8   5   7 7857.62 664.911   6
   8   5   7 6363.20 620.363   9
  -8  -5  -7 7978.71 661.839   2
  -8  -5  -7 7217.62 712.451   4
   8   5   8 15194.6 941.931   6
   8   5   8 13348.7 903.399   9
  -8  -5  -8 14080.2 907.993   2
  -8  -5  -8 14408.7 1027.90   4
   8   5   9 33055.3 1486.57   6
  -8  -5  -9 31795.8 1451.77   2
   8   5   9 31846.0 1420.08   9
  -8  -5  -9 30487.3 1564.72   4
   8   5  10 21655.5 1218.08   6
  -8  -5 -10 21924.5 1228.16   2
   8   5  10 22324.7 1159.66   9
  -8  -5 -10 22088.0 1357.31   4
  -8  -5 -11 3695.62 596.661   4
  -8  -5 -11 2150.33 435.320   2
   8   5  11 3551.53 529.315   6
   8   5  11 3116.62 440.227   9
  -8  -5 -12 1481.50 437.376   4
  -8  -5 -12 2699.12 494.885   2
   8   5  12 2960.09 512.409   6
   8   5  12 2572.01 394.923   9
  -8  -5 -13 1147.91 411.257   4
  -8  -5 -13 1936.35 461.947   2
   8   5  13 920.706 374.299   6
  -8  -5 -14 3697.45 679.445   4
  -8  -5 -14 4258.47 648.853   2
  -8  -6   6 1113.43 438.052   8
   8   6  -6 309.973 258.701   5
  -8  -6   5 2830.09 610.034   8
   8   6  -5 2991.86 503.085   5
   8   6  -5 4290.74 644.082   1
   8   6  -5 4086.18 626.322   9
  -8  -6   4 12464.0 1201.13   8
   8   6  -4 15656.0 1052.42   5
   8   6  -4 14307.7 1085.84   1
  -8  -6   3 18471.2 1459.95   8
   8   6  -3 19241.2 1147.08   5
   8   6  -3 18765.0 1182.98   1
   8   6  -3 22399.6 1317.81   9
  -8  -6   2 28686.5 1801.16   8
   8   6  -2 26068.9 1328.77   5
   8   6  -2 29126.2 1515.37   9
   8   6  -2 28114.1 1410.63   1
  -8  -6   2 28746.3 1122.72   4
  -8  -6   1 8395.52 939.596   8
  -8  -6   1 9735.67 639.529   2
   8   6  -1 10286.0 885.472   9
   8   6  -1 9388.52 765.331   1
  -8  -6   1 9230.93 651.524   4
  -8  -6   0 1748.97 328.504   4
  -8  -6   0 2167.62 524.980   8
  -8  -6   0 1679.84 282.865   2
   8   6   0 1889.84 357.454   1
   8   6   0 1593.30 388.521   9
  -8  -6  -1 1073.34 268.851   4
  -8  -6  -1 594.531 313.976   8
  -8  -6  -1 823.078 229.909   2
   8   6   1 1861.94 341.028   1
   8   6   1 1256.64 376.193   9
  -8  -6  -2 31034.2 1255.23   2
   8   6   2 34561.9 1545.26   9
   8   6   2 32403.4 1274.96   1
  -8  -6  -2 31690.5 1384.01   4
  -8  -6  -3 17283.2 969.014   2
   8   6   3 18653.2 1112.17   9
   8   6   3 18076.5 877.216   1
  -8  -6  -3 19215.9 1060.25   4
  -8  -6  -4 15810.5 995.526   2
   8   6   4 19290.0 1115.75   9
   8   6   4 18037.9 817.986   1
  -8  -6  -4 18379.9 1062.88   4
  -8  -6  -5 8441.28 769.249   2
   8   6   5 9163.73 685.023   6
   8   6   5 8049.23 506.798   1
   8   6   5 9817.62 781.350   9
  -8  -6  -5 9587.78 783.054   4
  -8  -6  -6 1704.20 369.320   4
   8   6   6 1405.48 305.532   6
  -8  -6  -6 975.743 272.150   2
   8   6   6 1194.86 175.830   1
   8   6   6 2021.99 390.012   9
  -8  -6  -7 2093.70 437.046   4
   8   6   7 2197.22 393.746   6
  -8  -6  -7 2276.05 446.198   2
   8   6   7 2598.33 435.102   9
   8   6   8 12433.5 864.201   6
   8   6   8 12492.2 888.139   9
  -8  -6  -8 10466.8 952.533   2
  -8  -6  -8 11820.9 942.878   4
   8   6   9 13206.7 914.609   6
   8   6   9 12811.3 902.457   9
  -8  -6  -9 12274.9 1071.32   2
  -8  -6  -9 13233.5 1038.95   4
   8   6  10 23446.2 1263.25   6
  -8  -6 -10 18976.1 1346.09   2
   8   6  10 20778.7 1137.41   9
  -8  -6 -10 19878.4 1321.11   4
  -8  -6 -11 9116.42 940.842   2
   8   6  11 9475.47 745.605   9
  -8  -6 -11 9265.80 942.266   4
  -8  -6 -12 650.011 374.863   4
  -8  -6 -12 324.281 274.367   2
   8   6  12 481.526 323.452   6
   8   6  12 507.301 264.784   9
  -8  -6 -13 723.673 389.563   4
  -8  -6 -13 546.320 337.341   2
   8   6  13 404.377 299.213   6
  -8  -6 -14 4582.78 737.965   4
  -8  -6 -14 3554.07 663.079   2
  -8  -7   5 135.821 333.171   8
   8   7  -5-22.9167 318.139   1
   8   7  -5 85.4278 273.067   5
  -8  -7   4 6092.77 837.168   8
   8   7  -4 8469.17 806.969   5
   8   7  -4 6901.20 771.432   1
   8   7  -4 9768.84 921.725   9
  -8  -7   3 12148.0 1103.91   8
   8   7  -3 12239.5 933.126   5
   8   7  -3 10845.3 918.828   1
   8   7  -3 12409.6 1010.83   9
  -8  -7   2 14952.8 1181.18   8
  -8  -7   2 13390.8 818.975   2
   8   7  -2 15346.3 1032.59   5
   8   7  -2 13963.0 994.810   1
   8   7  -2 15832.9 1122.16   9
  -8  -7   1 8074.30 856.731   8
  -8  -7   1 9744.22 675.485   2
   8   7  -1 8340.39 735.305   1
   8   7  -1 8503.65 824.737   9
  -8  -7   1 8948.94 636.404   4
  -8  -7   0 1418.79 374.702   8
  -8  -7   0 1482.88 294.041   4
  -8  -7   0 2231.80 317.773   2
   8   7   0 1933.25 365.275   1
   8   7   0 2500.40 459.581   9
  -8  -7  -1 1977.47 433.166   8
  -8  -7  -1 1847.36 346.013   4
  -8  -7  -1 1808.97 295.381   2
   8   7   1 1998.37 341.842   1
   8   7   1 2451.22 453.399   9
  -8  -7  -2 1721.48 395.060   8
  -8  -7  -2 1784.62 341.908   4
  -8  -7  -2 2068.94 340.231   2
   8   7   2 1942.35 318.176   1
   8   7   2 1764.44 395.307   9
  -8  -7  -3 51444.6 2063.66   8
  -8  -7  -3 56464.7 1905.47   2
   8   7   3 54798.9 1696.15   1
   8   7   3 57709.2 2106.66   9
  -8  -7  -3 56103.3 1972.41   4
  -8  -7  -4 10518.0 793.896   2
   8   7   4 11844.6 666.876   1
   8   7   4 11545.6 886.795   9
  -8  -7  -4 13006.0 897.510   4
  -8  -7  -5 16283.2 1057.14   2
   8   7   5 18370.4 975.211   6
   8   7   5 16672.6 740.888   1
   8   7   5 16596.4 1049.33   9
  -8  -7  -5 16453.4 1051.46   4
  -8  -7  -6 3483.83 522.284   4
   8   7   6 3982.59 470.309   6
  -8  -7  -6 3610.76 530.932   2
   8   7   6 3305.35 477.064   9
  -8  -7  -7-99.1782 303.224   4
   8   7   7 479.617 257.418   6
  -8  -7  -7 255.706 206.094   2
   8   7   7 76.6231 222.478   9
  -8  -7  -8 3741.82 581.569   4
   8   7   8 5432.72 589.973   6
  -8  -7  -8 5008.50 649.550   2
   8   7   8 4695.32 560.632   9
   8   7   9 10710.5 827.357   6
   8   7   9 10260.0 818.764   9
  -8  -7  -9 8005.01 830.124   2
  -8  -7  -9 8271.64 851.530   4
   8   7  10 10984.1 870.689   6
   8   7  10 11772.8 865.621   9
  -8  -7 -10 9105.86 932.017   2
  -8  -7 -10 12355.2 1067.20   4
  -8  -7 -11 4269.86 676.839   4
   8   7  11 6116.53 682.825   6
  -8  -7 -11 5555.49 773.086   2
   8   7  11 6139.78 622.503   9
  -8  -7 -12 4454.49 690.964   4
  -8  -7 -12 3685.40 628.623   2
   8   7  12 4322.75 577.991   6
   8   7  12 4598.06 534.563   9
  -8  -7 -13 271.530 333.833   4
  -8  -7 -13 684.005 350.565   2
   8   7  13 335.517 293.627   6
   8   7  13 272.028 230.326   9
  -8  -7 -14 1227.85 404.233   2
  -8  -8   5 400.961 350.443   8
  -8  -8   4 5949.73 752.335   8
   8   8  -4 6093.90 722.710   1
   8   8  -4 6278.19 715.355   5
  -8  -8   3 12819.4 1021.79   8
  -8  -8   3 11023.7 785.559   2
   8   8  -3 11853.4 948.520   5
   8   8  -3 11468.6 942.815   1
  -8  -8   2 16608.4 1151.98   8
  -8  -8   2 19423.3 1027.00   2
   8   8  -2 17080.4 1131.34   5
   8   8  -2 19579.0 1178.37   1
   8   8  -2 17216.2 1207.68   9
  -8  -8   1 12017.3 933.365   8
  -8  -8   1 11635.8 783.940   2
   8   8  -1 12152.0 886.868   1
   8   8  -1 12667.6 1027.81   9
  -8  -8   1 12014.6 739.231   4
  -8  -8   0 2423.96 441.541   8
  -8  -8   0 2151.91 358.055   4
   8   8   0 2239.58 408.883   1
  -8  -8   0 2191.44 340.624   2
   8   8   0 2095.96 444.727   9
  -8  -8  -1 436.161 243.905   8
  -8  -8  -1 239.763 204.619   4
   8   8   1 554.760 255.412   1
  -8  -8  -1 965.197 272.600   2
   8   8   1 47.6552 250.102   9
  -8  -8  -2 6484.65 609.489   8
  -8  -8  -2 7473.86 640.578   2
   8   8   2 6632.21 580.328   1
   8   8   2 6555.46 712.837   9
  -8  -8  -2 6947.98 655.512   4
  -8  -8  -3 10547.3 744.582   8
  -8  -8  -3 10269.4 786.864   2
   8   8   3 10286.2 680.056   1
   8   8   3 12583.6 947.473   9
  -8  -8  -3 10234.3 813.988   4
  -8  -8  -4 39699.6 1499.86   8
  -8  -8  -4 42120.1 1705.74   2
   8   8   4 41093.1 1492.66   6
   8   8   4 44627.2 1840.36   9
  -8  -8  -4 42462.8 1745.85   4
  -8  -8  -5 18719.6 1151.24   2
   8   8   5 18956.9 999.443   6
   8   8   5 18953.7 1162.63   9
  -8  -8  -5 19359.0 1170.60   4
   8   8   6 5529.41 563.960   6
  -8  -8  -6 6386.31 706.872   2
   8   8   6 6998.26 715.768   9
  -8  -8  -6 6649.48 711.656   4
  -8  -8  -7 498.617 326.298   4
   8   8   7 187.530 220.416   6
   8   8   7 636.683 275.725   9
   8   8   8 7469.77 699.355   6
   8   8   8 8172.24 750.800   9
  -8  -8  -8 9619.29 902.754   4
  -8  -8  -8 8912.80 838.777   2
   8   8   9 15646.5 1023.69   6
   8   8   9 16669.1 1069.43   9
  -8  -8  -9 15361.4 1123.09   2
  -8  -8  -9 15022.7 1168.66   4
   8   8  10 19751.8 1199.47   6
   8   8  10 18190.0 1109.96   9
  -8  -8 -10 18689.4 1261.05   2
  -8  -8 -10 19433.9 1372.08   4
   8   8  11 10949.4 914.579   6
   8   8  11 11183.7 852.925   9
  -8  -8 -11 9652.65 940.627   2
  -8  -8 -11 11568.3 1084.49   4
  -8  -8 -12 1068.23 404.752   4
  -8  -8 -12 2143.03 498.495   2
   8   8  12 873.251 345.626   6
  -8  -8 -13 103.252 394.538   4
  -8  -8 -13 957.033 413.617   2
  -8  -8 -14 2669.95 541.950   2
  -8  -9   4 5006.29 658.923   8
  -8  -9   4 5183.59 580.006   2
  -8  -9   3 17848.2 1124.91   8
  -8  -9   3 18186.4 1050.79   2
   8   9  -3 17206.6 1179.33   5
  -8  -9   2 17416.2 1078.03   8
  -8  -9   2 17320.2 1018.63   2
   8   9  -2 17845.9 1182.53   5
  -8  -9   1 17699.2 1032.67   8
  -8  -9   1 18146.8 1043.00   2
  -8  -9   0 4759.54 531.485   8
  -8  -9   0 4849.38 502.807   4
  -8  -9   0 4955.74 553.575   2
  -8  -9  -1 552.601 225.272   8
  -8  -9  -1 895.409 283.541   4
  -8  -9  -1 725.734 303.032   2
   8   9   1 789.782 334.558   9
  -8  -9  -2 14108.1 931.375   2
   8   9   2 14555.5 1091.87   9
  -8  -9  -2 14410.2 955.111   4
  -8  -9  -3 22130.3 1208.07   2
   8   9   3 24888.6 1406.47   9
  -8  -9  -3 23095.5 1248.63   4
  -8  -9  -4 25093.3 1325.27   2
   8   9   4 26760.1 1161.82   6
   8   9   4 28173.0 1483.00   9
  -8  -9  -4 27268.2 1405.68   4
  -8  -9  -5 14305.2 1025.09   2
   8   9   5 15543.1 900.051   6
   8   9   5 16530.4 1112.33   9
  -8  -9  -5 17031.0 1120.05   4
  -8  -9  -6 3391.59 559.460   4
   8   9   6 3366.50 456.890   6
  -8  -9  -6 3243.33 513.823   2
   8   9   6 3828.52 569.843   9
  -8  -9  -7 2231.59 491.101   4
   8   9   7 2482.64 413.029   6
  -8  -9  -7 3892.44 624.074   2
   8   9   7 2803.70 503.906   9
  -8  -9  -8 5647.64 719.705   4
   8   9   8 6342.32 636.474   6
  -8  -9  -8 5956.87 721.416   2
   8   9   8 6170.99 676.447   9
   8   9   9 22465.4 1248.75   6
   8   9   9 22958.7 1298.48   9
  -8  -9  -9 21863.5 1356.50   2
  -8  -9  -9 21070.2 1416.20   4
   8   9  10 17301.0 1129.78   6
  -8  -9 -10 19384.0 1281.52   2
  -8  -9 -10 17197.2 1315.57   4
   8   9  11 16087.5 1113.67   6
  -8  -9 -11 16748.7 1217.33   2
  -8  -9 -11 15163.2 1276.55   4
  -8  -9 -12 1058.51 478.396   4
  -8  -9 -12 1652.48 455.417   2
   8   9  12 1202.86 381.958   6
  -8  -9 -13 593.561 389.570   2
  -8 -10   3 14986.0 1004.95   2
  -8 -10   2 16054.8 1040.61   2
  -8 -10   1 6831.62 665.314   2
  -8 -10   0 3068.96 410.617   4
  -8 -10   0 2361.52 413.095   2
  -8 -10  -1 291.251 232.385   4
  -8 -10  -1 495.115 241.318   2
  -8 -10  -2 7628.91 723.472   2
  -8 -10  -2 9366.65 769.212   4
  -8 -10  -3 18069.3 1113.35   2
  -8 -10  -3 19795.9 1168.07   4
  -8 -10  -4 27624.2 1438.99   2
   8  10   4 27760.1 1147.75   6
  -8 -10  -4 25611.0 1394.09   4
  -8 -10  -5 12466.2 985.656   2
   8  10   5 12666.1 794.748   6
  -8 -10  -5 13078.7 1024.44   4
  -8 -10  -6 3331.85 542.766   4
   8  10   6 3196.54 441.318   6
  -8 -10  -6 3152.39 557.555   2
  -8 -10  -7 253.308 271.251   4
   8  10   7 73.8342 204.957   6
  -8 -10  -7-186.863 302.173   2
  -8 -10  -8 5900.10 767.473   4
   8  10   8 6484.98 643.839   6
  -8 -10  -8 7197.90 812.237   2
  -8 -10  -9 8146.89 919.310   4
  -8 -10  -9 8775.11 897.005   2
   8  10  10 10979.0 903.201   6
  -8 -10 -10 12134.3 1033.77   2
  -8 -10 -10 12091.9 1150.89   4
  -8 -10 -11 4391.91 730.536   4
  -8 -10 -11 6201.40 760.340   2
   8  10  11 4979.98 644.471   6
  -8 -10 -12 3263.24 574.008   2
  -8 -11   2 7861.69 751.090   2
  -8 -11   1 12594.2 938.939   2
  -8 -11   0 1464.05 348.908   2
  -8 -11  -1 45.8797 203.596   4
  -8 -11  -1 26.5432 212.634   2
  -8 -11  -2 4187.06 543.173   4
  -8 -11  -2 5040.58 612.817   2
  -8 -11  -3 7823.56 774.889   2
  -8 -11  -3 6913.51 706.950   4
  -8 -11  -4 12608.2 978.423   2
  -8 -11  -4 11623.4 949.406   4
  -8 -11  -5 12924.4 1025.88   2
   8  11   5 11210.1 723.888   6
  -8 -11  -6 3486.64 594.963   4
   8  11   6 2863.84 397.011   6
  -8 -11  -6 2848.61 521.437   2
  -8 -11  -7 814.878 409.453   4
   8  11   7 351.586 240.818   6
  -8 -11  -7 878.139 332.304   2
  -8 -11  -8 1499.05 488.838   4
   8  11   8 1454.46 353.335   6
  -8 -11  -8 1062.00 390.521   2
  -8 -11  -9 6124.41 815.046   4
   8  11   9 7481.34 711.321   6
  -8 -11  -9 7117.15 819.127   2
   8  11  10 4655.63 598.020   6
  -8 -11 -10 5212.03 715.449   2
  -8 -11 -11 9577.95 938.238   2
  -8 -12   0 5803.36 674.302   2
  -8 -12  -1 232.443 313.059   2
   8  12   2 1055.85 364.991   7
  -8 -12  -2 1079.11 313.419   4
  -8 -12  -2 1250.29 408.599   2
   8  12   3 10386.0 888.039   7
  -8 -12  -3 10698.7 903.352   2
  -8 -12  -3 9256.74 834.387   4
  -8 -12  -4 9233.61 858.437   4
   8  12   4 8218.42 825.626   7
  -8 -12  -4 9592.48 884.920   2
  -8 -12  -5 15515.5 1173.47   4
  -8 -12  -5 17440.4 1213.22   2
   8  12   5 17521.5 1221.45   7
   8  12   6 8160.89 867.940   7
  -8 -12  -6 7111.91 851.957   4
  -8 -12  -6 6182.56 753.648   2
   8  12   7 2053.46 499.750   7
  -8 -12  -7 1183.99 431.614   4
   8  12   7 1854.04 351.738   6
  -8 -12  -7 484.367 308.957   2
   8  12   8 396.610 242.862   6
  -8 -12  -8 38.8467 335.858   2
   8  12   9 5848.10 642.112   6
  -8 -12  -9 5208.39 725.976   2
   8  12  10 14361.3 1000.74   6
  -8 -13  -3 7904.07 790.719   4
  -8 -13  -4 12114.9 1007.02   4
  -9   3   2 3092.76 536.913   4
  -9   3   1 5508.60 671.644   4
  -9   3   0 9147.71 866.571   4
  -9   3  -1 5891.20 717.771   4
   9  -3   1 5549.47 713.315   1
  -9   3  -2 1318.30 401.030   4
   9  -3   2 1508.41 429.502   1
   9  -3   3 180.196 298.609   1
   9  -3   4 3652.64 585.177   1
   9  -3   5 7331.20 804.897   1
   9  -3   6 5459.85 687.231   1
  -9   2   3-223.454 272.054   4
   9  -2  -3 317.534 309.070   9
  -9   2   2 4363.71 565.602   4
  -9   2   1 7227.89 729.525   4
   9  -2  -1 4796.64 666.600   1
   9  -2   0 10269.4 931.954   1
  -9   2   0 9899.30 859.526   4
  -9   2  -1 6671.00 728.809   4
   9  -2   1 5955.83 746.101   1
  -9   2  -2 2882.20 509.438   4
   9  -2   2 1845.12 432.660   1
  -9   2  -3-265.987 297.497   4
   9  -2   3-186.521 257.145   1
  -9   2  -4 934.624 385.034   4
   9  -2   4 1954.50 443.596   1
   9  -2   5 9548.39 837.644   1
  -9   2  -5 9802.75 936.241   4
   9  -2   6 9060.13 809.861   1
  -9   2  -6 9576.64 916.647   4
   9  -1  -4 807.808 347.546   9
  -9   1   3 441.298 247.075   4
   9  -1  -3-99.1526 290.738   9
  -9   1   2 4253.43 552.639   4
   9  -1  -2 4013.75 627.925   1
   9  -1  -2 5291.06 701.646   9
  -9   1   1 5834.13 647.219   4
   9  -1  -1 5505.48 739.618   1
   9  -1  -1 6019.22 746.940   9
   9  -1   0 11034.7 966.188   1
  -9   1   0 9424.88 824.305   4
   9  -1   1 8909.44 847.256   1
  -9   1  -1 10055.6 870.111   4
  -9   1  -2 4297.26 605.533   4
   9  -1   2 3987.50 584.168   1
  -9   1  -3 785.638 332.867   4
   9  -1   3 258.731 260.473   1
  -9   1  -4 822.337 365.262   4
   9  -1   4 1059.26 345.584   1
   9  -1   5 7897.46 717.646   1
  -9   1  -5 8528.76 848.603   4
   9  -1   6 8591.01 748.256   1
  -9   1  -6 8438.83 875.531   4
   9  -1   7 9122.29 842.502   9
  -9   1  -7 9002.20 914.725   4
  -9   1  -8 3025.28 567.786   4
   9  -1   8 3397.90 536.884   9
   9  -1   9-20.8229 305.645   9
   9   0  -5 7740.04 805.763   9
   9   0  -4 3400.52 572.462   9
  -9   0   3 461.724 246.023   4
   9   0  -3 915.218 392.923   1
  -9   0   2 921.714 273.575   4
   9   0  -2 993.295 394.501   1
   9   0  -2 648.642 335.599   9
   9   0  -1 16916.7 1186.26   1
  -9   0   1 14438.8 971.806   4
   9   0  -1 15744.7 1157.80   9
   9   0   0 8656.52 841.600   1
  -9   0   0 10589.8 850.164   4
   9   0   0 11499.6 977.526   9
   9   0   1 15198.8 1077.97   1
   9   0   1 18046.9 1213.13   9
  -9   0  -1 16203.7 1082.54   4
  -9   0  -2 5549.71 662.422   4
   9   0   2 5795.46 644.314   1
   9   0   2 5577.87 692.691   9
  -9   0  -3 727.349 352.693   4
   9   0   3 321.747 271.139   1
   9   0   3 98.8299 290.803   9
   9   0   4 10248.0 802.144   1
   9   0   4 10500.3 920.911   9
  -9   0  -4 10747.5 928.913   4
  -9   0  -5 5984.68 728.197   4
   9   0   5 5933.52 606.253   1
   9   0   5 7271.44 768.622   9
   9   0   6 17704.1 979.178   1
   9   0   6 18555.8 1190.14   9
  -9   0  -6 17065.1 1205.88   4
   9   0   7 11544.4 935.764   9
  -9   0  -7 11192.1 985.118   4
  -9   0  -8 6870.25 781.919   4
   9   0   8 5977.86 676.406   9
  -9   0  -9 772.765 422.785   4
   9   0   9 944.561 345.914   9
   9   0  10 831.658 319.219   9
   9   0  11 4096.69 532.309   9
   9   1  -5 9877.10 875.980   9
   9   1  -4 3125.91 580.745   1
   9   1  -4 2152.88 476.922   9
   9   1  -3 211.631 287.762   1
   9   1  -3 236.174 290.338   9
  -9  -1   2 3193.06 449.356   4
   9   1  -2 3549.71 590.323   1
   9   1  -2 3808.60 604.881   9
   9   1  -1 12005.7 970.359   1
  -9  -1   1 12846.3 892.056   4
   9   1  -1 14502.2 1076.08   9
   9   1   0 18696.7 1174.34   1
   9   1   0 20648.2 1294.52   9
  -9  -1   0 20732.6 1164.91   4
   9   1   1 11952.4 922.756   1
   9   1   1 15337.9 1089.44   9
  -9  -1  -1 14096.6 984.808   4
  -9  -1  -2 5454.59 649.516   4
   9   1   2 5879.23 621.327   1
   9   1   2 6505.38 716.940   9
  -9  -1  -3 2384.73 454.835   4
   9   1   3 2719.19 433.144   1
   9   1   3 3198.90 536.411   9
  -9  -1  -4 607.989 302.795   4
   9   1   4 1921.34 379.394   1
   9   1   4 1314.83 386.517   9
   9   1   5 11421.5 774.245   1
   9   1   5 11194.7 918.717   9
   9   1   6 16550.4 891.627   1
   9   1   6 16945.6 1119.54   9
  -9  -1  -6 17781.7 1191.93   4
   9   1   7 11051.0 905.908   9
  -9  -1  -7 9740.41 909.166   4
  -9  -1  -8 7221.47 798.172   4
   9   1   8 6141.78 690.456   9
  -9  -1  -9 27.3283 288.465   4
   9   1   9 533.028 314.455   9
  -9  -1 -10 1337.09 421.791   4
   9   1  10 2035.18 406.134   9
   9   1  11 7814.96 691.209   9
   9   2  -5 4771.54 637.661   9
   9   2  -4 4751.00 701.769   1
  -9  -2   4 6389.56 870.213   8
   9   2  -4 5766.71 682.237   9
  -9  -2   3 30.0064 366.010   8
   9   2  -3 359.404 338.441   1
   9   2  -3-144.613 287.288   9
  -9  -2   2 2505.89 398.909   4
   9   2  -2 2397.30 491.597   1
   9   2  -2 2742.74 527.792   9
   9   2  -1 7793.07 754.816   1
  -9  -2   1 7615.13 672.904   4
   9   2  -1 7877.03 800.634   9
   9   2   0 18951.2 1156.18   1
   9   2   0 21201.4 1287.34   9
  -9  -2   0 17711.8 1068.03   4
   9   2   1 11863.6 876.348   1
   9   2   1 13962.2 1027.87   9
  -9  -2  -1 12489.0 905.571   4
  -9  -2  -2 5146.69 613.660   4
   9   2   2 5848.14 601.724   1
   9   2   2 5352.73 655.678   9
  -9  -2  -3 226.401 254.235   4
   9   2   3 75.6175 195.311   1
   9   2   3 19.9276 244.777   9
  -9  -2  -4 62.2167 248.019   4
   9   2   4 699.250 247.374   1
   9   2   4 1003.82 343.510   9
   9   2   5 8223.46 631.537   1
   9   2   5 9030.35 819.706   9
  -9  -2  -5 10009.5 860.499   4
   9   2   6 13094.7 741.341   1
   9   2   6 15054.0 1033.21   9
  -9  -2  -6 15835.3 1110.91   4
   9   2   7 17108.8 1097.14   9
  -9  -2  -7 17672.0 1211.94   4
  -9  -2  -8 2311.93 489.341   4
   9   2   8 1854.32 411.165   9
  -9  -2  -9 1919.07 454.446   4
   9   2   9 2455.65 450.493   9
  -9  -2 -10 530.608 313.247   4
   9   2  10 984.407 339.302   9
  -9  -2 -11 3209.97 576.049   4
   9   2  11 3377.61 480.901   9
   9   2  12 4180.69 502.385   9
   9   3  -4 755.932 378.131   1
  -9  -3   4 742.450 341.754   8
   9   3  -4 1819.90 452.322   9
   9   3  -3 585.119 337.055   1
  -9  -3   3 429.940 414.573   8
   9   3  -3 947.785 377.880   9
  -9  -3   2 73.1800 183.962   4
   9   3  -2 275.217 302.548   1
  -9  -3   2-70.4852 382.716   8
   9   3  -2 825.417 346.403   9
   9   3  -1 6915.66 728.236   1
   9   3  -1 7209.11 769.040   9
  -9  -3   1 7375.62 637.644   4
   9   3   0 7891.17 732.081   1
   9   3   0 8268.38 792.681   9
  -9  -3   0 8690.37 716.889   4
   9   3   1 17525.4 1054.06   1
   9   3   1 19657.8 1211.24   9
  -9  -3  -1 18774.9 1097.93   4
   9   3   2 9545.60 736.420   1
   9   3   2 10411.1 876.778   9
  -9  -3  -2 9623.01 818.898   4
  -9  -3  -3 378.054 271.831   4
   9   3   3 721.008 226.196   1
   9   3   3 675.234 307.384   9
  -9  -3  -4 1684.49 382.651   4
   9   3   4 1469.35 295.020   1
   9   3   4 1592.62 357.985   9
   9   3   5 6646.00 531.397   1
   9   3   5 6868.48 709.810   9
  -9  -3  -5 7500.89 750.537   4
   9   3   6 12793.6 684.676   1
   9   3   6 13234.8 948.482   9
  -9  -3  -6 12875.4 991.677   4
   9   3   7 15031.6 1026.15   9
  -9  -3  -7 14550.0 1066.07   4
   9   3   8 8745.82 785.459   9
  -9  -3  -8 8460.49 843.526   4
  -9  -3  -9 470.276 326.057   4
   9   3   9 138.457 247.857   9
  -9  -3 -10-466.567 408.628   4
   9   3  10 176.395 249.293   9
  -9  -3 -11 1820.97 435.242   4
   9   3  11 2734.66 479.237   6
   9   3  11 2807.86 453.545   9
  -9  -3 -12 5568.83 740.464   4
   9   3  12 5185.14 563.462   9
  -9  -4   4 5811.98 808.235   8
   9   4  -4 5975.48 708.074   9
   9   4  -4 5284.79 725.173   1
  -9  -4   3 1670.36 540.201   8
   9   4  -3 2000.20 468.052   9
   9   4  -3 1728.33 421.941   1
   9   4  -2 1490.33 395.742   1
  -9  -4   2 988.354 451.380   8
   9   4  -2 1480.31 425.034   9
   9   4  -1 4741.29 592.179   1
  -9  -4   1 4473.03 755.596   8
  -9  -4   1 5126.89 528.609   4
   9   4  -1 4602.22 636.512   9
   9   4   0 21338.7 1189.10   1
   9   4   0 22814.2 1343.10   9
  -9  -4   0 22116.2 1138.74   4
   9   4   1 15538.5 960.755   1
   9   4   1 13999.2 1034.37   9
  -9  -4  -1 14068.9 936.850   4
   9   4   2 11363.1 795.298   1
   9   4   2 11226.9 920.996   9
  -9  -4  -2 11435.4 857.064   4
  -9  -4  -3 3122.73 484.024   4
   9   4   3 3666.92 438.776   1
   9   4   3 4294.57 583.952   9
  -9  -4  -4 1561.05 381.927   4
   9   4   4 791.805 242.733   1
   9   4   4 1139.23 337.879   9
   9   4   5 11316.7 660.829   1
   9   4   5 10352.3 859.432   9
  -9  -4  -5 11959.3 928.428   4
   9   4   6 13117.3 956.003   9
  -9  -4  -6 12013.9 963.023   4
   9   4   7 17008.8 1087.30   9
  -9  -4  -7 17169.9 1165.87   4
   9   4   8 7642.23 728.593   9
  -9  -4  -8 9444.41 878.005   4
  -9  -4  -9 2464.91 507.197   4
   9   4   9 2911.56 491.741   6
   9   4   9 2335.95 451.188   9
  -9  -4 -10 981.850 383.285   4
   9   4  10 532.789 295.983   6
   9   4  10 479.803 299.438   9
  -9  -4 -11 4398.98 661.316   4
   9   4  11 3459.63 528.253   6
   9   4  11 3016.74 461.652   9
  -9  -4 -12 8184.10 873.789   4
   9   4  12 6981.31 645.595   9
   9   5  -5 8392.94 767.322   5
  -9  -5   4 8459.06 973.197   8
   9   5  -4 9997.07 817.886   5
   9   5  -4 9433.73 897.629   9
   9   5  -4 8476.21 873.743   1
  -9  -5   3 1100.27 405.106   8
   9   5  -3-42.8551 272.378   1
   9   5  -3 962.973 350.899   9
  -9  -5   2 562.695 323.356   8
   9   5  -2 1830.44 445.657   9
   9   5  -2 1371.65 362.290   1
  -9  -5   1 11328.6 1133.16   8
  -9  -5   1 11993.4 789.610   4
   9   5  -1 13365.9 973.518   1
  -9  -5   0 19421.5 1502.68   8
   9   5   0 22956.3 1350.36   9
  -9  -5   0 20175.1 1078.82   4
   9   5   0 21421.2 1176.47   1
   9   5   1 28621.4 1493.10   9
  -9  -5  -1 26645.9 1276.68   4
   9   5   1 24501.9 1222.36   1
   9   5   2 15265.5 1094.64   9
  -9  -5  -2 16170.7 1015.15   4
   9   5   2 15690.0 916.376   1
  -9  -5  -3 3140.97 484.285   4
   9   5   3 2749.41 499.500   9
   9   5   3 2853.89 396.883   1
  -9  -5  -4 449.116 305.908   4
   9   5   4 629.212 331.848   9
   9   5   4 329.905 172.724   1
   9   5   5 8973.96 792.706   9
  -9  -5  -5 7977.05 762.495   4
   9   5   5 7501.73 534.167   1
   9   5   6 25868.8 1376.22   9
  -9  -5  -6 25089.2 1403.22   4
   9   5   7 18867.9 1155.93   9
  -9  -5  -7 19166.0 1226.23   4
   9   5   8 16201.7 1038.66   6
   9   5   8 15729.5 1049.79   9
  -9  -5  -8 16944.4 1181.29   4
  -9  -5  -9 1165.21 412.585   4
   9   5   9 2351.46 446.265   6
   9   5   9 2022.44 430.639   9
  -9  -5 -10 721.970 381.591   4
   9   5  10 637.017 282.540   6
   9   5  10 1196.90 364.260   9
  -9  -5 -11 4911.46 730.258   4
   9   5  11 4704.43 619.346   6
   9   5  11 4555.02 563.032   9
  -9  -5 -12 8072.94 889.813   4
   9   5  12 8517.45 719.383   9
   9   6  -5 6071.40 682.082   5
  -9  -6   4 6301.20 852.646   8
   9   6  -4 4141.84 546.876   5
   9   6  -4 5500.76 706.197   9
  -9  -6   3 1083.75 457.779   8
   9   6  -3 1167.82 343.398   5
   9   6  -3 1031.25 376.798   1
   9   6  -3 1418.55 454.145   9
  -9  -6   2 434.943 318.298   8
   9   6  -2 187.128 272.574   1
   9   6  -2 292.765 258.482   9
  -9  -6   1 9335.65 1041.42   8
   9   6  -1 9005.02 884.837   9
  -9  -6   1 10357.2 714.821   4
   9   6  -1 9148.51 798.059   1
  -9  -6   0 13216.4 1214.06   8
   9   6   0 17632.8 1190.66   9
   9   6   0 14139.4 949.083   1
  -9  -6   0 16867.7 952.927   4
  -9  -6  -1 17037.2 1392.42   8
   9   6   1 21023.5 1296.08   9
   9   6   1 17890.4 1026.49   1
  -9  -6  -1 18613.6 1049.23   4
   9   6   2 9631.27 876.648   9
   9   6   2 10028.3 724.997   1
  -9  -6  -2 8887.01 752.067   4
  -9  -6  -3 2914.32 467.810   4
   9   6   3 3095.56 396.311   1
   9   6   3 3569.79 567.322   9
  -9  -6  -4 270.754 258.728   4
   9   6   4 925.138 243.137   1
   9   6   4 786.525 331.339   9
  -9  -6  -5 5884.32 666.690   4
   9   6   5 7859.84 772.133   9
   9   6   5 6561.18 481.369   1
   9   6   6 12271.3 942.357   9
  -9  -6  -6 11790.1 951.471   4
   9   6   7 18098.9 1073.58   6
   9   6   7 17484.6 1121.37   9
  -9  -6  -7 16250.3 1152.74   4
   9   6   8 12608.9 903.697   6
   9   6   8 9768.79 843.279   9
  -9  -6  -8 11067.2 959.202   4
  -9  -6  -9 2284.39 476.558   4
   9   6   9 3303.77 528.365   6
   9   6   9 2343.36 454.989   9
  -9  -6 -10 24.8372 294.861   4
   9   6  10 273.902 290.809   6
   9   6  10-112.168 237.900   9
  -9  -6 -11 6538.69 798.005   4
   9   6  11 6676.72 729.423   6
   9   6  11 5738.51 623.568   9
  -9  -6 -12 5351.47 778.101   4
   9   6  12 6405.25 626.971   9
  -9  -7   4 4331.84 748.036   8
   9   7  -4 4301.61 595.957   5
   9   7  -4 5585.84 758.819   9
  -9  -7   3 1313.21 435.656   8
   9   7  -3 570.756 354.866   1
   9   7  -3 604.775 316.055   9
  -9  -7   2 622.206 352.179   8
   9   7  -2 60.5536 266.727   1
   9   7  -2-159.924 320.263   9
  -9  -7   1 1846.12 495.056   8
   9   7  -1 1835.77 433.814   1
   9   7  -1 2038.42 469.038   9
  -9  -7   0 7772.77 881.824   8
   9   7   0 7599.55 706.762   1
   9   7   0 7618.02 795.118   9
  -9  -7   0 7106.82 624.227   4
   9   7   1 12826.0 852.451   1
   9   7   1 14431.3 1090.38   9
  -9  -7  -1 12433.8 852.212   4
  -9  -7  -2 10192.1 939.648   8
   9   7   2 9455.13 706.677   1
   9   7   2 10564.9 934.322   9
  -9  -7  -2 11123.6 836.587   4
  -9  -7  -3 3719.42 527.853   4
  -9  -7  -3 4192.87 629.749   8
   9   7   3 3494.99 414.174   1
   9   7   3 5052.06 661.472   9
  -9  -7  -4-22.6447 222.863   4
   9   7   4-138.954 171.080   1
   9   7   4-34.2262 278.027   9
  -9  -7  -5 5570.06 662.816   4
   9   7   5 5291.29 664.228   9
   9   7   6 13535.5 902.835   6
   9   7   6 13795.8 1030.68   9
  -9  -7  -6 12916.3 1014.42   4
   9   7   7 16862.8 1039.13   6
   9   7   7 16593.7 1135.87   9
  -9  -7  -7 18076.9 1221.13   4
  -9  -7  -8 6503.62 788.806   4
   9   7   8 6685.23 668.149   6
   9   7   8 7241.75 729.251   9
  -9  -7  -9 5138.31 697.947   4
   9   7   9 4376.22 581.379   6
   9   7   9 3248.14 505.002   9
  -9  -7 -10-209.611 322.664   4
   9   7  10 381.594 304.196   6
   9   7  10 113.278 238.264   9
  -9  -7 -11 439.094 340.675   4
   9   7  11 181.031 238.692   6
   9   7  11 618.292 310.688   9
   9   7  12 4969.22 568.034   9
  -9  -8   3 2966.96 578.016   8
   9   8  -3 5535.85 760.210   9
  -9  -8   2 465.717 298.681   8
   9   8  -2 191.055 272.998   1
   9   8  -2 107.452 296.548   9
  -9  -8   1 1672.24 420.362   8
   9   8  -1 1726.06 412.342   1
   9   8  -1 1383.28 423.008   9
  -9  -8   0 9075.72 841.943   8
   9   8   0 10434.9 819.861   1
   9   8   0 11007.2 971.204   9
  -9  -8   0 10229.5 735.460   4
  -9  -8  -1 16706.6 1099.18   8
   9   8   1 16475.3 992.245   1
   9   8   1 17948.0 1252.49   9
  -9  -8  -1 17501.0 1013.29   4
  -9  -8  -2 11741.2 894.325   8
   9   8   2 12388.0 813.495   1
   9   8   2 11829.7 1001.69   9
  -9  -8  -2 12472.3 887.013   4
  -9  -8  -3 5830.19 625.422   8
   9   8   3 6622.66 563.280   1
   9   8   3 7033.26 765.835   9
  -9  -8  -3 6483.51 667.916   4
   9   8   4 432.901 188.238   1
   9   8   4 205.891 290.791   9
  -9  -8  -5 736.130 326.779   4
   9   8   5 1126.85 388.210   9
   9   8   6 9205.29 751.421   6
   9   8   6 9445.94 865.544   9
  -9  -8  -6 9303.76 872.003   4
   9   8   7 12419.2 895.276   6
   9   8   7 14256.5 1059.32   9
  -9  -8  -7 14457.6 1114.48   4
   9   8   8 16467.2 1045.77   6
   9   8   8 16145.8 1114.85   9
  -9  -8  -8 14414.7 1139.48   4
  -9  -8  -9 2681.34 547.388   4
   9   8   9 2383.46 446.079   6
   9   8   9 2321.08 483.720   9
  -9  -8 -10-64.2948 340.936   4
   9   8  10-372.284 292.888   6
   9   8  10 415.516 306.430   9
  -9  -8 -11 674.125 371.129   4
   9   8  11 1220.27 373.939   6
   9   8  11 1138.54 335.653   9
   9   8  12 4553.24 573.664   9
  -9  -9   2 266.191 299.254   8
   9   9  -1 4908.42 613.688   1
   9   9   0 12336.6 895.091   1
   9   9   0 13813.5 1100.20   9
   9   9   1 19669.2 1314.00   9
  -9  -9  -1 18878.3 1052.61   4
   9   9   2 20538.9 1349.09   9
  -9  -9  -2 20253.2 1140.16   4
  -9  -9  -3 2930.18 469.437   4
   9   9   3 3795.20 611.267   9
  -9  -9  -4-194.064 242.984   4
  -9  -9  -4-181.493 236.694   2
   9   9   4-229.198 296.661   9
  -9  -9  -5 4569.37 628.502   4
  -9  -9  -5 2874.92 474.148   2
   9   9   5 4452.62 636.887   9
  -9  -9  -6 13020.6 990.510   2
   9   9   6 12729.9 857.421   6
   9   9   6 14860.6 1106.71   9
  -9  -9  -6 12577.7 1030.79   4
  -9  -9  -7 14674.8 1062.30   2
   9   9   7 14075.9 941.791   6
   9   9   7 15393.8 1119.31   9
  -9  -9  -7 14412.7 1129.00   4
   9   9   8 14360.4 965.231   6
   9   9   8 13934.9 1052.64   9
  -9  -9  -8 13656.3 1124.90   4
  -9  -9  -8 13534.5 1022.95   2
  -9  -9  -9 6126.90 773.760   4
   9   9   9 7009.46 701.574   6
  -9  -9  -9 6591.78 717.662   2
   9   9   9 6864.87 740.677   9
  -9  -9 -10 338.053 366.181   4
  -9  -9 -10 350.655 274.817   2
   9   9  10 526.904 300.205   6
   9   9  10 321.277 257.610   9
  -9  -9 -11 1016.62 310.180   2
  -9  -9 -12 4773.22 654.038   2
  -9 -10  -1 11102.0 806.016   4
  -9 -10  -2 11404.4 854.720   4
  -9 -10  -3 4257.81 549.679   4
  -9 -10  -3 4894.97 594.379   2
  -9 -10  -4-158.272 263.676   4
  -9 -10  -4 152.725 230.017   2
   9  10   4 242.727 325.063   9
  -9 -10  -5 3484.06 546.529   4
  -9 -10  -5 3369.97 523.996   2
   9  10   5 3128.14 564.202   9
  -9 -10  -6 10965.9 933.494   2
   9  10   6 10467.2 761.301   6
   9  10   6 12334.2 1040.53   9
  -9 -10  -6 10559.3 955.569   4
  -9 -10  -7 16422.5 1185.21   2
   9  10   7 17150.1 1019.18   6
  -9 -10  -7 16088.1 1219.16   4
  -9 -10  -8 9033.53 859.732   2
   9  10   8 8931.98 763.411   6
  -9 -10  -8 9248.04 957.664   4
  -9 -10  -9 4672.44 739.727   4
   9  10   9 4674.71 588.530   6
  -9 -10  -9 4459.70 621.562   2
   9  10  10-18.2585 243.917   6
  -9 -10 -10 22.3591 246.795   2
  -9 -10 -11 829.303 341.887   2
  -9 -11  -2 5331.83 591.160   4
  -9 -11  -2 6703.01 696.342   2
  -9 -11  -3 4159.69 595.673   4
  -9 -11  -3 5079.22 624.604   2
  -9 -11  -4 850.790 352.822   4
  -9 -11  -4 52.8820 274.564   2
  -9 -11  -5 1057.35 389.644   4
  -9 -11  -5 146.892 218.250   2
  -9 -11  -6 3667.32 586.974   4
   9  11   6 3544.80 449.124   6
  -9 -11  -6 3706.46 543.993   2
  -9 -11  -7 8847.71 907.517   4
   9  11   7 9776.39 757.165   6
  -9 -11  -7 8174.79 845.526   2
   9  11   8 6364.50 633.192   6
  -9 -11  -8 5917.50 745.852   2
   9  11   9 3156.91 481.795   6
  -9 -11  -9 3905.81 604.496   2
  -9 -11 -10 448.882 296.897   2
  -9 -12  -3 5361.55 639.936   4
  -9 -12  -3 5684.93 667.072   2
  -9 -12  -4 1805.41 430.351   4
  -9 -12  -4 2001.77 421.876   2
  -9 -12  -5-55.7410 287.063   2
  -9 -12  -6 3121.06 588.139   2
  -9 -12  -7 6577.93 776.820   2
   9  12   8 9240.59 760.302   6
  -9 -12  -8 10617.0 995.193   2
  10  -1   2 2899.67 516.990   1
  10  -1   3 3407.55 535.974   1
  10  -1   4 4773.45 601.250   1
  10  -1   5 2359.79 446.021   1
 -10   0   1 5183.38 610.463   4
 -10   0   0 851.791 328.242   4
  10   0   0 722.136 365.997   1
 -10   0  -1 1016.67 344.679   4
  10   0   1 759.375 349.142   1
 -10   0  -2 4260.48 607.023   4
  10   0   2 4255.74 586.300   1
  10   0   3 11564.5 892.479   1
 -10   0  -3 13051.1 1038.15   4
  10   0   4 9552.68 773.591   1
 -10   0  -4 9337.68 888.080   4
  10   0   5 5166.46 572.777   1
 -10  -1   1 1510.41 349.438   4
  10   1  -1 792.052 388.886   9
 -10  -1   0 2348.90 439.912   4
  10   1   0 1733.18 431.445   1
  10   1   0 1372.53 419.578   9
 -10  -1  -1 424.060 253.128   4
  10   1   1 438.450 321.116   1
  10   1   1 676.368 378.670   9
 -10  -1  -2 6529.67 717.705   4
  10   1   2 6988.63 705.911   1
  10   1   2 7075.72 817.747   9
  10   1   3 5751.74 609.717   1
 -10  -1  -3 7489.67 802.918   4
  10   1   3 6901.47 797.226   9
  10   1   4 19460.9 1284.61   9
 -10  -1  -4 17312.8 1213.64   4
 -10  -1  -5 4808.03 682.870   4
  10   1   5 5334.38 563.613   1
  10   1   5 5094.40 683.949   9
 -10  -1  -6 1769.95 480.344   4
  10   1   6 1136.17 383.917   9
  10   1   7 9.44462 276.300   9
  10   2  -2 6929.26 784.591   9
 -10  -2   1 7313.58 684.497   4
  10   2  -1 6751.40 740.056   1
  10   2  -1 6646.91 752.795   9
 -10  -2   0 197.371 239.099   4
  10   2   0 401.612 305.570   1
  10   2   0 43.2346 286.211   9
 -10  -2  -1-129.153 270.919   4
  10   2   1 307.136 264.234   1
  10   2   1 42.2343 295.286   9
 -10  -2  -2 4128.30 584.687   4
  10   2   2 3187.82 492.643   1
  10   2   2 4565.83 657.962   9
  10   2   3 9305.14 747.910   1
  10   2   3 11949.8 998.995   9
 -10  -2  -3 9696.95 872.591   4
 -10  -2  -4 5254.48 674.988   4
  10   2   4 4830.53 523.154   1
  10   2   4 5227.79 704.383   9
 -10  -2  -5 5164.08 701.886   4
  10   2   5 6342.26 752.761   9
 -10  -2  -6 518.666 355.731   4
  10   2   6 835.724 377.174   9
 -10  -2  -7 474.816 303.784   4
  10   2   7 487.093 331.779   9
  10   2   8 153.942 250.317   9
  10   3  -3 4038.43 620.208   9
  10   3  -2 7478.34 806.250   9
 -10  -3   1 5013.52 553.303   4
  10   3  -1 3797.73 588.122   1
  10   3  -1 4312.49 645.665   9
 -10  -3   0 664.141 300.729   4
  10   3   0 1378.06 357.637   1
  10   3   0 763.011 353.581   9
 -10  -3  -1 144.442 262.692   4
  10   3   1 150.862 258.004   1
  10   3   1-279.921 325.335   9
 -10  -3  -2 2944.78 481.383   4
  10   3   2 3256.37 472.607   1
  10   3   2 2881.68 536.545   9
  10   3   3 5835.52 569.221   1
 -10  -3  -3 6992.07 745.028   4
  10   3   3 6477.21 752.009   9
  10   3   4 8254.43 657.696   1
  10   3   4 9504.87 885.079   9
 -10  -3  -4 10195.8 900.433   4
 -10  -3  -5 7096.67 772.757   4
  10   3   5 7514.85 787.931   9
 -10  -3  -6 2198.11 493.251   4
  10   3   6 2831.30 528.467   9
 -10  -3  -7 180.170 255.418   4
  10   3   7 172.288 279.021   9
 -10  -3  -8 2169.00 517.296   4
  10   3   8 1933.47 457.037   9
  10   3   9 2193.59 457.609   9
  10   3  10 8210.50 763.004   9
  10   4  -3 5219.09 723.441   9
  10   4  -2 7602.75 810.752   9
  10   4  -1 6759.15 720.717   1
 -10  -4   1 8136.62 1031.76   8
  10   4  -1 6630.72 776.665   9
  10   4   0 1631.39 384.253   1
 -10  -4   0 740.125 278.736   4
  10   4   0 1086.23 371.701   9
  10   4   1-18.2299 227.493   1
 -10  -4  -1-185.644 243.643   4
  10   4   1 398.121 334.807   9
  10   4   2 2241.41 397.532   1
 -10  -4  -2 2149.96 420.527   4
  10   4   2 2195.17 499.299   9
  10   4   3 11103.3 776.005   1
  10   4   3 11849.8 1011.39   9
 -10  -4  -3 12841.1 967.263   4
  10   4   4 9334.61 670.039   1
  10   4   4 9600.64 905.294   9
 -10  -4  -4 9469.88 856.511   4
  10   4   5 12435.3 1012.80   9
 -10  -4  -5 11501.0 976.851   4
 -10  -4  -6 3580.00 595.135   4
  10   4   6 3270.62 530.392   9
 -10  -4  -7-170.781 319.931   4
  10   4   7-319.513 287.360   9
 -10  -4  -8 3148.86 567.838   4
  10   4   8 3742.49 576.239   9
 -10  -4  -9 4264.69 661.342   4
  10   4   9 3988.59 572.362   9
  10   4  10 6960.69 717.703   9
  10   5  -3 7925.55 873.942   9
  10   5  -2 8692.31 884.917   9
 -10  -5   1 5843.33 856.810   8
  10   5  -1 7934.48 813.808   9
  10   5  -1 7806.50 744.638   1
 -10  -5   0 4769.38 545.237   4
 -10  -5   0 2671.76 602.937   8
  10   5   0 4380.10 652.383   9
  10   5   0 3470.06 523.889   1
 -10  -5  -1 256.118 224.495   4
  10   5   1 44.2399 311.035   9
  10   5   1 237.286 237.959   1
 -10  -5  -2 3842.92 537.661   4
  10   5   2 3626.90 604.511   9
  10   5   2 2652.17 413.778   1
  10   5   3 11285.8 993.804   9
 -10  -5  -3 10657.1 866.955   4
  10   5   3 10144.7 736.193   1
  10   5   4 19626.5 1291.24   9
 -10  -5  -4 19272.0 1206.19   4
  10   5   4 16568.8 894.083   1
  10   5   5 9427.87 889.910   9
 -10  -5  -5 10021.6 900.553   4
 -10  -5  -6 6367.28 741.114   4
  10   5   6 6448.38 750.430   9
 -10  -5  -7-390.227 251.030   4
  10   5   7 155.251 268.835   9
 -10  -5  -8 3617.04 618.814   4
  10   5   8 2466.65 496.613   9
  10   5   9 8889.75 824.464   9
 -10  -5  -9 9062.99 927.018   4
  10   5  10 10100.2 844.549   9
  10   6  -2 9805.57 921.644   9
 -10  -6   1 6187.82 861.260   8
  10   6  -1 5966.41 668.265   1
  10   6  -1 7253.25 828.726   9
 -10  -6   0 3745.38 484.178   4
 -10  -6   0 3963.04 673.341   8
  10   6   0 3640.71 530.118   1
  10   6   0 4230.16 643.576   9
 -10  -6  -1 3.91059 221.064   4
 -10  -6  -1-298.383 349.583   8
  10   6   1 285.244 224.417   1
  10   6   1-38.7857 303.199   9
 -10  -6  -2 4278.21 552.901   4
 -10  -6  -2 3227.11 642.634   8
  10   6   2 2203.16 389.329   1
  10   6   2 3227.65 562.130   9
  10   6   3 8372.94 862.626   9
 -10  -6  -3 9133.45 830.017   4
  10   6   3 7971.16 638.980   1
  10   6   4 9990.94 918.024   9
 -10  -6  -4 10713.4 897.824   4
 -10  -6  -5 5952.87 704.715   4
  10   6   5 6325.57 743.918   9
 -10  -6  -6 2079.38 460.561   4
  10   6   6 2988.62 536.678   9
 -10  -6  -7-146.020 251.784   4
  10   6   7 131.320 283.647   9
 -10  -6  -8 2295.35 491.434   4
  10   6   8 2337.14 503.432   9
 -10  -6  -9 5233.31 735.003   4
  10   6   9 5686.16 673.919   9
  10   6  10 7342.97 737.545   9
 -10  -7   1 7324.31 894.017   8
  10   7  -1 7261.61 714.189   1
  10   7  -1 8302.67 867.266   9
 -10  -7   0 1243.64 414.015   8
  10   7   0 1845.71 386.461   1
  10   7   0 1262.94 399.738   9
 -10  -7  -1 224.189 211.038   4
 -10  -7  -1 351.013 325.878   8
  10   7   1 259.706 213.382   1
  10   7   1 73.2564 307.479   9
 -10  -7  -2 1196.86 338.795   4
 -10  -7  -2 220.691 308.167   8
  10   7   2 1035.84 279.869   1
  10   7   2 923.252 373.624   9
 -10  -7  -3 6689.91 694.618   4
 -10  -7  -3 5196.98 731.981   8
  10   7   3 5585.27 541.027   1
  10   7   3 6506.21 778.865   9
  10   7   4 12301.0 1041.05   9
 -10  -7  -4 11208.2 916.159   4
 -10  -7  -5 6756.70 737.591   4
  10   7   5 9185.85 889.794   9
 -10  -7  -6 3249.66 562.036   4
  10   7   6 2872.11 563.959   9
 -10  -7  -7-237.749 321.692   4
  10   7   7-74.4064 269.033   9
 -10  -7  -8 142.001 283.068   4
  10   7   8 333.477 264.450   9
  10   7   9 4719.76 594.241   6
  10   7   9 4115.20 600.145   9
  10   7  10 3071.11 500.900   9
 -10  -8   0 2699.18 537.816   8
  10   8   0 2499.49 455.847   1
 -10  -8  -1 575.137 272.907   4
  10   8   1 480.203 268.747   1
  10   8   1 333.862 287.427   9
 -10  -8  -2 1999.77 409.276   4
  10   8   2 1060.31 282.926   1
  10   8   2 2180.05 508.093   9
 -10  -8  -3 640.294 309.662   4
  10   8   3 901.047 380.109   9
  10   8   4 13596.7 1095.22   9
 -10  -8  -4 12721.3 981.479   4
  10   8   5 11164.3 1006.49   9
 -10  -8  -5 10715.2 920.524   4
 -10  -8  -6 7878.78 820.225   4
  10   8   6 6350.51 771.029   9
 -10  -8  -7 1450.36 418.623   4
  10   8   7 807.084 352.794   9
 -10  -8  -8 874.373 413.799   4
  10   8   8 432.379 297.927   6
  10   8   8 307.394 285.835   9
  10   9   0 5404.56 624.129   1
  10   9   1 228.593 239.426   1
 -10  -9  -2 127.219 251.357   4
 -10  -9  -3 13807.5 979.603   4
 -10  -9  -4 3775.43 555.586   4
 -10  -9  -5 14610.0 1089.11   4
 -10  -9  -6 4083.35 638.124   4
 -10  -9  -7 29.5013 294.767   4
  10   9   8 1312.76 356.977   6
 -10 -10  -3 5554.40 653.083   4
 -10 -10  -4 13441.6 1010.45   4
 -10 -10  -5 7393.97 784.247   4
  10  10   7 1314.81 357.998   6
  11   3   2 3958.98 538.661   1
  11   4   2 4766.18 582.198   1
 -11  -4  -2 4363.89 602.358   4
 -11  -5  -2 6316.53 708.697   4
  11   5   2 6014.45 614.981   1
 -11  -5  -3 3512.49 537.444   4
 -11  -6  -2 7218.07 727.494   4
 -11  -6  -2 6292.10 888.091   8
 -11  -6  -3 2138.60 437.216   4
   0   0   0    0.00    0.00   0
;
_shelx_hkl_checksum              67177
_shelx_shelxl_version_number     2014/7
loop_
_space_group_symop_operation_xyz
'x, y, z'
'-x, -y, -z'
loop_
_atom_site_label
_atom_site_type_symbol
_atom_site_fract_x
_atom_site_fract_y
_atom_site_fract_z
_atom_site_U_iso_or_equiv
_atom_site_adp_type
_atom_site_occupancy
_atom_site_site_symmetry_order
_atom_site_calc_flag
_atom_site_refinement_flags_posn
Au1 Au 0.72158(2) 0.99061(2) 0.58140(2) 0.02453(3) Uani 1 1 d .
Cl1 Cl 0.70473(11) 1.22804(7) 0.58869(6) 0.03329(13) Uani 1 1 d .
O1 O 0.8510(2) 0.43741(18) 0.87984(15) 0.0239(3) Uani 1 1 d .
N1 N 0.7713(3) 0.7206(2) 0.47834(19) 0.0263(4) Uani 1 1 d .
N2 N 0.6970(3) 0.6768(2) 0.68219(18) 0.0224(4) Uani 1 1 d .
C1 C 0.7310(3) 0.7848(3) 0.5804(2) 0.0236(4) Uani 1 1 d .
C2 C 0.7612(4) 0.5762(3) 0.5149(2) 0.0294(5) Uani 1 1 d .
H2 H 0.7819 0.5106 0.4612 0.035 Uiso 1 1 calc R
C3 C 0.7161(4) 0.5479(3) 0.6415(2) 0.0265(5) Uani 1 1 d .
H3 H 0.7005 0.4589 0.6927 0.032 Uiso 1 1 calc R
C4 C 0.8181(4) 0.7934(3) 0.3472(2) 0.0339(5) Uani 1 1 d .
H4A H 0.9486 0.7411 0.3081 0.051 Uiso 1 1 calc GR
H4B H 0.8108 0.8946 0.3448 0.051 Uiso 1 1 calc GR
H4C H 0.7258 0.7925 0.3021 0.051 Uiso 1 1 calc GR
C5 C 0.6460(3) 0.6918(3) 0.8119(2) 0.0223(4) Uani 1 1 d .
C6 C 0.5142(4) 0.8199(3) 0.8538(2) 0.0270(5) Uani 1 1 d .
H6 H 0.4580 0.9001 0.7958 0.032 Uiso 1 1 calc R
C7 C 0.4648(4) 0.8297(3) 0.9827(3) 0.0310(5) Uani 1 1 d .
H7 H 0.3784 0.9177 1.0083 0.037 Uiso 1 1 calc R
C8 C 0.5407(4) 0.7125(3) 1.0729(2) 0.0286(5) Uani 1 1 d .
H8 H 0.5065 0.7206 1.1581 0.034 Uiso 1 1 calc R
C9 C 0.6699(4) 0.5818(3) 1.0326(2) 0.0250(4) Uani 1 1 d .
C10 C 0.7217(3) 0.5739(3) 0.9031(2) 0.0218(4) Uani 1 1 d .
C11 C 0.8800(3) 0.3547(3) 0.9983(2) 0.0245(4) Uani 1 1 d .
C12 C 0.7743(3) 0.4368(3) 1.0946(2) 0.0249(4) Uani 1 1 d .
C13 C 0.7845(4) 0.3678(3) 1.2207(2) 0.0316(5) Uani 1 1 d .
H13 H 0.7154 0.4195 1.2872 0.038 Uiso 1 1 calc R
C14 C 0.8984(4) 0.2225(3) 1.2436(2) 0.0348(6) Uani 1 1 d .
H14 H 0.9062 0.1756 1.3267 0.042 Uiso 1 1 calc R
C15 C 1.0036(4) 0.1429(3) 1.1446(3) 0.0349(6) Uani 1 1 d .
H15 H 1.0800 0.0445 1.1632 0.042 Uiso 1 1 calc R
C16 C 0.9957(4) 0.2084(3) 1.0195(2) 0.0299(5) Uani 1 1 d .
H16 H 1.0648 0.1565 0.9531 0.036 Uiso 1 1 calc R
loop_
_atom_site_aniso_label
_atom_site_aniso_U_11
_atom_site_aniso_U_22
_atom_site_aniso_U_33
_atom_site_aniso_U_23
_atom_site_aniso_U_13
_atom_site_aniso_U_12
Au1 0.02963(5) 0.01863(5) 0.02367(5) -0.00123(3) -0.00466(3) -0.00775(3)
Cl1 0.0485(4) 0.0221(3) 0.0311(3) -0.0082(2) -0.0008(3) -0.0162(3)
O1 0.0279(8) 0.0206(7) 0.0196(7) -0.0020(6) -0.0045(6) -0.0043(6)
N1 0.0316(11) 0.0237(9) 0.0228(9) -0.0028(7) -0.0080(8) -0.0062(8)
N2 0.0252(9) 0.0170(8) 0.0233(9) -0.0024(7) -0.0045(7) -0.0055(7)
C1 0.0225(11) 0.0224(10) 0.0235(10) -0.0015(8) -0.0049(8) -0.0055(9)
C2 0.0365(13) 0.0238(11) 0.0296(12) -0.0071(9) -0.0095(10) -0.0072(10)
C3 0.0320(12) 0.0187(10) 0.0305(12) -0.0040(9) -0.0093(9) -0.0077(9)
C4 0.0398(15) 0.0339(13) 0.0217(11) 0.0002(10) -0.0061(10) -0.0074(11)
C5 0.0221(10) 0.0206(10) 0.0243(10) -0.0040(8) -0.0021(8) -0.0085(8)
C6 0.0250(11) 0.0208(10) 0.0322(12) -0.0044(9) -0.0023(9) -0.0063(9)
C7 0.0272(12) 0.0258(12) 0.0374(13) -0.0136(10) 0.0041(10) -0.0077(10)
C8 0.0282(12) 0.0331(12) 0.0259(11) -0.0125(10) 0.0037(9) -0.0131(10)
C9 0.0257(11) 0.0305(12) 0.0213(10) -0.0048(9) -0.0020(8) -0.0133(9)
C10 0.0217(10) 0.0202(10) 0.0229(10) -0.0047(8) -0.0009(8) -0.0077(8)
C11 0.0246(11) 0.0278(11) 0.0209(10) 0.0010(8) -0.0050(8) -0.0113(9)
C12 0.0233(11) 0.0304(12) 0.0232(10) -0.0032(9) -0.0038(8) -0.0126(9)
C13 0.0283(12) 0.0483(16) 0.0209(11) -0.0053(10) -0.0043(9) -0.0161(12)
C14 0.0288(13) 0.0497(16) 0.0233(11) 0.0063(11) -0.0091(9) -0.0149(12)
C15 0.0270(12) 0.0359(14) 0.0337(13) 0.0078(11) -0.0099(10) -0.0067(11)
C16 0.0282(12) 0.0292(12) 0.0271(12) -0.0015(9) -0.0044(9) -0.0059(10)
loop_
_atom_type_symbol
_atom_type_description
_atom_type_scat_dispersion_real
_atom_type_scat_dispersion_imag
_atom_type_scat_source
C C 0.0033 0.0016 'International Tables Vol C Tables 4.2.6.8 and 6.1.1.4'
H H 0.0000 0.0000 'International Tables Vol C Tables 4.2.6.8 and 6.1.1.4'
Au Au -2.0133 8.8022 'International Tables Vol C Tables 4.2.6.8 and 6.1.1.4'
Cl Cl 0.1484 0.1585 'International Tables Vol C Tables 4.2.6.8 and 6.1.1.4'
N N 0.0061 0.0033 'International Tables Vol C Tables 4.2.6.8 and 6.1.1.4'
O O 0.0106 0.0060 'International Tables Vol C Tables 4.2.6.8 and 6.1.1.4'
loop_
_exptl_crystal_face_index_h
_exptl_crystal_face_index_k
_exptl_crystal_face_index_l
_exptl_crystal_face_perp_dist
_exptl_oxdiff_crystal_face_indexfrac_h
_exptl_oxdiff_crystal_face_indexfrac_k
_exptl_oxdiff_crystal_face_indexfrac_l
_exptl_oxdiff_crystal_face_x
_exptl_oxdiff_crystal_face_y
_exptl_oxdiff_crystal_face_z
-1 -1 0 0.0508 -0.9989 -0.9991 0.0001 0.0165 -0.0078 -0.1089
-1 0 -1 0.1026 -0.9988 -0.0002 -0.9991 -0.0125 -0.0990 -0.0497
1 0 1 0.1141 0.9988 0.0002 0.9991 0.0125 0.0990 0.0497
2 1 1 0.0557 1.9977 0.9993 0.9990 -0.0040 0.1068 0.1586
1 3 -1 0.0720 0.9989 2.9971 -0.9996 -0.0172 -0.1431 0.2116
0 2 3 0.0173 -0.0003 1.9982 2.9965 0.2284 -0.0249 0.0394
0 -2 -3 0.0163 0.0003 -1.9982 -2.9965 -0.2284 0.0249 -0.0394
loop_
_geom_angle_atom_site_label_1
_geom_angle_atom_site_label_2
_geom_angle_atom_site_label_3
_geom_angle
C1 Au1 Cl1 178.23(7)
C10 O1 C11 105.20(17)
C1 N1 C2 110.9(2)
C1 N1 C4 124.9(2)
C2 N1 C4 124.3(2)
C1 N2 C3 110.20(19)
C1 N2 C5 125.92(19)
C3 N2 C5 123.87(19)
N1 C1 Au1 127.43(17)
N1 C1 N2 104.7(2)
N2 C1 Au1 127.88(17)
N1 C2 H2 126.3
C3 C2 N1 107.3(2)
C3 C2 H2 126.3
N2 C3 H3 126.6
C2 C3 N2 106.9(2)
C2 C3 H3 126.6
N1 C4 H4A 109.5
N1 C4 H4B 109.5
N1 C4 H4C 109.5
H4A C4 H4B 109.5
H4A C4 H4C 109.5
H4B C4 H4C 109.5
C6 C5 N2 122.2(2)
C6 C5 C10 117.3(2)
C10 C5 N2 120.5(2)
C5 C6 H6 119.7
C5 C6 C7 120.6(2)
C7 C6 H6 119.7
C6 C7 H7 119.1
C8 C7 C6 121.9(2)
C8 C7 H7 119.1
C7 C8 H8 120.9
C7 C8 C9 118.1(2)
C9 C8 H8 120.9
C8 C9 C10 119.6(2)
C8 C9 C12 135.2(2)
C10 C9 C12 105.2(2)
O1 C10 C5 125.5(2)
O1 C10 C9 112.1(2)
C5 C10 C9 122.4(2)
O1 C11 C12 111.6(2)
C16 C11 O1 124.7(2)
C16 C11 C12 123.7(2)
C11 C12 C9 105.9(2)
C11 C12 C13 118.7(2)
C13 C12 C9 135.4(2)
C12 C13 H13 120.7
C14 C13 C12 118.5(2)
C14 C13 H13 120.7
C13 C14 H14 119.2
C13 C14 C15 121.5(2)
C15 C14 H14 119.2
C14 C15 H15 119.5
C16 C15 C14 121.1(3)
C16 C15 H15 119.5
C11 C16 C15 116.6(2)
C11 C16 H16 121.7
C15 C16 H16 121.7
loop_
_geom_bond_atom_site_label_1
_geom_bond_atom_site_label_2
_geom_bond_distance
Au1 Cl1 2.2884(6)
Au1 C1 1.980(2)
O1 C10 1.378(3)
O1 C11 1.389(3)
N1 C1 1.350(3)
N1 C2 1.379(3)
N1 C4 1.454(3)
N2 C1 1.365(3)
N2 C3 1.389(3)
N2 C5 1.422(3)
C2 H2 0.9300
C2 C3 1.334(3)
C3 H3 0.9300
C4 H4A 0.9600
C4 H4B 0.9600
C4 H4C 0.9600
C5 C6 1.386(3)
C5 C10 1.390(3)
C6 H6 0.9300
C6 C7 1.401(4)
C7 H7 0.9300
C7 C8 1.380(4)
C8 H8 0.9300
C8 C9 1.393(3)
C9 C10 1.401(3)
C9 C12 1.449(4)
C11 C12 1.393(3)
C11 C16 1.380(3)
C12 C13 1.404(3)
C13 H13 0.9300
C13 C14 1.370(4)
C14 H14 0.9300
C14 C15 1.402(4)
C15 H15 0.9300
C15 C16 1.385(4)
C16 H16 0.9300
loop_
_geom_torsion_atom_site_label_1
_geom_torsion_atom_site_label_2
_geom_torsion_atom_site_label_3
_geom_torsion_atom_site_label_4
_geom_torsion
O1 C11 C12 C9 0.4(3)
O1 C11 C12 C13 178.6(2)
O1 C11 C16 C15 -178.6(2)
N1 C2 C3 N2 0.5(3)
N2 C5 C6 C7 178.8(2)
N2 C5 C10 O1 1.4(3)
N2 C5 C10 C9 -177.6(2)
C1 N1 C2 C3 -0.7(3)
C1 N2 C3 C2 -0.2(3)
C1 N2 C5 C6 41.0(3)
C1 N2 C5 C10 -141.8(2)
C2 N1 C1 Au1 -179.04(18)
C2 N1 C1 N2 0.5(3)
C3 N2 C1 Au1 179.37(17)
C3 N2 C1 N1 -0.2(3)
C3 N2 C5 C6 -137.9(2)
C3 N2 C5 C10 39.2(3)
C4 N1 C1 Au1 0.6(4)
C4 N1 C1 N2 -179.8(2)
C4 N1 C2 C3 179.6(2)
C5 N2 C1 Au1 0.3(3)
C5 N2 C1 N1 -179.2(2)
C5 N2 C3 C2 178.9(2)
C5 C6 C7 C8 -1.5(4)
C6 C5 C10 O1 178.7(2)
C6 C5 C10 C9 -0.3(3)
C6 C7 C8 C9 0.0(4)
C7 C8 C9 C10 1.3(3)
C7 C8 C9 C12 -178.0(3)
C8 C9 C10 O1 179.7(2)
C8 C9 C10 C5 -1.2(3)
C8 C9 C12 C11 179.6(3)
C8 C9 C12 C13 1.8(5)
C9 C12 C13 C14 177.7(3)
C10 O1 C11 C12 -0.8(2)
C10 O1 C11 C16 178.0(2)
C10 C5 C6 C7 1.6(3)
C10 C9 C12 C11 0.3(3)
C10 C9 C12 C13 -177.6(2)
C11 O1 C10 C5 -178.1(2)
C11 O1 C10 C9 1.0(2)
C11 C12 C13 C14 0.1(3)
C12 C9 C10 O1 -0.8(3)
C12 C9 C10 C5 178.3(2)
C12 C11 C16 C15 0.1(4)
C12 C13 C14 C15 0.1(4)
C13 C14 C15 C16 -0.2(4)
C14 C15 C16 C11 0.1(4)
C16 C11 C12 C9 -178.5(2)
C16 C11 C12 C13 -0.2(4)
