#------------------------------------------------------------------------------
#$Date: 2019-11-24 04:26:39 +0200 (Sun, 24 Nov 2019) $
#$Revision: 236695 $
#$URL: file:///home/coder/svn-repositories/cod/cif/7/23/69/7236991.cif $
#------------------------------------------------------------------------------
#
# This file is available in the Crystallography Open Database (COD),
# http://www.crystallography.net/
#
# All data on this site have been placed in the public domain by the
# contributors.
#
data_7236991
loop_
_publ_author_name
'Wei, Fengxia'
'Brivio, Federico'
'Wu, Yue'
'Sun, Shijing'
'Bristowe, Paul D.'
'Cheetham, Anthony K.'
_publ_section_title
;
 Synthesis, crystal structure, magnetic and electronic properties of the
 caesium-based transition metal halide Cs3Fe2Br9
;
_journal_issue                   14
_journal_name_full               'Journal of Materials Chemistry C'
_journal_page_first              3573
_journal_paper_doi               10.1039/C7TC04798C
_journal_volume                  6
_journal_year                    2018
_chemical_formula_moiety         'Br9 Cs3 Fe2'
_chemical_formula_sum            'Br9 Cs3 Fe2'
_chemical_formula_weight         1229.62
_space_group_crystal_system      hexagonal
_space_group_IT_number           194
_space_group_name_Hall           '-P 6c 2c'
_space_group_name_H-M_alt        'P 63/m m c'
_atom_sites_solution_primary     direct
_audit_creation_date             2017-05-24
_audit_creation_method
;
Olex2 1.2
(compiled 2017.03.28 svn.r3405 for OlexSys, GUI svn.r5337)
;
_audit_update_record
;
2017-09-16 deposited with the CCDC.
2017-11-13 downloaded from the CCDC.
;
_cell_angle_alpha                90
_cell_angle_beta                 90
_cell_angle_gamma                120
_cell_formula_units_Z            2
_cell_length_a                   7.5427(8)
_cell_length_b                   7.5427(8)
_cell_length_c                   18.5849(13)
_cell_measurement_reflns_used    772
_cell_measurement_temperature    298.6(3)
_cell_measurement_theta_max      27.6080
_cell_measurement_theta_min      2.1760
_cell_volume                     915.68(15)
_computing_cell_refinement
;
CrysAlisPro, Agilent Technologies,
Version 1.171.37.34i (release 04-08-2014 CrysAlis171 .NET)
(compiled Aug  4 2014,14:34:23)
;
_computing_data_collection
;
CrysAlisPro, Agilent Technologies,
Version 1.171.37.34i (release 04-08-2014 CrysAlis171 .NET)
(compiled Aug  4 2014,14:34:23)
;
_computing_data_reduction
;
CrysAlisPro, Agilent Technologies,
Version 1.171.37.34i (release 04-08-2014 CrysAlis171 .NET)
(compiled Aug  4 2014,14:34:23)
;
_computing_molecular_graphics    'Olex2 (Dolomanov et al., 2009)'
_computing_publication_material  'Olex2 (Dolomanov et al., 2009)'
_computing_structure_refinement  'ShelXL (Sheldrick, 2015)'
_computing_structure_solution    'ShelXS (Sheldrick, 2008)'
_diffrn_ambient_environment      air
_diffrn_ambient_temperature      298.6(3)
_diffrn_detector                 'CCD plate'
_diffrn_detector_area_resol_mean 16.1183
_diffrn_detector_type            Eos
_diffrn_measured_fraction_theta_full 1.000
_diffrn_measured_fraction_theta_max 0.966
_diffrn_measurement_details
;
#__ type_ start__ end____ width___ exp.time_
  1 omega -109.00   58.00   1.0000   17.6950
omega____ theta____ kappa____ phi______ frames
    -      -27.2013   19.0000   30.0000 167

#__ type_ start__ end____ width___ exp.time_
  2 omega -110.00  -32.00   1.0000   17.6950
omega____ theta____ kappa____ phi______ frames
    -      -27.2013  -77.0000  -30.0000 78
;
_diffrn_measurement_device       'four-circle diffractometer'
_diffrn_measurement_device_type  'Xcalibur, Eos, Gemini ultra'
_diffrn_measurement_method       '\w scans'
_diffrn_orient_matrix_UB_11      -0.0893092000
_diffrn_orient_matrix_UB_12      -0.0978451000
_diffrn_orient_matrix_UB_13      0.0028538000
_diffrn_orient_matrix_UB_21      0.0237792000
_diffrn_orient_matrix_UB_22      -0.0292256000
_diffrn_orient_matrix_UB_23      -0.0332307000
_diffrn_orient_matrix_UB_31      0.0571090000
_diffrn_orient_matrix_UB_32      -0.0372359000
_diffrn_orient_matrix_UB_33      0.0184898000
_diffrn_radiation_monochromator  graphite
_diffrn_radiation_probe          x-ray
_diffrn_radiation_type           MoK\a
_diffrn_radiation_wavelength     0.71073
_diffrn_reflns_av_R_equivalents  0.0357
_diffrn_reflns_av_unetI/netI     0.0198
_diffrn_reflns_Laue_measured_fraction_full 1.000
_diffrn_reflns_Laue_measured_fraction_max 0.966
_diffrn_reflns_limit_h_max       8
_diffrn_reflns_limit_h_min       -7
_diffrn_reflns_limit_k_max       8
_diffrn_reflns_limit_k_min       -9
_diffrn_reflns_limit_l_max       24
_diffrn_reflns_limit_l_min       -23
_diffrn_reflns_number            3202
_diffrn_reflns_point_group_measured_fraction_full 1.000
_diffrn_reflns_point_group_measured_fraction_max 0.966
_diffrn_reflns_theta_full        25.242
_diffrn_reflns_theta_max         28.180
_diffrn_reflns_theta_min         2.192
_diffrn_source                   'Enhance (Mo) X-ray Source'
_exptl_absorpt_coefficient_mu    27.066
_exptl_absorpt_correction_T_max  0.039
_exptl_absorpt_correction_T_min  0.008
_exptl_absorpt_correction_type   analytical
_exptl_absorpt_process_details
;
CrysAlisPro, Agilent Technologies,
Version 1.171.37.34i (release 04-08-2014 CrysAlis171 .NET)
(compiled Aug  4 2014,14:34:23)
Analytical numeric absorption correction using a multifaceted crystal
			model based on expressions derived by R.C. Clark & J.S. Reid.
(Clark, R. C. & Reid, J. S. (1995). Acta Cryst. A51, 887-897)
Empirical absorption correction using spherical harmonics,
 implemented in SCALE3 ABSPACK scaling algorithm.
;
_exptl_crystal_colour            black
_exptl_crystal_colour_primary    black
_exptl_crystal_density_diffrn    4.460
_exptl_crystal_description       ribbon
_exptl_crystal_F_000             1064
_exptl_crystal_size_max          0.2595
_exptl_crystal_size_mid          0.2451
_exptl_crystal_size_min          0.1889
_refine_diff_density_max         0.988
_refine_diff_density_min         -1.822
_refine_diff_density_rms         0.255
_refine_ls_extinction_coef       0.0020(5)
_refine_ls_extinction_expression Fc^*^=kFc[1+0.001xFc^2^\l^3^/sin(2\q)]^-1/4^
_refine_ls_extinction_method     'SHELXL-2014/7 (Sheldrick 2014'
_refine_ls_goodness_of_fit_ref   1.172
_refine_ls_hydrogen_treatment    undef
_refine_ls_matrix_type           full
_refine_ls_number_parameters     20
_refine_ls_number_reflns         460
_refine_ls_number_restraints     0
_refine_ls_restrained_S_all      1.172
_refine_ls_R_factor_all          0.0573
_refine_ls_R_factor_gt           0.0445
_refine_ls_shift/su_max          0.000
_refine_ls_shift/su_mean         0.000
_refine_ls_structure_factor_coef Fsqd
_refine_ls_weighting_details
'w=1/[\s^2^(Fo^2^)+(0.0922P)^2^+0.6949P] where P=(Fo^2^+2Fc^2^)/3'
_refine_ls_weighting_scheme      calc
_refine_ls_wR_factor_gt          0.1502
_refine_ls_wR_factor_ref         0.1637
_reflns_Friedel_coverage         0.000
_reflns_number_gt                361
_reflns_number_total             460
_reflns_threshold_expression     'I > 2\s(I)'
_iucr_refine_instructions_details
;

    fw_cs3fe2br9_abs.res created by SHELXL-2014/7

TITL FW_Cs3Fe2Br9_abs in P63/mmc #194
REM reset to P63/mmc #194
CELL 0.71073 7.542692 7.542692 18.584948 90 90 120
ZERR 2 0.000773 0.000773 0.001308 0 0 0
LATT 1
SYMM -Y+X,+X,0.5+Z
SYMM -Y,+X-Y,+Z
SYMM -X,-Y,0.5+Z
SYMM +Y-X,-X,+Z
SYMM +Y,-X+Y,0.5+Z
SYMM -Y+X,-Y,-Z
SYMM -X,-X+Y,-Z
SYMM +Y,+X,-Z
SYMM -Y,-X,0.5-Z
SYMM +Y-X,+Y,0.5-Z
SYMM +X,+X-Y,0.5-Z
SFAC Br Cs Fe
UNIT 18 6 4
 
L.S. 4
PLAN  20
BOND
fmap 2
ACTA
REM <olex2.extras>
REM <HklSrc "%.\\FW_Cs3Fe2Br9_abs.hkl">
REM </olex2.extras>
 
WGHT    0.092200    0.694900
EXTI    0.001972
FVAR       1.76327
CS1   2    0.000000    0.000000    0.250000    10.08333    0.04431    0.04431 =
         0.04094    0.00000    0.00000    0.02216
CS2   2   -0.333333    0.333333    0.416937    10.16667    0.04774    0.04774 =
         0.04205    0.00000    0.00000    0.02387
FE3   3    0.333333   -0.333333    0.346449    10.16667    0.04503    0.04503 =
         0.03079    0.00000    0.00000    0.02251
BR4   1    0.487986   -0.024028    0.250000    10.25000    0.04891    0.04789 =
         0.04028    0.00000    0.00000    0.02394
BR5   1    0.172660   -0.172660    0.412001    10.50000    0.04846    0.04846 =
         0.03826   -0.00203    0.00203    0.02655
HKLF 4
 
REM  FW_Cs3Fe2Br9_abs in P63/mmc #194
REM R1 =  0.0445 for     361 Fo > 4sig(Fo)  and  0.0573 for all     460 data
REM     20 parameters refined using      0 restraints
 
END  
     
WGHT      0.0922      0.6949 

REM Highest difference peak  0.988,  deepest hole -1.822,  1-sigma level  0.255
Q1    1   0.1507  0.0753  0.2500  10.25000  0.05    0.99
Q2    1  -0.4176  0.1648  0.4140  10.50000  0.05    0.96
Q3    1   0.3333 -0.3333  0.2500  10.08333  0.05    0.93
Q4    1  -0.1600 -0.3200  0.2500  10.25000  0.05    0.89
Q5    1   0.3333 -0.3333  0.4092  10.16667  0.05    0.85
Q6    1   0.3949  0.0613  0.2500  10.50000  0.05    0.83
Q7    1  -0.2489  0.5021  0.4218  10.50000  0.05    0.81
Q8    1  -0.1622 -0.0811  0.2500  10.25000  0.05    0.76
Q9    1   0.4097 -0.1806  0.2500  10.25000  0.05    0.75
Q10   1   0.3207  0.1604  0.4126  10.50000  0.05    0.74
Q11   1   0.0000  0.0000  0.5000  10.08333  0.05    0.72
Q12   1   0.2478 -0.0037  0.4099  11.00000  0.05    0.70
Q13   1   0.2505 -0.2505  0.4196  10.50000  0.05    0.69
Q14   1   0.0881 -0.0881  0.4104  10.50000  0.05    0.67
Q15   1   0.0829 -0.3349  0.4206  11.00000  0.05    0.66
Q16   1   0.0000  0.0000  0.4252  10.16667  0.05    0.62
Q17   1   0.5826 -0.0844  0.2500  10.50000  0.05    0.58
Q18   1   0.2554 -0.2554  0.2339  10.50000  0.05    0.56
Q19   1  -0.1694  0.6612  0.3456  10.50000  0.05    0.55
Q20   1   0.5802  0.1604  0.2500  10.25000  0.05    0.53

  REM The information below was added by Olex2.
  REM
  REM R1 = 0.0445 for 361 Fo > 4sig(Fo) and 0.0573 for all 3469 data
  REM n/a parameters refined using n/a restraints
  REM Highest difference peak 0.99, deepest hole -1.82
  REM Mean Shift 0, Max Shift 0.000.

  REM +++ Tabular Listing of Refinement Information +++
  REM R1_all = 0.0573
  REM R1_gt = 0.0445
  REM wR_ref = 0.1637
  REM GOOF = 1.172
  REM Shift_max = 0.000
  REM Shift_mean = 0
  REM Reflections_all = 3469
  REM Reflections_gt = 361
  REM Parameters = n/a
  REM Hole = -1.82
  REM Peak = 0.99
  REM Flack = n/a

  
;
_cod_data_source_file            c7tc04798c2.cif
_cod_data_source_block           fw_cs3fe2br9_abs
_cod_original_cell_volume        915.7(2)
_cod_database_code               7236991
_shelx_shelxl_version_number     2014/7
_chemical_oxdiff_formula         'Cs3 Fe2 Br9'
_shelx_space_group_comment
;
The symmetry employed for this shelxl refinement is uniquely defined
by the following loop, which should always be used as a source of
symmetry information in preference to the above space-group names.
They are only intended as comments.
;
_reflns_odcompleteness_completeness 99.78
_reflns_odcompleteness_iscentric 1
_reflns_odcompleteness_theta     26.32
_olex2_refinement_description
;
;
_olex2_submission_special_instructions 'No special instructions were received'
loop_
_space_group_symop_operation_xyz
'x, y, z'
'x-y, x, z+1/2'
'-y, x-y, z'
'-x, -y, z+1/2'
'-x+y, -x, z'
'y, -x+y, z+1/2'
'x-y, -y, -z'
'-x, -x+y, -z'
'y, x, -z'
'-y, -x, -z+1/2'
'-x+y, y, -z+1/2'
'x, x-y, -z+1/2'
'-x, -y, -z'
'-x+y, -x, -z-1/2'
'y, -x+y, -z'
'x, y, -z-1/2'
'x-y, x, -z'
'-y, x-y, -z-1/2'
'-x+y, y, z'
'x, x-y, z'
'-y, -x, z'
'y, x, z-1/2'
'x-y, -y, z-1/2'
'-x, -x+y, z-1/2'
loop_
_atom_site_label
_atom_site_type_symbol
_atom_site_fract_x
_atom_site_fract_y
_atom_site_fract_z
_atom_site_U_iso_or_equiv
_atom_site_adp_type
_atom_site_occupancy
_atom_site_site_symmetry_order
_atom_site_calc_flag
_atom_site_refinement_flags_posn
_atom_site_refinement_flags_adp
_atom_site_refinement_flags_occupancy
Cs1 Cs 0.0000 0.0000 0.2500 0.0432(6) Uani 1 12 d S T P
Cs2 Cs -0.3333 0.3333 0.41694(6) 0.0458(5) Uani 1 6 d S T P
Fe3 Fe 0.3333 -0.3333 0.34645(11) 0.0403(8) Uani 1 6 d S T P
Br4 Br 0.48799(13) -0.0240(3) 0.2500 0.0458(6) Uani 1 4 d S T P
Br5 Br 0.17266(8) -0.17266(8) 0.41200(5) 0.0440(5) Uani 1 2 d S T P
loop_
_atom_site_aniso_label
_atom_site_aniso_U_11
_atom_site_aniso_U_22
_atom_site_aniso_U_33
_atom_site_aniso_U_23
_atom_site_aniso_U_13
_atom_site_aniso_U_12
Cs1 0.0443(7) 0.0443(7) 0.0409(9) 0.000 0.000 0.0222(4)
Cs2 0.0477(7) 0.0477(7) 0.0421(8) 0.000 0.000 0.0239(3)
Fe3 0.0450(11) 0.0450(11) 0.0308(12) 0.000 0.000 0.0225(6)
Br4 0.0489(9) 0.0479(10) 0.0403(10) 0.000 0.000 0.0239(5)
Br5 0.0485(8) 0.0485(8) 0.0383(8) -0.00203(18) 0.00203(18) 0.0266(6)
loop_
_atom_type_symbol
_atom_type_description
_atom_type_scat_dispersion_real
_atom_type_scat_dispersion_imag
_atom_type_scat_source
Br Br -0.2901 2.4595 'International Tables Vol C Tables 4.2.6.8 and 6.1.1.4'
Cs Cs -0.3680 2.1192 'International Tables Vol C Tables 4.2.6.8 and 6.1.1.4'
Fe Fe 0.3463 0.8444 'International Tables Vol C Tables 4.2.6.8 and 6.1.1.4'
loop_
_exptl_crystal_face_index_h
_exptl_crystal_face_index_k
_exptl_crystal_face_index_l
_exptl_crystal_face_perp_dist
_exptl_oxdiff_crystal_face_indexfrac_h
_exptl_oxdiff_crystal_face_indexfrac_k
_exptl_oxdiff_crystal_face_indexfrac_l
_exptl_oxdiff_crystal_face_x
_exptl_oxdiff_crystal_face_y
_exptl_oxdiff_crystal_face_z
1 0 5 0.1078 1.0015 -0.0142 4.9964 -0.0738 -0.1418 0.1501
-1 1 5 0.1394 -0.9982 0.9876 5.0048 0.0068 -0.2189 -0.0012
1 -1 0 0.0602 0.9999 -1.0001 -0.0082 0.0085 0.0533 0.0942
1 -1 -5 0.1001 0.9982 -0.9876 -5.0048 -0.0068 0.2189 0.0012
-3 2 -5 0.1314 -3.0014 2.0145 -4.9799 0.0567 0.0352 -0.3385
-5 2 0 0.1137 -4.9992 2.0054 0.0171 0.2503 -0.1781 -0.3599
0 -2 5 0.0916 0.0021 -2.0094 4.9806 0.2106 -0.1067 0.1670
4 0 -5 0.0926 3.9973 0.0057 -4.9975 -0.3718 0.2610 0.1357
-1 2 -5 0.1480 -1.0019 2.0111 -4.9804 -0.1215 0.0829 -0.2242
-1 3 5 0.1385 -0.9986 2.9845 5.0208 -0.1885 -0.2778 -0.0753
0 -2 -5 0.1016 -0.0014 -1.9843 -5.0126 0.1800 0.2245 -0.0189
5 0 -2 0.0638 4.9981 -0.0035 -1.9998 -0.4517 0.1854 0.2486
0 5 -3 0.1246 -0.0019 4.9996 -2.9580 -0.4975 -0.0479 -0.2410
1 0 1 0.0768 1.0001 -0.0042 0.9991 -0.0861 -0.0093 0.0757
loop_
_geom_angle_atom_site_label_1
_geom_angle_atom_site_label_2
_geom_angle_atom_site_label_3
_geom_angle
_geom_angle_site_symmetry_1
_geom_angle_site_symmetry_3
Br4 Cs1 Br4 120.0 14_666 1_455
Br4 Cs1 Br4 120.0 . 3
Br4 Cs1 Br4 55.23(5) 14_666 3
Br4 Cs1 Br4 120.0 1_455 3_545
Br4 Cs1 Br4 64.77(5) 3_545 14_556
Br4 Cs1 Br4 120.0 . 14_556
Br4 Cs1 Br4 175.23(5) 3_545 3
Br4 Cs1 Br4 175.23(5) 14_666 14_556
Br4 Cs1 Br4 120.0 14_556 3
Br4 Cs1 Br4 55.23(5) 1_455 14_556
Br4 Cs1 Br4 64.77(5) 14_666 .
Br4 Cs1 Br4 120.0 14_666 3_545
Br4 Cs1 Br4 55.23(5) 3_545 .
Br4 Cs1 Br4 64.77(5) 1_455 3
Br4 Cs1 Br4 175.23(5) 1_455 .
Br5 Cs1 Br4 91.429(16) 3 1_455
Br5 Cs1 Br4 57.908(18) 18_556 14_666
Br5 Cs1 Br4 91.429(16) 14_556 3_545
Br5 Cs1 Br4 57.908(18) 18_556 3
Br5 Cs1 Br4 57.908(18) 16_556 .
Br5 Cs1 Br4 120.421(14) . 3
Br5 Cs1 Br4 57.908(18) 3 14_666
Br5 Cs1 Br4 57.908(18) 16_556 3_545
Br5 Cs1 Br4 120.420(14) 5 14_666
Br5 Cs1 Br4 120.421(14) 18_556 14_556
Br5 Cs1 Br4 120.421(14) 3 14_556
Br5 Cs1 Br4 91.429(16) 16_556 14_556
Br5 Cs1 Br4 91.429(16) 14_556 3
Br5 Cs1 Br4 91.429(16) 16_556 14_666
Br5 Cs1 Br4 57.908(18) 14_556 1_455
Br5 Cs1 Br4 91.429(16) 5 3
Br5 Cs1 Br4 91.429(16) . 14_666
Br5 Cs1 Br4 57.908(18) . .
Br5 Cs1 Br4 91.429(16) 5 3_545
Br5 Cs1 Br4 57.908(18) 5 14_556
Br5 Cs1 Br4 57.908(18) 3 3
Br5 Cs1 Br4 120.421(13) 18_556 3_545
Br5 Cs1 Br4 120.421(14) 5 .
Br5 Cs1 Br4 120.421(14) 14_556 14_666
Br5 Cs1 Br4 120.420(14) 16_556 1_455
Br5 Cs1 Br4 120.421(14) . 1_455
Br5 Cs1 Br4 120.421(14) 3 3_545
Br5 Cs1 Br4 91.429(16) 18_556 1_455
Br5 Cs1 Br4 91.429(16) . 14_556
Br5 Cs1 Br4 91.429(16) 3 .
Br5 Cs1 Br4 120.421(14) 16_556 3
Br5 Cs1 Br4 57.908(18) 5 1_455
Br5 Cs1 Br4 91.429(16) 18_556 .
Br5 Cs1 Br4 57.908(18) 14_556 14_556
Br5 Cs1 Br4 57.908(18) . 3_545
Br5 Cs1 Br4 120.421(14) 14_556 .
Br5 Cs1 Br5 145.109(13) . 18_556
Br5 Cs1 Br5 62.57(3) 14_556 16_556
Br5 Cs1 Br5 62.57(3) 3 5
Br5 Cs1 Br5 106.32(3) . 16_556
Br5 Cs1 Br5 106.32(3) 3 18_556
Br5 Cs1 Br5 62.57(3) . 3
Br5 Cs1 Br5 62.57(3) 14_556 18_556
Br5 Cs1 Br5 145.110(13) 16_556 5
Br5 Cs1 Br5 145.110(13) 3 16_556
Br5 Cs1 Br5 145.110(13) 3 14_556
Br5 Cs1 Br5 62.57(3) . 5
Br5 Cs1 Br5 62.57(3) 16_556 18_556
Br5 Cs1 Br5 106.32(3) 14_556 5
Br5 Cs1 Br5 145.109(13) . 14_556
Br5 Cs1 Br5 145.110(13) 18_556 5
Br4 Cs2 Br4 62.76(4) 1_455 3
Br4 Cs2 Br4 62.76(4) 1_455 14_566
Br4 Cs2 Br4 62.76(4) 3 14_566
Br5 Cs2 Br4 120.079(19) 17_456 1_455
Br5 Cs2 Br4 89.602(19) 3 1_455
Br5 Cs2 Br4 119.65(3) 1_455 3
Br5 Cs2 Br4 89.603(19) 1_565 14_566
Br5 Cs2 Br4 89.603(19) 3_455 1_455
Br5 Cs2 Br4 120.079(19) 13_556 1_455
Br5 Cs2 Br4 120.079(19) 13_556 3
Br5 Cs2 Br4 119.65(3) 1_565 1_455
Br5 Cs2 Br4 56.90(3) 3_455 14_566
Br5 Cs2 Br4 56.90(3) 1_565 3
Br5 Cs2 Br4 89.602(19) 5_565 3
Br5 Cs2 Br4 119.65(3) 3_455 3
Br5 Cs2 Br4 56.90(3) 5 1_455
Br5 Cs2 Br4 89.603(19) 5 3
Br5 Cs2 Br4 176.48(3) 15_566 1_455
Br5 Cs2 Br4 176.48(4) 17_456 3
Br5 Cs2 Br4 119.65(3) 5 14_566
Br5 Cs2 Br4 56.90(3) 3 3
Br5 Cs2 Br4 89.602(19) 1_455 14_566
Br5 Cs2 Br4 120.079(19) 15_566 14_566
Br5 Cs2 Br4 56.90(2) 5_565 14_566
Br5 Cs2 Br4 119.65(3) 5_565 1_455
Br5 Cs2 Br4 176.48(3) 13_556 14_566
Br5 Cs2 Br4 56.90(3) 1_455 1_455
Br5 Cs2 Br4 120.079(19) 17_456 14_566
Br5 Cs2 Br4 119.65(3) 3 14_566
Br5 Cs2 Br4 120.079(19) 15_566 3
Br5 Cs2 Br5 120.19(2) 1_565 17_456
Br5 Cs2 Br5 63.20(3) 1_565 15_566
Br5 Cs2 Br5 120.19(2) 3 17_456
Br5 Cs2 Br5 119.941(2) 3 1_455
Br5 Cs2 Br5 62.36(3) 1_455 3_455
Br5 Cs2 Br5 57.60(3) 5_565 3_455
Br5 Cs2 Br5 63.20(3) 3 13_556
Br5 Cs2 Br5 120.19(2) 5 15_566
Br5 Cs2 Br5 176.34(4) 1_455 1_565
Br5 Cs2 Br5 120.19(2) 1_455 15_566
Br5 Cs2 Br5 119.941(2) 1_565 3_455
Br5 Cs2 Br5 57.60(3) 5 1_455
Br5 Cs2 Br5 62.36(3) 5 3
Br5 Cs2 Br5 90.507(19) 5_565 17_456
Br5 Cs2 Br5 90.507(19) 1_455 13_556
Br5 Cs2 Br5 120.19(2) 5_565 13_556
Br5 Cs2 Br5 90.507(19) 5 17_456
Br5 Cs2 Br5 176.34(4) 3 3_455
Br5 Cs2 Br5 63.20(3) 3_455 17_456
Br5 Cs2 Br5 57.60(3) 3 1_565
Br5 Cs2 Br5 119.941(2) 3 5_565
Br5 Cs2 Br5 63.20(3) 5_565 15_566
Br5 Cs2 Br5 119.941(2) 1_455 5_565
Br5 Cs2 Br5 176.34(4) 5 5_565
Br5 Cs2 Br5 90.507(19) 1_565 13_556
Br5 Cs2 Br5 63.20(3) 5 13_556
Br5 Cs2 Br5 62.36(3) 1_565 5_565
Br5 Cs2 Br5 119.941(2) 5 1_565
Br5 Cs2 Br5 57.00(3) 15_566 17_456
Br5 Cs2 Br5 57.00(3) 13_556 17_456
Br5 Cs2 Br5 120.19(2) 3_455 13_556
Br5 Cs2 Br5 57.00(3) 13_556 15_566
Br5 Cs2 Br5 119.941(2) 5 3_455
Br5 Cs2 Br5 90.507(19) 3_455 15_566
Br5 Cs2 Br5 90.507(19) 3 15_566
Br5 Cs2 Br5 63.20(3) 1_455 17_456
Br4 Fe3 Br4 80.76(6) . 14_656
Br4 Fe3 Br4 80.76(6) 3_545 14_656
Br4 Fe3 Br4 80.76(6) 3_545 .
Br5 Fe3 Br4 90.55(3) . .
Br5 Fe3 Br4 90.55(3) 3_545 14_656
Br5 Fe3 Br4 90.55(3) . 3_545
Br5 Fe3 Br4 168.55(8) 3_545 .
Br5 Fe3 Br4 168.55(8) . 14_656
Br5 Fe3 Br4 90.55(3) 5_655 14_656
Br5 Fe3 Br4 90.55(3) 3_545 3_545
Br5 Fe3 Br4 168.55(8) 5_655 3_545
Br5 Fe3 Br4 90.55(3) 5_655 .
Br5 Fe3 Br5 97.01(7) 5_655 3_545
Br5 Fe3 Br5 97.01(7) . 3_545
Br5 Fe3 Br5 97.01(7) . 5_655
Cs1 Br4 Cs1 175.23(5) 1_655 .
Cs1 Br4 Cs2 88.568(16) 1_655 14_556
Cs1 Br4 Cs2 88.567(16) 1_655 1_655
Cs1 Br4 Cs2 88.568(16) . 1_655
Cs1 Br4 Cs2 88.567(16) . 14_556
Cs2 Br4 Cs2 106.08(5) 1_655 14_556
Fe3 Br4 Cs1 91.782(19) . .
Fe3 Br4 Cs1 91.783(19) 14_656 .
Fe3 Br4 Cs1 91.782(19) 14_656 1_655
Fe3 Br4 Cs1 91.782(19) . 1_655
Fe3 Br4 Cs2 85.38(4) 14_656 14_556
Fe3 Br4 Cs2 168.54(5) . 14_556
Fe3 Br4 Cs2 168.54(5) 14_656 1_655
Fe3 Br4 Cs2 85.38(4) . 1_655
Fe3 Br4 Fe3 83.16(8) 14_656 .
Cs1 Br5 Cs2 90.402(19) . 1_545
Cs1 Br5 Cs2 176.59(3) . 13_556
Cs1 Br5 Cs2 90.402(19) . 1_655
Cs2 Br5 Cs2 89.493(19) 1_655 13_556
Cs2 Br5 Cs2 176.34(4) 1_655 1_545
Cs2 Br5 Cs2 89.493(19) 1_545 13_556
Fe3 Br5 Cs1 96.71(5) . .
Fe3 Br5 Cs2 91.727(17) . 1_545
Fe3 Br5 Cs2 86.70(6) . 13_556
Fe3 Br5 Cs2 91.727(17) . 1_655
loop_
_geom_bond_atom_site_label_1
_geom_bond_atom_site_label_2
_geom_bond_distance
_geom_bond_site_symmetry_2
Cs1 Br4 3.7746(4) 14_666
Cs1 Br4 3.7746(4) 1_455
Cs1 Br4 3.7746(4) 3_545
Cs1 Br4 3.7746(4) .
Cs1 Br4 3.7746(4) 14_556
Cs1 Br4 3.7746(4) 3
Cs1 Br5 3.7620(11) .
Cs1 Br5 3.7621(11) 3
Cs1 Br5 3.7621(11) 14_556
Cs1 Br5 3.7621(11) 5
Cs1 Br5 3.7621(11) 18_556
Cs1 Br5 3.7621(11) 16_556
Cs2 Br4 3.8826(14) 1_455
Cs2 Br4 3.8826(13) 14_566
Cs2 Br4 3.8826(14) 3
Cs2 Br5 3.7733(4) 5
Cs2 Br5 3.8096(15) 17_456
Cs2 Br5 3.8096(15) 15_566
Cs2 Br5 3.7733(4) 5_565
Cs2 Br5 3.7733(4) 1_565
Cs2 Br5 3.7733(4) 3_455
Cs2 Br5 3.7733(4) 3
Cs2 Br5 3.7733(4) 1_455
Cs2 Br5 3.8096(15) 13_556
Fe3 Br4 2.701(2) 3_545
Fe3 Br4 2.701(2) 14_656
Fe3 Br4 2.701(2) .
Fe3 Br5 2.4270(15) .
Fe3 Br5 2.4270(15) 5_655
Fe3 Br5 2.4270(15) 3_545
Br4 Cs1 3.7746(4) 1_655
Br4 Cs2 3.8826(13) 14_556
Br4 Cs2 3.8826(13) 1_655
Br4 Fe3 2.701(2) 14_656
Br5 Cs2 3.7733(4) 1_655
Br5 Cs2 3.7733(4) 1_545
Br5 Cs2 3.8096(15) 13_556
loop_
_refln_index_h
_refln_index_k
_refln_index_l
_refln_F_squared_meas
_refln_F_squared_sigma
_refln_scale_group_code
0 0 2 6634.49 329.385 1
0 0 -2 7069.72 240.672 2
0 0 3 6871.81 425.188 1
0 0 -3 5304.03 272.304 2
0 0 -4 38695.4 854.398 2
0 0 4 38470.7 1122.6 1
0 0 5 1363.25 256.754 1
0 0 -5 314.239 74.9486 2
0 0 6 977632 9938.96 1
0 0 -6 999999 8915.48 2
0 0 -7 879.402 197.908 2
0 0 7 1458.45 331.928 1
0 0 -8 11791.2 677.5 2
0 0 8 10989.7 849.91 1
0 0 9 613.512 276.143 1
0 0 -9 501.215 173.629 2
0 0 -10 149.915 134.182 2
0 0 10 253.31 226.926 1
0 0 -11 -15.7739 123.885 2
0 0 11 751.093 318.461 1
0 0 12 597935 8569.18 1
0 0 -12 589304 7563.76 2
0 0 -13 4898.76 628.919 2
0 0 13 5753.11 837.685 1
0 0 14 3489.01 627.254 1
0 0 -14 4536.76 603.205 2
0 0 -15 72.9387 178.059 2
0 0 15 161.522 219.844 1
0 0 -16 17915.9 1343.44 2
0 0 16 19981.2 1527.63 1
0 0 17 620.993 279.598 1
0 0 -17 204.293 166.736 2
0 0 18 151283 4516.17 1
0 0 -18 160542 4524.96 2
0 0 19 1760.96 540.647 1
0 0 20 13895.7 1348.77 1
0 0 21 350.587 316.189 1
0 0 22 746.035 364.615 1
0 0 23 -430.638 306.062 1
-1 0 0 12460.7 581.602 1
0 -1 0 11211.9 658.331 1
1 0 -1 13969 458.34 2
0 -1 1 14145.6 763.325 1
0 1 1 14252.9 670.36 1
-1 0 1 14268.6 619.427 1
-1 1 1 13336.7 464.735 1
0 -1 2 14485.7 781.631 1
1 -1 -2 12107.3 604.489 2
1 0 -2 11695.8 479.115 2
0 1 2 12069.4 641.723 1
-1 0 2 13356 696.186 1
-1 1 2 12836 557.45 1
1 -1 2 13630.4 426.861 1
1 0 2 12221.5 517.005 1
-1 0 3 7821.82 591.473 1
1 0 3 9034.95 492.287 1
0 -1 3 10271.7 664.772 1
-1 1 3 8810.87 560.082 1
1 0 -3 9540.24 470.425 2
1 -1 3 10065.3 457.945 1
0 1 3 8779.97 572.164 1
1 -1 -3 8794.63 528.117 2
0 -1 -4 25122.6 887.327 2
-1 1 4 26747.2 1035.22 1
-1 0 4 24626 1077.54 1
1 -1 -4 27447.2 992.036 2
-1 0 -4 27027.7 541.058 2
1 0 -4 26390.3 865.24 2
1 0 4 27684.3 927.943 1
1 -1 4 26304.3 863.632 1
0 1 4 27282.9 1057.02 1
0 -1 4 22884.5 1066.21 1
0 -1 5 28209.5 1178.98 1
1 -1 5 28959.2 996.702 1
0 1 5 27159.7 1125.69 1
1 0 -5 27794.3 970.821 2
-1 0 5 26702.1 1182.4 1
1 0 5 27613.5 1025.38 1
-1 0 -5 27994.1 642.738 2
0 -1 -5 30819.4 1032.17 2
-1 1 5 27260.3 1114.69 1
0 1 -5 27917.8 922.858 2
1 -1 -5 27154.2 995.639 2
1 0 6 1378.74 264.58 1
0 -1 6 1241.43 273.901 1
0 1 6 1438.91 292.987 1
0 -1 -6 1180.77 198.349 2
1 0 -6 1237.54 230.983 2
-1 0 -6 1357.32 152.692 2
-1 0 6 1421.37 338.459 1
-1 1 6 1370.36 257.704 1
0 1 -6 1480.47 225.67 2
1 -1 -6 1511.52 252.736 2
1 -1 6 1441.86 254.532 1
1 0 7 1621.3 305.267 1
-1 0 7 1463.77 344.193 1
1 0 -7 1348.31 248.702 2
0 1 -7 1523.41 244.785 2
1 -1 7 1425.12 295.035 1
-1 0 -7 1335.07 181.643 2
0 -1 -7 1361.94 235.788 2
0 -1 7 1422.43 311.744 1
0 1 7 1320.85 300.258 1
1 -1 -7 1568.43 292.956 2
-1 1 7 1825.09 351.687 1
0 -1 8 10120 807.357 1
-1 1 -8 9812.89 623.208 2
-1 0 8 8346.88 775.276 1
0 -1 -8 8578.33 592.365 2
-1 0 -8 9507.47 540.547 2
0 1 -8 9299.47 614.485 2
-1 1 8 9163.78 799.268 1
1 0 8 9865.72 756.367 1
0 1 8 9245.59 798.004 1
1 -1 8 9299.02 735.075 1
1 0 -8 9340.06 676.725 2
1 -1 -8 9937.67 740.885 2
-1 0 -9 23352.7 939.502 2
-1 1 9 23479.8 1328.82 1
1 -1 -9 27145.8 1296.31 2
-1 0 9 23468.9 1315.88 1
1 -1 9 24853.4 1316.37 1
0 -1 9 23149.8 1267.02 1
1 0 -9 25217.9 1170.65 2
0 -1 -9 24419.7 1055.62 2
0 1 -9 23554.8 1037.06 2
1 0 9 24405.5 1285.81 1
-1 1 -9 23896.5 1017.3 2
0 1 9 24892.3 1376.04 1
0 1 -10 98.3762 131.737 2
1 0 -10 -185.85 177.917 2
-1 1 10 97.073 186.788 1
0 -1 -10 8.74022 119.537 2
-1 0 -10 20.1784 103.27 2
1 -1 -10 18.9231 171.999 2
-1 0 10 146.871 272.861 1
1 0 10 210.558 178.853 1
1 -1 10 170.376 173.163 1
0 1 10 669.634 336.419 1
0 -1 10 64.9609 152.702 1
-1 1 -10 97.6159 84.0457 2
-1 0 11 379.596 185.191 1
0 1 -11 980.328 259.971 2
0 1 11 1172.69 348.899 1
0 -1 -11 819.703 236.663 2
1 0 11 997.816 296.557 1
-1 0 -11 852.683 189.543 2
1 -1 -11 1139.4 287.887 2
-1 1 11 871.097 319.186 1
0 -1 11 929.221 305.581 1
1 -1 11 950.222 320.023 1
-1 1 -11 892.974 209.879 2
1 0 -11 831.203 256.704 2
1 0 12 1988 417.142 1
1 -1 -12 1881.28 377.114 2
0 1 12 1575.77 386.824 1
-1 1 -12 1460.61 288.388 2
-1 0 12 1176 377.237 1
1 0 -12 1657.49 354.258 2
0 -1 -12 1407.36 323.398 2
1 -1 12 1537.36 344.377 1
0 1 -12 1673.27 343.165 2
0 -1 12 1257.1 323.166 1
-1 0 -12 1445.12 281.998 2
-1 1 12 1607.67 385.85 1
-1 1 13 369.21 187.827 1
0 -1 -13 639.1 211.735 2
-1 0 -13 729.084 212.131 2
-1 0 13 460.036 248.017 1
0 1 13 716.865 316.741 1
1 0 13 835.772 333.261 1
1 0 -13 221.331 147.919 2
1 -1 13 569.616 249.896 1
1 -1 -13 561.04 275.061 2
0 -1 13 678.001 307.98 1
-1 1 -13 506.562 204.585 2
0 1 -13 405.617 193.725 2
-1 1 -14 7598.83 737.171 2
-1 0 -14 7628.25 751.948 2
0 1 -14 7514.93 752.931 2
-1 1 14 7990.41 938.795 1
1 0 14 7703.45 863.371 1
1 -1 14 7705.07 842.527 1
1 -1 -14 7185.31 832.578 2
0 1 14 7722.15 879.132 1
1 0 -14 7757.45 811.446 2
0 -1 -14 7958.72 774.428 2
-1 0 14 6918.41 868.499 1
0 -1 14 7205.01 835.724 1
-1 1 15 -216.493 316.88 1
0 -1 15 406.954 304.259 1
0 1 -15 46.7876 163.963 2
1 -1 15 58.0461 164.826 1
0 1 15 254.87 302.489 1
1 0 -15 -85.1715 248.25 2
-1 1 -15 -46.3324 161.11 2
-1 0 15 302.734 309.939 1
0 -1 -15 541.09 217.026 2
1 0 15 147.569 181.805 1
1 -1 -15 43.2205 196.764 2
0 1 16 2987.25 593.814 1
0 1 -16 3325.09 561.952 2
-1 0 16 2163.29 507.606 1
1 0 -16 2423.08 478.565 2
0 -1 16 2578.14 550.287 1
1 -1 -16 2972.84 573.194 2
1 -1 16 3082.7 585.061 1
1 0 16 2402.53 501.293 1
-1 1 -16 3164.77 525.983 2
-1 1 16 2755.06 586.027 1
-1 1 17 4858.91 795.848 1
1 0 -17 4112.82 635.388 2
1 -1 17 4424.37 696.1 1
-1 1 -17 4335.36 621.906 2
0 1 -17 3986.7 602.429 2
0 -1 17 4485.18 706.184 1
1 -1 -17 3602.6 619.637 2
0 1 17 3482.56 649.905 1
1 0 17 4141.26 689.154 1
-1 0 17 3693.82 671.459 1
-1 0 18 493.455 333.481 1
1 -1 -18 -88.0401 251.081 2
0 -1 18 -99.4373 254.106 1
0 1 -18 224.749 174.609 2
1 0 -18 -215.458 318.2 2
1 -1 18 52.8064 157.229 1
0 1 18 850.643 420.97 1
1 0 18 -32.6191 214.929 1
-1 1 18 -169.499 271.659 1
1 0 19 2019 517.72 1
-1 1 19 1707.83 502.201 1
1 -1 -19 1878.29 508.832 2
1 0 -19 1506.08 447.213 2
0 1 -19 1692.79 473.638 2
0 -1 19 1542.24 454.043 1
1 -1 19 1612.55 433.651 1
0 1 19 1665.06 422.236 1
-1 0 19 1855.91 556.321 1
1 0 20 535.973 312.41 1
-1 1 20 394.916 275.471 1
1 0 -20 287.816 238.819 2
1 -1 20 448.214 282.159 1
-1 0 20 492.45 314.672 1
0 1 -20 37.4867 277.36 2
0 1 20 929.254 420.811 1
0 -1 20 158.654 192.791 1
1 0 21 3522.42 668.149 1
0 1 21 3487.35 744.196 1
-1 0 21 2936.58 656.294 1
-1 1 21 3887.31 787.007 1
1 0 -21 2827.27 605.512 2
0 -1 21 3312.75 610.104 1
1 -1 21 3447.61 629.752 1
1 -1 22 -94.406 180.605 1
0 -1 22 -271.796 274.364 1
-1 1 22 494.725 428.512 1
-1 0 22 256.392 196.224 1
0 1 22 391.295 337.564 1
1 0 22 -2.68432 179.976 1
-1 0 23 589.883 282.933 1
0 1 23 542.21 320.832 1
1 0 23 338.38 308.266 1
0 -1 23 357.058 170.656 1
-1 1 23 295.736 312.41 1
1 -1 23 225.849 254.641 1
1 -1 24 -36.0875 174.349 1
1 0 24 -139.655 286.622 1
-1 -1 0 130680 2898.14 1
-2 1 0 136213 1845.76 1
1 -2 1 227.69 139.676 1
-1 2 1 -85.265 90.3121 1
-2 1 1 167.48 99.0754 1
-1 -1 1 74.3863 166.524 1
1 1 -1 33.2015 63.931 2
-1 -1 -1 319.391 196.564 1
2 -1 -1 230.358 99.5063 2
-2 1 2 2604.89 270.716 1
-1 2 2 2456.41 316.062 1
1 -2 2 2843.36 373.519 1
-1 -1 2 2354.52 442.208 1
1 1 -2 2272.67 234.395 2
2 -1 -2 2136.5 273.097 2
-1 2 3 2050.69 314.487 1
-2 1 3 1690.44 268.851 1
2 -1 3 1429.03 193.038 1
-1 -1 3 2577.33 462.258 1
1 1 -3 1043.42 194.695 2
1 -2 3 2687.64 370.408 1
1 1 3 1753.67 357.211 1
2 -1 -3 1922.75 338.234 2
1 1 4 4977.51 485.56 1
-1 -1 4 5304.8 620.048 1
-2 1 4 5199.69 471.079 1
1 1 -4 4907.76 385.422 2
-1 2 4 5259.17 523.46 1
1 -2 4 5109.07 463.607 1
2 -1 4 5317.95 356.226 1
2 -1 -4 5019.23 467.906 2
-2 1 5 19.0804 151.722 1
-1 -1 5 41.969 213.219 1
1 1 5 213.067 153.889 1
2 -1 5 111.281 95.3538 1
2 -1 -5 129.76 113.362 2
-1 2 5 121.029 153.563 1
1 1 -5 37.6125 77.8605 2
1 -2 5 83.8311 117.123 1
1 1 -6 3304.07 361.469 2
-1 -1 6 4009.41 634.588 1
-1 2 6 4310.57 521.15 1
2 -1 6 4260.9 360.832 1
1 -2 6 3586.7 426.529 1
-2 1 6 3252 434.57 1
2 -1 -6 3842.28 444.103 2
1 1 6 4040.36 477.707 1
-1 2 7 150.966 143.195 1
-1 -1 -7 64.2989 83.9661 2
1 -2 -7 -25.6322 159.776 2
2 -1 -7 140.468 102.841 2
-2 1 7 -53.8608 139.067 1
1 -2 7 151.687 153.906 1
1 1 -7 64.3844 112.506 2
2 -1 7 -99.0941 106.12 1
1 1 7 -95.3602 163.081 1
-1 -1 7 82.6399 235.537 1
2 -1 -8 248.329 128.822 2
1 1 8 145.705 171.723 1
-1 2 8 74.941 161.72 1
-2 1 8 324.755 203.823 1
1 -2 -8 334.94 232.713 2
1 1 -8 356.943 146.587 2
-1 -1 -8 112.84 85.333 2
2 -1 8 107.982 91.0616 1
1 -2 8 399.989 165.119 1
-1 -1 8 262.877 218.458 1
2 -1 9 354.147 159.999 1
-2 1 9 155.067 181.143 1
1 -2 -9 316.351 163.511 2
1 -2 9 -37.6877 107.165 1
2 -1 -9 -54.8463 192.853 2
-1 -1 9 185.418 172.877 1
1 1 -9 27.0083 146.6 2
1 1 9 165.183 203.633 1
-1 2 9 299.255 248.348 1
-1 -1 -9 211.448 118.786 2
-2 1 10 16207.6 1154.77 1
-1 2 -10 19075 1040.28 2
2 -1 10 17238 1022.14 1
1 -2 10 15436.8 994.681 1
-1 -1 -10 13820.8 775.475 2
-2 1 -10 18471.5 901.61 2
-1 -1 10 17571.5 1182.33 1
-1 2 10 17753.8 1220.96 1
2 -1 -10 16997.3 1084.74 2
1 1 -10 15776.8 955.271 2
1 1 10 16610.9 1092.65 1
1 -2 -10 16525.6 1045.45 2
1 1 11 90.8377 196.401 1
-1 2 11 30.9123 154.108 1
-1 2 -11 211.096 124.706 2
-2 1 11 36.9677 180.853 1
1 1 -11 6.31412 111.271 2
1 -2 11 276.641 173.492 1
2 -1 11 -13.0493 114.281 1
2 -1 -11 -100.44 163.196 2
-2 1 -11 79.9023 99.0796 2
1 -2 -11 -64.7277 147.483 2
-1 -1 11 -14.905 170.834 1
-1 -1 -11 -65.2225 129.069 2
-1 2 -12 22474.1 1188.58 2
1 -2 12 19882.2 1191.61 1
1 1 12 23039.2 1387.02 1
2 -1 -12 22814.9 1361.23 2
-2 1 -12 22386.4 1095.84 2
-2 1 12 21363.1 1420.99 1
1 -2 -12 19766 1199.36 2
-1 2 12 22320 1427.88 1
2 -1 12 22789.4 1309.37 1
-1 -1 12 18477.7 1360.75 1
1 1 -12 20661.6 1203.86 2
-2 1 13 0.34375 156.093 1
1 1 13 106.376 176.394 1
-2 1 -13 149.28 125.422 2
-1 -1 13 401.486 255.25 1
2 -1 13 136.782 144.026 1
1 1 -13 275.248 208.072 2
1 -2 13 176.57 186.724 1
-1 2 13 -31.8037 224.106 1
-1 2 -13 -117.859 132.028 2
2 -1 -13 7.99308 165.361 2
1 -2 -13 -222.241 158.984 2
-1 -1 14 4546.12 686.731 1
2 -1 14 5462.94 678.405 1
1 1 -14 5885.34 699.407 2
-1 2 -14 5663.16 651.239 2
-2 1 14 4950.72 721.4 1
-1 2 14 4775.35 718.676 1
1 1 14 5659.87 727.316 1
2 -1 -14 5564.44 710.13 2
1 -2 -14 4489.22 618.816 2
1 -2 14 3975.98 574.055 1
1 -2 -15 -182.353 249.626 2
2 -1 -15 -101.658 266.538 2
-1 -1 15 139.541 169.303 1
1 -2 15 -102.617 206.208 1
1 1 15 177.981 227.542 1
1 1 -15 46.4642 163.597 2
2 -1 15 -25.467 151.413 1
-1 2 -15 -128.526 207.15 2
-2 1 15 -194.494 215.208 1
-1 2 15 177.667 283.478 1
1 1 -16 600.565 282.712 2
-1 2 16 997.639 388.854 1
1 -2 16 472.97 241.406 1
1 1 16 748.975 318.075 1
-1 -1 16 581.117 305.42 1
2 -1 -16 451.402 231.258 2
-2 1 16 611.848 331.272 1
2 -1 16 475.43 228.537 1
1 -2 -16 193.659 212.913 2
-1 2 -16 587.655 276.754 2
-1 2 -17 87.8304 208.727 2
-1 -1 17 -91.3345 227.928 1
-2 1 17 196.864 204.773 1
2 -1 17 86.4923 185.189 1
-1 2 17 18.9681 192.325 1
1 1 -17 306.165 290.514 2
1 1 17 377.125 275.206 1
2 -1 -17 -16.2278 212.718 2
1 -2 17 59.5639 207.523 1
1 -2 18 2712.8 496.281 1
-1 2 -18 2290.74 484.771 2
2 -1 18 2408.65 513.939 1
1 1 18 2682.81 549.734 1
-2 1 18 2155.27 534.002 1
-1 -1 18 2960.83 580.526 1
2 -1 -18 2809.39 603.361 2
1 1 -18 2517.85 503.306 2
-1 2 18 3199.98 623.637 1
2 -1 19 -190.709 218.417 1
1 -2 19 -220.445 215.289 1
2 -1 -19 194.199 182.402 2
-1 2 -19 601.404 333.588 2
-1 2 19 -2.09933 216.602 1
1 1 19 306.228 255.201 1
-1 -1 19 489.277 282.702 1
1 1 -19 -54.1871 277.969 2
-2 1 19 129.751 184.597 1
-1 2 20 145.665 211.73 1
2 -1 -20 -379.789 253.396 2
-2 1 20 156.674 197.199 1
1 1 20 -105.577 334.946 1
1 1 -20 97.56 227.846 2
-1 -1 20 -223.774 241.426 1
2 -1 20 -187.819 237.69 1
1 -2 20 -247.651 264.964 1
2 -1 -21 111.242 269.928 2
2 -1 21 -45.2911 163.37 1
1 1 -21 55.4788 205.834 2
1 1 21 28.9801 211.342 1
1 -2 21 -272.046 248.372 1
-1 2 21 -118.774 218.088 1
-1 -1 21 15.7149 207.858 1
-2 1 21 -199.833 286.112 1
1 1 22 1885.91 500.85 1
-1 -1 22 1520.54 428.194 1
1 1 -22 1318.54 491.224 2
2 -1 -22 1386.06 539.869 2
2 -1 22 1876.06 475.518 1
-2 1 22 1818.11 540.97 1
1 -2 22 1549.4 393.963 1
-1 2 22 1461.89 476.765 1
1 1 -23 -71.5645 292.471 2
1 1 23 -270.169 238.996 1
-1 -1 23 -206.828 295.351 1
1 -2 23 -62.269 150.04 1
1 -2 24 212.45 223.676 1
-2 2 0 6601.34 291.34 1
0 -2 0 6574.76 693.492 1
2 0 0 8385.56 436.023 2
-2 0 0 6570.22 617.164 1
2 0 1 71263.6 1312.85 2
-2 0 -1 75018.8 2089.77 1
0 -2 1 68595.6 2136.53 1
2 -2 1 69018.9 1199.97 1
-2 2 1 73813.9 1372.21 1
2 0 -1 71514.2 1410.03 2
2 0 -2 296872 3626.31 2
-2 0 2 295970 4429.23 1
0 -2 2 303945 4944.36 1
-2 2 2 295029 3634.71 1
2 0 -3 408414 4809.43 2
-2 2 3 407838 4883.58 1
-2 0 3 404064 5665.54 1
0 2 3 404195 5589.4 1
2 -2 3 411831 3926.36 1
0 -2 3 425676 6449.5 1
2 -2 4 384585 4058.36 1
0 -2 4 391287 5927.88 1
0 2 4 400336 5572.62 1
2 0 -4 389520 4813.06 2
2 0 4 385864 4958.5 1
-2 0 4 398394 5851.16 1
-2 2 4 390226 5006.01 1
2 -2 5 130569 2163.24 1
2 -2 -5 132333 2873.12 2
2 0 5 131757 2492.56 1
-2 2 5 136946 2780.14 1
0 2 5 130181 2905.11 1
2 0 -5 139056 2600.27 2
-2 0 5 134242 3195.55 1
2 -2 6 2048.35 261.969 1
2 -2 -6 1996.25 363.848 2
-2 0 -6 1712.39 152.869 2
-2 2 6 1853.45 326.299 1
0 2 6 1846.84 361.845 1
2 0 -6 1782.33 304.15 2
0 -2 6 2209.97 391.946 1
2 0 6 2125.38 306.126 1
2 -2 -7 152006 3183.35 2
-2 2 7 145852 3154.96 1
2 0 -7 144949 2914.87 2
0 2 7 147153 3299.73 1
-2 0 -7 144474 1814.01 2
2 -2 7 142404 2659.98 1
0 2 -7 146456 2794.8 2
-2 0 7 143938 3332.01 1
2 0 7 145148 2811.7 1
0 -2 7 146409 3540.01 1
-2 2 8 148458 3338.26 1
2 0 8 152143 3032.39 1
0 2 -8 152929 2963.1 2
-2 0 8 152032 3483.85 1
-2 0 -8 153244 2051.71 2
0 -2 8 153081 3548.1 1
2 0 -8 154860 3137.34 2
2 -2 -8 158807 3284.24 2
2 -2 8 157997 2951.98 1
0 2 8 153376 3561.37 1
2 -2 -9 271460 4660.23 2
0 2 -9 275073 4296.35 2
2 0 9 265692 4397.1 1
2 0 -9 271662 4540.23 2
-2 0 -9 273061 3280.48 2
0 -2 9 281586 4858.79 1
2 -2 9 279216 4399.92 1
0 2 9 273717 5023.02 1
-2 0 9 272922 4936.01 1
-2 2 9 273370 4912.64 1
-2 0 10 137884 3443.74 1
2 -2 -10 143855 3316.76 2
-2 2 10 138491 3493.61 1
0 2 10 143861 3593.88 1
0 2 -10 137800 3001.36 2
0 -2 -10 145433 3258.01 2
-2 0 -10 141751 2325.06 2
2 0 10 136607 3099.41 1
2 -2 10 146388 3176.21 1
0 -2 10 143535 3390.95 1
2 0 -10 141045 3189.81 2
2 -2 11 3935.6 509.703 1
2 0 -11 3402.86 495.519 2
2 -2 -11 3585.08 529.707 2
-2 2 11 3515.45 557.422 1
0 2 -11 3286.84 456.603 2
0 2 11 3890.63 582.066 1
0 -2 -11 3603.87 487.66 2
2 0 11 3568.04 494.051 1
-2 0 11 3951.21 588.55 1
0 -2 11 4952.35 620.937 1
0 -2 12 497.804 221.972 1
2 -2 -12 190.915 133.168 2
-2 0 12 401.871 240.264 1
2 0 -12 142.423 174.099 2
2 -2 12 593.75 249.37 1
2 0 12 266.724 184.022 1
0 2 12 305.213 211.102 1
0 -2 -12 190.297 152.606 2
-2 2 12 405.674 183.637 1
-2 2 -12 1046.29 260.428 2
0 2 -12 421.955 177.771 2
0 2 13 60174.5 2459.35 1
-2 0 13 53099.4 2219.94 1
2 -2 13 59315 2141.68 1
2 -2 -13 61948 2329.51 2
0 -2 -13 59603.9 1956.76 2
2 0 -13 61229.9 2276.93 2
0 -2 13 60143.3 2240.09 1
-2 2 -13 57465.8 1993.6 2
0 2 -13 59175.7 2084.6 2
2 0 13 56883.4 2127.9 1
-2 2 13 61679.4 2496.83 1
0 -2 14 62654.8 2316.97 1
-2 2 14 60598.1 2542.83 1
2 0 14 61754.7 2280.76 1
0 2 -14 61412.1 2189.14 2
0 2 14 64740.1 2611.32 1
2 0 -14 64269.5 2407.49 2
-2 0 14 59273.9 2414.1 1
2 -2 -14 64721.6 2438.68 2
-2 2 -14 61955.1 2068.64 2
2 -2 14 59477.9 2209.94 1
-2 0 15 47701.7 2199.05 1
2 -2 15 47294.5 2011.38 1
-2 2 15 54358.8 2464.64 1
2 0 15 51425 2149.77 1
-2 2 -15 52970.7 1944.37 2
0 -2 15 52970.4 2170.26 1
2 0 -15 51230.1 2224.15 2
0 2 15 51990.2 2352.6 1
2 -2 -15 50834.1 2219.25 2
0 2 -15 51511.1 2073.58 2
0 2 -16 81947.8 2764.9 2
2 -2 16 78341.9 2672.56 1
-2 0 16 82690.2 2997.16 1
-2 2 16 85840.5 3198.5 1
2 0 16 85859.8 2900.14 1
2 -2 -16 88774.4 3046.1 2
0 -2 16 83229.4 2772.78 1
2 0 -16 79556.3 2899.85 2
-2 2 -16 83285.3 2556.09 2
0 2 16 85288.5 3094.27 1
0 2 17 5210.6 781.325 1
-2 0 17 6011.55 822.598 1
0 -2 17 6445.2 784.618 1
0 2 -17 6182.15 750.918 2
2 -2 -17 5025.68 769.004 2
2 -2 17 4692.14 660.83 1
-2 2 17 5011.89 738.865 1
2 0 17 4815.92 689.411 1
2 0 -17 5481.63 762.827 2
2 0 -18 -88.41 177.891 2
-2 2 18 197.695 235.605 1
0 2 18 476.313 262.894 1
0 2 -18 138.858 167.544 2
-2 0 18 -67.038 231.851 1
2 -2 -18 262.755 189.538 2
0 -2 18 -6.46232 190.322 1
2 0 18 -110.911 159.348 1
2 -2 18 634.999 290.376 1
-2 2 19 16829.3 1495.66 1
0 -2 19 16742.2 1292.24 1
-2 0 19 15938 1378.41 1
2 0 19 16947.6 1331.88 1
0 2 19 15972 1434.95 1
2 -2 19 14332.9 1166.41 1
0 2 -19 15841.3 1336.49 2
2 0 -19 15367 1344.1 2
2 -2 -19 16511.8 1432.61 2
0 -2 20 8999.99 983.303 1
-2 0 20 9580.46 1094.96 1
2 0 20 9687.17 1051.91 1
0 2 20 9332.79 1088.59 1
-2 2 20 9959.05 1179.96 1
0 2 -20 8684.9 1007.32 2
2 0 -20 9494.4 1102.32 2
2 -2 20 7464.42 870.112 1
-2 2 21 26196.3 1940.05 1
2 0 -21 24923.5 1838.42 2
0 2 -21 23833.1 1704.82 2
0 2 21 26984.3 1951 1
0 -2 21 25978 1686.15 1
2 -2 21 24080.7 1588.84 1
-2 0 21 28663.2 1894.93 1
2 0 21 26296.5 1739.84 1
0 -2 22 16409.6 1348.09 1
-2 0 22 18138.9 1591.76 1
-2 2 22 18376.6 1624.02 1
2 0 22 16400 1396.09 1
2 0 -22 16046.9 1565.4 2
0 2 -22 16378.7 1463.52 2
0 2 22 17915.4 1550.99 1
2 0 23 -182.842 190.186 1
2 0 -23 43.4403 230.016 2
2 0 24 787.322 359.894 1
-2 -1 0 95.9539 142.79 1
-3 2 0 174.615 62.9009 1
2 1 0 185.233 84.8146 2
-3 1 0 203.604 128.432 1
-1 -2 0 239.331 203.932 1
1 -3 0 590.744 245.538 1
-2 -1 1 453.543 257.85 1
-1 -2 -1 490.64 289.859 1
-1 -2 1 265.23 277.929 1
1 -3 1 431.019 210.714 1
-3 1 -1 692.065 200.315 1
-3 1 1 361.771 142.281 1
-2 -1 -1 399.306 232.354 1
2 -3 1 525.179 181.298 1
2 1 1 664.705 126.237 2
-3 2 1 467.706 108.949 1
2 1 -1 262.077 98.8819 2
3 -1 -1 468.066 161.193 2
-2 3 1 149.276 92.2969 1
-1 3 2 1464.69 290.973 1
-3 2 2 2179.55 237.51 1
-2 -1 -2 1622.43 409.99 1
-2 -1 2 2279.46 556.657 1
-2 3 2 2123.01 310.548 1
2 -3 2 2789.37 381.835 1
1 -3 2 2408.62 434.717 1
-1 -2 2 1640.59 473.595 1
2 1 2 2881.72 206.825 2
3 -1 -2 2170.59 308.223 2
2 1 -2 1958.68 255.142 2
-3 1 -2 2125.6 297.746 1
-3 1 2 2074.88 290.317 1
1 -3 3 1866.96 402.031 1
-2 -1 3 1390.87 387.955 1
-3 2 3 1476.64 216.961 1
-1 -2 3 1368.13 468.566 1
-2 3 3 1403.32 260.198 1
-1 3 3 1923.17 366.264 1
3 -1 -3 1866.89 328.504 2
-3 1 3 1431.58 275.898 1
2 1 -3 1708.56 256.637 2
2 1 3 1684.3 137.883 2
-3 1 -3 1460.27 260.864 1
1 2 -3 1596.45 261.504 2
-3 2 4 7910.46 551.928 1
-2 3 4 7060.65 619.825 1
-1 -2 4 9052.39 967.987 1
3 -1 -4 8065.61 631.095 2
1 2 -4 8888.12 621.731 2
2 1 -4 7759.42 567.369 2
-1 3 4 7942.02 726.562 1
3 -2 -4 7512 627.28 2
1 -3 4 10172 915.002 1
-2 -1 4 6006.85 764.463 1
-3 1 4 8089.82 676.214 1
2 -3 4 7345.21 517.887 1
-1 -2 5 36768.5 1785.12 1
2 1 5 45910.7 1700.31 1
-2 3 5 40702 1591.2 1
-3 2 5 38459.5 1331.46 1
2 1 -5 41367.4 1357.31 2
3 -1 -5 38244 1367.38 2
-3 1 5 43332 1655.12 1
1 2 5 42969 1785.31 1
3 -2 -5 41671.1 1583.3 2
1 2 -5 42146.3 1406.43 2
-1 3 5 39322.5 1564.37 1
3 -2 5 44212.9 900.34 1
1 -3 5 38485.6 1640.51 1
-2 -1 5 36434.6 1711.68 1
2 -3 5 39042 1272.21 1
3 -1 5 38492.7 1196.7 1
1 2 6 7320.99 750.693 1
2 1 -6 7478.88 599.106 2
1 2 -6 7523.6 600.438 2
1 -3 6 6326.93 631.457 1
3 -1 -6 6989.96 598.062 2
3 -2 -6 6752.71 630.345 2
-1 3 6 7514.76 721.527 1
3 -2 6 7419 387.85 1
2 1 6 7897.17 694.047 1
-3 1 6 7322.3 699.397 1
3 -1 6 6819.52 492.095 1
-1 -2 6 5663.33 774.344 1
-2 -1 6 7469.58 807.19 1
2 -3 6 7109.82 554.181 1
-3 2 6 7200.22 615.656 1
-2 3 6 7694.54 716.956 1
3 -2 7 10074.1 513.461 1
-1 3 7 10442.8 876.34 1
-2 -1 7 9643.54 1182.57 1
3 -1 7 10563.8 639.331 1
1 2 7 10764.4 852.238 1
2 -3 7 9817.24 627.699 1
2 1 -7 10420.1 741.516 2
1 2 -7 9824.07 733.727 2
-1 -2 7 8890.5 949.122 1
2 1 7 10696.9 830.463 1
-3 2 7 9437.83 746.099 1
-3 1 7 11012.4 894.883 1
-2 3 7 10807.9 870.511 1
1 -3 7 8283.63 740.166 1
3 -1 -7 9809.41 750.765 2
3 -2 -7 9474.12 761.86 2
-2 -1 8 3327.94 610.184 1
2 1 8 3206.23 456.772 1
3 -2 -8 3380.55 487.467 2
3 -2 8 2787.65 308.358 1
-2 3 8 3214.21 495.837 1
1 2 8 3480.65 527.999 1
3 -1 -8 3163.43 428.784 2
-3 1 8 3169.85 479.004 1
3 -1 8 3073.96 359.446 1
1 -3 8 2812.79 443.895 1
-3 2 8 3359.53 465.674 1
1 2 -8 3143.19 436.978 2
-1 3 8 3217.38 520.679 1
2 1 -8 2929.48 412.914 2
-1 -2 8 2557.92 500.008 1
2 -3 8 3246.6 387.171 1
2 -3 9 9896.4 693.067 1
3 -1 9 9251.8 629.098 1
1 2 9 10698.2 904.25 1
1 2 -9 9692.64 746.083 2
2 1 9 9407.1 805.546 1
-1 3 9 9792.99 917.776 1
2 1 -9 10205.1 790.14 2
-2 -1 9 10134.4 1048.75 1
3 -2 9 9207.63 581.271 1
3 -1 -9 9307.67 764.352 2
-3 1 9 9377.55 846.734 1
-3 2 9 10118.8 849.033 1
1 -3 9 8807.94 835.884 1
-2 3 9 9830.78 877.639 1
3 -2 -9 9379.77 822.272 2
-1 -2 9 7601.11 928.464 1
-1 -2 10 222.278 219.717 1
3 -2 10 367.777 148.178 1
1 -3 10 467.513 174.016 1
-3 1 10 463.801 209.133 1
-2 3 10 606.448 253.455 1
-2 -1 10 315.281 219.127 1
1 2 -10 273.39 149.147 2
2 1 -10 123.921 148.41 2
2 -3 10 314.312 159.333 1
-1 3 10 632.927 287.414 1
3 -1 10 394.245 159.35 1
2 1 10 266.966 182.738 1
3 -1 -10 370.701 194.073 2
3 -2 -10 489.051 271.366 2
-3 2 10 648.27 287.242 1
1 2 10 458.453 227.645 1
1 2 -11 863.689 241.792 2
-1 -2 11 625.834 290.592 1
1 2 11 2220.91 526.419 1
-3 2 11 999.643 333.836 1
3 -1 11 1027.05 237.327 1
1 -3 11 629.636 249.891 1
-2 -1 11 1100.57 370.867 1
2 1 -11 684.835 244.588 2
2 -3 11 587.322 186.122 1
2 1 11 955.928 292.648 1
-2 3 11 1282.35 367.93 1
-3 1 11 686.686 244.542 1
3 -2 -11 525.1 254.964 2
3 -1 -11 700.51 234.748 2
-1 3 11 745.47 305.148 1
3 -2 11 834.436 215.528 1
-1 3 -11 800.687 221.416 2
3 -2 12 53.3303 92.3137 1
-2 -1 12 -122.66 247.107 1
1 2 12 24.4468 155.109 1
3 -2 -12 52.4253 190.053 2
-1 3 -12 209.646 140.443 2
-1 -2 12 223.639 277.957 1
3 -1 12 100.134 128.512 1
2 1 12 353.409 214.736 1
2 -3 12 210.599 136.343 1
1 2 -12 274.499 150.52 2
1 -3 12 257.298 167.129 1
3 -1 -12 -6.95875 174.223 2
-1 3 12 -410.822 295.902 1
-2 3 12 65.6257 214.178 1
2 -3 -12 193.891 193.436 2
-3 1 12 367.98 254.031 1
-3 2 12 109.863 150.14 1
2 1 -12 -43.5191 136.33 2
-2 3 13 1171.04 363.26 1
-3 1 13 883.965 285.282 1
2 1 13 905.519 280.908 1
3 -2 13 967.096 214.867 1
-2 -1 13 1016.53 341.644 1
-1 -2 13 943.83 293.06 1
2 1 -13 645.082 272.084 2
-1 3 13 857.308 296.74 1
2 -3 13 950.082 255.36 1
-3 2 13 1147.31 366.819 1
-1 3 -13 1182.18 311.889 2
1 -3 13 985.189 277.056 1
1 2 13 1176.18 328.192 1
3 -1 -13 1032.92 322.983 2
-2 3 -13 830.179 258.418 2
3 -1 13 1239.53 265.064 1
1 2 -13 643.374 217.04 2
3 -2 -13 770.784 298.323 2
-3 2 -13 1014.19 244.156 2
2 -3 -13 1333.91 354.915 2
1 2 14 3667.13 569.298 1
1 -3 14 3590.47 551.314 1
-2 3 -14 3891.78 524.502 2
2 -3 14 3621.31 487.198 1
2 1 14 3916.45 558.142 1
3 -1 14 3342.8 479.469 1
3 -2 14 3898.54 551.536 1
3 -2 -14 3309.31 568.661 2
-2 -1 14 3955.94 624.86 1
-2 3 14 3795.58 616.391 1
-1 3 -14 3922.94 543.646 2
2 -3 -14 3842.22 584.783 2
2 1 -14 3143.2 548.919 2
3 -1 -14 3181.44 572.343 2
-1 3 14 4304.7 652.359 1
1 2 -14 3743.81 583.811 2
-3 2 14 4032.84 652.4 1
-1 -2 14 4239.91 638.543 1
-3 1 14 3521.31 615.481 1
-2 3 15 35.9817 222.962 1
3 -2 15 367.67 233.511 1
3 -1 15 174.834 148.801 1
1 2 15 315.056 223.67 1
-1 3 15 699.064 306.558 1
2 1 -15 325.662 226.37 2
-2 3 -15 356.674 193.412 2
-1 3 -15 22.9497 164.431 2
-1 -2 15 29.8857 151.471 1
1 2 -15 474.305 201.747 2
1 -3 15 92.9179 137.993 1
-3 1 15 804.22 379.784 1
3 -1 -15 429.401 212.307 2
-3 2 15 179.874 208.453 1
2 -3 15 314.442 175.597 1
2 -3 -15 101.941 177.426 2
-2 -1 15 190.628 194.219 1
3 -2 -15 -132.151 233.582 2
2 1 15 165.532 159.911 1
2 1 16 1063.83 360.915 1
-2 3 -16 739.587 272.825 2
-3 2 16 402.1 289.742 1
1 -3 16 777.998 287.154 1
3 -2 16 1113.33 346.023 1
2 -3 -16 561.143 253.41 2
2 1 -16 1067.14 381.365 2
-2 -1 16 818.649 299.762 1
-1 -2 16 621.247 309.747 1
-1 3 -16 598.077 243.681 2
-1 3 16 587.599 208.732 1
-3 1 16 368.976 221.337 1
3 -2 -16 818.042 321.056 2
2 -3 16 796.169 280.394 1
3 -1 -16 620.99 284.614 2
1 2 -16 493.477 261.696 2
1 2 16 909.28 319.299 1
3 -1 16 722.318 226.816 1
-2 3 16 494.846 235.327 1
1 2 -17 7549.66 888.156 2
2 -3 17 6811.44 713.675 1
-3 2 17 7064.39 954.361 1
-2 3 17 6295.28 844.169 1
3 -1 17 8252.97 857.752 1
-1 3 17 6516.36 847.106 1
1 2 17 8034.64 897.739 1
2 1 17 6887.42 830.584 1
-1 3 -17 7318.19 820.014 2
2 -3 -17 7147.42 817.461 2
3 -2 -17 7309.97 899.872 2
-3 1 17 7431.23 914.326 1
-2 3 -17 5529.41 690.117 2
2 1 -17 7723.18 905.475 2
3 -1 -17 7844.68 908.587 2
-2 -1 17 7908.06 919.926 1
-1 -2 17 7446.44 891.008 1
1 -3 17 6833.16 771.198 1
2 -3 18 461.573 225.956 1
-3 2 18 574.521 351.376 1
1 -3 18 362.427 162.429 1
-2 3 18 89.0644 187.097 1
-1 3 -18 385.79 222.313 2
-1 3 18 3.14607 239.028 1
-1 -2 18 -53.5211 235.462 1
-2 -1 18 139.435 214.076 1
3 -1 -18 169.055 204.54 2
3 -1 18 77.7465 188.647 1
2 1 18 232.837 176.806 1
3 -2 -18 376.617 263.704 2
-3 1 18 583.51 299.207 1
1 2 18 213.915 236.326 1
1 2 -18 263.28 170.753 2
2 1 -18 345.462 232.244 2
-2 3 -18 174.294 161.48 2
2 -3 19 -38.5969 178.28 1
-1 3 19 214.654 273.609 1
1 -3 19 -169.755 224.201 1
1 2 19 -149.576 239.526 1
2 1 -19 90.4293 258.318 2
-1 -2 19 116.298 185.283 1
1 2 -19 226.565 205.351 2
-2 -1 19 -64.1846 183.44 1
3 -2 -19 130.072 243.869 2
3 -1 -19 -274.596 294.52 2
-3 1 19 274.656 305.105 1
-2 3 -19 151.059 144.941 2
-1 3 -19 13.0015 148.475 2
-2 3 19 116.801 199.823 1
2 1 19 5.32799 170.278 1
-3 2 19 -56.5557 254.408 1
-3 2 20 60.5148 240.305 1
1 2 -20 -24.586 220.064 2
2 1 -20 -183.02 261.547 2
-2 3 20 -95.1715 184.511 1
-2 -1 20 211.413 172.175 1
2 1 20 43.1876 208.086 1
1 -3 20 231.429 203.456 1
3 -1 -20 303.081 251.64 2
-1 3 20 -9.63837 202.127 1
-3 1 20 -174.95 274.739 1
-1 3 -20 -226.437 267.857 2
1 2 20 -61.9536 206.373 1
3 -2 -20 -347.339 303.421 2
-1 -2 20 -5.34188 205.715 1
-3 2 21 1791.74 475.14 1
-2 3 21 2248.22 619.388 1
2 1 21 1848.97 457.289 1
-1 3 21 1861.81 493.307 1
-1 3 -21 1627.36 458.092 2
3 -1 -21 777.907 256.777 2
2 1 -21 635.928 313.551 2
-3 1 21 1852.06 529.595 1
-1 -2 21 1557.91 485.304 1
1 -3 21 1191.95 360.544 1
-2 -1 21 1486.62 459.654 1
1 2 21 1693.98 486.186 1
3 -2 -21 1335.06 496.524 2
1 2 -21 1165.93 378.539 2
3 -2 -22 129.53 315.863 2
-2 -1 22 109.062 215.115 1
1 -3 22 -19.6882 163.961 1
2 1 -22 258.04 276.043 2
-1 3 -22 297.156 166.176 2
1 2 -22 90.0286 268.657 2
-1 -2 22 360.691 277.094 1
-1 3 22 346.064 318.197 1
3 -1 -22 -48.9572 231.658 2
1 2 22 -1.34521 186.471 1
2 1 22 -139.68 218.075 1
2 1 23 695.973 329.301 1
3 -1 -23 525.185 336.976 2
1 -3 23 874.851 306.896 1
-3 3 0 60461.5 1237.12 1
3 0 0 64954.8 1512.72 2
0 -3 0 65387 2397.2 1
0 -3 1 478.434 297.117 1
0 -3 -1 603.867 314.71 1
-3 0 -1 828.477 292.877 1
3 0 -1 1035.58 187.272 2
-3 0 1 503.739 234.964 1
3 0 1 1121.23 190.669 2
3 -3 1 671.169 133.372 1
-3 3 1 847.109 161.014 1
0 -3 2 466.412 251.166 1
3 -3 2 805.773 123.221 1
3 0 -2 857.744 197.469 2
-3 0 2 765.909 268.459 1
3 0 2 994.002 169.854 2
-3 0 -2 848.309 270.861 1
-3 3 2 960.143 192.158 1
-3 3 3 17018.6 821.11 1
0 -3 3 16174 1280.17 1
-3 0 3 15451.9 1136.16 1
3 0 -3 17329.4 849.354 2
-3 0 -3 18247.1 1095.87 1
3 -3 3 15979.8 459.687 1
0 3 4 3306.98 549.5 1
0 -3 4 4238.14 703.543 1
3 0 -4 4158.42 421.786 2
-3 3 4 3726.22 411.585 1
-3 0 4 3520.56 558.753 1
3 -3 4 3655.18 236.937 1
0 3 5 1039.46 319.801 1
-3 0 5 926.639 308.896 1
3 0 -5 982.054 236.031 2
-3 3 5 800.211 198.864 1
3 -3 5 1089.17 151.808 1
0 -3 5 1177.01 441.019 1
-3 0 6 1096.57 332.662 1
3 -3 6 1647.78 206.561 1
0 3 6 1972.24 404.185 1
3 0 -6 2493.73 393.685 2
-3 3 6 1738.47 311.868 1
0 -3 6 1903.11 442.012 1
3 0 7 513.64 197.675 1
-3 0 7 521.519 215.405 1
-3 3 7 538.552 202.417 1
0 -3 7 375.065 216.266 1
3 0 -7 579.834 208.964 2
3 -3 7 415.723 133.119 1
0 3 7 277.688 195.503 1
-3 3 8 251.443 177.499 1
3 0 -8 236.94 182.555 2
0 3 8 38.5969 146.218 1
3 0 8 32.848 148.45 1
0 -3 8 142.299 166.186 1
3 -3 8 202.722 93.4222 1
-3 0 8 89.6108 145.993 1
3 -3 9 9201.72 644.498 1
-3 3 9 9008.74 790.513 1
0 3 9 7904.12 852.808 1
0 3 -9 9168.6 740.028 2
3 0 -9 8945.17 774.324 2
-3 0 9 8909.73 918.345 1
3 0 9 9253.43 754.694 1
0 -3 9 8398.5 819.049 1
-3 0 10 11107.7 1036.11 1
3 -3 10 9167.45 686.477 1
-3 3 10 9075.99 831.883 1
0 3 10 10292.3 966.272 1
3 0 10 9149.96 747.461 1
0 3 -10 9847.66 793.882 2
3 -3 -10 9953.12 889.145 2
3 0 -10 9268.96 826.122 2
0 -3 10 9183.52 852.452 1
0 -3 11 1029.59 326.852 1
-3 3 11 432.273 220.556 1
-3 0 11 721.672 325.959 1
3 -3 11 525.024 213.811 1
3 0 11 605.872 205.588 1
3 0 -11 610.127 225.317 2
0 3 -11 767.569 265.785 2
3 -3 -11 277.037 237.151 2
0 3 11 618.066 284.069 1
3 -3 12 15835 988.631 1
-3 3 12 13811.1 1092.72 1
0 3 12 14410.1 1145.38 1
3 0 12 13312.8 918.36 1
0 3 -12 13614.5 980.278 2
3 0 -12 13226 996.506 2
3 -3 -12 14268.9 1085.92 2
-3 0 12 14519.5 1176.99 1
0 -3 12 11562.4 1003.49 1
-3 3 13 65.1415 145.36 1
0 3 13 38.4725 194.716 1
0 -3 13 209.652 178.271 1
3 0 13 75.9918 114.504 1
-3 0 13 303.348 176.887 1
0 3 -13 89.639 147.522 2
3 -3 13 147.903 140.598 1
3 -3 -13 -20.3158 134.864 2
3 0 -13 69.144 147.33 2
3 0 -14 3524.81 541.565 2
0 3 14 3873.28 610.1 1
-3 3 14 4279.52 633.829 1
0 -3 14 3390.28 569.343 1
3 0 14 3920.14 536.484 1
0 3 -14 3645.13 525.854 2
-3 0 14 3532.57 622.651 1
3 -3 -14 4023.55 595.005 2
0 3 15 3512.27 627.605 1
3 0 15 3600.87 505.36 1
-3 3 15 3533.57 668.406 1
0 -3 15 4191.66 635.891 1
-3 3 -15 3420.08 483.019 2
-3 0 15 2804.72 550.798 1
0 3 -15 3699.9 546.246 2
3 -3 -15 3566.84 607.231 2
3 0 -15 3747.92 622.842 2
3 0 16 846.133 272.14 1
-3 3 16 620.099 306.865 1
0 3 -16 195.029 176.954 2
3 0 -16 342.752 213.113 2
-3 0 16 335.773 212.611 1
0 -3 16 276.202 188.33 1
3 -3 -16 -320.604 266.291 2
0 3 16 532.613 253.969 1
3 0 17 285.627 251.343 1
-3 3 17 -140.898 260.851 1
-3 0 17 0.74661 253.123 1
0 -3 17 716.2 332.449 1
3 0 -17 325.15 210.119 2
0 3 -17 768.007 308.313 2
3 -3 -17 139.311 188.598 2
0 3 17 121.266 189.294 1
-3 3 18 1538.18 461.111 1
3 0 18 1475.46 367.41 1
-3 0 18 1656.06 477.896 1
0 -3 18 1822.99 436.955 1
3 0 -18 973.217 312.114 2
0 3 -18 1105.35 371.351 2
3 -3 -18 1258.24 418.744 2
0 3 18 1825.05 462.422 1
3 0 19 -1.59296 175.542 1
0 3 -19 12.0173 174.961 2
0 -3 19 278.591 253.07 1
3 0 -19 -73.9609 328.525 2
-3 0 19 -170.972 293.965 1
3 -3 -19 284.236 268.634 2
0 3 19 99.1456 179.677 1
-3 3 19 -281.284 245.608 1
3 0 -20 -21.8539 264.959 2
-3 3 20 1.60543 241.229 1
-3 0 20 -65.0621 169.616 1
0 3 -20 -431.559 307.516 2
0 -3 20 61.5966 158.971 1
0 3 20 401.716 300.992 1
3 -3 -20 109.773 210.721 2
-3 3 21 1321.2 470.905 1
0 -3 21 1518.98 434.289 1
3 0 -21 1136.05 453.763 2
-3 0 21 1358.28 424.896 1
0 3 21 1197.76 444.633 1
0 3 -21 1122.69 402.358 2
3 0 -22 1684.18 572.851 2
0 3 -22 622.367 324.1 2
0 -3 22 1175.88 386.883 1
2 2 0 722521 6846.25 2
-2 -2 0 729066 10255.5 1
-4 2 -1 109.598 78.9279 1
2 2 -1 -45.7285 113.353 2
-4 2 1 364.112 107.31 1
2 -4 1 182.424 205.615 1
-2 -2 -1 92.7533 279.466 1
2 2 1 30.0644 57.9589 2
2 2 2 1392.42 165.019 2
-4 2 -2 1497.92 151.653 1
-2 -2 -2 2058.23 499.199 1
-4 2 2 1194.04 188.163 1
2 -4 2 1552.45 372.551 1
2 2 -2 1303.39 220.874 2
-2 -2 2 1003.66 416.982 1
-4 2 3 174.948 102.014 1
-2 4 3 485.287 221.293 1
2 -4 3 577.926 284.65 1
2 2 3 91.624 56.7237 2
-2 -2 3 23.0986 225.635 1
-4 2 -3 352.025 100.468 1
-2 -2 -3 62.6724 236.088 1
2 2 -3 99.1949 97.3702 2
2 2 -4 14219.6 791.917 2
-2 4 4 12723.4 895.862 1
-4 2 4 12191 691.379 1
4 -2 -4 13616.6 896.037 2
2 2 4 12872.9 404.103 2
2 -4 4 17523.3 1155.09 1
-4 2 -4 10968.8 488.277 1
-2 -2 4 15923.4 1378.6 1
-4 2 -5 -6.16531 65.11 1
-4 2 5 28.8771 116.031 1
2 2 -5 126.337 92.3869 2
4 -2 -5 -23.2191 154.809 2
-2 -2 5 1034.24 355.825 1
-2 4 5 337.867 208.736 1
2 -4 5 764.384 284.092 1
-4 2 6 414083 5523.94 1
2 2 -6 410462 5463.87 2
2 -4 6 410126 5898.39 1
-2 -2 6 402110 7041.76 1
-2 4 6 392299 6081.82 1
4 -2 -6 417454 6003.17 2
-4 2 7 -80.2903 145.475 1
2 2 7 -164.412 208.765 1
4 -2 7 76.5919 74.6554 1
2 2 -7 -234.045 185.221 2
-2 4 7 -273.123 223.852 1
-2 -2 7 13.8267 186.699 1
2 -4 7 140.154 138.913 1
2 2 -8 3418.22 483.528 2
-4 2 8 3743.64 508.641 1
-2 4 8 4055.96 566.089 1
2 2 8 5012.23 655.861 1
4 -2 8 3664.53 322.817 1
4 -2 -8 3205.21 468.431 2
-2 -2 8 3089.08 622.9 1
2 -4 8 4372.5 508.237 1
2 -4 9 344.012 154.261 1
-2 4 9 65.217 157.346 1
4 -2 -9 45.5875 121.469 2
2 2 -9 73.7135 133.41 2
-4 2 9 -190.983 202.791 1
2 2 9 50.5248 152.008 1
2 -4 10 255.504 170.18 1
2 2 -10 92.0816 124.192 2
-4 2 10 317.216 207.966 1
4 -2 -10 -6.74446 170.485 2
2 2 10 300.239 228.008 1
-2 4 10 9.92968 144.393 1
-2 -2 10 424.958 297.673 1
2 2 11 -217.426 239.611 1
-2 -2 11 440.737 254.014 1
2 -4 11 76.3392 132.59 1
-2 4 11 222.942 242.047 1
2 2 -11 -132.608 181.659 2
-4 2 11 -228.177 194.72 1
4 -2 -11 -511.895 244.578 2
-4 2 12 286248 5513.84 1
-2 4 12 277336 5516.47 1
-2 -2 12 286689 5784.01 1
4 -2 -12 275575 5128.6 2
2 2 -12 273029 5051.56 2
2 2 12 273072 5271.94 1
2 -4 12 289786 4737.35 1
-2 -2 13 -169.516 222.608 1
2 -4 13 37.7709 116.453 1
2 2 -13 -86.998 206.072 2
-4 2 13 -159.117 244.433 1
4 -2 -13 56.4456 184.519 2
-2 4 13 455.068 240.392 1
2 2 13 23.9504 190.064 1
-2 -2 14 1549.16 431.195 1
2 2 14 2009.56 434.857 1
-2 4 -14 1966.06 452.459 2
2 -4 14 1780.52 355.27 1
2 2 -14 1421.6 355.568 2
4 -2 -14 1842.9 431.743 2
-2 4 14 1706.44 397.084 1
-4 2 14 1721.06 453.697 1
-2 4 -15 352.161 210.419 2
2 2 -15 8.98221 176.047 2
2 2 15 -207.08 226.872 1
4 -2 -15 205.459 167.334 2
-4 2 15 189.725 224.411 1
-2 4 15 102.473 204.318 1
-2 -2 15 33.4308 174.577 1
2 -4 15 -92.6644 101.03 1
-2 -2 16 11081.6 1109.35 1
2 -4 16 9456.61 815.853 1
-4 2 16 9292.31 1033.79 1
-2 4 16 8568.07 984.511 1
2 2 16 10188.6 991.63 1
-2 4 -16 10590.5 984.641 2
4 -2 -16 8783.19 985.365 2
2 2 -16 8491.29 936.208 2
-2 -2 17 -165.176 291.709 1
-2 4 -17 631.682 264.592 2
2 -4 17 -25.0445 173.971 1
2 2 17 -104.739 190.131 1
2 2 -17 361.273 306.133 2
4 -2 -17 -53.5658 212.158 2
-4 2 17 -245.435 274.98 1
-2 4 17 256.997 183.064 1
-2 -2 18 89484.5 3227.02 1
-4 2 18 78069.9 3161.14 1
-2 4 -18 72560.9 2713.51 2
-2 4 18 73874.9 2961.03 1
2 2 18 81724 3047.01 1
4 -2 -18 81064.9 3106.3 2
2 2 -18 80205.3 3039.81 2
-2 -2 19 851.504 321.89 1
2 2 19 489.176 339.105 1
2 2 -19 -42.3342 213.736 2
4 -2 -19 -256.344 307.991 2
-2 4 -19 78.4827 199.014 2
-2 4 19 276.364 177.454 1
-4 2 19 -194.312 299.543 1
-2 -2 20 8818.81 1008.32 1
-4 2 20 7376.74 977.246 1
-2 4 20 7758.34 986.22 1
2 2 20 7229.62 909.364 1
-2 4 -20 5874.74 750.668 2
2 2 -20 6821.18 928.805 2
4 -2 -20 7357.85 973.282 2
2 2 21 -20.2369 215.086 1
-2 4 -21 297.35 197.656 2
-2 -2 21 89.8715 244.519 1
-2 4 21 -151.214 189.76 1
-4 2 21 -321.499 268.599 1
4 -2 -21 88.7011 233.1 2
2 2 -21 26.2217 339.724 2
2 2 22 311.587 331.755 1
-4 3 0 1939.01 170.732 1
-3 -1 0 1786.8 460.012 1
-1 -3 0 2154.89 559.244 1
-4 1 0 2520.09 386.64 1
1 -4 0 2338.73 517.632 1
3 1 0 2558.05 296.298 2
-4 3 1 3338.56 274.768 1
3 -4 1 3314.31 376.199 1
3 1 -1 3656.62 366.906 2
-1 -3 -1 2865.27 642.965 1
4 -1 -1 3478.44 411.356 2
1 -4 1 3049.4 546.008 1
-1 -3 1 2707.13 559.838 1
-3 -1 -1 2814.23 557.944 1
3 1 1 3503.9 310.741 2
-3 -1 1 2763.22 564.2 1
-4 1 -1 3509.55 449.102 1
-4 1 1 3242.15 417.032 1
-4 3 2 5016.19 383.715 1
1 -4 2 3824.45 650.696 1
-3 4 2 3995.3 403.475 1
3 1 2 4956.16 335.353 2
-1 -3 -2 4317.56 757.843 1
-3 -1 -2 4866.3 689.745 1
3 -4 2 5911.16 527.899 1
4 -1 -2 4966.29 505.514 2
-1 -3 2 2509.6 701.785 1
-4 1 -2 4560.9 472.246 1
-3 -1 2 4006.9 735.433 1
3 1 -2 5243.32 477.645 2
-4 1 2 4979.8 533.22 1
3 1 -3 3447.36 404.652 2
1 -4 3 3063.15 596.356 1
4 -1 -3 3310.92 421.524 2
-3 4 3 2470.64 342.308 1
3 1 3 2822.17 220.707 2
-3 -1 3 2947.63 581.034 1
-3 -1 -3 2649.07 549.174 1
-4 1 -3 2998.9 376.843 1
3 -4 3 3620.73 407.997 1
-1 -3 3 2520.33 566.919 1
-4 1 3 2896.06 406.398 1
-4 3 4 11303.1 636.668 1
-3 4 4 10762.3 756.149 1
-1 4 4 10604.5 948.087 1
4 -1 -4 11920 793.889 2
3 1 4 9568.06 370.718 2
1 -4 4 12852.6 1221.51 1
-3 -1 -4 12053.7 1021.09 1
-4 1 -4 10712 724.887 1
3 1 -4 12835.1 784.506 2
-1 -3 4 11391.3 1189.49 1
3 -4 4 12003.3 670.146 1
-3 -1 4 9629.82 986.8 1
-4 1 4 9581 746.808 1
-4 3 5 9297.84 618.291 1
-3 4 5 8952.38 726.002 1
3 1 -5 10485.9 750.698 2
1 3 -5 11351.5 773.173 2
4 -1 -5 9644.23 725.263 2
-1 4 5 10200.6 932.798 1
-4 1 -5 9673.51 704.378 1
1 -4 5 10303.7 1207.3 1
-1 -3 5 10086.7 1135.75 1
-3 -1 5 6366.87 969.299 1
3 -4 5 9965.39 582.124 1
-4 1 5 8467.5 674.612 1
-4 1 6 1013.72 268.867 1
1 3 -6 1297.45 272.169 2
3 1 -6 1375.06 295.045 2
-1 4 6 809.241 272.671 1
4 -1 -6 1062.76 259.16 2
1 -4 6 1183.89 360.55 1
-1 -3 6 1059.02 376.287 1
-3 4 6 995.482 283.888 1
-3 -1 6 763.312 321.607 1
-4 3 6 1006.77 235.105 1
3 -4 6 1250.4 218.749 1
3 -4 7 620.365 153.877 1
-1 4 7 335.557 149.454 1
-3 -1 7 574.41 286.554 1
-4 1 7 521.98 226.079 1
1 3 -7 680.713 227.889 2
3 1 -7 457.07 197.905 2
-1 -3 7 968.431 405.89 1
4 -1 -7 594.281 196.037 2
1 -4 7 772.944 316.615 1
-3 4 7 551.746 236.46 1
-4 3 7 707.68 204.356 1
1 3 7 619.381 223.034 1
-4 1 8 4408.35 573.603 1
-4 3 8 5153.15 544.426 1
4 -3 -8 4939.59 605.98 2
-3 4 8 4429.56 595.557 1
1 3 8 5826.56 749.69 1
4 -1 8 4820.53 455.248 1
3 1 8 5010.55 609.184 1
4 -1 -8 4277.76 532.571 2
1 -4 8 4280.77 620.423 1
1 3 -8 4929.4 553.334 2
3 1 -8 5434.35 591.18 2
-1 -3 8 5154.48 763.34 1
-1 4 8 4489.61 647.163 1
-3 -1 8 4633.08 710.032 1
3 -4 8 4619.86 410.988 1
3 -4 9 9840.49 633.643 1
-4 1 9 9157.25 830.323 1
-4 3 9 9634.35 792.455 1
-3 4 9 10642.8 897.801 1
4 -1 9 9023.03 654.411 1
3 1 9 10715.6 913.655 1
4 -1 -9 9254.17 788.996 2
3 1 -9 9446.15 802.682 2
-1 4 9 10266.8 977.448 1
4 -3 -9 9015.04 823.216 2
1 3 -9 10338.8 804.317 2
1 3 9 9007.98 929.08 1
-1 -3 9 10027.3 1059.9 1
1 -4 9 8549.56 854.219 1
-3 -1 9 8197.24 933.077 1
-3 -1 10 372.616 291.932 1
4 -1 10 210.729 132.309 1
1 3 10 158.237 206.676 1
-4 1 10 16.4082 176.894 1
4 -1 -10 257.004 192.335 2
-1 4 10 91.3701 218.751 1
3 1 -10 276.061 188.74 2
3 -4 10 242.851 137.442 1
-3 4 10 40.5667 127.192 1
1 3 -10 -24.0781 112.718 2
4 -3 -10 365.699 176.938 2
3 1 10 392.843 234.715 1
-4 3 10 43.4543 141.836 1
-1 -3 10 352.528 236.959 1
1 -4 10 108.699 124.301 1
1 -4 11 70.4531 161.679 1
4 -1 -11 312.746 143.679 2
-3 -1 11 171.707 275.775 1
-1 4 11 641.006 329.372 1
3 -4 11 473.905 181.516 1
-4 1 11 420.003 195.373 1
1 3 -11 214.925 170.043 2
3 1 -11 228.215 166.514 2
-3 4 11 529.167 197.884 1
4 -3 -11 136.962 171.533 2
4 -1 11 530.309 186.131 1
-4 3 11 415.32 202.93 1
3 1 11 218.066 193.318 1
1 3 11 248.862 147.417 1
-1 -3 11 353.269 295.434 1
-1 -3 12 294.399 208.834 1
1 -4 12 445.463 228.484 1
3 1 12 385.625 175.47 1
-3 -1 12 97.8592 200.839 1
-1 4 -12 137.444 179.113 2
1 3 -12 264.601 149.031 2
-3 4 12 489.87 258.353 1
4 -3 -12 385.497 239.051 2
3 1 -12 256.24 139.23 2
4 -1 -12 280.673 206.394 2
4 -1 12 455.363 188.697 1
-4 1 12 307.204 216.65 1
1 3 12 689.01 330.596 1
-1 4 12 186.61 233.258 1
-4 3 12 600.653 251.181 1
-1 -3 13 224.26 183.435 1
1 -4 13 111.413 126.159 1
-3 -1 13 160.679 212.879 1
-1 4 13 211.863 172.43 1
-1 4 -13 -76.3328 226.106 2
-4 1 13 -80.0346 201.654 1
3 1 -13 532.099 223.084 2
-3 4 13 932.54 326.455 1
4 -1 -13 240.098 178.445 2
4 -3 -13 452.431 234.64 2
1 3 -13 -75.7234 152.695 2
1 3 13 350.252 246.562 1
3 1 13 251.795 117.707 1
-4 3 13 178.756 183.264 1
-4 1 14 5272.07 728.243 1
-3 4 14 4550.02 661.64 1
-1 4 14 5121.87 734.583 1
1 3 14 4862.91 724.519 1
3 1 14 4444.56 593.643 1
-1 4 -14 4559.97 641.938 2
1 3 -14 4394.94 589.123 2
-3 -1 14 4845.11 770.489 1
3 1 -14 4289.76 592.873 2
4 -1 -14 4613.78 624.945 2
4 -3 -14 4850.06 701.23 2
-4 3 14 4241.99 658.003 1
-1 -3 14 4738.53 696.432 1
1 -4 14 4331.88 599.013 1
-1 4 15 249.044 253.06 1
-1 -3 15 -135.385 174.603 1
1 -4 15 23.1087 142.458 1
-3 -1 15 -171.553 280.201 1
1 3 -15 289.115 250.78 2
-3 4 15 -225.935 237.102 1
-4 1 15 247.493 222.902 1
3 1 -15 -173.577 228.072 2
3 1 15 -85.8283 163.979 1
1 3 15 264.119 249.313 1
-1 4 -15 128.003 215.44 2
4 -1 -15 -145.729 186.068 2
4 -3 -15 216.227 204.801 2
-4 3 15 -55.5649 172.597 1
-1 4 16 1463.64 381.192 1
-1 -3 16 1318.49 375.22 1
1 -4 16 1633.09 389.839 1
-3 -1 16 2008.14 555.777 1
-3 4 -16 1327.41 385.364 2
4 -1 -16 1425.67 391.763 2
-3 4 16 1603.39 437.549 1
1 3 -16 1509.39 392.787 2
-1 4 -16 1672.49 433.763 2
3 1 -16 1534.69 436.9 2
1 3 16 1989.6 443.295 1
-4 1 16 2006.31 512.354 1
4 -3 -16 1845.55 507.03 2
3 1 16 1318.45 347.677 1
-4 3 16 1732.66 458.481 1
-4 3 17 2801.83 565.11 1
-3 -1 17 2715.82 589.85 1
-1 4 17 2261.28 522.101 1
-3 4 -17 2130.41 422.222 2
4 -1 -17 1998.76 514.126 2
-1 4 -17 2415.62 501.669 2
1 3 17 1686.67 471.305 1
1 3 -17 1691.27 405.141 2
1 -4 17 2126.43 449.589 1
3 1 -17 1497.25 427.522 2
-4 1 17 2406.02 552.108 1
3 1 17 2443.45 478.371 1
4 -3 -17 2130.56 534.074 2
-3 4 17 1821.7 467.589 1
-1 -3 17 1888.25 453.324 1
-4 3 18 -559.621 309.839 1
-1 4 18 -75.3702 202.885 1
1 -4 18 229.266 188.615 1
-1 -3 18 -162.532 236.987 1
-3 4 18 25.7207 220.377 1
-3 4 -18 281.275 191.496 2
-3 -1 18 173.593 245.005 1
-1 4 -18 -58.6108 174.363 2
3 1 -18 -14.3024 256.896 2
1 3 18 16.6365 195.113 1
3 1 18 167.069 172.665 1
-4 1 18 -20.0172 197.479 1
4 -1 -18 -89.5466 201.045 2
4 -3 -18 -195.424 212.256 2
1 3 -18 306.014 262.393 2
-4 3 19 618.127 315.408 1
-1 4 19 1259.13 428.341 1
-1 -3 19 622.346 307.397 1
1 3 19 601.604 333.879 1
-1 4 -19 573.917 297.026 2
1 -4 19 957.259 325.819 1
1 3 -19 848.15 348.584 2
-3 4 19 951.812 363.626 1
3 1 -19 708.561 293.58 2
3 1 19 716.956 243.858 1
4 -1 -19 783.47 341.493 2
-4 1 19 1080.15 413.173 1
-3 -1 19 654.719 312.421 1
4 -3 -19 785.45 245.276 2
-4 3 20 449.774 286.9 1
-1 4 20 640.206 343.554 1
-1 -3 20 271.105 209.937 1
-1 4 -20 351.899 250.719 2
1 -4 20 256.856 190.735 1
1 3 -20 -201.98 311.18 2
-3 -1 20 625.6 394.291 1
3 1 20 521.88 307.463 1
-3 4 20 300.929 188.23 1
3 1 -20 505.607 294.467 2
1 3 20 677.313 352.398 1
4 -1 -20 556.781 296.507 2
4 -3 -20 45.9391 237.314 2
-4 1 20 105.579 207.642 1
-1 -3 21 1873.62 441.793 1
-4 3 21 1834.75 517.487 1
-1 4 -21 1825.28 474.996 2
1 3 -21 1340.1 379.413 2
3 1 21 2898.58 578.724 1
1 -4 21 1493.98 381.616 1
3 1 -21 1541.99 444.841 2
1 3 21 1743.31 524.189 1
4 -1 -21 1554.99 451.967 2
4 -3 -21 1305.17 381.312 2
4 -3 -22 -280.153 298.957 2
4 0 0 3079.27 344.791 2
-4 0 0 3327.91 509.319 1
0 -4 0 3280.35 624.005 1
-4 4 1 29366.3 1036.88 1
4 0 1 26528.8 982.502 2
4 0 -1 27254.7 1112.24 2
0 -4 -1 27283.8 1728.82 1
4 -4 1 26048.4 757.551 1
0 -4 1 23782.3 1662.56 1
-4 0 -1 28152.8 1375.3 1
-4 0 1 26417.2 1567.61 1
-4 4 2 109718 2016.74 1
4 0 2 112754 2134.79 2
4 0 -2 110277 2332.02 2
0 -4 -2 114657 3617.52 1
0 -4 2 102307 3274.67 1
-4 0 -2 110366 2706.98 1
4 -4 2 105997 1485.01 1
-4 0 2 106543 2903.09 1
-4 4 3 159245 2701.75 1
4 0 -3 160181 3014.47 2
-4 0 -3 162458 3393.87 1
0 -4 3 156966 4236.93 1
-4 0 3 155979 3751.71 1
-4 4 4 159087 2880.61 1
4 0 -4 156107 3091.24 2
-4 0 -4 150186 3330.19 1
0 -4 4 155634 4321.25 1
-4 0 4 165754 3972 1
-4 4 5 58288 1743.02 1
4 0 -5 56252.3 1847.3 2
-4 0 -5 57191.2 1974.32 1
0 -4 5 62964.5 2834.93 1
-4 0 5 59353.1 2376.65 1
-4 4 6 453.8 189.756 1
4 0 -6 499.124 184.49 2
-4 0 6 526.594 280.088 1
-4 4 7 66963.8 2036.24 1
0 4 7 64852.8 2579.42 1
4 0 -7 64060.6 2077.79 2
0 -4 7 70020.5 2932.02 1
-4 0 7 60179.6 2341.63 1
-4 4 8 66849.8 2061.03 1
0 4 8 70003.4 2656.74 1
4 0 -8 68655.7 2185.02 2
0 -4 8 69110.6 2828 1
-4 0 8 65974.7 2398.69 1
-4 4 9 122693 2895.53 1
0 4 9 126308 3623.92 1
4 0 -9 126373 3130.24 2
0 -4 9 119904 3763.35 1
-4 0 9 121277 3321.99 1
-4 4 10 64698.4 2097.89 1
0 4 10 65896.8 2599.93 1
4 0 -10 64724.7 2235.82 2
4 0 10 64344.2 2102.75 1
0 4 -10 61769.3 2158.82 2
0 -4 10 59643.3 2544.81 1
-4 0 10 65165.8 2379.8 1
0 4 -11 1683.01 343.559 2
0 4 11 1980 490.441 1
-4 0 11 2187.43 471.546 1
4 0 11 1584.89 323.7 1
-4 4 11 1289.83 315.176 1
4 0 -11 1592.55 367.742 2
0 -4 11 1606.38 426.642 1
0 -4 12 336.474 224.557 1
-4 0 12 281.327 149.487 1
-4 4 12 148.212 170.781 1
4 0 -12 218.659 161.163 2
0 4 -12 359.126 241.68 2
4 0 12 323.584 182.533 1
0 4 12 520.246 262.85 1
-4 0 13 27823.3 1648.09 1
-4 4 13 28489.1 1509.22 1
4 0 13 29659.6 1462.28 1
4 0 -13 28077 1522.99 2
0 4 13 29648.4 1772.92 1
0 4 -13 29607 1528.27 2
0 -4 13 24184 1511.01 1
-4 0 14 28447.6 1671.45 1
-4 4 14 29234.6 1583.16 1
4 0 14 29024.8 1419.02 1
4 0 -14 28459.5 1590.88 2
0 4 -14 30264.8 1598.56 2
0 4 14 31370.2 1854.78 1
0 -4 14 27282.2 1557.87 1
-4 0 15 25087 1594.4 1
-4 4 15 24310.1 1498.85 1
0 4 15 25243.3 1713.07 1
0 4 -15 24763.8 1492.11 2
4 0 -15 24031.8 1496.34 2
0 -4 15 24599.6 1466.32 1
0 -4 16 42262.4 1948.92 1
-4 0 16 44853.3 2211.1 1
-4 4 16 41901.4 2025.09 1
0 4 16 40792.6 2212.96 1
0 4 -16 43509.3 2040.6 2
4 0 -16 40625.2 2016.38 2
0 -4 17 3117.03 562.869 1
0 4 -17 1681.2 419.635 2
-4 4 17 2779.74 551.154 1
0 4 17 3237.67 596.51 1
4 0 -17 2419.19 475.623 2
-4 0 17 1839.45 470.269 1
-4 4 18 -103.446 243.543 1
0 4 -18 -10.8841 158.344 2
0 -4 18 768.101 280.719 1
0 4 18 62.2153 208.102 1
4 0 -18 148.374 182.953 2
-4 0 18 33.9004 180.415 1
0 -4 19 7232.53 818.714 1
-4 0 19 9087.17 1079.37 1
-4 4 19 8519.27 984.643 1
0 4 19 6816.4 953.435 1
0 4 -19 8004.8 936.489 2
4 0 -19 6606.4 866.228 2
0 4 -20 3354.79 647.078 2
0 -4 20 3425.54 546.821 1
0 4 20 3999.77 750.608 1
-4 0 20 4835.86 778.337 1
4 0 -20 4063.98 697.179 2
-4 4 20 4765.64 762.278 1
0 -4 21 13731 1125.77 1
3 2 0 8115.13 527.259 2
2 3 0 8223.38 567.886 2
3 -5 0 8008.12 711.775 1
2 -5 0 7371.01 776.942 1
-2 -3 0 6665.29 1000.76 1
-3 -2 0 7382.62 961.925 1
2 3 1 10012.1 612.235 2
2 3 -1 10060.9 667.578 2
3 2 1 9958.67 570.751 2
3 2 -1 10741.6 624.658 2
2 -5 -1 8825.61 868.073 1
3 -5 1 9824.36 775.839 1
2 -5 1 10649.6 935.062 1
-2 -3 -1 10052.3 1218.25 1
-3 -2 -1 8340.25 1023.66 1
-2 -3 1 8803.39 1110.48 1
-3 -2 1 8404.3 1018.12 1
-5 2 1 11961.4 698.123 1
2 3 2 4069.4 379.181 2
2 3 -2 3975.45 459.815 2
3 2 -2 3949.6 408.334 2
-3 -2 -2 3344.31 685.796 1
-2 -3 2 4359.21 761.029 1
-2 -3 -2 4182.69 811.796 1
3 -5 2 3810.92 472.441 1
2 -5 2 4436.11 639.764 1
-3 -2 2 4599.05 778.441 1
3 2 2 4257.81 345.44 2
-5 2 2 4200.94 401.289 1
-5 3 3 3474.4 294.551 1
3 2 -3 4330.56 443.19 2
2 3 3 4201.46 375.812 2
-2 -3 -3 3817.54 712.605 1
-2 -3 3 3637.78 781.322 1
2 3 -3 4556.51 474.58 2
-3 -2 3 4347.01 805.43 1
2 -5 3 4215.35 631.779 1
3 -5 3 4317.03 522.792 1
-3 -2 -3 3822.26 701.134 1
-5 2 3 4234.85 412.506 1
-5 2 4 8900.39 608.816 1
-5 3 4 8357.58 511.064 1
2 3 -4 10628.9 750.959 2
-3 5 4 8747.06 759.753 1
5 -2 -4 9818.32 803.871 2
3 2 -4 9929.71 704.54 2
-2 -3 -4 10152.7 1090.99 1
-3 -2 -4 8757.03 1020.48 1
2 -5 4 10165.5 1068.26 1
3 -5 4 10749.3 820.997 1
-2 -3 4 8754.34 1287.13 1
-3 -2 4 11045.4 1249.42 1
-5 3 5 981.783 191.356 1
-5 2 5 1004.39 218.75 1
-3 5 5 1278.29 317.681 1
-2 5 5 1208.18 362.498 1
2 3 -5 1087.03 277.635 2
3 2 -5 840.71 233.593 2
2 -5 5 1546.94 458.727 1
-2 -3 5 1011.36 471.432 1
3 -5 5 1005.34 259.305 1
-3 -2 5 487.653 325.211 1
5 -2 -5 1023.91 232.679 2
-3 -2 -5 1095.35 371.469 1
-2 5 6 440.557 256.955 1
-5 2 6 229.147 130.376 1
3 2 -6 257.495 158.724 2
-5 3 6 249.769 118.516 1
2 -5 6 246.163 221.853 1
5 -2 -6 255.666 117.459 2
-2 -3 6 545.076 302.926 1
3 -5 6 190.252 122.465 1
-3 -2 6 93.997 177.708 1
2 3 -6 264.554 142.303 2
-3 5 6 122.602 113.336 1
-5 2 7 623.557 202.363 1
2 3 -7 1230.03 296.811 2
3 2 -7 731.861 218.471 2
-2 5 7 892.559 307.113 1
-5 3 7 874.179 208.809 1
5 -2 -7 715.843 218.155 2
-3 5 7 796.85 264.072 1
2 -5 7 1103.99 347.313 1
-2 -3 7 399.804 208.869 1
-3 -2 7 541.813 377.319 1
3 -5 7 977.218 263.844 1
-5 3 8 3555.76 442.4 1
-2 5 8 4233.36 641.487 1
2 3 -8 4514.71 548.877 2
3 2 -8 3924.33 523.72 2
5 -3 -8 4029.93 542.537 2
-5 2 8 2461.8 375.71 1
-3 5 8 3717.77 551.634 1
5 -2 -8 3565.78 481.087 2
-2 -3 8 3493.8 680.083 1
-3 -2 8 3504.95 647.242 1
2 -5 8 4522.37 611.99 1
3 -5 8 3998.53 466.986 1
-5 2 9 7934.08 682.41 1
-5 3 9 8329.28 705.755 1
-3 5 9 10014.6 923.369 1
2 3 -9 9738.7 827.422 2
3 2 -9 10124.5 854.26 2
5 -3 -9 8700.12 803.521 2
5 -2 -9 9948.11 823.389 2
-2 5 9 9800.12 963.833 1
-2 -3 9 6147.46 1017.44 1
2 -5 9 10207.4 904.19 1
-3 -2 9 6267.07 1006.38 1
-3 5 10 612.052 276.711 1
2 3 10 473.956 251.453 1
2 3 -10 503.963 234.358 2
3 2 -10 721.856 291.424 2
5 -2 -10 716.824 231.222 2
5 -3 -10 572.47 272.518 2
-5 3 10 728.852 222.135 1
-2 5 10 657.384 282.627 1
-2 -3 10 141.097 198.376 1
2 -5 10 845.462 291.372 1
-5 2 10 527.032 199.746 1
-3 -2 10 346.137 239.707 1
-3 -2 11 1961.88 477.378 1
2 -5 11 2710.73 448.427 1
-3 5 11 2947.8 503.343 1
2 3 11 3252.53 608.32 1
3 2 11 2733.48 538.497 1
2 3 -11 2660.42 461.003 2
-5 2 11 2208.03 416.322 1
-2 5 11 2592.56 516.744 1
5 -2 -11 2382.41 430.003 2
5 -3 -11 2866.08 469.449 2
3 2 -11 2633.85 468.167 2
-5 3 11 2864.54 457.711 1
-2 -3 11 2386.85 592.166 1
-2 -3 12 943.195 411.955 1
-3 -2 12 1992.86 470.269 1
-3 5 12 2677.35 500.192 1
3 2 12 3544.81 618.681 1
2 -5 12 1837.81 351.105 1
2 3 12 2348.38 486.882 1
2 3 -12 2588.72 468.869 2
-2 5 12 2056.02 527.966 1
3 2 -12 2363.93 437.236 2
-5 2 12 1221.91 356.213 1
5 -2 -12 1828.5 378.122 2
5 -3 -12 2518.43 475.806 2
-5 3 12 2573.89 449.817 1
-3 5 13 1964.96 452.88 1
-2 -3 13 2131.84 549.767 1
-3 -2 13 2243.71 503.067 1
2 -5 13 2256.93 400.967 1
3 2 13 3313.16 580.106 1
-2 5 13 1820.82 495.055 1
2 3 -13 1735.6 399.23 2
3 2 -13 2638.52 486.126 2
-5 2 13 2156.76 419.728 1
5 -2 -13 2153.11 472.621 2
5 -3 -13 2164.81 452.146 2
-5 3 13 2547.69 510.518 1
2 3 13 2460.4 530.962 1
-2 -3 14 2459.03 564.481 1
-3 -2 14 2368.73 541.306 1
5 -3 -14 3194.01 533.074 2
-2 5 14 2549.96 564.537 1
2 3 -14 3010.9 530.321 2
3 2 -14 3440.76 576.024 2
-5 2 14 2590.46 469.282 1
2 3 14 4196.95 664.776 1
5 -2 -14 2828.74 499.157 2
-5 3 14 3371.77 569.647 1
-3 5 14 2366.77 489.211 1
3 2 14 3761.87 624.406 1
2 -5 14 3424.11 490.835 1
-2 -3 15 85.9385 169.782 1
-3 -2 15 204.662 251.768 1
-2 5 15 177.335 241.484 1
-2 5 -15 404.704 302.244 2
2 3 15 232.998 224.378 1
2 3 -15 89.9735 200.328 2
3 2 -15 226.536 234.178 2
-5 2 15 198.996 142.228 1
5 -2 -15 31.1479 171.376 2
5 -3 -15 205.065 200.038 2
3 2 15 72.1793 177.644 1
-3 5 15 461.014 243.141 1
-5 3 15 162.136 234.243 1
-2 -3 16 1863.06 454.866 1
-3 5 -16 2117.42 560.733 2
-3 -2 16 2576.26 563.001 1
-2 5 16 2243.59 507.487 1
2 3 16 2584.25 588.422 1
-2 5 -16 2431.55 553.9 2
2 3 -16 1545.26 413.553 2
3 2 16 2197.28 471.247 1
3 2 -16 1526.22 415.946 2
-5 2 16 1515.65 415.09 1
5 -2 -16 1565.58 380.834 2
5 -3 -16 2010.36 484.783 2
-3 5 16 1881.57 461.955 1
-5 3 16 2369.94 502.885 1
2 3 17 -107.974 301.507 1
-3 -2 17 627.531 329.114 1
-3 5 -17 -287.638 206.358 2
3 2 17 123.324 164.987 1
-2 -3 17 604.85 285.424 1
2 3 -17 102.424 204.001 2
3 2 -17 274.33 177.176 2
5 -2 -17 140.8 236.191 2
-5 2 17 435.657 314.167 1
5 -3 -17 631.158 313.059 2
-3 5 17 312.235 241.871 1
-2 5 17 216.578 264.235 1
-2 5 -17 189.174 269.053 2
-5 3 17 143.581 177.488 1
2 3 18 -106.653 190.524 1
-2 -3 18 531.219 267.578 1
3 2 18 694.834 319.95 1
-3 -2 18 474.949 277.886 1
-3 5 -18 16.8146 187.027 2
-2 5 -18 378.055 278.294 2
2 3 -18 595.684 303.318 2
3 2 -18 344.005 200.375 2
5 -2 -18 334.934 226.397 2
5 -3 -18 679.403 352.828 2
-5 2 18 674.279 313.884 1
-2 5 18 213.235 196.939 1
-3 5 18 138.115 148.391 1
-5 3 18 795.89 371.84 1
2 3 19 1711 486.476 1
3 2 19 2240.47 539.468 1
-2 5 19 1939.38 491.648 1
-2 -3 19 2454.22 552.951 1
-3 5 -19 1500.3 413.241 2
-2 5 -19 1484.02 409.948 2
2 3 -19 1584.21 442.192 2
3 2 -19 2240.15 513.978 2
5 -2 -19 1697.39 433.502 2
5 -3 -19 1889 482.502 2
-5 2 19 2099.96 492.542 1
-3 5 19 2121.64 506.931 1
-3 -2 19 2976.8 617.062 1
-5 3 19 2345.16 540.421 1
-5 3 20 430.446 261.211 1
2 3 20 -115.305 325.784 1
3 2 20 283.62 220.395 1
-2 5 -20 197.494 268.922 2
-3 5 -20 34.2248 155.017 2
-5 2 20 -58.754 196.411 1
5 -3 -20 386.873 320.314 2
3 2 21 1849.27 435.007 1
4 1 0 31655.2 1102.52 2
1 -5 0 29573.8 1797.69 1
-1 -4 0 28169.8 1947.8 1
-4 -1 0 31348.1 1714.97 1
1 -5 -1 404.837 263.63 1
-1 -4 -1 317.497 352.307 1
1 -5 1 509.082 348.363 1
-1 -4 1 74.9138 235.664 1
-4 -1 -1 610.98 303.272 1
4 1 -1 320.141 127.604 2
-4 -1 1 394.402 293.819 1
4 1 1 297.49 116.309 2
-5 1 -1 437.422 195.213 1
5 -1 -1 309.333 145.733 2
4 -5 1 262.973 130.987 1
-5 1 1 306.093 171.655 1
-1 -4 -2 559.072 332.8 1
1 -5 2 1130.68 398.995 1
-4 -1 -2 1016.27 365.155 1
-1 -4 2 665.581 345.906 1
4 1 -2 993.384 213.6 2
-5 1 -2 1113.82 292.811 1
4 1 2 727.558 134.295 2
-4 -1 2 883.309 362.287 1
5 -1 -2 990.578 234.736 2
1 -5 -2 461.159 262.76 1
-5 1 2 558.615 226.004 1
-4 5 3 7208.41 599.067 1
4 1 -3 7070.19 588.498 2
5 -1 -3 7486.54 649.087 2
-1 -4 -3 5749.35 969.478 1
-4 -1 -3 6636.75 781.501 1
1 -5 3 7027.29 926.303 1
-1 -4 3 6710.59 894.991 1
-4 -1 3 5991.53 802.845 1
-5 1 3 7571.44 764.212 1
-4 -1 -4 756.117 310.312 1
4 1 -4 1108.77 254.936 2
1 -5 4 1028.8 424.634 1
-1 -4 4 889.224 421.075 1
5 -1 -4 1052.04 273.242 2
-4 -1 4 820.465 361.479 1
-4 5 4 977.515 239.176 1
-5 1 4 861.898 297.819 1
-5 1 5 437.258 210.906 1
-5 4 5 454.996 149.402 1
-4 -1 -5 273.79 224.28 1
4 1 -5 295.22 157.472 2
-4 5 5 452.437 190.101 1
1 -5 5 409.073 352.627 1
-1 -4 5 25.248 250.235 1
5 -1 -5 546.359 185.722 2
-4 -1 5 -84.7874 181.956 1
-5 1 6 836.435 248.042 1
-5 4 6 1272.63 250.591 1
-4 -1 -6 966.549 346.799 1
-4 5 6 1307.37 290.3 1
1 4 -6 1449.64 310.198 2
4 1 -6 1085.28 283.452 2
5 -1 -6 1278.66 295.429 2
1 -5 6 1694.82 565.765 1
-1 -4 6 1109.58 457.931 1
-4 -1 6 916.398 362.906 1
-5 1 7 201.482 138.974 1
-5 4 7 123.848 93.1248 1
-4 5 7 158.04 100.744 1
4 1 -7 115.606 150.636 2
5 -1 -7 239.015 144.424 2
1 -5 7 546.541 325.268 1
-1 -4 7 322.926 313.727 1
1 4 -7 61.15 119.221 2
-1 5 7 597.295 337.07 1
-4 -1 7 -0.17983 223.307 1
-4 5 8 158.479 163.665 1
5 -1 -8 177.644 182.819 2
-5 4 8 271.098 161.832 1
-5 1 8 83.6171 147.962 1
1 4 -8 202.832 196.286 2
4 1 -8 185.139 181.67 2
-1 5 8 18.6737 166.476 1
1 -5 8 309.527 255.871 1
-1 -4 8 -17.2634 240.494 1
-4 -1 8 90.6159 197.498 1
-5 1 9 4120.03 537.119 1
-5 4 9 3868.56 471.004 1
-4 5 9 4670.14 587.012 1
1 4 -9 4733.97 589.557 2
4 1 -9 4930.11 612.278 2
5 -1 -9 4210.68 556.056 2
-1 -4 9 3314.34 798.124 1
1 -5 9 4957.98 767.512 1
-1 5 9 4634.19 703.13 1
-4 -1 9 4045.69 690.078 1
-5 1 10 4231.06 588.293 1
-5 4 10 5612.89 584.772 1
-4 5 10 5760.28 670.848 1
1 4 -10 5957.93 683.218 2
-1 5 10 5962.66 784.676 1
1 4 10 6119.32 843.249 1
4 1 -10 5866.8 676.143 2
5 -1 -10 6186.58 685.3 2
-1 -4 10 5649.71 872.755 1
1 -5 10 4598.85 801.852 1
-4 -1 10 5448.19 774.402 1
-5 4 11 171 134.297 1
-4 -1 11 196.572 198.147 1
-1 5 11 320.792 252.359 1
-5 1 11 206.441 144.875 1
1 4 -11 420.539 212.849 2
4 1 -11 329.015 192.374 2
5 -1 -11 164.49 186.838 2
1 4 11 680.988 357.759 1
-4 5 11 241.513 189.616 1
-1 -4 11 221.331 307.032 1
1 -5 11 466.35 308.597 1
-5 1 12 6146.13 708.532 1
-5 4 12 8271.77 779.187 1
-4 5 12 7193.92 736.495 1
-1 5 12 8585.55 963.778 1
1 4 -12 7697.41 770.714 2
1 4 12 9440.1 1046.02 1
4 1 -12 7639.39 819.653 2
5 -1 -12 8551.03 834.052 2
-1 -4 12 6949.93 918.663 1
1 -5 12 7620.39 874.091 1
-4 -1 12 7813.11 910.05 1
-1 -4 13 270.644 231.866 1
1 -5 13 -201.238 173.088 1
-5 4 13 -67.2442 166.844 1
-4 -1 13 163.946 227.925 1
-5 1 13 -22.5297 123.077 1
1 4 -13 210.442 201.667 2
4 1 -13 21.5383 144.076 2
-1 5 -13 40.5712 177.35 2
5 -1 -13 -110.456 184.426 2
4 1 13 21.1331 176.117 1
-4 5 13 121.563 129.868 1
1 4 13 -276.057 246.824 1
-1 5 13 8.14049 169.144 1
-1 -4 14 1534.49 421.201 1
-5 4 14 1540.06 389.814 1
1 -5 14 1603.42 403.125 1
-4 -1 14 1160.83 401.648 1
-1 5 -14 2225.92 502.733 2
-5 1 14 1241.52 355.89 1
1 4 -14 1872.69 413.373 2
4 1 -14 1319.19 365.021 2
1 4 14 1605.46 444.784 1
5 -1 -14 1534.62 399.734 2
-4 5 14 1180.21 297.163 1
4 1 14 1776.55 392.844 1
-1 5 14 1761.33 489.256 1
-1 -4 15 1699.17 433.661 1
-5 4 15 2314.07 464.095 1
1 -5 15 1932.79 412.575 1
-4 -1 15 2349.1 509.319 1
4 1 15 2549.65 457.898 1
-1 5 -15 1806.45 422.048 2
1 4 15 1619.83 487.42 1
-5 1 15 1820.15 436.15 1
1 4 -15 1797.68 430.177 2
4 1 -15 1785.78 487.856 2
5 -1 -15 1837.73 384.912 2
-4 5 15 1697.71 385.103 1
-1 5 15 2020.41 523.782 1
4 1 16 498.696 294.096 1
-1 -4 16 -73.1955 188.025 1
-5 4 16 -180.86 221.864 1
1 -5 16 -160.705 226.174 1
1 4 16 595.996 333.83 1
-4 -1 16 421.332 275.619 1
-1 5 -16 -125.543 316.874 2
1 4 -16 102.005 202.32 2
-5 1 16 139.287 163.771 1
4 1 -16 -67.9199 207.81 2
5 -1 -16 226.06 206.443 2
-4 5 16 21.7348 162.614 1
-1 5 16 -44.7839 178.819 1
1 4 17 172.497 223.018 1
-5 4 17 302.435 230.163 1
-1 -4 17 -68.4315 206.667 1
-4 5 -17 101.896 181.104 2
1 -5 17 322.545 224.376 1
-4 -1 17 -31.4931 230.771 1
-1 5 -17 361.728 265.661 2
1 4 -17 108.213 186.965 2
-5 1 17 -2.62427 157.8 1
4 1 -17 481.845 267.274 2
5 -1 -17 560.007 275.483 2
-4 5 17 464.325 277.361 1
-1 5 17 -48.6248 250.084 1
4 1 -18 1327.96 402.543 2
1 4 18 1611.59 484.564 1
-5 4 18 1307.25 451.336 1
-1 -4 18 800.813 311.857 1
1 -5 18 967.524 297.662 1
-4 -1 18 912.238 374.746 1
-1 5 -18 1134.17 409.685 2
1 4 -18 1303.92 413.34 2
-5 1 18 1188.67 352.376 1
5 -1 -18 1099.26 328.088 2
-4 5 18 784.582 284.71 1
-1 5 18 2009.62 542.755 1
1 4 19 239.091 331.852 1
-5 4 19 20.6277 176.669 1
-1 -4 19 -262.618 244.505 1
1 -5 19 88.6497 143.13 1
-4 -1 19 -19.1635 172.691 1
1 4 -19 56.5346 165.168 2
4 1 -19 -112.142 199.245 2
5 -1 -19 94.1006 176.202 2
-1 5 19 -244.219 314.117 1
-4 5 19 64.9623 211.47 1
-5 1 19 -180.576 293.979 1
-1 5 -19 131.722 241.785 2
-1 -4 20 -145.856 227.363 1
0 -5 0 241.644 253.8 1
-5 0 0 657.924 274.316 1
5 0 0 522.292 147.785 2
5 0 -1 2673.19 336.078 2
0 -5 -1 2078.55 602.297 1
5 0 1 2394.16 277.663 2
0 -5 1 2638.81 617.192 1
-5 0 -1 3170.4 475.229 1
-5 0 1 2211.15 466.155 1
0 -5 -2 -123.447 213.959 1
0 -5 2 222.469 218.4 1
-5 0 -2 37.6304 107.854 1
5 0 -2 38.7852 107.267 2
-5 0 2 2.8383 113.203 1
0 -5 -3 348.014 314.929 1
-5 0 -3 246.025 186.556 1
0 -5 3 -97.2196 243.005 1
5 0 -3 166.668 134.924 2
-5 0 3 41.5539 147.395 1
-5 0 -4 655.951 263.791 1
0 -5 4 229.994 216.917 1
5 0 -4 442.723 129.097 2
-5 0 4 825.076 310.817 1
5 0 -5 23477.6 1181.28 2
-5 0 -5 23316.9 1276.79 1
0 -5 5 22299.4 1781.75 1
-5 0 5 25098.1 1564.85 1
5 0 -6 4994.34 573.647 2
0 -5 6 4354.69 808.471 1
-5 0 6 4946.64 754.589 1
5 0 -7 10154.2 830.188 2
0 -5 7 8847.21 1115.52 1
-5 0 7 9661.07 1059.91 1
-5 0 8 76.5668 195.522 1
5 0 -8 195.356 132.701 2
-5 5 8 235.995 167.731 1
0 -5 8 282.804 279.768 1
-5 0 9 1663.74 409.944 1
5 0 -9 2183.26 404.724 2
-5 5 9 1662.33 324.498 1
0 -5 9 2081.76 572.845 1
0 5 10 1167.8 453.5 1
-5 0 10 930.902 307.925 1
0 5 -10 790.347 255.187 2
-5 5 10 1081.33 271.165 1
5 0 -10 933.998 276.978 2
0 -5 10 491.519 342.055 1
0 5 11 2052.25 542.106 1
-5 0 11 1368.06 389.847 1
0 5 -11 1920.02 375.898 2
-5 5 11 2081.71 387.267 1
5 0 -11 1793.21 410.569 2
0 -5 11 2167.61 568.423 1
-5 0 12 637.716 326.447 1
0 5 12 406.154 182.236 1
0 5 -12 605.484 244.608 2
-5 5 12 570.054 219.399 1
5 0 -12 331.675 216.566 2
0 -5 12 347.734 282.229 1
0 -5 13 2719.4 590.838 1
0 5 13 2422.52 578.133 1
-5 0 13 2305.81 505.038 1
0 5 -13 1924.9 393.403 2
-5 5 13 2211.44 409.907 1
5 0 -13 2699.97 500.967 2
0 -5 14 1147.33 396.582 1
-5 0 14 221.49 167.456 1
0 5 -14 314.91 147.863 2
-5 5 14 788.531 263.357 1
5 0 -14 391.851 157.6 2
0 5 14 1529.47 457.165 1
0 -5 15 121.78 212.708 1
-5 0 15 264.283 230.597 1
0 5 -15 161.065 159.946 2
0 5 15 280.173 196.57 1
5 0 -15 187.256 187.892 2
-5 5 15 316.481 204.258 1
0 -5 16 -120.474 177.237 1
-5 0 16 120.27 204.912 1
0 5 -16 -144.33 174.21 2
-5 5 16 -125.925 151.434 1
0 5 16 191.191 248.981 1
5 0 -16 170.551 157.54 2
-5 5 17 4589.31 636.982 1
5 0 -17 4877.83 694.484 2
-5 0 17 4573.27 671.62 1
0 5 -17 4761.27 689.772 2
0 5 17 5106.64 820.075 1
0 -5 17 5022.89 716.642 1
0 -5 18 254.516 210.969 1
0 5 -18 546.297 303.24 2
-5 0 18 557.117 228.851 1
-5 5 18 162.98 235.827 1
5 0 -18 578.409 312.221 2
0 5 18 663.206 375.323 1
0 -5 19 244.905 263.378 1
-5 5 19 483.157 283.591 1
3 3 0 25471.5 999.741 2
3 -6 0 24890.4 1399.26 1
-3 -3 0 26828 1844.24 1
3 -6 1 19.2272 127.464 1
-3 -3 -1 47.359 259.511 1
3 3 -1 61.9238 94.7917 2
-3 -3 1 -133.678 265.372 1
3 -6 -1 -1.33335 115.299 1
-3 -3 -2 1020.86 485.576 1
3 -6 2 835.4 261.745 1
3 3 -2 1100.4 222.4 2
-3 -3 2 952.937 465.21 1
-3 -3 -3 267.531 268.922 1
3 3 -3 -61.1579 94.394 2
3 -6 3 -28.4037 132.502 1
-3 -3 3 411.26 358.392 1
-3 -3 -4 -11.7754 166.744 1
3 3 -4 66.5503 118.29 2
3 -6 4 313.245 162.983 1
-3 -3 -5 221.42 250.403 1
3 3 -5 -40.7499 117.208 2
3 -6 5 94.1121 117.124 1
-3 -3 5 14.0871 236.861 1
-3 -3 -6 1120.84 459.546 1
3 3 -6 1586.91 316.386 2
-3 6 6 1437.64 381.019 1
3 -6 6 1814.82 387.666 1
-3 -3 6 844.458 355.837 1
-3 6 7 -13.0075 155.19 1
3 3 -7 -147.167 190.718 2
-3 -3 7 -280.974 346.883 1
3 3 -8 -28.4062 139.278 2
-3 6 8 103.082 199.63 1
-3 -3 8 -360.067 295.917 1
-3 6 9 -335.387 280.675 1
3 3 -9 244.937 200.505 2
-6 3 9 -88.4189 153.25 1
6 -3 -9 -105.209 132.966 2
-3 -3 9 460.414 354.768 1
-6 3 10 5538.62 583.045 1
-3 6 10 5501.59 731.224 1
3 3 -10 5559.49 686.792 2
6 -3 -10 4552.21 568.238 2
3 3 -11 -49.7583 188.605 2
-6 3 11 152.49 174.496 1
6 -3 -11 175.674 166.309 2
-3 6 11 316.89 224.365 1
-3 -3 11 30.2564 250.352 1
-6 3 12 5976.08 669.553 1
-3 6 12 8459.72 903.483 1
3 3 -12 7059.85 818.654 2
6 -3 -12 6675.94 739.43 2
-3 -3 12 4863.48 943.476 1
-3 -3 13 -45.6933 242.878 1
3 3 -13 -132.197 154.125 2
-3 6 13 147.723 180.697 1
-6 3 13 97.1238 154.716 1
6 -3 -13 192.302 174.323 2
-3 -3 14 642.106 279.088 1
3 3 -14 622.43 263.552 2
-3 6 14 603.548 322.251 1
6 -3 -14 555.482 264.227 2
-6 3 14 687.846 249.049 1
-3 -3 15 -58.7932 219.128 1
3 3 -15 248.96 223.326 2
-3 6 15 250.482 243.949 1
6 -3 -15 14.8712 150.483 2
-6 3 15 28.7569 179.204 1
3 3 15 -528.42 366.121 1
3 3 16 -34.5541 207.174 1
-3 -3 16 -51.5445 221.526 1
-3 6 16 -179.508 243.538 1
3 3 -16 195.409 209.399 2
6 -3 -16 -14.4054 205.04 2
-6 3 16 193.215 155.829 1
-3 -3 17 333.526 265.535 1
-3 6 -17 289.728 337.998 2
-3 6 17 344.826 256.83 1
3 3 -17 57.101 189.658 2
3 3 17 -431.133 313.895 1
6 -3 -17 -447.128 245.414 2
-6 3 17 12.0416 144.364 1
3 3 18 2124.96 555.61 1
-3 -3 18 1547.17 473.436 1
-3 6 18 890.534 326.398 1
-3 6 -18 1120.92 496.117 2
6 -3 -18 1311.34 404.184 2
-6 3 18 1194.02 364.121 1
3 3 19 -208.256 205.302 1
-6 3 19 9.02994 178.738 1
2 4 0 1874.68 304.274 2
2 -6 0 1423.35 420.89 1
-2 -4 0 1318.94 468.337 1
-4 -2 0 1552.94 487.001 1
2 4 1 12514.7 753.93 2
2 4 -1 12583.1 789.404 2
4 2 -1 13452.6 779.432 2
4 -6 -1 15329.1 1003.03 1
2 -6 -1 10523.5 996.854 1
2 -6 1 10772.7 1026.65 1
-2 -4 -1 13197.9 1348.42 1
-2 -4 1 10419.3 1247.33 1
-4 -2 -1 10072.3 1057.19 1
-4 -2 1 13092.3 1246.45 1
2 4 -2 50851.4 1670.27 2
4 2 -2 53872 1634.73 2
2 -6 -2 49926.1 2193.23 1
-2 -4 -2 50641.2 2833.72 1
2 -6 2 49678.8 2142.89 1
-4 -2 -2 56005.4 2453.56 1
-2 -4 2 50991.1 2657.69 1
2 4 -3 79911.7 2139.22 2
-2 -4 -3 80315.5 3292.7 1
-4 -2 -3 89992.2 3100.48 1
2 -6 3 78092.8 2726.78 1
-2 -4 3 80333.2 3378.29 1
-4 -2 3 79046.5 3297.9 1
4 2 -3 79730.2 2071.09 2
2 4 -4 71824.8 2060.25 2
-2 -4 -4 69365.6 3131.12 1
-4 -2 -4 70344 2770.4 1
2 -6 4 68054.2 2579.63 1
-2 -4 4 73794.3 3406.22 1
4 2 -4 68106 1980.99 2
-4 -2 4 69600.1 3002.03 1
2 4 -5 25957.3 1270.91 2
-4 6 5 25162.5 1327.68 1
4 2 -5 25228.8 1215.66 2
6 -2 -5 26127.3 1321.29 2
-2 -4 -5 21791.4 1803.25 1
-4 -2 -5 26623.8 1612.99 1
2 -6 5 25666.4 1618.15 1
-2 -4 5 25319 1951.51 1
-4 -2 5 23524.5 1790.56 1
-4 -2 -6 20.0652 189.329 1
2 4 -6 61.4852 121.502 2
4 2 -6 101.135 117.899 2
-4 6 6 586.85 233.721 1
2 -6 6 64.1299 160.057 1
-2 -4 6 346.872 346.9 1
6 -2 -6 387.339 214.606 2
-4 -2 6 378.956 313.02 1
-6 2 7 33500.9 1563.29 1
-4 6 7 31645.8 1548.34 1
2 4 -7 31088.9 1462.27 2
4 2 -7 30683.1 1448.17 2
6 -2 -7 29691.6 1441.14 2
-4 -2 -7 30640 1692.85 1
2 -6 7 33259.1 1862.07 1
-2 -4 7 25586.6 1908.02 1
-4 -2 7 28219.9 1905.84 1
-6 2 8 32114 1515.46 1
-4 6 8 31625.1 1561.59 1
2 4 -8 34517.7 1569.91 2
-2 6 8 32851.7 1890.66 1
4 2 -8 32812.8 1550.43 2
6 -2 -8 31715.6 1504.21 2
-4 -2 -8 33680.2 1781.14 1
2 -6 8 36381.2 1910.66 1
-2 -4 8 28710.4 2050.51 1
-4 -2 8 30430.6 1991.34 1
-6 2 9 59475.4 2081.09 1
-4 6 9 64969.2 2297.11 1
2 4 -9 62717.4 2242.55 2
-2 6 9 67224.6 2821.98 1
4 2 -9 63245.3 2266.61 2
6 -2 -9 64067.8 2192.11 2
-2 -4 9 59258.6 2779.17 1
2 -6 9 71517.8 2717.06 1
-4 -2 9 61316.3 2865.64 1
-6 2 10 28414.4 1416.58 1
-4 6 10 33558.2 1662.49 1
2 4 -10 33520.4 1620.12 2
-2 6 10 35445.9 2052.81 1
4 2 -10 33785.9 1672.95 2
6 -2 -10 32224.7 1585.27 2
2 -6 10 36304.5 1936.21 1
-4 -2 10 30471.1 1986.03 1
-4 -2 11 365.151 293.796 1
-4 6 11 688.757 267.192 1
2 4 -11 727.915 245.705 2
-6 2 11 855.729 265.761 1
4 2 -11 590.908 265.447 2
-2 6 11 820.878 324.855 1
6 -2 -11 773.309 297.598 2
-2 -4 11 679.12 342.75 1
2 -6 11 332.347 253.458 1
2 -6 12 200.538 170.761 1
-4 -2 12 237.931 211.249 1
-4 6 12 103.129 174.493 1
-2 6 12 -172.71 268.377 1
2 4 -12 -28.1176 201.705 2
-6 2 12 411.944 222.045 1
4 2 -12 -337.094 248.802 2
6 -2 -12 262.192 198.432 2
-2 -4 12 -55.7556 204.134 1
-6 4 12 3.67179 99.6123 1
-6 2 13 11712.3 953.487 1
-6 4 13 13090.4 947.976 1
-4 6 13 15032.1 1149.4 1
-2 6 13 16740.2 1418.03 1
2 4 -13 15338.7 1165.29 2
4 2 -13 14222.8 1188.99 2
6 -2 -13 13399.6 1081.34 2
-2 -4 13 12518.4 1325.57 1
-4 -2 13 13764.8 1233.27 1
-6 2 14 10583.2 939.019 1
-6 4 14 13407.1 1002.9 1
-4 6 14 14358.2 1093.99 1
-2 6 14 16094.3 1401.09 1
2 4 -14 14156.2 1141.55 2
2 4 14 16534.6 1415.52 1
4 2 -14 15299.7 1256.15 2
6 -2 -14 15392.2 1176.51 2
-2 -4 14 10871.3 1271.66 1
-4 -2 14 10857.1 1170.69 1
-6 2 15 10950.2 950.392 1
-6 4 15 11800.4 962.25 1
-4 6 15 12799.9 1064.81 1
-2 6 15 13886.2 1283.41 1
2 4 -15 13109.2 1123.9 2
2 4 15 14941.1 1358.68 1
4 2 -15 13465.8 1200.35 2
6 -2 -15 13901.4 1124.56 2
-2 -4 15 10965.7 1249.23 1
-4 -2 15 11636 1113.48 1
-4 -2 16 20371.1 1530.07 1
-6 2 16 17580.1 1263.08 1
-6 4 16 21761.2 1349.21 1
-4 6 16 19361.4 1306.51 1
-2 6 16 21270.6 1628.49 1
2 4 -16 23171 1506.96 2
2 4 16 23675.9 1736.99 1
4 2 -16 21539.5 1550.83 2
6 -2 -16 23245.1 1491.06 2
-2 -4 16 21681.3 1604.96 1
-6 4 17 1477.68 355.879 1
-2 -4 17 1276.34 413.395 1
-4 6 17 1117.99 361.983 1
-4 -2 17 1282.39 388.713 1
4 2 17 1122.61 358.814 1
-2 6 -17 2743.68 683.47 2
2 4 -17 1066.98 345.714 2
4 2 -17 886.881 306.927 2
-6 2 17 761.744 272.007 1
6 -2 -17 783.61 311.022 2
-2 6 17 1337.37 458.148 1
2 4 17 1827.49 536.273 1
-6 4 18 -6.54897 154.946 1
-4 6 18 214.566 188.029 1
-2 -4 18 339.613 253.033 1
-4 6 -18 103.722 191.567 2
-2 6 -18 28.8546 281.062 2
2 4 18 -16.7788 273.241 1
-6 2 18 -43.9458 167.245 1
-6 4 19 3320.15 579.461 1
-4 6 -19 3672.9 654.432 2
1 -6 0 157.761 190.419 1
-1 -5 0 133.672 193.707 1
-5 -1 0 -31.472 162.364 1
1 -6 -1 -234.564 234.077 1
-1 -5 -1 77.3036 202.741 1
1 -6 1 -54.6007 194.546 1
-1 -5 1 -76.3595 204.526 1
-5 -1 -1 -195.22 197.876 1
-5 -1 1 -49.7339 169.663 1
1 -6 -2 780.31 344.517 1
-1 -5 -2 768.847 438.141 1
1 -6 2 1484.3 451.204 1
-1 -5 2 1114.61 431.543 1
-5 -1 -2 878.643 340.508 1
5 1 -2 979.72 190.341 2
-5 -1 2 906.728 347.369 1
6 -1 -2 1287.73 247.313 2
1 -6 -3 263.843 239.618 1
-1 -5 -3 455.619 343.457 1
-5 -1 -3 233.3 226.529 1
-1 -5 3 409.691 258.738 1
5 1 -3 385.415 154.456 2
6 -1 -3 350.704 168.394 2
-5 -1 3 555.388 280.323 1
-1 -5 -4 2497.08 681.169 1
-5 -1 -4 1910.99 437.304 1
1 -6 4 3028.4 630.833 1
-1 -5 4 2624.74 644.057 1
5 1 -4 2557.72 367.068 2
6 -1 -4 2849.67 409.157 2
-5 -1 4 2187.42 542.694 1
-6 1 4 3508.11 662.972 1
5 1 -5 7276.06 656.634 2
6 -1 -5 9286.06 750.819 2
-1 -5 -5 6791 1156.61 1
-5 -1 -5 5978.71 796.944 1
1 -6 5 8696.72 1117.78 1
-1 -5 5 7743.52 1075.86 1
-5 -1 5 7725.38 952.02 1
-6 1 5 10109.7 1042.58 1
-6 1 6 2883.67 526.54 1
1 5 -6 2745.02 428.637 2
-5 -1 -6 2108.81 440.873 1
5 1 -6 2231.61 373.255 2
1 -6 6 2761.57 687.252 1
-1 -5 6 1728.16 678.089 1
6 -1 -6 2906.55 439.512 2
-5 -1 6 2501.87 544.781 1
-6 1 7 2731.52 523.278 1
-5 -1 -7 1423.72 386.286 1
1 5 -7 1943.13 363.78 2
5 1 -7 1765.53 354.223 2
6 -1 -7 2308.8 400.204 2
1 -6 7 1890.96 638.735 1
-1 -5 7 2105.93 517.941 1
-5 -1 7 2244.38 532.125 1
-6 1 8 2001.18 414.793 1
-5 -1 -8 846.288 303.076 1
1 5 -8 1350.27 326.362 2
5 1 -8 1573.4 323.839 2
6 -1 -8 1332.23 318.987 2
1 -6 8 1366.35 496.938 1
-1 -5 8 740.191 432.014 1
-5 -1 8 1081.54 357.531 1
-6 1 9 2499.22 482.129 1
1 5 -9 1836.12 359.652 2
5 1 -9 2085.48 409.552 2
6 -1 -9 2333.55 434.697 2
-1 -5 9 2047.12 539.027 1
1 -6 9 3009.25 696.142 1
-5 -1 9 1464.26 451.607 1
-5 -1 10 377.89 201.916 1
-5 6 10 -93.4994 150.893 1
-6 1 10 120.718 155.888 1
1 5 -10 56.0684 162.076 2
-1 6 10 -212.977 274.528 1
5 1 -10 -70.2532 180.793 2
6 -1 -10 -29.2121 151.591 2
-1 -5 10 331.17 301.137 1
1 -6 10 142.283 215.396 1
-5 -1 11 -22.1687 184.381 1
-5 6 11 271.962 142.395 1
-6 1 11 375.123 209.82 1
1 5 -11 30.8626 141.843 2
5 1 -11 536.163 251.493 2
6 -1 -11 333.369 240.175 2
-1 6 11 291.012 282.438 1
-1 -5 11 -38.2624 275.629 1
1 -6 11 202.206 292.823 1
-1 6 12 415.304 329.181 1
-5 6 12 -16.8277 122.66 1
-5 -1 12 18.6065 174.029 1
-6 1 12 159.529 168.583 1
1 5 -12 206.946 156.377 2
5 1 -12 304.888 203.76 2
6 -1 -12 11.7633 183.39 2
-1 -5 12 637.922 338.651 1
1 -6 12 228.814 180.394 1
-5 -1 13 230.151 227.625 1
-6 1 13 212.233 178.7 1
-1 6 -13 229.693 247.297 2
-1 6 13 486.771 326.509 1
1 5 -13 237.783 192.871 2
5 1 -13 195.23 213.033 2
6 -1 -13 101.578 152.767 2
-1 -5 13 194.867 231.194 1
-5 6 13 548.902 257.956 1
1 -6 13 486.986 317.218 1
-1 -5 14 1841.83 522.469 1
1 -6 14 2130.55 494.359 1
-1 6 14 1710.49 530.406 1
-5 -1 14 1338.95 403.232 1
-1 6 -14 1681.39 422.816 2
1 5 14 1971.98 475.368 1
-6 1 14 1555.67 377.908 1
1 5 -14 1419.59 358.301 2
5 1 -14 1353.12 375.789 2
6 -1 -14 1581.85 373.187 2
-5 6 14 1391.18 333.345 1
-1 -5 15 50.2088 195.32 1
1 -6 15 343.114 239.544 1
-5 -1 15 -30.3646 198.864 1
-1 6 -15 -72.8882 198.192 2
1 5 -15 298.762 241.585 2
-6 1 15 -43.4197 134.662 1
5 1 -15 -65.0619 199.215 2
6 -1 -15 -68.2896 150.358 2
-5 6 15 122.581 135.142 1
-1 6 15 16.5616 224.74 1
1 5 15 245.9 195.554 1
-1 -5 16 550.526 315.237 1
1 -6 16 694.56 289.979 1
-5 -1 16 602.62 315.414 1
1 5 16 248.746 201.062 1
-6 5 16 275.388 171.755 1
-1 6 -16 102.188 169.978 2
1 5 -16 378.94 198.163 2
-6 1 16 24.4463 145.583 1
5 1 -16 551.733 342.301 2
6 -1 -16 585.375 236.794 2
-1 6 16 326.802 262.897 1
-5 6 16 445.927 200.752 1
-1 -5 17 2370.57 562.408 1
1 -6 17 1617.43 422.956 1
-5 -1 17 1419.58 420.172 1
-6 5 17 1830.95 394.522 1
-6 1 17 1216.56 352.92 1
-1 6 17 2071.72 534.303 1
5 1 -17 2095.69 463.265 2
6 -1 -17 1871.08 414.633 2
-1 6 -17 2125.72 519.571 2
-5 6 17 1755.4 385.749 1
1 5 17 2544.14 607.465 1
-6 5 18 101.812 125.008 1
-5 6 18 34.5032 145.945 1
0 -6 0 213032 5508.03 1
0 -6 -1 301.088 276.051 1
0 -6 1 341.299 250.331 1
0 -6 -2 664.329 332.366 1
0 -6 2 317.732 211.928 1
-6 0 2 95.7802 189.791 1
0 -6 -3 -222.26 356.156 1
0 -6 3 22.8254 209.263 1
6 0 -3 74.6181 104.582 2
-6 0 3 101.11 190.797 1
0 -6 -4 2962.11 789.358 1
6 0 -4 3585.84 449.539 2
0 -6 4 3958.36 756.267 1
-6 0 4 3485.3 649.33 1
0 -6 -5 171.326 353.2 1
0 -6 5 -6.65343 189.354 1
6 0 -5 58.7141 118.933 2
-6 0 5 -399.368 265.002 1
6 0 -6 101170 2616.82 2
-6 0 6 98226.5 3391.71 1
-6 0 7 -143.576 179.035 1
6 0 -7 -94.9599 172.25 2
-6 0 8 635.684 344.76 1
6 0 -8 662.534 241.817 2
0 -6 8 847.292 395.3 1
-6 0 9 -66.5906 217.922 1
6 0 -9 -232.364 185.105 2
-6 0 10 26.8495 173.324 1
0 6 -10 -50.2272 127.158 2
6 0 -10 416.514 267.068 2
0 -6 10 -53.6793 260.841 1
-6 0 11 226.256 198.022 1
0 6 -11 463.195 213.225 2
6 0 -11 -100.843 208.203 2
0 -6 11 163.219 251.327 1
0 6 -12 69984.9 2455.3 2
6 0 -12 72569.5 2531.57 2
0 -6 12 79572.9 3410 1
-6 0 12 79983 2841.31 1
-6 0 13 183.845 236.654 1
0 6 -13 501.106 230.2 2
6 0 -13 30.0226 170.547 2
0 -6 13 219.797 259.459 1
0 -6 14 691.208 328.745 1
-6 0 14 221.146 239.724 1
0 6 -14 73.1607 161.254 2
6 0 -14 -101.942 223.979 2
0 -6 15 -142.861 277.108 1
0 6 15 18.3744 233.655 1
-6 0 15 -89.2649 197.074 1
0 6 -15 -269.338 195.718 2
6 0 -15 157.537 181.76 2
0 -6 16 3064.71 583.358 1
-6 0 16 2738.49 524.881 1
6 0 -16 2479.17 487.493 2
0 -6 17 -269.62 263.305 1
3 -7 0 729.912 305.58 1
-3 -4 0 666.652 343.891 1
-4 -3 0 47.6335 209.887 1
3 -7 -1 1502.35 400.566 1
3 -7 1 864.516 272.724 1
-3 -4 -1 1138.33 488.85 1
-4 -3 -1 1545.94 471.927 1
-3 -4 1 1469.76 589.33 1
-4 -3 1 1027.95 395.875 1
3 -7 -2 -136.749 187.211 1
-3 -4 -2 -90.9134 223.002 1
-4 -3 -2 14.8797 208.804 1
3 -7 2 20.3115 154.553 1
-3 -4 2 9.48668 216.041 1
-4 -3 2 120.461 197.39 1
-3 -4 -3 41.5674 181.211 1
-4 -3 -3 220.908 288.141 1
3 4 -3 15.4253 103.224 2
4 3 -3 109.005 132.377 2
3 -7 3 123.08 146.237 1
-3 -4 3 359.117 348.038 1
-4 -3 3 235.044 290.617 1
3 -7 -3 352.575 209.738 1
-3 -4 -4 493.173 323.497 1
-4 -3 -4 690.644 365.707 1
3 4 -4 531.393 226.289 2
4 3 -4 356.082 157.515 2
-3 -4 4 516.707 291.743 1
-4 -3 4 416.144 353.471 1
3 4 -5 11653 847.252 2
4 3 -5 11534.7 850 2
-3 -4 -5 11956.6 1315.24 1
-4 -3 -5 11066.7 1197.67 1
-3 -4 5 10542.8 1408.25 1
-4 -3 5 9774.2 1230.1 1
-3 -4 -6 2012.11 627.392 1
-4 -3 -6 2293.72 583.201 1
3 4 -6 2860.63 468.639 2
4 3 -6 2589.72 429.738 2
-3 -4 6 2371.95 768.68 1
-4 -3 6 2557.24 642.472 1
3 4 -7 4794.23 599.184 2
-4 7 7 5366.96 695.392 1
4 3 -7 4670.12 599.617 2
-4 -3 -7 2958.65 673.079 1
-3 -4 7 3184.71 824.18 1
-3 -4 -7 4893.26 867.671 1
-4 -3 7 4377.86 822.01 1
-3 -4 -8 142.264 242.216 1
-4 -3 -8 74.2048 160.133 1
3 4 -8 256.129 166.358 2
4 3 -8 307.183 187.938 2
-3 -4 8 58.7633 236.827 1
-4 -3 8 -54.8915 236.108 1
-4 7 8 410.798 208.287 1
-4 7 9 606.157 263.39 1
-4 -3 -9 1611.97 500.011 1
3 4 -9 937.329 282.503 2
4 3 -9 1149.42 329.104 2
-3 -4 9 444.06 265.376 1
-4 -3 9 747.648 365.202 1
-3 7 9 1226.24 382.042 1
-3 7 10 290.295 165.838 1
3 4 -10 -189.011 199.647 2
4 3 -10 261.877 150.937 2
-4 7 10 754.178 313.144 1
7 -3 -10 383.876 173.763 2
-4 -3 -10 447.66 367.663 1
-3 -4 10 -101.295 228.461 1
-4 -3 10 434.352 313.92 1
-4 7 11 1127.54 349.117 1
3 4 -11 1540.05 403.97 2
-3 7 11 1003.25 341.18 1
4 3 -11 1263.75 366.198 2
7 -3 -11 738.925 245.631 2
-3 -4 11 823.794 390.832 1
-4 -3 11 1187.5 471.411 1
-3 7 12 805.308 364.258 1
-4 7 12 437.563 255.047 1
3 4 -12 362.465 210.813 2
4 3 -12 -236.864 287.458 2
7 -3 -12 395.092 214.177 2
-3 -4 12 801.163 410.086 1
-4 -3 12 509.672 381.744 1
-4 7 13 1384.83 373.655 1
-4 -3 13 889.194 405.916 1
3 4 -13 1815.33 440.89 2
4 3 -13 1786.98 447.454 2
7 -3 -13 1346.53 368.917 2
-3 7 13 1133.2 397.532 1
-3 -4 13 1395.22 476.236 1
-3 -4 14 389.366 284.827 1
-4 -3 14 -3.81816 250.496 1
3 4 -14 664.016 297.963 2
4 3 -14 677.617 321.928 2
-3 7 14 806.717 385.035 1
7 -3 -14 517.243 216.167 2
-4 7 14 386.381 151.161 1
-3 -4 15 -233.46 315.101 1
-4 -3 15 -60.7773 196.403 1
-3 7 15 9.98312 174.076 1
3 4 -15 421.516 244.77 2
4 3 -15 -46.5196 219.345 2
7 -3 -15 39.0523 202.511 2
-4 7 15 332.956 236.79 1
-3 7 16 384.386 266.016 1
-4 7 16 273.505 228.531 1
2 -7 0 7953.54 929.072 1
-2 -5 0 7017.19 1126.67 1
-5 -2 0 6799.73 942.198 1
2 -7 -1 -5.05742 165.254 1
2 -7 1 343.508 271.236 1
-2 -5 -1 399.506 313.021 1
-2 -5 1 284.594 337.258 1
-5 -2 -1 207.817 239.561 1
-5 -2 1 246.057 251.091 1
2 -7 -2 123.921 163.736 1
2 5 -2 -18.789 89.7191 2
-2 -5 -2 -46.2508 232.145 1
2 -7 2 252.241 198.698 1
-5 -2 -2 169.91 202.67 1
-2 -5 2 -110.134 255.823 1
-5 -2 2 173.341 198.467 1
2 5 -3 9015.74 725.931 2
2 -7 -3 7921.13 1004 1
-2 -5 -3 7969.92 1177.93 1
-5 -2 -3 8669.94 976.874 1
2 -7 3 8970.57 974.655 1
-2 -5 3 9512.56 1279.46 1
-5 -2 3 8586.19 1096.94 1
-2 -5 -4 588.139 381.046 1
2 5 -4 504.007 181.566 2
-5 -2 -4 797.4 291.089 1
5 2 -4 828.522 245.432 2
2 -7 4 136.282 159.638 1
-2 -5 4 215.123 370.293 1
-5 -2 4 483.775 292.04 1
2 -7 -4 936.757 350.812 1
-2 -5 -5 587.525 432.126 1
2 5 -5 565.088 176.619 2
-5 -2 -5 496.229 258.467 1
5 2 -5 339.818 157.281 2
2 -7 5 482.024 241.164 1
-2 -5 5 211.901 241.928 1
-5 -2 5 -2.72797 171.202 1
-2 -5 -6 262.591 333.067 1
-5 -2 -6 249.96 238.257 1
2 5 -6 195.357 115.887 2
5 2 -6 414.92 169.419 2
2 -7 6 357.539 239.104 1
-2 -5 6 226.853 234.987 1
7 -2 -6 100.539 146.368 2
-5 -2 6 285.237 241.927 1
-2 -5 -7 -115.441 211.999 1
-5 -2 -7 223.022 180.305 1
2 5 -7 -27.2425 113.25 2
5 2 -7 138.728 149.366 2
2 -7 7 302.418 140.826 1
-2 -5 7 489.502 341.22 1
7 -2 -7 83.2164 127.434 2
-5 -2 7 -12.5758 178.265 1
-5 -2 -8 -124.569 196.285 1
2 5 -8 -239.281 197.071 2
5 2 -8 -59.9827 135.306 2
7 -2 -8 -33.2583 157.998 2
2 -7 8 20.9802 182.026 1
-2 -5 -8 -77.6383 242.182 1
-2 -5 8 -263.157 305.015 1
-5 -2 8 90.428 200.191 1
2 5 -9 5690.43 643.276 2
5 2 -9 6054.76 666.93 2
7 -2 -9 6412.02 694.061 2
-5 -2 -9 5074.83 740.879 1
-2 -5 9 3741.69 846.594 1
2 -7 9 6336.12 807.943 1
-5 -2 9 4668.7 926.867 1
-5 -2 -10 1113.83 391.698 1
2 5 -10 1195.36 341.844 2
5 2 -10 1263.5 341.205 2
7 -2 -10 1397.4 327.615 2
-2 -5 10 1039.79 496.804 1
-5 -2 10 1053.88 422.968 1
-5 -2 11 548.936 289.293 1
2 5 -11 621.81 254.778 2
5 2 -11 208.434 171.19 2
7 -2 -11 488.774 249.453 2
-2 -5 11 368.323 413.974 1
-5 -2 12 1652.94 498.115 1
2 5 -12 1850.92 404.446 2
5 2 -12 2153.3 421.288 2
7 -2 -12 2747.94 488.231 2
-2 7 12 2957.95 652.264 1
-2 -5 12 1463.8 556.816 1
-5 -2 13 -125.526 208.845 1
2 5 -13 142.574 150.648 2
5 2 -13 -126.654 178.657 2
-2 7 13 105.507 194.88 1
7 -2 -13 -165.4 197.691 2
-2 -5 13 -420.368 357.027 1
-2 -5 14 689.599 357.69 1
-5 -2 14 505.879 299.041 1
2 5 -14 700.162 286.647 2
5 2 -14 884.454 326.651 2
-5 7 14 664.728 247.145 1
7 -2 -14 714.144 278.98 2
-2 7 14 1167.79 450.689 1
-2 -5 15 2226.4 569.641 1
-5 -2 15 2482.57 556.577 1
2 5 -15 2761.8 520.649 2
-2 7 15 3113.95 684.936 1
-5 7 15 2831.9 495.1 1
5 2 -15 2850 536.119 2
7 -2 -15 3229.34 545.779 2
-5 7 16 -185.682 204.384 1
-7 2 16 263.02 234.918 1
1 -7 0 1148.18 400.322 1
-1 -6 0 839.415 453.603 1
-6 -1 0 1118.43 390.012 1
1 -7 -1 2635.01 576.353 1
-1 -6 -1 2627.27 728.817 1
1 -7 1 2161.13 550.697 1
-1 -6 1 2118.25 623.385 1
-6 -1 -1 2066.47 496.04 1
-6 -1 1 2223.08 483.799 1
1 -7 -2 1387.31 434.771 1
-1 -6 -2 1273.54 560.58 1
1 -7 2 1557.87 436.239 1
-1 -6 2 1538.31 527.451 1
-6 -1 2 1440.79 399.658 1
1 -7 -3 1563.12 476.252 1
-1 -6 -3 1357.04 486.299 1
1 -7 3 1050.4 375.929 1
-1 -6 3 694.57 329.849 1
-6 -1 3 1108.22 353.932 1
1 -7 -4 2980.8 647.598 1
-1 -6 -4 2877.31 790.053 1
7 -1 -4 3376.35 433.574 2
1 -7 4 3261.87 683.503 1
-1 -6 4 3720.49 749.073 1
-6 -1 4 3180.42 563.556 1
1 6 -5 145.461 147.285 2
1 -7 -5 120.827 219.499 1
-1 -6 -5 254.583 289.01 1
1 -7 5 579.625 314.724 1
6 1 -5 305.275 132.569 2
-1 -6 5 190.79 210.471 1
7 -1 -5 467.498 212.965 2
-6 -1 5 -128.451 193.68 1
-1 -6 -6 338.04 364.633 1
1 6 -6 -176.349 147.822 2
6 1 -6 -28.737 96.6491 2
1 -7 6 -125.431 210.369 1
-1 -6 6 152.317 309.807 1
7 -1 -6 4.38826 122.132 2
1 -7 -6 -100.64 242.429 1
-6 -1 6 1.36904 216.796 1
-1 -6 -7 172.335 227.533 1
1 6 -7 -12.3645 110.657 2
6 1 -7 256.512 178.548 2
1 -7 7 654.527 375.552 1
7 -1 -7 169.725 136.045 2
-1 -6 7 420.16 320.846 1
-6 -1 7 504.338 288.544 1
1 6 -8 1324.73 307.6 2
6 1 -8 995.164 265.135 2
7 -1 -8 1707.62 353.071 2
1 -7 8 1679.59 565.535 1
-1 -6 8 1655.48 511.524 1
-1 -6 -8 2370.22 661.153 1
-6 -1 8 1658.79 445.876 1
-6 -1 9 1854.65 460.413 1
1 6 -9 2323.03 443.817 2
6 1 -9 2232.03 399.471 2
7 -1 -9 2179.35 400.317 2
1 -7 9 2471.82 588.157 1
-1 -6 9 2129.36 575.338 1
-6 -1 10 349.266 249.979 1
1 6 -10 583.097 262.005 2
6 1 -10 393.052 203.292 2
7 -1 -10 402.454 191.317 2
-1 -6 10 144.648 175.864 1
1 -7 10 473.083 344.08 1
-6 -1 11 520.392 281.771 1
1 6 -11 501.877 223.354 2
6 1 -11 499.681 238.862 2
7 -1 -11 667.133 269.301 2
-1 -6 11 753.758 346.546 1
1 -7 11 469.457 280.67 1
-6 -1 12 313.311 204.172 1
-1 7 -12 125.657 183.909 2
-7 1 12 460.071 221.524 1
1 6 -12 403.797 198.164 2
6 1 -12 327.986 199.818 2
7 -1 -12 287.94 174.343 2
-1 -6 12 421.139 277.095 1
1 -7 12 -127.01 174.841 1
-6 -1 13 480.941 261.476 1
-7 1 13 910.07 370.335 1
-1 7 -13 1001.2 322.192 2
1 6 -13 663.697 289.601 2
6 1 -13 848.588 261.156 2
7 -1 -13 166.46 155.352 2
-1 -6 13 1419.53 545.435 1
1 -7 13 558.485 294.893 1
1 -7 14 961.93 418.288 1
-6 -1 14 1203.82 375.243 1
-7 1 14 951.874 303.82 1
1 6 -14 1066.54 301.554 2
6 1 -14 1157.41 302.882 2
7 -1 -14 1204.07 349.547 2
-1 -6 14 1318.41 486.405 1
-7 1 15 112.377 207.782 1
0 -7 0 2942.76 707.325 1
0 -7 -1 3365.89 791.907 1
0 -7 1 2615.66 729.265 1
0 -7 -2 369.316 343.012 1
0 -7 2 591.848 391.725 1
0 -7 -3 1179.1 479.298 1
0 -7 3 698.461 384.465 1
0 -7 -4 1429.83 578.33 1
0 -7 4 1974.76 591.314 1
0 -7 -5 181.431 241.895 1
0 -7 5 22.2066 196.916 1
0 -7 -6 967.33 477.16 1
0 -7 6 440.77 282.371 1
0 -7 -7 652.19 476.327 1
7 0 -7 1150.81 289.85 2
0 -7 7 741.492 405.512 1
7 0 -8 960.289 271.979 2
0 -7 8 -12.4033 194.206 1
0 -7 -8 706.584 458.173 1
0 7 -9 2099 418.772 2
7 0 -9 1866.74 360.207 2
0 -7 9 2099.9 680.357 1
-7 0 10 141.633 186.778 1
0 7 -10 -76.1943 135.136 2
7 0 -10 112.307 143.402 2
0 -7 10 307.268 273.358 1
-7 0 11 1681.58 452.868 1
0 7 -11 1575.9 384.209 2
7 0 -11 1155.12 306.265 2
0 -7 11 1350.99 520.328 1
-7 0 12 939.636 327.122 1
0 7 -12 1195.35 376.361 2
7 0 -12 1061.49 297.081 2
0 -7 12 767.234 389.18 1
-7 0 13 953.7 324.343 1
7 0 -13 1010.44 284.464 2
0 -7 13 1315.14 460.812 1
-7 0 14 793.309 321.138 1
0 -7 14 687.1 324.544 1
-4 -4 0 114035 4119.53 1
-4 -4 -1 718.927 816.656 1
-4 -4 1 305.21 452.692 1
-4 -4 -2 102.137 224.304 1
-4 -4 2 250.33 368.932 1
-4 -4 -3 483.674 324.227 1
-4 -4 3 189.78 365.954 1
-4 -4 -4 1167.92 488.683 1
-4 -4 4 1559.55 585.356 1
-4 -4 -5 -430.194 293.291 1
-4 -4 5 173.067 357.804 1
-4 -4 -6 53732.8 2696.63 1
-4 -4 6 58999.3 2962.75 1
-4 -4 -7 -194.015 181.751 1
4 4 -7 -1.8276 126.72 2
-4 -4 7 126.956 290.844 1
-4 -4 -8 313.69 223.182 1
4 4 -8 338.469 191.389 2
-4 -4 8 198.023 280.488 1
-4 -4 -9 -57.069 239.869 1
4 4 -9 86.2968 167.573 2
-4 -4 9 115.014 242.262 1
-4 -4 -10 54.3205 251.648 1
4 4 -10 273.738 213.053 2
-4 -4 10 -60.485 256.017 1
-4 -4 -11 -114.007 322.582 1
4 4 -11 -566.92 284.325 2
-4 8 11 111.613 188.493 1
-4 -4 11 74.2047 240.142 1
-4 8 12 43105.5 2163.63 1
4 4 -12 38939.4 1993.67 2
-4 -4 -12 39540.9 3040.27 1
-4 -4 12 37338 2424.19 1
4 4 -13 -129.53 227.502 2
-4 8 13 -357.617 308.164 1
-4 8 14 -185.487 233.607 1
3 -8 0 25.0284 135.544 1
-3 -5 0 -264.545 317.361 1
-5 -3 0 -44.5268 234.597 1
3 -8 -1 48.1427 177.892 1
-3 -5 -1 85.1276 279.847 1
-3 -5 1 311.737 359.622 1
-5 -3 -1 119.773 159.55 1
-5 -3 1 224.625 235.724 1
3 -8 -2 1833.01 454.795 1
-3 -5 -2 1369.96 558.75 1
-5 -3 -2 1250.76 440.094 1
-3 -5 2 1000.7 507.237 1
-5 -3 2 1347.1 527.581 1
3 -8 -3 20.4098 214.382 1
-3 -5 -3 518.964 385.122 1
-5 -3 -3 156.951 193.46 1
-3 -5 3 692.045 460.615 1
-5 -3 3 365.127 320 1
3 -8 -4 2958.83 577.508 1
-3 -5 -4 2840.68 700.382 1
-5 -3 -4 1546.01 469.661 1
-3 -5 4 2122.83 734.131 1
-5 -3 4 2116.3 556.322 1
-3 -5 -5 548.609 456.435 1
-5 -3 -5 1058.26 395.066 1
-3 -5 5 857.042 511.796 1
-5 -3 5 1204.41 443.617 1
3 -8 -5 1007.68 400.92 1
-3 -5 -6 110.761 251.445 1
-5 -3 -6 15.7922 161.524 1
3 5 -6 648.832 195.212 2
-3 -5 6 622.752 391.763 1
-5 -3 6 196.64 244.137 1
-3 -5 -7 151.457 242.785 1
-5 -3 -7 221.93 222.943 1
3 5 -7 134.529 165.784 2
-3 -5 7 -372.187 336.141 1
-5 -3 7 175.163 288.503 1
-3 -5 -8 1422.82 499.205 1
-5 -3 -8 1543.37 443.271 1
3 5 -8 1263.57 305.89 2
5 3 -8 1071.65 322.697 2
-3 -5 8 1308.67 468.988 1
-5 -3 8 1277.12 467.185 1
-3 -5 -9 1049.68 445.495 1
-5 -3 -9 1160.8 416.419 1
3 5 -9 1215.86 332.508 2
5 3 -9 741.882 292.336 2
-3 -5 9 636.83 300.11 1
-5 -3 9 1482.98 480.631 1
-3 -5 -10 276.598 311.82 1
-5 -3 -10 249.366 242.76 1
3 5 -10 267.462 192.511 2
5 3 -10 278.795 162.55 2
-3 -5 10 272.645 365.919 1
-5 -3 10 104.655 203.393 1
-3 -5 -11 -10.024 201.221 1
-5 -3 -11 -589.662 375.034 1
3 5 -11 236.813 218.661 2
5 3 -11 -163.137 236.785 2
-3 -5 11 -144.604 280.629 1
-5 -3 11 -214.715 191.532 1
-5 -3 12 352.903 351.998 1
3 5 -12 -59.0868 142.919 2
5 3 -12 303.985 257.166 2
-3 -5 -12 123.065 236.876 1
-3 -5 12 362.748 240.924 1
3 5 -13 -328.586 251.654 2
5 3 -13 -32.2449 202.786 2
2 -8 0 433.718 262.945 1
-2 -6 0 286.128 369.609 1
-6 -2 0 725.047 318.093 1
2 -8 -1 2959.2 607.28 1
-2 -6 -1 3096.89 747.841 1
2 -8 1 3396.31 635.851 1
-2 -6 1 4075.54 866.132 1
-6 -2 -1 2841.59 623.297 1
-6 -2 1 3022.52 605.653 1
2 -8 -2 11413.3 1175.45 1
-2 -6 -2 12690.1 1433.67 1
2 -8 2 12497.1 1221.08 1
-2 -6 2 12638.6 1410.16 1
-6 -2 -2 12443.9 1138.09 1
-6 -2 2 13853.9 1267.75 1
2 -8 -3 18843.8 1485.05 1
-2 -6 -3 21547.4 1906.84 1
2 -8 3 19125.4 1456.79 1
-6 -2 -3 19551.1 1409.2 1
-2 -6 3 19132.1 1764.43 1
-6 -2 3 18893.4 1497 1
2 -8 -4 17327.9 1460.12 1
-2 -6 -4 18549.4 1796.16 1
2 -8 4 16054.5 1350.86 1
-2 -6 4 15209.4 1769.86 1
-6 -2 4 14000.4 1268.89 1
2 6 -5 5434.46 629.53 2
-2 -6 -5 5784.06 973.544 1
2 -8 -5 5452.01 937.359 1
2 -8 5 6906.08 881.123 1
-2 -6 5 6374.72 1187.99 1
-6 -2 5 4929.26 777.179 1
2 -8 -6 295.812 222.067 1
-2 -6 -6 -493.908 324.585 1
2 6 -6 -35.0039 135.753 2
2 -8 6 150.694 217.387 1
-2 -6 6 855.191 453.216 1
-6 -2 6 530.179 323.102 1
2 6 -7 7122.95 707.794 2
-2 -6 -7 7430.85 1199.71 1
-2 -6 7 7750.66 1109.25 1
-6 -2 7 6830.16 873.23 1
2 6 -8 7008.89 693.967 2
8 -2 -8 7802.21 729.395 2
-2 -6 -8 6296.29 1072.2 1
-2 -6 8 7268.61 1029.8 1
-6 -2 8 5454.69 853.055 1
2 6 -9 14886.1 1044.7 2
6 2 -9 16533.1 1108.69 2
8 -2 -9 16901.1 1108.38 2
-2 -6 -9 12164.1 1353.39 1
-2 -6 9 13919 1456.33 1
-6 -2 9 14061.4 1295.18 1
2 6 -10 8272.81 796.166 2
6 2 -10 8407.08 827.5 2
8 -2 -10 9669.15 856.094 2
-2 -6 -10 7459.79 1141.66 1
-2 -6 10 6692.86 1054.62 1
-6 -2 10 6424.85 915.645 1
-6 -2 11 459.185 280.978 1
2 6 -11 -54.449 143.858 2
6 2 -11 24.9418 127.91 2
8 -2 -11 171.534 152.808 2
-2 -6 -11 221.49 265.097 1
-2 -6 11 280.223 319.327 1
-6 -2 12 110.643 220.684 1
2 6 -12 546.775 246.33 2
6 2 -12 170.261 221.758 2
8 -2 -12 91.9116 152.62 2
-1 -7 0 4540.88 915.872 1
1 -8 0 4400.64 768.889 1
1 -8 -1 -300.553 287.666 1
-1 -7 -1 70.9291 333.931 1
1 -8 1 -66.3672 216.368 1
-1 -7 1 -258.402 286.949 1
1 -8 -2 418.305 244.906 1
-1 -7 -2 97.5234 232.394 1
1 -8 2 564.485 319.153 1
-1 -7 2 188.238 250.528 1
1 -8 -3 133.65 183.039 1
-1 -7 -3 1305.06 514.064 1
1 -8 3 847.782 366.637 1
-1 -7 3 772.752 394.211 1
1 7 -4 249.743 162.86 2
1 -8 -4 -181.289 218.034 1
-1 -7 -4 39.8808 257.409 1
1 -8 4 -232.342 277.269 1
-1 -7 4 -618.292 352.858 1
1 -8 -5 -366.392 289.271 1
1 7 -5 158.073 168.899 2
-1 -7 -5 464.035 381.343 1
1 -8 5 204.527 172.301 1
-1 -7 5 330.557 264.202 1
1 -8 -6 45.9329 195.403 1
-1 -7 -6 304.22 302.254 1
1 7 -6 419.398 179.321 2
1 -8 6 870.904 382.764 1
-1 -7 6 109.214 234.905 1
1 -8 -7 -53.6366 246.318 1
-1 -7 -7 65.1319 215.921 1
1 7 -7 123.346 164.653 2
1 -8 7 -460.061 314.973 1
-1 -7 7 -46.4505 234.684 1
-7 -1 8 -217.413 161.927 1
1 -8 -8 240.559 228.651 1
-1 -7 -8 7.74103 269.354 1
1 7 -8 200.597 143.979 2
8 -1 -8 -336.64 183.538 2
1 -8 8 222.435 222.997 1
-1 -7 8 -303.505 343.146 1
-7 -1 9 294.338 206.035 1
1 7 -9 519.005 226.982 2
8 -1 -9 410.319 176.373 2
1 -8 -9 253.473 301.949 1
1 -8 9 416.308 211.016 1
-1 -7 9 1161.58 435.496 1
-7 -1 10 772.455 306.854 1
1 7 -10 1661.7 373.706 2
7 1 -10 1523.41 350.84 2
8 -1 -10 1209.92 306.736 2
-1 -7 10 659.615 364.566 1
1 -8 10 1100.06 399.369 1
-7 -1 11 20.8173 152.886 1
7 1 -11 23.5036 187.838 2
8 -1 -11 14.0991 134.465 2
1 -8 11 207.446 247.136 1
0 -8 0 -237.387 261.534 1
0 -8 -1 714.924 406.824 1
0 -8 1 1019.13 412.294 1
0 -8 -2 5817.01 911.636 1
0 -8 2 6235.97 975.133 1
0 -8 -3 11074.7 1390.84 1
0 -8 3 11598.4 1265.45 1
0 -8 -4 7673.05 1226.33 1
0 -8 4 9462.3 1210.16 1
0 -8 -5 2537.44 685.613 1
0 -8 5 2349.19 638.685 1
0 -8 6 -83.2941 261.196 1
0 8 -7 4175.62 624.682 2
0 -8 7 2522.71 674.494 1
0 8 -8 3315.12 566.877 2
0 -8 8 3216.46 721.291 1
-4 -5 0 1130.58 545.251 1
-5 -4 0 1653.78 562.826 1
-4 -5 -1 2449.13 616.178 1
-5 -4 -1 1492.34 487.071 1
-4 -5 1 2738.29 702.878 1
-5 -4 1 2832.32 705.188 1
-4 -5 -2 749.608 444.091 1
-5 -4 -2 473.376 318.138 1
-4 -5 2 625.09 471.09 1
-5 -4 2 261.038 230.389 1
-4 -5 -3 882.535 449.59 1
-5 -4 -3 846.368 373.86 1
-4 -5 3 204.132 325.743 1
-5 -4 3 595.733 380.337 1
-4 -5 -4 1129.47 454.967 1
-5 -4 -4 1273.53 398.818 1
-4 -5 4 1049.12 558.878 1
-5 -4 4 806.056 473.716 1
-4 -5 -5 268.753 261.461 1
-5 -4 -5 -261.351 206.176 1
-4 -5 5 21.0694 262.933 1
-5 -4 5 -27.0402 231.903 1
-4 -5 -6 243.234 278.199 1
-5 -4 -6 169.938 186.106 1
-4 -5 6 -82.6628 224.245 1
-5 -4 6 544.807 383.3 1
-4 -5 -7 143.519 255.002 1
-5 -4 -7 361.688 283.418 1
-5 -4 7 852.561 358.597 1
-4 -5 -8 -41.7698 200.395 1
-5 -4 -8 1079.55 423.143 1
-5 -4 -9 1297.52 445.101 1
-3 -6 0 2440.9 689.096 1
-6 -3 0 2104.87 597.999 1
-3 -6 -1 -100.961 244.844 1
-3 -6 1 96.4849 199.97 1
-6 -3 -1 424.234 324.288 1
-6 -3 1 395.511 335.459 1
-3 -6 -2 215.617 201.27 1
-6 -3 -2 238.772 229.031 1
-3 -6 2 387.463 364.185 1
-6 -3 2 -106.037 211.949 1
-3 -6 -3 2039.72 678.753 1
-6 -3 -3 2293.22 583.756 1
-3 -6 3 3458.34 815.096 1
-6 -3 3 1930.37 548.3 1
3 -9 -4 670.522 332.477 1
-3 -6 -4 197.141 249.273 1
-6 -3 -4 50.2619 209.039 1
-3 -6 4 -82.8584 315.877 1
-6 -3 4 -10.6552 178.646 1
3 -9 -5 126.985 188.804 1
-3 -6 -5 288.311 315.702 1
-3 -6 5 -321.417 330.247 1
-6 -3 5 113.978 240.862 1
3 -9 -6 -153.703 271.613 1
-6 -3 6 -484.918 279.362 1
3 -9 -7 402.362 261.862 1
-6 -3 7 354.459 267.811 1
3 -9 -8 -112.971 180.796 1
3 6 -10 386.818 185.835 2
2 -9 0 444.33 267.536 1
2 -9 -1 413.619 245.673 1
2 -9 1 879.338 320.829 1
2 -9 -2 -265.649 288.605 1
2 -9 2 -36.858 188.899 1
2 -9 -3 -257.103 219.947 1
2 -9 -4 190.316 185.124 1
2 -9 -5 3514 751.934 1
2 -9 -6 1009.95 414.102 1
-7 -2 6 -10.7886 170.793 1
-7 -2 7 1886.77 461.26 1
1 -9 1 678.458 363.83 1
1 -9 2 -187.344 260.895 1
1 -9 3 -123.031 250.564 1
