#------------------------------------------------------------------------------
#$Date: 2019-11-23 16:12:58 +0200 (Sat, 23 Nov 2019) $
#$Revision: 233959 $
#$URL: file:///home/coder/svn-repositories/cod/cif/7/23/61/7236144.cif $
#------------------------------------------------------------------------------
#
# This file is available in the Crystallography Open Database (COD),
# http://www.crystallography.net/
#
# All data on this site have been placed in the public domain by the
# contributors.
#
data_7236144
loop_
_publ_author_name
'Liu, Qiangqiang'
'Jin, Bo'
'Peng, Rufang'
'Guo, Zhicheng'
'Zhao, Jun'
'Zhang, Qingchun'
'Shang, Yu'
_publ_section_title
;
 Synthesis, characterization and properties of nitrogen-rich compounds
 based on cyanuric acid: a promising design in the development of new
 energetic materials
;
_journal_issue                   13
_journal_name_full               'Journal of Materials Chemistry A'
_journal_page_first              4971
_journal_paper_doi               10.1039/C5TA10688E
_journal_volume                  4
_journal_year                    2016
_chemical_formula_sum            'C3 H7 N5 O3'
_chemical_formula_weight         161.14
_space_group_crystal_system      monoclinic
_space_group_IT_number           14
_space_group_name_Hall           '-P 2yn'
_space_group_name_H-M_alt        'P 1 21/n 1'
_atom_sites_solution_hydrogens   difmap
_audit_creation_method           SHELXL-2014/7
_audit_update_record
;
2015-11-06 deposited with the CCDC.
2016-03-01 downloaded from the CCDC.
;
_cell_angle_alpha                90
_cell_angle_beta                 101.349(3)
_cell_angle_gamma                90
_cell_formula_units_Z            4
_cell_length_a                   9.4591(15)
_cell_length_b                   6.7214(10)
_cell_length_c                   9.6711(15)
_cell_measurement_reflns_used    1974
_cell_measurement_temperature    113(2)
_cell_measurement_theta_max      27.5
_cell_measurement_theta_min      3.7
_cell_volume                     602.85(16)
_computing_cell_refinement
; 
Rigaku CrystalClear-SM Expert 2.1 b42 
;
_computing_data_collection
; 
Rigaku CrystalClear-SM Expert 2.1 b42 
;
_computing_data_reduction
; 
Rigaku CrystalClear-SM Expert 2.1 b42 
;
_computing_structure_refinement  'SHELXL-2014/7 (Sheldrick, 2014)'
_computing_structure_solution    'SHELXS2014 (Sheldrick, 2008)'
_diffrn_ambient_temperature      113(2)
_diffrn_detector_area_resol_mean 5.8140
_diffrn_measured_fraction_theta_full 0.999
_diffrn_measured_fraction_theta_max 0.997
_diffrn_measurement_device_type  'Rigaku XtaLAB P200'
_diffrn_measurement_method       'profile data from \w-scans'
_diffrn_radiation_type           MoK\a
_diffrn_radiation_wavelength     0.71073
_diffrn_reflns_av_R_equivalents  0.0228
_diffrn_reflns_av_unetI/netI     0.0152
_diffrn_reflns_Laue_measured_fraction_full 0.999
_diffrn_reflns_Laue_measured_fraction_max 0.997
_diffrn_reflns_limit_h_max       12
_diffrn_reflns_limit_h_min       -12
_diffrn_reflns_limit_k_max       8
_diffrn_reflns_limit_k_min       -8
_diffrn_reflns_limit_l_max       12
_diffrn_reflns_limit_l_min       -11
_diffrn_reflns_number            5845
_diffrn_reflns_point_group_measured_fraction_full 0.999
_diffrn_reflns_point_group_measured_fraction_max 0.997
_diffrn_reflns_theta_full        25.242
_diffrn_reflns_theta_max         27.506
_diffrn_reflns_theta_min         3.361
_diffrn_source                   'Rotating Anode'
_exptl_absorpt_coefficient_mu    0.156
_exptl_absorpt_correction_T_max  0.973
_exptl_absorpt_correction_T_min  0.900
_exptl_absorpt_correction_type   multi-scan
_exptl_absorpt_process_details   'REQAB (Rigaku, 1998)'
_exptl_crystal_colour            Colorless
_exptl_crystal_density_diffrn    1.775
_exptl_crystal_density_method    'not measured'
_exptl_crystal_description       Prism
_exptl_crystal_F_000             336
_exptl_crystal_size_max          0.240
_exptl_crystal_size_mid          0.220
_exptl_crystal_size_min          0.180
_refine_diff_density_max         0.294
_refine_diff_density_min         -0.203
_refine_diff_density_rms         0.048
_refine_ls_extinction_coef       0.015(3)
_refine_ls_extinction_expression Fc^*^=kFc[1+0.001xFc^2^\l^3^/sin(2\q)]^-1/4^
_refine_ls_extinction_method     'SHELXL-2014/7 (Sheldrick 2014'
_refine_ls_goodness_of_fit_ref   1.056
_refine_ls_hydrogen_treatment    refall
_refine_ls_matrix_type           full
_refine_ls_number_parameters     129
_refine_ls_number_reflns         1380
_refine_ls_number_restraints     0
_refine_ls_restrained_S_all      1.056
_refine_ls_R_factor_all          0.0269
_refine_ls_R_factor_gt           0.0254
_refine_ls_shift/su_max          0.000
_refine_ls_shift/su_mean         0.000
_refine_ls_structure_factor_coef Fsqd
_refine_ls_weighting_details
'w=1/[\s^2^(Fo^2^)+(0.0493P)^2^+0.1245P] where P=(Fo^2^+2Fc^2^)/3'
_refine_ls_weighting_scheme      calc
_refine_ls_wR_factor_gt          0.0782
_refine_ls_wR_factor_ref         0.0792
_reflns_Friedel_coverage         0.000
_reflns_number_gt                1280
_reflns_number_total             1380
_reflns_threshold_expression     'I > 2\s(I)'
_cod_data_source_file            c5ta10688e2.cif
_cod_data_source_block           shelx
_cod_depositor_comments
;
The following automatic conversions were performed:

data item '_exptl_absorpt_correction_type' value 'Multi-scan' was
changed to 'multi-scan' in accordance with the
/home/saulius/struct/COD-crude-data/automatic-downloads/DataCite-retrospective/RSC/depositions/lib/dictionaries/cif_core.dic
dictionary named 'cif_core.dic' version 2.4.2 last updated on
2011-04-26.

Automatic conversion script
Id: cif_fix_values 6909 2019-04-08 15:41:33Z antanas 
;
_cod_original_sg_symbol_H-M      'P 21/n'
_cod_database_code               7236144
_shelx_shelxl_version_number     2014/7
_shelx_space_group_comment
; 
The symmetry employed for this shelxl refinement is uniquely defined 
by the following loop, which should always be used as a source of 
symmetry information in preference to the above space-group names. 
They are only intended as comments. 
;
_shelx_estimated_absorpt_t_min   0.964
_shelx_estimated_absorpt_t_max   0.973
_shelx_res_file
; 
  
    shelx.res created by SHELXL-2014/7 
  
TITL shelx in P2(1)/n 
CELL 0.71073   9.4591   6.7214   9.6711  90.000 101.349  90.000 
ZERR    4.00   0.0015   0.0010   0.0015   0.000   0.003   0.000 
LATT 1 
SYMM 0.5-X, 0.5+Y, 0.5-Z 
SFAC C  H  N  O 
UNIT 12 28 20 12 
L.S. 4 
ACTA 
BOND $h 
FMAP 2 
PLAN 5 
HTAB N2 N5 
HTAB N4 N1_$6 
EQIV $6 x+1/2, -y+3/2, z-1/2 
HTAB N5 O2_$5 
EQIV $5 -x+3/2, y+1/2, -z+1/2 
HTAB N3 O1_$4 
EQIV $4 x, y-1, z 
HTAB N5 O2_$3 
EQIV $3 x, y+1, z 
HTAB N4 O3_$2 
EQIV $2 x+1/2, -y+1/2, z-1/2 
HTAB N4 O3_$1 
EQIV $1 -x+1/2, y+1/2, -z+1/2 
size 0.24 0.22 0.18 
htab 
conf 
TEMP -160 
WGHT    0.049300    0.124500 
EXTI    0.015061 
FVAR       0.30055 
O1    4    0.347812    0.729663    0.384616    11.00000    0.01828    0.00655 = 
         0.01733   -0.00009    0.00354    0.00014 
O2    4    0.550498    0.161284    0.261013    11.00000    0.01430    0.01236 = 
         0.02066   -0.00189    0.00956    0.00039 
O3    4    0.183056    0.131288    0.499631    11.00000    0.01253    0.00974 = 
         0.01677    0.00132    0.00651   -0.00107 
N1    3    0.256808    0.437297    0.445566    11.00000    0.01162    0.00809 = 
         0.01258   -0.00059    0.00357    0.00081 
N2    3    0.448727    0.447723    0.321187    11.00000    0.01129    0.00821 = 
         0.01323    0.00082    0.00488   -0.00118 
N3    3    0.371532    0.144883    0.387829    11.00000    0.01065    0.00568 = 
         0.01398    0.00038    0.00426    0.00013 
C1    1    0.349056    0.545366    0.385216    11.00000    0.01038    0.00899 = 
         0.00937   -0.00006   -0.00024   -0.00008 
C2    1    0.462895    0.245572    0.319668    11.00000    0.00970    0.00997 = 
         0.01059   -0.00055    0.00142    0.00001 
C3    1    0.266252    0.237812    0.446374    11.00000    0.00844    0.01057 = 
         0.00851   -0.00023    0.00091    0.00007 
N4    3    0.605748    0.752812    0.053599    11.00000    0.01250    0.00922 = 
         0.01440    0.00017    0.00590    0.00018 
N5    3    0.630277    0.741616    0.206954    11.00000    0.01379    0.01187 = 
         0.01318   -0.00023    0.00502    0.00085 
H4A   2    0.509940    0.742629    0.019645    11.00000    0.01993 
H4B   2    0.649071    0.645806    0.022028    11.00000    0.02126 
H5A   2    0.600975    0.855790    0.233009    11.00000    0.01916 
H3    2    0.373154    0.013701    0.386995    11.00000    0.02062 
H5B   2    0.725172    0.739906    0.235656    11.00000    0.01988 
H4C   2    0.643058    0.868436    0.021695    11.00000    0.02292 
H2    2    0.509919    0.527666    0.281976    11.00000    0.02862 
HKLF 4 
  
REM  shelx in P2(1)/n 
REM R1 =  0.0254 for    1280 Fo > 4sig(Fo)  and  0.0269 for all    1380 data 
REM    129 parameters refined using      0 restraints 
  
END 
  
WGHT      0.0493      0.1244 
  
REM Instructions for potential hydrogen bonds 
HTAB N4 O3_$1 
HTAB N4 O3_$2 
HTAB N5 O2_$3 
HTAB N3 O1_$4 
HTAB N5 O2_$5 
HTAB N4 N1_$6 
HTAB N2 N5 
  
REM Highest difference peak  0.294,  deepest hole -0.203,  1-sigma level  0.048 
Q1    1   0.4531  0.3504  0.3255  11.00000  0.05    0.29 
Q2    1   0.3283  0.1929  0.4117  11.00000  0.05    0.28 
Q3    1   0.2673  0.3497  0.4329  11.00000  0.05    0.26 
Q4    1   0.4041  0.4876  0.3517  11.00000  0.05    0.23 
Q5    1   0.4155  0.1952  0.3618  11.00000  0.05    0.21 
;
_shelx_res_checksum              5766
_shelx_hkl_file
; 
   0   0  -2   21.20    0.56 
   0   0  -2   20.90    0.49 
   0   0   2   20.60    0.54 
   0   0  -3    0.00    0.03 
   0   0   3    0.01    0.04 
   0   0  -3   -0.01    0.03 
   0   0   3   -0.01    0.03 
   0   0  -4   13.11    0.48 
   0   0   4   12.22    0.45 
   0   0   4   12.59    0.42 
   0   0  -4   13.31    0.44 
   0   0   4   12.33    0.45 
   0   0  -4   12.35    0.45 
   0   0  -5    0.00    0.03 
   0   0   5   -0.01    0.03 
   0   0   5    0.00    0.03 
   0   0  -5    0.00    0.03 
   0   0   5   -0.02    0.04 
   0   0  -5    0.02    0.04 
   0   0  -6    5.75    0.28 
   0   0   6    5.68    0.27 
   0   0   6    5.58    0.24 
   0   0  -6    5.19    0.24 
   0   0   6    5.26    0.26 
   0   0  -6    5.06    0.26 
   0   0  -7    0.03    0.04 
   0   0   7    0.01    0.04 
   0   0   7   -0.01    0.04 
   0   0  -7    0.00    0.03 
   0   0   7    0.00    0.05 
   0   0  -8    0.06    0.05 
   0   0   8    0.07    0.05 
   0   0   8    0.07    0.05 
   0   0   8    0.04    0.06 
   0   0  -9   -0.02    0.05 
   0   0   9    0.01    0.04 
   0   0   9   -0.03    0.05 
   0   0   9   -0.01    0.06 
   0   0  10    1.83    0.14 
   0   0  10    1.72    0.16 
   0   0  11    0.04    0.06 
   0   0  11    0.01    0.07 
   0   0  12    7.63    0.27 
   0   0  12    8.35    0.32 
   0   1   0    0.02    0.04 
   0  -1   0    0.02    0.04 
   0   1   0    0.01    0.05 
   0  -1   1   14.83    0.46 
   0  -1  -1   17.27    0.50 
   0   1  -1   16.08    0.48 
   0   1   1   15.21    0.46 
   0   1  -1   17.00    0.49 
   0  -1   1   17.19    0.50 
   0   1  -1   15.96    0.47 
   0  -1  -2  240.32    2.73 
   0   1  -2  241.14    2.61 
   0   1   2  234.49    2.66 
   0  -1   2  232.39    2.70 
   0   1  -2  233.31    2.60 
   0   1   2  238.66    2.87 
   0  -1  -2  226.98    2.73 
   0   1  -3   59.88    1.02 
   0  -1  -3   55.49    0.98 
   0   1   3   54.21    0.95 
   0  -1   3   54.39    0.91 
   0   1  -3   57.00    0.96 
   0   1   3   53.67    0.95 
   0  -1  -3   58.04    1.01 
   0   1  -4    0.54    0.09 
   0  -1  -4    0.53    0.09 
   0   1   4    0.52    0.09 
   0  -1   4    0.55    0.09 
   0  -1   4    0.50    0.08 
   0   1  -4    0.55    0.08 
   0  -1  -4    0.56    0.09 
   0  -1   4    0.57    0.09 
   0   1   4    0.55    0.09 
   0  -1  -4    0.53    0.09 
   0   1  -5    5.66    0.27 
   0  -1  -5    5.65    0.28 
   0   1   5    5.50    0.27 
   0  -1   5    5.35    0.26 
   0  -1   5    5.64    0.24 
   0   1  -5    5.47    0.23 
   0   1   5    5.16    0.23 
   0  -1  -5    5.23    0.25 
   0  -1   5    5.48    0.27 
   0   1   5    5.51    0.27 
   0  -1  -5    5.44    0.27 
   0   1  -6  244.12    3.08 
   0  -1  -6  237.80    3.04 
   0   1   6  238.76    3.26 
   0  -1   6  234.48    2.96 
   0  -1   6  244.77    2.97 
   0  -1  -6  246.66    3.13 
   0  -1   6  235.30    3.07 
   0   1   6  238.06    3.11 
   0   1  -6  243.56    3.10 
   0  -1  -6  243.08    3.06 
   0   1  -7    7.97    0.33 
   0  -1  -7    7.81    0.33 
   0   1   7    7.47    0.31 
   0  -1   7    7.77    0.32 
   0  -1   7    7.89    0.30 
   0   1   7    7.75    0.29 
   0   1  -7    7.70    0.28 
   0  -1   7    7.33    0.32 
   0   1   7    7.37    0.31 
   0  -1  -7    8.02    0.33 
   0   1  -8    0.68    0.10 
   0  -1  -8    0.62    0.10 
   0   1   8    0.65    0.10 
   0  -1   8    0.62    0.09 
   0  -1   8    0.73    0.09 
   0   1   8    0.65    0.09 
   0  -1   8    0.61    0.10 
   0   1   8    0.72    0.10 
   0  -1  -9   18.85    0.51 
   0  -1   9   20.01    0.47 
   0   1   9   18.62    0.44 
   0  -1   9   20.76    0.54 
   0   1   9   20.04    0.52 
   0  -1 -10    3.39    0.21 
   0  -1  10    3.49    0.19 
   0   1  10    3.42    0.18 
   0  -1  10    3.54    0.22 
   0   1  10    3.64    0.21 
   0  -1  11    0.32    0.08 
   0   1  11    0.28    0.07 
   0  -1  11    0.30    0.09 
   0   1  11    0.27    0.09 
   0  -1  12    3.35    0.19 
   0   1  12    3.30    0.18 
   0  -1  12    3.54    0.22 
   0   1  12    3.44    0.21 
   0   2   0  435.56    5.44 
   0  -2   1   90.16    1.33 
   0   2   1   85.84    1.26 
   0   2  -1   84.41    1.31 
   0   2   1   86.07    1.35 
   0   2  -1   89.41    1.37 
   0  -2   2    3.02    0.20 
   0  -2  -2    2.54    0.19 
   0   2   2    2.89    0.20 
   0   2  -2    2.67    0.19 
   0  -2   2    2.56    0.20 
   0   2  -2    2.74    0.18 
   0   2  -2    2.94    0.19 
   0   2   2    3.08    0.21 
   0  -2  -3    0.09    0.05 
   0  -2   3    0.06    0.04 
   0   2  -3    0.07    0.04 
   0   2   3    0.03    0.04 
   0  -2   3    0.10    0.05 
   0   2  -3    0.08    0.05 
   0   2   3    0.06    0.04 
   0  -2  -4   11.97    0.41 
   0   2   4   12.32    0.40 
   0  -2   4   12.47    0.41 
   0   2  -4   11.84    0.34 
   0  -2   4   12.74    0.42 
   0   2  -4   12.12    0.39 
   0   2   4   11.76    0.40 
   0  -2  -4   12.11    0.40 
   0  -2  -5    0.00    0.04 
   0   2   5    0.00    0.04 
   0  -2   5   -0.01    0.04 
   0   2  -5    0.04    0.04 
   0  -2   5    0.02    0.04 
   0   2  -5    0.04    0.05 
   0   2   5    0.01    0.03 
   0  -2  -5    0.04    0.04 
   0  -2  -6    9.73    0.36 
   0   2   6    9.34    0.34 
   0  -2   6    9.24    0.33 
   0   2  -6    9.60    0.30 
   0  -2   6    8.96    0.35 
   0   2   6    8.95    0.34 
   0  -2  -6    9.02    0.34 
   0  -2  -7   68.05    1.50 
   0  -2   7   70.31    1.00 
   0   2   7   74.07    0.95 
   0  -2   7   72.76    1.06 
   0   2   7   74.77    1.04 
   0  -2  -7   76.85    1.08 
   0  -2  -8    1.78    0.16 
   0  -2   8    1.80    0.15 
   0   2   8    1.83    0.14 
   0  -2   8    1.73    0.16 
   0   2   8    1.71    0.15 
   0  -2  -9    5.43    0.28 
   0  -2   9    5.18    0.26 
   0   2   9    5.65    0.25 
   0  -2   9    5.43    0.28 
   0   2   9    5.46    0.27 
   0  -2 -10    0.17    0.07 
   0  -2  10    0.11    0.06 
   0   2  10    0.13    0.07 
   0  -2  10    0.11    0.08 
   0   2  10    0.18    0.07 
   0  -2  11    6.20    0.31 
   0  -2  11    6.03    0.32 
   0   2  11    6.05    0.31 
   0  -3   0    0.01    0.03 
   0   3   0    0.01    0.04 
   0   3   0    0.02    0.04 
   0  -3   1  162.43    3.32 
   0  -3  -1  143.31    3.00 
   0   3   1  161.21    3.25 
   0   3  -1  155.86    3.15 
   0   3   1  156.72    3.23 
   0   3  -1  151.86    3.14 
   0  -3   2    0.47    0.08 
   0   3   2    0.46    0.09 
   0   3  -2    0.44    0.08 
   0   3   2    0.52    0.10 
   0  -3   2    0.50    0.10 
   0   3  -2    0.48    0.08 
   0   3  -2    0.51    0.09 
   0  -3   3    0.62    0.09 
   0  -3  -3    0.62    0.10 
   0   3   3    0.54    0.09 
   0   3  -3    0.51    0.08 
   0  -3   3    0.57    0.10 
   0   3  -3    0.54    0.08 
   0   3  -3    0.58    0.09 
   0   3   3    0.50    0.09 
   0  -3  -4    0.91    0.12 
   0  -3   4    1.01    0.13 
   0   3  -4    0.88    0.10 
   0   3  -4    0.95    0.11 
   0   3   4    0.94    0.12 
   0  -3  -5   11.04    0.39 
   0  -3   5   12.16    0.42 
   0   3  -5   11.81    0.34 
   0   3   5   12.03    0.40 
   0  -3  -6   45.07    0.82 
   0  -3   6   46.68    0.96 
   0   3   6   44.58    0.75 
   0  -3   6   46.44    0.83 
   0   3   6   46.03    0.82 
   0  -3  -7    0.06    0.07 
   0  -3   7    0.06    0.06 
   0   3   7    0.04    0.05 
   0  -3   7    0.06    0.06 
   0   3   7    0.04    0.04 
   0  -3  -7    0.04    0.04 
   0  -3  -8    0.04    0.07 
   0  -3   8    0.02    0.05 
   0   3   8    0.02    0.05 
   0  -3   8    0.00    0.06 
   0   3   8   -0.01    0.05 
   0  -3  -9    7.43    0.32 
   0  -3   9    7.53    0.31 
   0   3   9    7.67    0.28 
   0  -3   9    7.96    0.33 
   0   3   9    7.84    0.31 
   0  -3 -10    0.42    0.10 
   0  -3  10    0.34    0.09 
   0   3  10    0.44    0.08 
   0  -3  10    0.39    0.10 
   0  -3 -11    0.40    0.09 
   0  -3  11    0.20    0.08 
   0   3  11    0.39    0.09 
   0  -4   0   73.90    1.52 
   0   4   0   72.25    1.41 
   0   4   0   74.92    1.51 
   0  -4   1  103.53    1.95 
   0  -4  -1   98.18    1.92 
   0   4   1  102.01    1.86 
   0   4  -1  103.36    1.90 
   0  -4   1  100.79    1.95 
   0   4   1  105.18    1.98 
   0   4  -1  101.14    1.93 
   0  -4   2    5.71    0.28 
   0  -4  -2    5.11    0.27 
   0   4   2    5.43    0.26 
   0   4  -2    5.61    0.27 
   0   4   2    5.87    0.30 
   0  -4   2    4.88    0.29 
   0   4  -2    5.29    0.27 
   0   4  -2    5.56    0.27 
   0  -4   3    0.06    0.04 
   0   4   3    0.10    0.05 
   0   4  -3    0.08    0.04 
   0  -4   3    0.07    0.06 
   0   4  -3    0.07    0.04 
   0   4  -3    0.12    0.06 
   0   4   3    0.09    0.05 
   0  -4  -4   31.52    0.74 
   0   4  -4   29.65    0.69 
   0   4  -4   30.87    0.69 
   0  -4   4   32.93    0.81 
   0   4  -4   30.46    0.67 
   0   4   4   30.93    0.73 
   0  -4  -5   10.97    0.39 
   0  -4   5   10.91    0.41 
   0   4   5   10.67    0.38 
   0  -4  -6    1.17    0.14 
   0  -4   6    1.20    0.14 
   0   4   6    1.28    0.14 
   0  -4  -7    3.64    0.22 
   0  -4   7    3.84    0.24 
   0   4   7    3.48    0.20 
   0   4   7    3.62    0.22 
   0  -4  -8   61.30    0.99 
   0  -4   8   61.77    1.04 
   0   4   8   62.94    0.92 
   0   4   8   58.28    0.96 
   0  -4  -9    0.03    0.08 
   0  -4   9    0.05    0.07 
   0   4   9    0.10    0.06 
   0  -4 -10    2.29    0.19 
   0  -4  10    2.35    0.20 
   0   4  10    2.52    0.18 
   0  -5   0   -0.02    0.05 
   0   5   0    0.01    0.05 
   0  -5   1    3.02    0.21 
   0  -5  -1    2.97    0.21 
   0   5  -1    2.84    0.19 
   0  -5   1    2.90    0.22 
   0   5  -1    2.94    0.19 
   0  -5   2    2.45    0.18 
   0  -5  -2    2.37    0.18 
   0   5  -2    2.35    0.17 
   0  -5   2    2.34    0.20 
   0  -5   3    0.18    0.07 
   0  -5  -3    0.22    0.08 
   0   5  -3    0.17    0.06 
   0  -5   3    0.12    0.07 
   0  -5   4    1.10    0.12 
   0  -5   4    1.12    0.14 
   0   5   4    1.03    0.12 
   0  -5  -5    1.85    0.17 
   0  -5   5    2.06    0.19 
   0   5   5    2.04    0.17 
   0   5   5    1.91    0.16 
   0  -5  -6  154.93    1.99 
   0  -5   6  154.72    1.98 
   0   5   6  155.29    2.97 
   0  -5  -7    9.67    0.36 
   0  -5   7    9.86    0.39 
   0  -5  -8   26.46    0.58 
   0  -5   8   25.99    0.62 
   0   5   8   26.85    0.53 
   0  -5  -9    9.00    0.41 
   0  -5   9    8.75    0.42 
   0   5   9    8.46    0.36 
   0  -5 -10   44.90    0.75 
   0  -5  10   44.14    0.79 
   0   5  10   42.10    0.64 
   0  -6   0   49.72    1.08 
   0  -6   1    0.03    0.05 
   0  -6  -1   -0.02    0.06 
   0  -6   2    6.40    0.30 
   0  -6  -2    6.64    0.31 
   0  -6   2    6.75    0.34 
   0  -6   3    1.26    0.13 
   0  -6  -3    1.17    0.13 
   0  -6   3    1.34    0.15 
   0  -6   4    2.52    0.18 
   0  -6  -4    2.95    0.21 
   0  -6   4    3.18    0.24 
   0   6   4    3.04    0.21 
   0  -6   5    1.01    0.14 
   0   6   5    0.76    0.11 
   0  -6  -6    1.44    0.15 
   0  -6   6    1.68    0.18 
   0  -6  -7    7.22    0.31 
   0  -6   7    7.56    0.34 
   0  -6  -8   50.68    0.83 
   0  -6   8   49.46    0.87 
   0   6   8   48.34    0.73 
   0  -7   0    0.01    0.06 
   0  -7   1   39.89    0.77 
   0  -7  -1   42.33    0.79 
   0  -7   2    4.14    0.23 
   0  -7  -2    4.18    0.24 
   0  -7   2    4.35    0.27 
   0  -7   3    0.33    0.08 
   0  -7  -3    0.39    0.10 
   0  -7   3    0.26    0.10 
   0  -7  -4    1.04    0.13 
   0  -7   4    1.08    0.15 
   0  -7  -5    2.54    0.19 
   0  -7   5    2.71    0.22 
   0   7   5    2.68    0.19 
   0  -7   6    9.81    0.46 
   0   7   6    8.76    0.39 
   0  -7  -7    2.88    0.20 
   0  -7   7    2.76    0.22 
   0  -8   0   24.45    0.82 
   0  -8   1    0.09    0.07 
   0  -8  -1    0.00    0.07 
   0  -8  -2    3.67    0.24 
   0  -8  -3    0.36    0.10 
   0  -8  -4    1.36    0.15 
   0  -8   4    1.65    0.17 
  -1   0  12    0.01    0.06 
  -1   0  12    0.01    0.08 
  -1   0  11   12.61    0.35 
  -1   0  11   13.05    0.40 
  -1   0  10    0.01    0.05 
  -1   0  10   -0.05    0.06 
   1   0  -9    4.51    0.25 
  -1   0   9    4.44    0.24 
  -1   0   9    4.76    0.22 
  -1   0   9    4.36    0.24 
   1   0  -8   -0.01    0.04 
  -1   0   8   -0.01    0.03 
  -1   0   8    0.03    0.04 
  -1   0   8    0.01    0.05 
   1   0  -7    1.21    0.13 
  -1   0   7    1.21    0.12 
  -1   0   7    1.17    0.11 
   1   0  -7    1.26    0.12 
  -1   0   7    1.17    0.13 
   1   0  -6    0.01    0.04 
  -1   0   6    0.02    0.04 
  -1   0   6    0.02    0.04 
   1   0  -6    0.01    0.03 
   1   0  -6   -0.01    0.03 
   1   0  -5   86.02    1.24 
  -1   0   5   81.23    1.15 
  -1   0   5   81.74    1.04 
   1   0  -5   81.46    1.07 
  -1   0   5   83.35    1.18 
   1   0  -5   82.62    1.17 
   1   0  -4    0.07    0.04 
  -1   0   4    0.00    0.03 
  -1   0   4    0.02    0.03 
   1   0  -4    0.02    0.03 
  -1   0   4    0.01    0.03 
   1   0  -3    5.05    0.26 
  -1   0   3    5.35    0.26 
  -1   0   3    5.56    0.24 
   1   0  -3    5.37    0.25 
  -1   0   3    5.25    0.26 
   1   0  -3    4.90    0.25 
   1   0  -2   -0.01    0.03 
  -1   0   2    0.00    0.03 
   1   0  -2    0.00    0.03 
  -1   0   2    0.00    0.03 
   1   0  -2    0.01    0.03 
  -1   0  -1    8.68    0.30 
  -1   0  -2    0.04    0.04 
   1   0   2    0.01    0.04 
   1   0   2    0.02    0.03 
  -1   0  -2    0.00    0.03 
   1   0   2    0.02    0.04 
  -1   0  -2   -0.01    0.04 
  -1   0  -3 1618.92   30.00 
   1   0   3 1634.81   30.02 
  -1   0  -3 1577.54   14.61 
  -1   0  -3 1586.92   15.89 
  -1   0  -4    0.02    0.04 
   1   0   4   -0.01    0.03 
  -1   0  -4    0.00    0.03 
   1   0   4    0.00    0.03 
  -1   0  -4    0.01    0.04 
  -1   0  -5    1.53    0.14 
   1   0   5    1.50    0.14 
  -1   0  -5    1.63    0.13 
   1   0   5    1.65    0.15 
  -1   0  -5    1.57    0.14 
  -1   0  -6    0.00    0.04 
   1   0   6    0.01    0.04 
   1   0   6    0.01    0.04 
  -1   0  -6    0.01    0.04 
   1   0   6    0.10    0.05 
  -1   0  -6   -0.02    0.04 
  -1   0  -7   11.81    0.39 
   1   0   7   11.74    0.39 
   1   0   7   11.86    0.34 
   1   0   7   12.00    0.40 
  -1   0  -7   10.96    0.37 
  -1   0  -8    0.01    0.04 
   1   0   8    0.00    0.04 
   1   0   8    0.01    0.05 
   1   0   8   -0.03    0.05 
   1   0   9    0.63    0.09 
   1   0   9    0.62    0.10 
   1   0  10    0.02    0.05 
   1   0  10    0.01    0.06 
   1   0  11    0.49    0.09 
   1   0  11    0.60    0.10 
   1   0  12    0.06    0.07 
   1   0  12    0.06    0.08 
  -1  -1  12    0.03    0.06 
  -1   1  12    0.04    0.06 
  -1  -1  12   -0.02    0.08 
  -1   1  12    0.03    0.07 
  -1  -1  11   12.53    0.37 
  -1   1  11   12.00    0.34 
  -1  -1  11   12.88    0.41 
  -1   1  11   12.06    0.39 
   1  -1 -10    2.55    0.19 
  -1  -1  10    2.47    0.16 
  -1   1  10    2.54    0.16 
  -1  -1  10    2.47    0.18 
  -1   1  10    2.50    0.18 
   1  -1  -9    8.25    0.33 
  -1  -1   9    8.27    0.30 
  -1   1   9    8.19    0.29 
  -1  -1   9    7.85    0.32 
  -1   1   9    7.94    0.32 
   1   1  -8    2.20    0.17 
   1  -1  -8    2.32    0.18 
  -1   1   8    2.15    0.17 
  -1  -1   8    2.18    0.17 
  -1  -1   8    2.26    0.16 
  -1   1   8    2.42    0.16 
  -1  -1   8    2.24    0.18 
  -1   1   8    2.34    0.18 
   1   1  -7   10.45    0.38 
   1  -1  -7   10.20    0.38 
  -1   1   7   10.72    0.38 
  -1  -1   7   10.44    0.41 
  -1  -1   7   10.91    0.35 
  -1   1   7   10.59    0.34 
   1   1  -7   10.24    0.33 
   1  -1  -7    9.40    0.35 
  -1  -1   7   10.39    0.38 
  -1   1   7   10.17    0.38 
   1  -1  -7    9.93    0.37 
   1   1  -6   62.27    1.11 
   1  -1  -6   66.67    1.18 
  -1   1   6   64.00    1.14 
  -1  -1   6   60.00    1.08 
  -1  -1   6   64.27    1.05 
  -1   1   6   66.05    1.06 
   1   1  -6   60.97    1.01 
   1  -1  -6   63.34    1.34 
  -1  -1   6   63.82    1.15 
  -1   1   6   65.12    1.13 
   1  -1  -6   63.01    1.14 
   1  -1  -5   18.83    0.51 
   1   1  -5   18.46    0.50 
  -1   1   5   18.32    0.49 
  -1  -1   5   18.64    0.49 
  -1  -1   5   18.52    0.45 
   1   1  -5   17.42    0.43 
  -1   1   5   18.42    0.46 
   1  -1  -5   18.14    0.48 
  -1  -1   5   19.00    0.51 
  -1   1   5   18.51    0.50 
   1  -1  -5   18.85    0.50 
   1  -1  -4    0.12    0.05 
   1   1  -4    0.10    0.05 
  -1   1   4    0.08    0.04 
  -1  -1   4    0.12    0.04 
  -1  -1   4    0.11    0.04 
   1   1  -4    0.12    0.04 
  -1   1   4    0.10    0.04 
  -1  -1   4    0.12    0.05 
   1   1  -4    0.18    0.05 
  -1   1   4    0.22    0.06 
   1  -1  -4    0.11    0.05 
   1  -1  -3  346.13    3.75 
   1   1  -3  353.02    3.75 
  -1  -1   3  329.96    3.37 
  -1  -1   3  354.26    3.72 
   1   1  -3  329.89    3.74 
  -1   1   3  329.91    3.51 
   1   1  -3  345.49    3.61 
  -1   1   3  341.30    3.76 
   1  -1  -2   81.40    1.25 
   1   1  -2   76.94    1.16 
  -1  -1   2   80.12    1.15 
  -1  -1   2   79.54    1.27 
   1   1  -2   78.74    1.18 
   1   1  -2   76.30    1.31 
   1   1  -1    0.24    0.06 
   1  -1  -1    0.21    0.06 
  -1   1   1    0.22    0.06 
   1   1  -1    0.25    0.06 
   1  -1  -1    0.23    0.08 
   1   1  -1    0.23    0.07 
   1   1  -1    0.25    0.07 
  -1  -1   0   29.14    0.66 
   1   1   0   31.60    0.68 
  -1   1   0   31.31    0.67 
   1  -1   0   30.18    0.73 
  -1   1   0   28.90    0.69 
  -1  -1   0   28.14    0.69 
   1   1   0   28.78    0.65 
  -1  -1  -1   95.78    1.41 
   1   1   1   98.55    1.38 
   1  -1   1  102.49    1.42 
  -1   1  -1   94.17    1.32 
   1  -1   1   99.51    1.44 
  -1   1  -1   98.24    1.40 
   1   1   1  104.19    1.45 
   1   1   1  102.66    1.44 
  -1  -1  -2   20.10    0.54 
   1  -1   2   20.99    0.53 
  -1   1  -2   19.90    0.54 
   1  -1   2   20.25    0.51 
  -1   1  -2   21.77    0.49 
   1   1   2   22.29    0.53 
  -1  -1  -2   19.29    0.51 
   1   1   2   22.08    0.56 
  -1  -1  -2   21.22    0.55 
  -1  -1  -3    1.29    0.13 
   1  -1   3    1.26    0.13 
   1   1   3    1.22    0.13 
   1  -1   3    1.38    0.13 
  -1   1  -3    1.48    0.12 
   1   1   3    1.38    0.12 
  -1  -1  -3    1.38    0.13 
   1  -1   3    1.15    0.13 
   1   1   3    1.32    0.13 
  -1  -1  -3    1.28    0.13 
  -1  -1  -4   18.39    0.60 
   1  -1   4   17.62    0.57 
   1   1   4   18.05    0.58 
   1  -1   4   18.49    0.57 
  -1   1  -4   18.36    0.52 
  -1  -1  -4   19.19    0.58 
   1  -1   4   15.98    0.55 
  -1   1  -4   18.11    0.57 
   1   1   4   18.30    0.58 
  -1  -1  -4   18.48    0.58 
  -1  -1  -5    0.06    0.04 
   1   1   5    0.06    0.05 
   1  -1   5    0.08    0.05 
   1  -1   5    0.03    0.04 
  -1   1  -5    0.05    0.04 
  -1  -1  -5    0.05    0.04 
   1  -1   5    0.17    0.06 
   1   1   5    0.02    0.04 
  -1   1  -5    0.04    0.04 
  -1  -1  -5    0.09    0.05 
  -1   1  -6    9.17    0.34 
  -1  -1  -6    9.13    0.35 
   1   1   6    8.79    0.34 
   1  -1   6    8.69    0.34 
   1  -1   6    9.38    0.32 
   1   1   6    8.61    0.29 
  -1   1  -6    9.17    0.30 
  -1  -1  -6    8.72    0.32 
   1  -1   6    8.71    0.34 
   1   1   6    9.25    0.35 
  -1   1  -6    8.84    0.33 
  -1  -1  -6    9.06    0.34 
  -1   1  -7    3.02    0.20 
  -1  -1  -7    2.92    0.20 
   1   1   7    2.93    0.19 
   1  -1   7    2.93    0.19 
   1  -1   7    2.66    0.17 
   1   1   7    2.96    0.17 
   1  -1   7    2.95    0.20 
   1   1   7    2.94    0.20 
  -1  -1  -7    2.86    0.19 
  -1  -1  -8    5.00    0.26 
   1   1   8    4.85    0.25 
   1  -1   8    4.84    0.25 
   1  -1   8    4.98    0.24 
   1   1   8    4.70    0.22 
   1  -1   8    4.96    0.27 
   1   1   8    4.92    0.26 
  -1  -1  -9    7.20    0.32 
   1  -1   9    6.83    0.30 
   1  -1   9    7.21    0.30 
   1   1   9    7.11    0.29 
   1  -1   9    6.72    0.32 
   1   1   9    7.14    0.32 
   1  -1  10    2.45    0.16 
   1   1  10    2.61    0.16 
   1  -1  10    2.58    0.19 
   1   1  10    2.65    0.19 
   1  -1  11    0.19    0.08 
   1   1  11    0.29    0.07 
   1  -1  11    0.29    0.09 
   1   1  11    0.39    0.09 
  -1  -2  12    0.30    0.09 
  -1   2  12    0.24    0.07 
  -1  -2  12    0.25    0.10 
  -1   2  12    0.21    0.07 
  -1  -2  11    0.71    0.10 
  -1   2  11    0.65    0.09 
  -1  -2  11    0.70    0.11 
  -1   2  11    0.63    0.11 
   1  -2 -10    1.05    0.13 
  -1  -2  10    1.03    0.12 
  -1   2  10    0.88    0.10 
  -1  -2  10    0.97    0.13 
  -1   2  10    1.02    0.12 
   1  -2  -9    3.98    0.24 
  -1  -2   9    3.95    0.23 
  -1   2   9    3.80    0.20 
  -1  -2   9    3.86    0.24 
  -1   2   9    4.00    0.23 
   1  -2  -8   78.09    1.50 
  -1  -2   8   74.53    1.39 
  -1  -2   8   79.41    1.49 
  -1   2   8   78.05    1.42 
  -1  -2   8   80.49    1.54 
  -1   2   8   76.66    1.46 
   1   2  -7    0.11    0.07 
   1  -2  -7    0.07    0.06 
  -1  -2   7    0.08    0.05 
  -1  -2   7    0.06    0.05 
   1   2  -7    0.07    0.04 
  -1   2   7    0.10    0.05 
  -1  -2   7    0.05    0.06 
  -1   2   7    0.05    0.05 
   1  -2  -7    0.05    0.05 
   1   2  -6   31.76    0.66 
   1  -2  -6   29.97    0.66 
  -1   2   6   30.18    0.64 
  -1  -2   6   29.36    0.60 
  -1  -2   6   31.21    0.65 
   1   2  -6   30.45    0.56 
  -1   2   6   29.23    0.61 
  -1  -2   6   30.33    0.71 
  -1   2   6   29.80    0.66 
   1  -2  -6   29.93    0.64 
   1  -2  -5   61.01    1.26 
   1   2  -5   60.51    1.27 
  -1   2   5   59.03    1.22 
  -1  -2   5   59.33    1.25 
   1   2  -5   59.79    1.16 
  -1   2   5   58.89    1.21 
  -1  -2   5   60.73    1.28 
   1   2  -5   61.01    1.23 
  -1   2   5   61.10    1.26 
   1  -2  -5   61.71    1.26 
   1   2  -4   23.23    0.68 
   1  -2  -4   23.18    0.70 
   1   2  -4   24.35    0.71 
   1   2  -4   24.21    0.65 
  -1   2   4   22.48    0.70 
   1   2  -4   24.06    0.69 
  -1   2   4   24.03    0.72 
   1  -2  -4   24.15    0.71 
   1   2  -3    4.28    0.25 
   1  -2  -3    4.71    0.26 
  -1   2   3    4.41    0.25 
   1   2  -3    4.81    0.25 
  -1  -2   3    5.02    0.29 
   1   2  -3    5.03    0.25 
   1   2  -3    4.79    0.26 
  -1   2   3    4.54    0.27 
   1   2  -2    9.51    0.35 
   1  -2  -2    8.81    0.36 
  -1   2   2    9.80    0.36 
   1   2  -2    9.88    0.35 
  -1  -2   2    9.60    0.40 
   1   2  -2    8.64    0.34 
   1   2  -2    9.38    0.35 
  -1  -2   1   91.51    1.45 
   1   2  -1   94.22    1.34 
  -1   2   1   96.75    1.38 
  -1  -2   1   96.06    1.55 
  -1   2   1   92.65    1.45 
   1   2  -1   99.51    1.56 
   1   2   0   62.44    1.04 
   1  -2   0   61.01    1.04 
  -1   2   0   61.43    1.01 
   1   2   0   62.36    1.13 
   1  -2   0   58.67    1.10 
  -1   2   0   64.49    1.13 
   1   2   0   58.69    1.00 
  -1  -2  -1    0.65    0.10 
   1   2   1    0.85    0.11 
   1  -2   1    0.80    0.11 
  -1   2  -1    0.86    0.11 
   1  -2   1    0.89    0.12 
  -1   2  -1    0.90    0.12 
  -1  -2  -2  134.84    1.86 
   1   2   2  136.63    1.73 
   1  -2   2  137.36    1.87 
  -1   2  -2  128.62    1.72 
  -1   2  -2  134.11    1.72 
   1   2   2  134.13    1.92 
  -1  -2  -3   24.81    0.73 
   1  -2   3   25.40    0.78 
  -1   2  -3   22.69    0.94 
  -1   2  -3   24.82    0.67 
   1   2   3   22.54    0.67 
  -1   2  -3   25.89    0.73 
   1   2   3   26.10    0.75 
  -1  -2  -3   25.07    0.73 
  -1  -2  -4    0.06    0.05 
   1   2   4    0.02    0.04 
   1  -2   4    0.01    0.04 
  -1   2  -4    0.06    0.04 
   1   2   4    0.07    0.04 
   1   2   4    0.05    0.04 
  -1  -2  -4    0.04    0.04 
  -1  -2  -5    0.46    0.09 
   1   2   5    0.45    0.08 
   1  -2   5    0.47    0.08 
  -1   2  -5    0.49    0.08 
  -1  -2  -5    0.52    0.09 
   1  -2   5    0.53    0.09 
   1   2   5    0.51    0.08 
  -1  -2  -5    0.44    0.08 
  -1  -2  -6    0.01    0.05 
   1   2   6    0.02    0.04 
   1  -2   6    0.03    0.04 
   1  -2   6   -0.01    0.05 
   1   2   6    0.07    0.04 
  -1  -2  -6    0.02    0.04 
  -1  -2  -7   18.54    0.58 
   1  -2   7   18.10    0.54 
   1   2   7   19.37    0.54 
   1  -2   7   18.62    0.58 
   1   2   7   18.74    0.57 
  -1  -2  -7   18.58    0.57 
  -1  -2  -8    7.45    0.33 
   1  -2   8    7.50    0.31 
   1   2   8    7.64    0.29 
   1  -2   8    7.27    0.33 
   1   2   8    6.88    0.31 
  -1  -2  -9    0.13    0.06 
   1  -2   9    0.05    0.06 
   1   2   9    0.07    0.05 
   1  -2   9    0.15    0.07 
   1   2   9    0.09    0.06 
  -1  -2 -10   45.37    0.75 
   1  -2  10   43.88    0.73 
   1   2  10   42.83    0.64 
   1  -2  10   44.86    0.77 
   1   2  10   42.39    0.72 
   1  -2  11    1.11    0.12 
   1   2  11    1.20    0.11 
   1  -3 -11    0.57    0.11 
  -1  -3  11    0.58    0.10 
  -1   3  11    0.57    0.09 
  -1  -3  11    0.64    0.11 
   1  -3 -10    0.98    0.13 
  -1  -3  10    1.01    0.12 
  -1   3  10    0.91    0.10 
  -1  -3  10    0.98    0.13 
  -1   3  10    0.98    0.12 
   1  -3  -9    3.90    0.23 
  -1  -3   9    4.22    0.24 
  -1   3   9    4.03    0.20 
  -1  -3   9    3.90    0.23 
  -1   3   9    4.07    0.23 
   1  -3  -8    1.95    0.17 
  -1  -3   8    1.78    0.16 
  -1   3   8    2.02    0.15 
  -1  -3   8    1.91    0.16 
  -1   3   8    1.93    0.16 
   1  -3  -7    0.93    0.12 
  -1  -3   7    1.10    0.13 
  -1   3   7    0.96    0.11 
  -1  -3   7    1.08    0.13 
  -1   3   7    0.93    0.12 
   1  -3  -6   17.79    0.50 
  -1  -3   6   18.07    0.51 
   1   3  -6   17.86    0.41 
  -1   3   6   16.66    0.46 
  -1   3   6   18.15    0.49 
   1  -3  -5    0.01    0.05 
  -1  -3   5   -0.02    0.04 
   1   3  -5    0.01    0.03 
  -1   3   5    0.01    0.04 
  -1   3   5    0.00    0.03 
   1  -3  -4    8.45    0.36 
   1   3  -4    8.10    0.34 
  -1   3   4    8.16    0.34 
   1   3  -4    9.22    0.35 
  -1  -3   4    8.53    0.38 
   1   3  -4    8.41    0.32 
  -1  -3   4    7.36    0.33 
   1   3  -4    8.28    0.33 
  -1   3   4    8.21    0.35 
   1   3  -3    7.00    0.30 
   1  -3  -3    7.27    0.32 
  -1   3   3    7.24    0.30 
   1   3  -3    7.25    0.29 
  -1  -3   3    7.37    0.34 
   1   3  -3    6.91    0.29 
   1   3  -3    7.21    0.30 
  -1   3   3    6.94    0.31 
  -1  -3   2   12.24    0.46 
   1   3  -2   11.39    0.43 
  -1   3   2   12.05    0.44 
  -1  -3   2   12.22    0.50 
   1   3  -2   12.51    0.47 
   1   3  -2   12.19    0.44 
  -1  -3   1   16.08    0.54 
   1   3  -1   16.24    0.54 
   1  -3  -1   15.94    0.54 
  -1   3   1   16.74    0.55 
   1  -3  -1   15.60    0.58 
  -1  -3   1   17.88    0.63 
  -1   3   1   15.97    0.57 
   1   3  -1   15.34    0.55 
   1   3  -1   16.51    0.54 
  -1  -3   0   98.64    2.13 
   1   3   0   93.99    2.02 
   1  -3   0  103.34    2.25 
  -1   3   0   96.46    2.06 
   1  -3   0   99.26    2.23 
   1   3   0   98.24    2.16 
  -1   3   0   90.77    2.02 
   1   3   1  290.38    5.61 
   1  -3   1  272.84    5.56 
  -1   3  -1  281.84    5.75 
   1   3   1  303.77    3.05 
  -1   3  -1  303.27    2.85 
   1   3   2  151.88    1.70 
   1  -3   2  154.32    1.79 
  -1   3  -2  142.98    1.73 
  -1   3  -2  142.98    1.61 
  -1   3  -2  150.28    1.82 
  -1  -3  -3    6.63    0.31 
   1  -3   3    6.67    0.31 
   1   3   3    6.70    0.30 
  -1   3  -3    6.00    0.29 
   1  -3   3    6.66    0.33 
  -1   3  -3    6.14    0.27 
   1   3   3    6.88    0.32 
  -1   3  -3    6.79    0.30 
   1   3   3    6.71    0.32 
  -1  -3  -4    7.42    0.33 
   1  -3   4    7.48    0.33 
  -1   3  -4    6.45    0.26 
   1   3   4    6.97    0.30 
  -1   3  -4    7.69    0.31 
   1   3   4    7.29    0.31 
  -1  -3  -5   14.08    0.44 
   1  -3   5   14.05    0.44 
  -1   3  -5   13.35    0.36 
   1   3   5   14.00    0.41 
   1   3   5   14.37    0.44 
  -1  -3  -6    6.20    0.29 
   1  -3   6    6.27    0.29 
   1   3   6    6.32    0.28 
  -1  -3  -7    0.27    0.09 
   1  -3   7    0.23    0.07 
   1   3   7    0.20    0.07 
  -1  -3  -7    0.20    0.06 
  -1  -3  -8    0.63    0.10 
   1  -3   8    0.55    0.10 
   1   3   8    0.59    0.09 
   1   3   8    0.59    0.09 
  -1  -3  -9    1.68    0.16 
   1  -3   9    1.91    0.16 
   1   3   9    1.92    0.14 
  -1  -3 -10    0.66    0.11 
   1  -3  10    0.58    0.11 
   1   3  10    0.62    0.09 
  -1  -3 -11    0.60    0.11 
   1  -3  11    0.62    0.11 
   1   3  11    0.74    0.10 
   1  -4 -11    6.54    0.29 
  -1  -4  11    6.24    0.29 
  -1   4  11    6.40    0.25 
   1  -4 -10    0.24    0.09 
  -1  -4  10    0.27    0.08 
  -1   4  10    0.29    0.07 
   1  -4  -9    0.44    0.10 
  -1  -4   9    0.40    0.09 
  -1   4   9    0.48    0.09 
  -1   4   9    0.53    0.10 
   1  -4  -8    7.84    0.35 
  -1  -4   8    7.57    0.35 
  -1   4   8    7.01    0.30 
  -1   4   8    7.35    0.33 
   1  -4  -7    9.86    0.38 
  -1  -4   7   10.47    0.42 
  -1   4   7   10.14    0.37 
  -1   4   7    9.92    0.38 
   1  -4  -6    1.41    0.15 
  -1  -4   6    1.48    0.16 
  -1   4   6    1.42    0.14 
  -1   4   6    1.39    0.14 
   1  -4  -5    0.24    0.07 
  -1  -4   5    0.25    0.08 
   1   4  -5    0.27    0.06 
  -1   4   5    0.18    0.07 
  -1   4   5    0.17    0.06 
   1  -4  -4    3.28    0.22 
   1   4  -4    3.07    0.20 
   1   4  -4    3.38    0.20 
  -1  -4   4    2.98    0.22 
   1   4  -4    3.19    0.19 
  -1   4   4    3.37    0.22 
  -1  -4   3    1.59    0.15 
   1   4  -3    1.46    0.14 
  -1   4   3    1.38    0.14 
  -1  -4   3    1.59    0.17 
   1   4  -3    1.58    0.14 
   1   4  -3    1.70    0.15 
  -1  -4   2    0.73    0.10 
   1  -4  -2    0.60    0.10 
   1   4  -2    0.66    0.09 
  -1   4   2    0.63    0.09 
  -1  -4   2    0.73    0.12 
  -1   4   2    0.69    0.11 
   1   4  -2    0.78    0.11 
   1   4  -2    0.67    0.10 
  -1  -4   1    3.24    0.22 
   1  -4  -1    3.71    0.23 
   1   4  -1    3.24    0.21 
  -1   4   1    3.35    0.21 
  -1  -4   1    3.39    0.24 
  -1   4   1    3.14    0.22 
   1   4  -1    3.24    0.23 
   1   4  -1    3.27    0.21 
  -1  -4   0   37.55    0.90 
   1  -4   0   38.37    0.91 
   1   4   0   35.30    0.83 
  -1   4   0   34.19    0.83 
   1   4   0   36.89    0.91 
  -1   4   0   39.44    0.95 
  -1  -4  -1    0.06    0.06 
   1  -4   1    0.03    0.04 
   1   4   1    0.02    0.04 
  -1   4  -1    0.05    0.04 
   1   4   1    0.04    0.05 
  -1   4  -1    0.03    0.04 
   1  -4   2   76.34    1.29 
   1   4   2   80.03    1.28 
  -1   4  -2   79.38    1.34 
   1   4   2   75.31    1.33 
   1  -4   2   70.81    1.32 
  -1   4  -2   78.49    1.29 
  -1   4  -2   72.00    1.52 
   1  -4   3   16.23    0.49 
  -1   4  -3   16.13    0.45 
   1  -4   3   16.19    0.52 
  -1   4  -3   16.28    0.44 
   1   4   3   14.78    0.56 
   1   4   3   14.82    0.47 
   1  -4   4    9.68    0.36 
  -1  -4  -4    9.59    0.37 
  -1   4  -4    8.57    0.33 
   1  -4   4    9.30    0.39 
   1   4   4    9.64    0.37 
   1   4   4    9.32    0.36 
  -1  -4  -5    2.35    0.19 
   1  -4   5    2.23    0.19 
   1   4   5    2.25    0.17 
   1   4   5    2.29    0.18 
  -1  -4  -6    1.51    0.15 
   1  -4   6    1.47    0.15 
   1   4   6    1.52    0.14 
   1   4   6    1.53    0.14 
  -1  -4  -7   19.00    0.53 
   1  -4   7   20.39    0.55 
   1   4   7   19.53    0.51 
  -1  -4  -8    5.16    0.27 
   1  -4   8    5.54    0.28 
   1   4   8    5.13    0.24 
  -1  -4  -9    2.66    0.19 
   1  -4   9    2.46    0.19 
   1   4   9    2.77    0.17 
  -1  -4 -10    4.96    0.25 
   1  -4  10    4.97    0.27 
   1   4  10    4.94    0.22 
   1  -5 -10    4.95    0.26 
  -1  -5  10    4.90    0.27 
  -1   5  10    4.70    0.22 
   1  -5  -9   20.89    0.73 
  -1  -5   9   21.97    0.78 
  -1   5   9   20.89    0.69 
   1  -5  -8    1.43    0.16 
  -1  -5   8    1.52    0.16 
  -1   5   8    1.51    0.14 
   1  -5  -7  100.07    1.35 
  -1  -5   7  102.91    1.45 
  -1   5   7  103.96    1.37 
  -1   5   7  102.71    1.34 
   1  -5  -6    7.72    0.33 
  -1  -5   6    7.40    0.34 
  -1   5   6    7.53    0.32 
  -1   5   6    7.73    0.32 
   1  -5  -5   38.46    0.87 
  -1  -5   5   39.20    0.95 
  -1   5   5   37.68    0.87 
   1   5  -4   16.04    0.50 
  -1  -5   4   16.59    0.58 
  -1   5   4   16.12    0.53 
  -1  -5   3   21.82    0.63 
   1  -5  -3   21.31    0.64 
   1   5  -3   21.72    0.62 
  -1  -5   3   21.80    0.69 
  -1  -5   2    1.65    0.15 
   1  -5  -2    1.58    0.15 
   1   5  -2    1.62    0.14 
  -1  -5   2    1.51    0.17 
   1   5  -2    1.62    0.14 
  -1  -5   1   -0.02    0.04 
   1  -5  -1    0.00    0.04 
   1   5  -1    0.03    0.04 
  -1   5   1   -0.02    0.03 
   1   5  -1    0.02    0.04 
  -1  -5   0    0.13    0.06 
   1  -5   0    0.14    0.06 
   1   5   0    0.15    0.06 
  -1   5   0    0.16    0.06 
   1   5   0    0.14    0.06 
  -1  -5  -1   62.44    1.11 
   1  -5   1   64.64    1.03 
  -1   5  -1   61.00    0.95 
  -1  -5  -2    0.93    0.12 
   1  -5   2    0.85    0.11 
  -1   5  -2    0.97    0.11 
   1  -5   2    0.98    0.14 
   1  -5   3    0.12    0.06 
  -1  -5  -3    0.14    0.07 
   1  -5   3    0.12    0.07 
   1   5   3    0.09    0.05 
   1  -5   4    0.66    0.10 
   1  -5   4    0.84    0.13 
   1   5   4    0.64    0.10 
   1   5   4    0.74    0.11 
  -1  -5  -5    5.49    0.28 
   1  -5   5    5.68    0.31 
   1   5   5    5.54    0.27 
   1   5   5    5.69    0.28 
  -1  -5  -6    3.54    0.23 
   1  -5   6    3.72    0.25 
   1   5   6    3.23    0.20 
  -1  -5  -7    8.98    0.34 
   1  -5   7    9.71    0.38 
  -1  -5  -8    2.69    0.20 
   1  -5   8    2.51    0.20 
  -1  -5  -9   93.24    1.23 
   1  -5   9   88.61    1.17 
   1   5   9   93.83    0.99 
   1  -6  -9    0.12    0.10 
  -1  -6   9    0.06    0.08 
  -1   6   9    0.15    0.07 
   1  -6  -8    0.79    0.12 
  -1  -6   8    0.73    0.13 
  -1   6   8    0.77    0.11 
   1  -6  -7    9.88    0.37 
  -1  -6   7    9.37    0.38 
  -1   6   7   10.20    0.36 
   1  -6  -6    0.47    0.10 
  -1  -6   6    0.49    0.11 
  -1  -6   5    3.34    0.24 
  -1   6   5    3.12    0.21 
   1  -6  -4   38.13    0.96 
  -1  -6   4   34.55    0.95 
  -1   6   4   38.30    0.96 
  -1  -6   3    0.29    0.08 
   1  -6  -3    0.32    0.09 
  -1  -6   3    0.30    0.09 
  -1  -6   2    2.49    0.19 
   1  -6  -2    2.49    0.19 
  -1  -6   1    0.08    0.06 
   1  -6  -1    0.08    0.06 
  -1  -6   0    4.15    0.24 
   1  -6   0    4.20    0.24 
  -1  -6  -1    2.25    0.18 
   1  -6   1    2.19    0.18 
   1  -6   1    2.38    0.21 
  -1  -6  -2    4.25    0.25 
   1  -6   2    4.55    0.25 
   1  -6   2    4.39    0.28 
   1  -6   3   12.63    0.41 
  -1  -6  -3   11.85    0.41 
   1  -6   3   12.18    0.45 
   1   6   3   11.47    0.39 
   1  -6   4    2.31    0.18 
  -1  -6  -4    2.51    0.19 
   1  -6   4    2.38    0.21 
   1   6   4    2.64    0.20 
   1  -6   5    1.14    0.15 
   1   6   5    0.98    0.13 
  -1  -6  -6   16.91    0.47 
   1  -6   6   15.29    0.49 
   1   6   6   17.14    0.45 
  -1  -6  -7    3.58    0.23 
   1  -6   7    3.97    0.26 
   1   6   7    3.56    0.21 
  -1  -6  -8    0.23    0.09 
   1  -6   8    0.20    0.08 
   1  -7  -7    2.67    0.20 
  -1  -7   7    2.96    0.22 
  -1   7   7    2.59    0.19 
  -1  -7   6   12.21    0.53 
   1  -7  -5    5.62    0.28 
  -1  -7   5    6.47    0.32 
  -1   7   5    5.36    0.27 
   1  -7  -4    1.03    0.13 
  -1  -7   4    1.00    0.14 
  -1  -7   3    0.91    0.12 
   1  -7  -3    0.97    0.13 
  -1  -7   2    2.29    0.17 
   1  -7  -2    2.04    0.17 
  -1  -7   1    7.96    0.33 
   1  -7  -1    7.55    0.32 
  -1  -7   0   18.36    0.50 
   1  -7   0   17.26    0.50 
  -1  -7  -1    8.24    0.33 
   1  -7   1    8.59    0.34 
  -1  -7  -2   45.68    0.77 
   1  -7   2   44.28    0.77 
   1  -7   2   45.01    0.85 
   1  -7   3    4.82    0.25 
  -1  -7  -3    4.97    0.26 
   1  -7   3    4.87    0.28 
  -1  -7  -4    7.90    0.32 
   1  -7   4    7.89    0.36 
   1   7   4    8.66    0.33 
  -1  -7  -5    6.41    0.29 
   1  -7   5    6.65    0.33 
   1   7   5    6.58    0.29 
   1  -7   6   -0.05    0.07 
   1   7   6    0.09    0.08 
  -1  -7  -7    2.41    0.19 
   1  -7   7    2.71    0.21 
   1   7   7    2.63    0.18 
   1  -8  -5   11.74    0.39 
  -1  -8   5   12.46    0.44 
  -1   8   5   11.32    0.38 
   1  -8  -4    0.83    0.13 
   1  -8  -3    1.25    0.14 
  -1  -8   2    0.07    0.07 
   1  -8  -2    0.00    0.07 
  -1  -8   1    6.37    0.33 
   1  -8  -1    6.57    0.33 
  -1  -8   0    0.14    0.08 
   1  -8   0    0.13    0.07 
  -1  -8  -1    0.33    0.09 
   1  -8   1    0.40    0.09 
  -1  -8  -2    0.08    0.08 
  -1  -8  -3    0.97    0.13 
   1  -8   3    1.07    0.15 
  -1  -8  -4    0.13    0.09 
   1  -8   4   -0.03    0.08 
   1   8   4   -0.03    0.07 
  -2   0  12   41.02    0.65 
  -2   0  12   42.52    0.84 
  -2   0  11    0.02    0.05 
  -2   0  11   -0.02    0.06 
  -2   0  10    6.46    0.25 
  -2   0  10    6.20    0.29 
   2   0  -9   -0.01    0.04 
  -2   0   9    0.01    0.04 
  -2   0   9    0.01    0.04 
  -2   0   9    0.01    0.06 
   2   0  -8   13.96    0.48 
  -2   0   8   14.04    0.47 
  -2   0   8   14.61    0.44 
   2   0  -8   13.86    0.46 
  -2   0   8   14.05    0.48 
   2   0  -7    0.01    0.04 
  -2   0   7   -0.04    0.03 
  -2   0   7    0.01    0.04 
   2   0  -7    0.00    0.04 
  -2   0   7    0.01    0.05 
   2   0  -6    1.24    0.13 
  -2   0   6    1.24    0.13 
  -2   0   6    1.37    0.12 
   2   0  -6    1.32    0.13 
  -2   0   6    1.36    0.14 
   2   0  -5    0.02    0.04 
  -2   0   5    0.01    0.03 
  -2   0   5    0.00    0.03 
   2   0  -5    0.00    0.03 
  -2   0   5    0.00    0.03 
   2   0  -4   10.51    0.42 
  -2   0   4    9.59    0.38 
  -2   0   4   10.44    0.37 
   2   0  -4    9.76    0.39 
  -2   0   4    9.94    0.40 
   2   0  -4    9.93    0.40 
   2   0  -3    0.00    0.03 
  -2   0   3    0.00    0.03 
  -2   0   3    0.00    0.02 
  -2   0   3    0.01    0.03 
   2   0  -3    0.00    0.03 
   2   0  -2   43.41    0.84 
  -2   0   2   41.20    0.85 
   2   0  -2   42.61    0.83 
   2   0  -1    0.04    0.04 
  -2   0   1    0.00    0.03 
   2   0  -1    0.02    0.06 
  -2   0   1    0.01    0.04 
   2   0  -1    0.00    0.03 
   2   0   0   15.24    0.44 
  -2   0   0   17.24    0.46 
   2   0   0   16.72    0.43 
  -2   0  -1    0.01    0.04 
   2   0   1    0.00    0.03 
   2   0   2 2198.67   42.01 
   2   0   2 2139.26   39.41 
   2   0   3    0.00    0.03 
   2   0   3    0.02    0.03 
   2   0   3    0.00    0.03 
  -2   0  -3    0.00    0.03 
  -2   0  -3    0.01    0.03 
  -2   0  -4    0.90    0.11 
   2   0   4    0.92    0.11 
   2   0   4    0.95    0.10 
  -2   0  -4    0.94    0.10 
   2   0   4    0.93    0.12 
  -2   0  -4    0.88    0.11 
  -2   0  -5    0.00    0.04 
   2   0   5    0.00    0.03 
  -2   0  -5    0.04    0.04 
   2   0   5   -0.01    0.04 
  -2   0  -5    0.00    0.04 
  -2   0  -6    9.97    0.36 
   2   0   6    9.73    0.35 
   2   0   6    9.69    0.36 
  -2   0  -6    9.63    0.34 
   2   0   7    0.01    0.05 
   2   0   7    0.00    0.04 
   2   0   7   -0.01    0.05 
  -2   0  -7    0.01    0.04 
  -2   0  -8    1.06    0.13 
   2   0   8    1.01    0.12 
   2   0   8    1.00    0.11 
   2   0   8    1.03    0.12 
   2   0   9    0.04    0.05 
   2   0   9   -0.01    0.06 
   2   0  10    1.55    0.13 
   2   0  10    1.60    0.13 
   2   0  10    1.62    0.16 
   2   0  11    0.01    0.06 
   2   0  11   -0.02    0.06 
  -2  -1  12   21.19    0.50 
  -2   1  12   23.76    0.47 
  -2  -1  12   21.94    0.52 
  -2   1  12   23.95    0.54 
  -2  -1  11   10.30    0.33 
  -2   1  11   10.62    0.32 
  -2  -1  11   10.47    0.36 
  -2   1  11   10.66    0.37 
   2  -1 -10    0.63    0.11 
  -2  -1  10    0.60    0.09 
  -2   1  10    0.67    0.09 
  -2  -1  10    0.70    0.12 
  -2   1  10    0.63    0.11 
   2  -1  -9    0.80    0.11 
  -2  -1   9    0.93    0.11 
  -2  -1   9    0.81    0.10 
  -2   1   9    0.73    0.09 
  -2  -1   9    0.87    0.12 
  -2   1   9    0.77    0.11 
   2   1  -8   55.49    1.25 
   2  -1  -8   56.17    1.26 
  -2   1   8   53.50    1.19 
  -2  -1   8   55.86    1.23 
  -2  -1   8   57.25    1.22 
  -2   1   8   51.82    1.13 
   2   1  -8   54.96    1.20 
  -2  -1   8   56.16    1.28 
  -2   1   8   56.73    1.28 
   2  -1  -7   13.90    0.45 
   2   1  -7   13.04    0.43 
  -2   1   7   13.68    0.43 
  -2  -1   7   13.24    0.42 
  -2  -1   7   13.47    0.40 
  -2   1   7   14.38    0.41 
   2   1  -7   13.86    0.40 
  -2  -1   7   13.52    0.44 
  -2   1   7   13.87    0.45 
   2  -1  -6    3.31    0.21 
   2   1  -6    3.42    0.21 
  -2   1   6    3.23    0.20 
  -2  -1   6    3.25    0.20 
  -2  -1   6    3.33    0.19 
  -2   1   6    3.26    0.19 
   2   1  -6    3.36    0.19 
  -2  -1   6    3.36    0.21 
  -2   1   6    3.28    0.21 
   2   1  -6    3.14    0.20 
   2  -1  -6    3.40    0.21 
   2  -1  -5   30.90    0.67 
   2   1  -5   30.67    0.66 
  -2   1   5   31.07    0.64 
  -2  -1   5   32.48    0.65 
  -2  -1   5   32.09    0.61 
   2   1  -5   31.21    0.59 
  -2   1   5   29.53    0.63 
  -2  -1   5   32.44    0.68 
   2   1  -5   31.07    0.65 
  -2   1   5   31.45    0.68 
   2  -1  -5   31.55    0.66 
   2  -1  -4   85.42    1.88 
  -2   1   4   87.50    1.89 
   2   1  -4   84.70    1.86 
  -2  -1   4   87.96    1.88 
  -2  -1   4   85.23    1.83 
   2   1  -4   79.59    2.09 
  -2   1   4   85.12    1.86 
   2   1  -4   82.96    1.83 
  -2   1   4   83.69    1.87 
   2  -1  -3   18.77    0.57 
   2   1  -3   20.74    0.54 
  -2  -1   3   20.26    0.51 
  -2  -1   3   20.51    0.53 
   2   1  -3   21.02    0.49 
   2   1  -3   20.37    0.53 
  -2   1   3   18.23    0.53 
   2  -1  -2   42.51    0.83 
  -2   1   2   40.41    0.78 
   2   1  -2   41.08    0.78 
  -2  -1   2   41.94    0.77 
  -2   1   2   42.22    0.89 
  -2  -1   2   42.27    0.91 
   2   1  -2   41.58    0.84 
   2   1  -2   39.92    0.79 
  -2   1   2   43.35    0.86 
   2  -1  -1   31.64    0.69 
  -2   1   1   29.22    0.65 
   2   1  -1   31.08    0.65 
   2  -1  -1   30.07    0.74 
  -2  -1   1   29.90    0.67 
   2   1  -1   29.86    0.66 
  -2   1   0   58.98    1.05 
   2   1   0   61.28    1.04 
   2  -1   0   60.40    1.07 
   2   1   0   58.33    0.95 
  -2  -1   0   60.72    1.02 
  -2  -1   0   63.95    1.07 
   2   1   0   59.70    1.02 
  -2  -1  -1   55.13    0.99 
   2   1   1   58.33    0.98 
   2  -1   1   56.65    0.97 
  -2   1  -1   57.77    0.95 
   2  -1   1   56.62    0.96 
  -2  -1  -2    3.10    0.20 
   2  -1   2    2.94    0.19 
  -2   1  -2    3.01    0.19 
   2  -1   2    3.23    0.19 
  -2   1  -2    3.03    0.17 
   2   1   2    3.25    0.18 
  -2  -1  -2    3.12    0.20 
   2  -1   3    0.23    0.06 
  -2  -1  -3    0.25    0.07 
   2   1   3    0.27    0.07 
   2  -1   3    0.25    0.06 
   2  -1   3    0.28    0.06 
  -2   1  -3    0.28    0.06 
   2   1   3    0.23    0.05 
  -2  -1  -3    0.28    0.06 
  -2   1  -3    0.25    0.07 
   2   1   3    0.26    0.06 
  -2  -1  -3    0.33    0.07 
  -2  -1  -4   48.89    0.87 
   2  -1   4   46.85    0.83 
   2   1   4   48.57    0.84 
   2  -1   4   48.39    0.83 
  -2   1  -4   48.21    0.75 
   2   1   4   45.90    0.75 
  -2  -1  -4   47.76    0.78 
   2   1   4   46.76    0.99 
  -2   1  -4   46.02    0.81 
  -2  -1  -4   45.09    0.82 
  -2  -1  -5   23.42    0.64 
   2  -1   5   22.71    0.63 
   2   1   5   23.45    0.64 
   2  -1   5   23.78    0.62 
  -2   1  -5   21.51    0.55 
   2   1   5   24.82    0.61 
  -2  -1  -5   22.60    0.59 
   2   1   5   23.61    0.65 
  -2   1  -5   22.28    0.61 
  -2  -1  -5   23.02    0.63 
  -2  -1  -6    2.25    0.18 
   2   1   6    2.19    0.17 
   2  -1   6    2.21    0.17 
   2  -1   6    2.06    0.15 
   2  -1   6    2.09    0.15 
   2  -1   6    2.42    0.18 
   2   1   6    2.30    0.17 
  -2   1  -6    2.25    0.17 
  -2  -1  -6    2.21    0.17 
  -2  -1  -7    7.51    0.33 
   2   1   7    7.82    0.33 
   2  -1   7    7.23    0.32 
   2  -1   7    7.42    0.31 
   2  -1   7    7.43    0.30 
   2  -1   7    7.86    0.35 
   2   1   7    8.70    0.36 
  -2  -1  -7    7.50    0.33 
  -2  -1  -8   70.15    1.34 
   2  -1   8   70.01    1.32 
   2  -1   8   68.24    1.35 
   2  -1   8   72.47    1.31 
   2   1   8   72.95    1.29 
   2  -1   8   69.09    1.35 
   2   1   8   67.85    1.31 
  -2  -1  -9    0.06    0.06 
   2  -1   9    0.03    0.04 
   2  -1   9   -0.01    0.05 
   2   1   9    0.02    0.05 
   2  -1   9    0.04    0.07 
   2   1   9    0.04    0.06 
   2  -1  10    0.54    0.09 
   2   1  10    0.52    0.09 
   2   1  10    0.67    0.10 
   2  -1  11    7.83    0.29 
   2   1  11    7.60    0.27 
  -2  -2  12    0.01    0.05 
  -2   2  12    0.06    0.06 
  -2  -2  12    0.06    0.08 
  -2   2  12    0.02    0.07 
   2  -2 -11    0.43    0.10 
  -2  -2  11    0.33    0.08 
  -2   2  11    0.39    0.08 
  -2  -2  11    0.38    0.09 
  -2   2  11    0.33    0.09 
   2  -2 -10    0.07    0.07 
  -2  -2  10    0.04    0.05 
  -2   2  10    0.07    0.05 
  -2  -2  10    0.09    0.07 
  -2   2  10    0.07    0.07 
   2  -2  -9    0.02    0.05 
  -2  -2   9   -0.01    0.04 
  -2   2   9    0.02    0.05 
  -2  -2   9    0.01    0.06 
  -2   2   9   -0.03    0.05 
   2  -2  -8    1.49    0.15 
  -2  -2   8    1.43    0.13 
  -2  -2   8    1.54    0.14 
  -2   2   8    1.41    0.13 
   2   2  -8    1.39    0.12 
  -2  -2   8    1.54    0.15 
  -2   2   8    1.29    0.13 
   2  -2  -7    1.02    0.13 
   2   2  -7    1.02    0.12 
  -2  -2   7    1.11    0.11 
  -2  -2   7    1.08    0.12 
   2   2  -7    1.08    0.10 
  -2   2   7    1.02    0.11 
  -2  -2   7    1.11    0.13 
  -2   2   7    1.08    0.12 
   2  -2  -6    9.69    0.36 
   2   2  -6    9.65    0.36 
  -2   2   6    9.38    0.34 
  -2  -2   6    9.86    0.33 
  -2  -2   6    9.50    0.35 
   2   2  -6    9.69    0.30 
  -2   2   6    9.70    0.34 
  -2  -2   6    8.41    0.37 
  -2   2   6    9.58    0.36 
   2  -2  -6    9.79    0.36 
   2  -2  -5  286.35    3.68 
  -2   2   5  280.12    4.52 
   2   2  -5  279.46    4.54 
  -2  -2   5  285.90    3.51 
  -2  -2   5  270.82    4.42 
   2   2  -5  275.60    4.40 
  -2   2   5  290.61    3.74 
   2   2  -5  288.26    3.61 
  -2   2   5  286.97    3.63 
   2  -2  -5  289.69    3.66 
   2  -2  -4   21.93    0.56 
   2   2  -4   21.70    0.54 
  -2  -2   4   21.32    0.50 
  -2  -2   4   22.08    0.59 
   2   2  -4   21.53    0.47 
   2   2  -4   21.60    0.53 
  -2   2   4   21.02    0.56 
   2   2  -3   21.06    0.64 
   2  -2  -3   21.46    0.66 
  -2   2   3   21.23    0.64 
   2   2  -3   22.36    0.65 
  -2   2   3   21.31    0.70 
  -2  -2   3   21.88    0.71 
   2   2  -3   19.72    0.60 
  -2  -2   3   22.00    0.67 
   2   2  -3   22.46    0.66 
  -2   2   3   22.21    0.69 
   2   2  -2   79.69    1.21 
   2  -2  -2   79.66    1.25 
  -2   2   2   81.38    1.21 
   2   2  -2   83.79    1.24 
  -2  -2   2   75.87    1.32 
  -2   2   2   80.73    1.31 
   2   2  -2   80.84    1.27 
  -2  -2   2   81.74    1.30 
   2   2  -2   77.79    1.23 
   2   2  -1    4.59    0.24 
  -2   2   1    5.13    0.25 
   2   2  -1    5.03    0.25 
   2   2  -1    4.76    0.28 
   2  -2  -1    5.02    0.29 
  -2  -2   1    4.24    0.24 
   2   2  -1    4.78    0.25 
   2   2   0    2.70    0.19 
   2  -2   0    2.65    0.19 
  -2   2   0    2.64    0.18 
   2  -2   0    2.65    0.21 
   2   2   0    2.50    0.18 
  -2  -2  -1    8.97    0.35 
   2   2   1    9.34    0.35 
   2  -2   1   10.03    0.37 
  -2   2  -1    9.08    0.35 
   2  -2   1    9.67    0.40 
  -2   2  -1    9.21    0.34 
   2   2   1    9.62    0.36 
   2   2   1    8.49    0.50 
  -2  -2  -2   74.97    1.68 
   2   2   2   79.49    1.74 
   2  -2   2   79.76    1.81 
  -2   2  -2   71.17    1.63 
   2  -2   2   76.75    1.74 
  -2   2  -2   77.91    1.67 
   2   2   2   72.27    1.64 
   2   2   2   78.89    1.73 
  -2  -2  -3   63.88    1.48 
   2  -2   3   62.91    1.01 
  -2   2  -3   62.22    0.97 
  -2   2  -3   66.36    0.91 
   2   2   3   68.45    1.00 
   2   2   3   68.65    1.03 
  -2  -2  -3   63.78    1.11 
   2  -2   4    0.02    0.03 
  -2  -2  -4    0.03    0.05 
   2   2   4    0.03    0.04 
   2  -2   4    0.08    0.04 
  -2   2  -4    0.02    0.03 
   2   2   4    0.03    0.04 
  -2  -2  -4    0.03    0.04 
  -2   2  -4    0.03    0.05 
   2   2   4    0.02    0.04 
  -2  -2  -4    0.04    0.04 
  -2  -2  -5   12.27    0.41 
   2  -2   5   11.43    0.39 
   2   2   5   11.84    0.39 
   2  -2   5   12.00    0.39 
  -2   2  -5   12.51    0.34 
   2   2   5   11.90    0.36 
  -2   2  -5   11.02    0.37 
   2   2   5   11.78    0.40 
  -2  -2  -5   11.88    0.40 
  -2  -2  -6   15.52    0.46 
   2  -2   6   15.98    0.46 
   2  -2   6   15.59    0.44 
   2   2   6   15.72    0.40 
   2   2   6   15.90    0.45 
  -2  -2  -6   16.32    0.46 
  -2  -2  -7    1.88    0.16 
   2  -2   7    1.64    0.15 
   2  -2   7    1.81    0.15 
   2   2   7    1.87    0.16 
  -2  -2  -7    1.71    0.15 
  -2  -2  -8    0.66    0.11 
   2  -2   8    0.72    0.10 
   2  -2   8    0.72    0.10 
   2   2   8    0.70    0.10 
  -2  -2  -8    0.71    0.10 
  -2  -2  -9    8.30    0.33 
   2  -2   9    9.21    0.33 
   2   2   9    8.77    0.29 
   2   2   9    8.48    0.33 
  -2  -2 -10    1.15    0.13 
   2  -2  10    0.99    0.12 
   2   2  10    1.14    0.12 
   2  -2  11    4.63    0.23 
   2   2  11    4.98    0.22 
   2  -3 -11    4.44    0.27 
  -2  -3  11    4.13    0.26 
  -2   3  11    4.56    0.24 
  -2  -3  11    4.52    0.27 
  -2   3  11    4.53    0.26 
   2  -3 -10    0.01    0.07 
  -2  -3  10    0.01    0.05 
  -2   3  10   -0.02    0.06 
  -2  -3  10    0.02    0.06 
  -2   3  10   -0.03    0.06 
   2  -3  -9    1.87    0.17 
  -2  -3   9    1.79    0.16 
  -2   3   9    2.01    0.15 
  -2  -3   9    2.08    0.17 
  -2   3   9    1.85    0.16 
   2  -3  -8   12.88    0.42 
  -2  -3   8   13.06    0.43 
  -2   3   8   12.15    0.37 
  -2  -3   8   11.03    0.39 
  -2   3   8   12.39    0.41 
   2  -3  -7    1.55    0.15 
  -2  -3   7    1.78    0.16 
   2   3  -7    1.71    0.13 
  -2   3   7    1.65    0.14 
  -2   3   7    1.65    0.15 
   2   3  -6    0.16    0.06 
   2  -3  -6    0.22    0.07 
   2   3  -6    0.15    0.06 
  -2  -3   6    0.20    0.07 
   2   3  -6    0.17    0.05 
  -2   3   6    0.13    0.06 
  -2   3   6    0.13    0.06 
   2   3  -5    9.09    0.34 
   2  -3  -5    9.05    0.35 
   2   3  -5    9.45    0.34 
  -2  -3   5    9.63    0.39 
   2   3  -5    9.30    0.30 
  -2   3   5    9.23    0.35 
  -2  -3   5    9.25    0.35 
   2   3  -5    9.41    0.34 
  -2   3   5    9.54    0.36 
   2   3  -4   27.96    0.72 
   2  -3  -4   28.51    0.75 
  -2   3   4   29.17    0.73 
   2   3  -4   29.10    0.72 
  -2   3   4   28.83    0.79 
  -2  -3   4   28.59    0.78 
   2   3  -4   29.81    0.72 
  -2  -3   4   29.64    0.77 
   2   3  -4   30.06    0.73 
  -2   3   4   28.50    0.75 
   2   3  -3    1.24    0.13 
   2  -3  -3    1.24    0.13 
  -2   3   3    1.19    0.12 
   2   3  -3    1.26    0.12 
  -2   3   3    1.16    0.14 
  -2  -3   3    1.21    0.14 
   2   3  -3    1.22    0.13 
  -2  -3   3    1.18    0.13 
   2   3  -3    1.24    0.13 
  -2   3   3    1.21    0.13 
   2   3  -2    0.06    0.04 
  -2   3   2    0.12    0.05 
   2   3  -2    0.07    0.04 
  -2  -3   2    0.08    0.05 
  -2   3   2    0.05    0.04 
   2   3  -2    0.07    0.05 
  -2  -3   2    0.05    0.04 
   2   3  -2    0.07    0.04 
  -2  -3   1    8.52    0.37 
   2   3  -1    8.41    0.35 
   2  -3  -1    8.90    0.38 
  -2   3   1    8.48    0.35 
   2  -3  -1    8.13    0.39 
   2   3  -1    8.27    0.39 
   2   3  -1    7.73    0.39 
  -2  -3   0   34.51    0.97 
   2   3   0   33.31    0.88 
   2  -3   0   34.27    0.92 
  -2   3   0   36.16    0.93 
   2   3   0   33.40    0.93 
   2  -3   0   35.26    1.00 
  -2   3   0   35.99    0.97 
   2   3   0   34.10    0.90 
   2   3   1   25.07    0.57 
   2  -3   1   26.40    0.61 
  -2   3  -1   27.08    0.60 
   2  -3   1   26.39    0.67 
  -2   3  -1   26.31    0.60 
   2   3   1   25.60    0.60 
  -2  -3  -2   11.66    0.40 
   2   3   2   12.25    0.39 
   2  -3   2   13.35    0.43 
  -2   3  -2   12.35    0.39 
   2  -3   2   11.02    0.42 
  -2   3  -2   12.48    0.38 
   2   3   2   12.83    0.41 
   2   3   2   12.09    0.41 
  -2  -3  -3  110.79    2.07 
   2   3   3  109.92    1.98 
   2  -3   3  112.76    2.04 
  -2   3  -3  107.78    1.93 
  -2   3  -3  105.74    1.90 
   2   3   3  111.51    2.09 
  -2   3  -3  115.36    2.13 
   2   3   3  112.55    2.04 
  -2  -3  -4   64.82    1.08 
   2  -3   4   63.25    1.98 
  -2   3  -4   66.95    0.96 
  -2   3  -4   69.55    0.93 
   2   3   4   67.11    1.03 
   2   3   4   71.13    1.04 
  -2  -3  -5   15.84    0.49 
   2  -3   5   15.34    0.48 
   2   3   5   14.12    0.42 
   2   3   5   15.56    0.47 
  -2  -3  -6    1.03    0.13 
   2  -3   6    1.01    0.12 
   2   3   6    1.17    0.12 
   2   3   6    0.94    0.11 
  -2  -3  -6    0.88    0.11 
  -2  -3  -7    1.61    0.16 
   2  -3   7    1.55    0.15 
   2   3   7    1.65    0.15 
  -2  -3  -7    1.63    0.15 
  -2  -3  -8    5.00    0.27 
   2  -3   8    5.12    0.27 
  -2  -3  -9    1.35    0.14 
   2  -3   9    1.47    0.15 
   2   3   9    1.44    0.13 
  -2  -3 -10    0.23    0.09 
   2  -3  10    0.23    0.09 
   2   3  10    0.21    0.07 
   2  -4 -11    0.46    0.11 
  -2   4  11    0.56    0.09 
  -2  -4  11    0.40    0.10 
   2  -4 -10    9.23    0.41 
  -2  -4  10    8.81    0.41 
  -2   4  10    8.84    0.37 
  -2   4  10    8.90    0.39 
   2  -4  -9    1.15    0.13 
  -2  -4   9    1.04    0.13 
  -2   4   9    1.11    0.12 
  -2   4   9    1.13    0.13 
   2  -4  -8    2.28    0.19 
  -2  -4   8    2.10    0.18 
  -2   4   8    2.18    0.17 
  -2  -4   8    2.06    0.18 
  -2   4   8    2.11    0.17 
   2  -4  -7    1.28    0.14 
  -2  -4   7    1.22    0.14 
  -2   4   7    1.29    0.13 
  -2  -4   7    1.35    0.15 
  -2   4   7    1.31    0.14 
   2  -4  -6  102.20    1.89 
  -2  -4   6  100.44    1.94 
   2   4  -6   99.95    1.79 
  -2   4   6  106.14    1.91 
  -2  -4   6   99.95    1.88 
  -2   4   6  105.95    1.94 
   2  -4  -5    8.27    0.33 
   2   4  -5    7.91    0.31 
  -2  -4   5    8.36    0.37 
   2   4  -5    8.50    0.29 
  -2  -4   5    8.26    0.34 
  -2   4   5    8.29    0.34 
   2   4  -4    0.04    0.04 
   2  -4  -4    0.02    0.06 
   2   4  -4    0.03    0.04 
  -2  -4   4    0.01    0.05 
   2   4  -4    0.04    0.04 
   2   4  -4    0.04    0.05 
  -2   4   4    0.02    0.04 
   2   4  -3    9.22    0.34 
   2   4  -3    9.67    0.34 
  -2  -4   3    9.26    0.39 
   2   4  -3    9.32    0.35 
   2   4  -3    9.69    0.34 
  -2  -4   2   85.78    1.42 
   2   4  -2   83.72    1.35 
   2  -4  -2   82.83    1.36 
  -2   4   2   86.72    1.36 
  -2  -4   2   83.86    1.48 
   2   4  -2   82.42    1.42 
   2   4  -2   83.59    1.32 
  -2  -4   1    3.06    0.20 
   2   4  -1    2.87    0.19 
   2  -4  -1    3.21    0.21 
  -2   4   1    2.97    0.19 
   2  -4  -1    3.36    0.24 
   2   4  -1    3.15    0.22 
  -2   4   1    2.61    0.20 
   2   4  -1    3.03    0.19 
  -2  -4   0    0.57    0.09 
   2   4   0    0.46    0.08 
   2  -4   0    0.54    0.09 
  -2   4   0    0.56    0.09 
   2   4   0    0.64    0.11 
   2  -4   0    0.59    0.11 
  -2   4   0    0.57    0.10 
   2   4   0    0.57    0.09 
  -2  -4  -1   27.24    0.67 
   2   4   1   28.27    0.65 
   2  -4   1   28.50    0.68 
  -2   4  -1   28.82    0.66 
   2   4   1   28.38    0.71 
   2  -4   1   29.23    0.75 
  -2   4  -1   28.32    0.67 
   2   4   1   27.30    0.67 
   2   4   2   24.94    0.57 
   2  -4   2   24.82    0.61 
  -2   4  -2   25.42    0.58 
   2   4   2   24.93    0.60 
  -2  -4  -3   67.26    1.22 
   2  -4   3   69.04    1.26 
  -2   4  -3   72.82    1.11 
   2   4   3   70.93    1.06 
   2   4   3   68.10    1.27 
  -2  -4  -4    3.73    0.23 
   2  -4   4    3.53    0.22 
  -2   4  -4    3.62    0.20 
   2  -4   4    3.94    0.25 
   2   4   4    3.82    0.22 
   2   4   4    3.76    0.22 
  -2  -4  -5    6.22    0.31 
   2  -4   5    6.44    0.33 
   2   4   5    5.90    0.28 
   2   4   5    6.41    0.30 
  -2  -4  -6    3.04    0.21 
   2  -4   6    2.93    0.21 
   2   4   6    3.09    0.19 
  -2  -4  -7    2.18    0.18 
   2  -4   7    2.21    0.18 
   2   4   7    2.19    0.16 
  -2  -4  -8   -0.03    0.06 
   2  -4   8    0.03    0.07 
  -2  -4  -9    1.35    0.15 
   2  -4   9    1.35    0.15 
  -2  -4 -10    4.19    0.24 
   2  -4  10    4.30    0.25 
   2   4  10    3.99    0.20 
   2  -5 -10    0.23    0.10 
  -2   5  10    0.16    0.07 
   2  -5  -9    1.67    0.16 
  -2  -5   9    1.66    0.17 
  -2   5   9    1.64    0.15 
   2  -5  -8   44.04    0.76 
  -2  -5   8   43.22    0.83 
  -2   5   8   45.02    0.74 
  -2   5   8   42.93    0.75 
   2  -5  -7   17.03    0.49 
  -2  -5   7   17.32    0.53 
  -2   5   7   16.26    0.47 
  -2   5   7   17.28    0.48 
   2  -5  -6   40.11    0.95 
  -2  -5   6   40.58    0.87 
  -2   5   6   41.83    0.84 
  -2   5   6   40.42    0.79 
   2  -5  -5    2.06    0.17 
  -2  -5   5    2.11    0.19 
  -2   5   5    2.07    0.18 
   2   5  -4  241.81    3.71 
  -2  -5   4  226.28    3.78 
  -2   5   4  232.33    3.82 
   2  -5  -3    5.70    0.29 
   2   5  -3    5.19    0.27 
   2   5  -3    5.84    0.27 
  -2  -5   3    5.91    0.33 
   2   5  -3    5.19    0.27 
  -2  -5   2   16.52    0.47 
   2  -5  -2   15.73    0.46 
   2   5  -2   16.26    0.45 
   2   5  -2   16.31    0.48 
   2   5  -2   15.96    0.44 
  -2  -5   1    1.06    0.12 
   2   5  -1    1.10    0.12 
   2  -5  -1    1.03    0.12 
   2  -5  -1    1.19    0.15 
   2   5  -1    1.14    0.12 
  -2  -5   0   18.28    0.53 
   2  -5   0   18.92    0.51 
  -2   5   0   18.85    0.49 
   2  -5   0   18.67    0.57 
   2   5   0   19.09    0.49 
  -2  -5  -1    2.67    0.19 
   2  -5   1    2.59    0.19 
  -2   5  -1    2.31    0.17 
   2   5   1    2.50    0.18 
  -2  -5  -2    0.01    0.06 
   2  -5   2    0.00    0.04 
  -2   5  -2    0.00    0.03 
   2  -5   3    0.99    0.12 
   2  -5   3    1.05    0.14 
   2   5   3    1.14    0.13 
   2   5   3    1.04    0.12 
  -2  -5  -4   16.02    0.51 
   2  -5   4   16.67    0.51 
   2  -5   4   17.42    0.57 
   2   5   4   17.57    0.52 
  -2  -5  -5    0.09    0.07 
   2  -5   5    0.09    0.07 
   2   5   5    0.16    0.07 
  -2  -5  -6    0.02    0.07 
   2  -5   6   -0.01    0.06 
   2   5   6    0.09    0.06 
  -2  -5  -7    0.20    0.09 
   2  -5   7    0.28    0.09 
   2   5   7    0.24    0.08 
  -2  -5  -8   29.94    0.64 
   2  -5   8   28.70    0.66 
   2   5   8   28.76    0.56 
  -2  -5  -9    7.57    0.31 
   2  -5   9    7.47    0.33 
   2  -6  -9    9.31    0.35 
  -2  -6   9    8.64    0.36 
  -2   6   9    8.87    0.31 
   2  -6  -8    2.05    0.18 
  -2  -6   8    2.00    0.19 
  -2   6   8    2.05    0.17 
   2  -6  -7    1.24    0.15 
  -2  -6   7    1.32    0.16 
  -2   6   7    1.30    0.14 
  -2   6   7    1.24    0.14 
  -2  -6   6   70.90    1.06 
  -2   6   6   71.89    1.03 
  -2   6   6   70.62    0.96 
  -2  -6   5    1.66    0.17 
  -2   6   5    1.66    0.16 
   2  -6  -4    6.95    0.33 
  -2  -6   4    7.04    0.37 
  -2   6   4    7.68    0.35 
   2  -6  -3    0.59    0.10 
   2   6  -3    0.53    0.09 
  -2  -6   2   11.14    0.41 
   2  -6  -2   11.62    0.42 
  -2  -6   1   24.29    0.65 
   2  -6  -1   24.13    0.65 
  -2  -6   0    7.55    0.33 
   2  -6   0    7.29    0.33 
  -2  -6  -1    0.82    0.12 
   2  -6   1    0.77    0.11 
  -2  -6  -2   21.50    0.55 
   2  -6   2   21.36    0.55 
   2  -6   2   20.45    0.59 
  -2  -6  -3    1.34    0.14 
   2  -6   3    1.39    0.14 
   2  -6   3    1.65    0.18 
   2   6   3    1.45    0.15 
   2  -6   4    0.48    0.10 
   2   6   4    0.54    0.10 
   2  -6   5    2.04    0.19 
   2   6   5    1.84    0.15 
  -2  -6  -6    0.34    0.10 
   2  -6   6    0.35    0.11 
   2   6   6    0.29    0.08 
  -2  -6  -7    2.52    0.20 
   2  -6   7    2.58    0.22 
   2   6   7    2.70    0.19 
  -2  -6  -8    0.16    0.09 
   2  -6   8    0.12    0.08 
   2   6   8    0.12    0.07 
  -2  -7   7   11.61    0.42 
  -2   7   7   11.44    0.37 
   2  -7  -6    2.69    0.21 
  -2  -7   6    2.68    0.22 
  -2   7   6    2.93    0.21 
   2  -7  -5    3.36    0.22 
  -2  -7   5    3.89    0.25 
   2  -7  -4    2.02    0.17 
  -2   7   4    2.15    0.18 
   2  -7  -3    6.90    0.30 
  -2  -7   2    1.72    0.15 
   2  -7  -2    1.79    0.16 
  -2  -7   1    0.15    0.07 
   2  -7  -1    0.22    0.08 
  -2  -7   0   10.19    0.36 
   2  -7   0   11.33    0.39 
  -2  -7  -1   16.14    0.45 
   2  -7   1   16.08    0.46 
   2  -7   1   14.89    0.49 
  -2  -7  -2    1.88    0.17 
   2  -7   2    1.82    0.16 
   2  -7   2    1.88    0.19 
  -2  -7  -3   39.97    0.72 
   2  -7   3   40.42    0.81 
   2   7   3   40.16    0.72 
  -2  -7  -4    1.14    0.13 
   2  -7   4    1.02    0.14 
   2   7   4    1.23    0.14 
  -2  -7  -5    7.71    0.37 
   2  -7   5    7.83    0.40 
   2   7   5    8.69    0.39 
   2  -7   6    4.86    0.28 
   2   7   6    4.79    0.24 
   2  -8  -4    0.17    0.09 
   2  -8  -3    0.32    0.09 
  -2  -8   2    6.46    0.32 
   2  -8  -2    6.73    0.34 
  -2  -8   1    1.11    0.13 
   2  -8  -1    1.00    0.13 
  -2  -8   0    0.33    0.09 
   2  -8   0    0.32    0.09 
  -2  -8  -1    0.45    0.10 
   2  -8   1    0.44    0.09 
  -2  -8  -2    7.34    0.31 
   2  -8   2    7.46    0.35 
  -2  -8  -3    0.03    0.07 
   2  -8   3    0.08    0.09 
   2   8   3    0.02    0.07 
  -2  -8  -4    3.10    0.21 
   2  -8   4    3.52    0.24 
   2   8   4    3.39    0.21 
  -3   0  12    0.03    0.05 
  -3   0  12    0.00    0.08 
  -3   0  11   44.79    0.65 
  -3   0  11   44.40    0.74 
  -3   0  10   -0.02    0.04 
  -3   0  10    0.01    0.06 
   3   0  -9   32.14    0.70 
  -3   0   9   32.20    0.66 
  -3   0   9   33.34    0.66 
  -3   0   9   33.04    0.69 
   3   0  -8    0.00    0.05 
  -3   0   8   -0.01    0.04 
  -3   0   8    0.02    0.04 
   3   0  -8    0.03    0.04 
  -3   0   8    0.03    0.05 
   3   0  -7   29.44    0.70 
  -3   0   7   31.31    0.70 
  -3   0   7   30.93    0.64 
   3   0  -7   28.99    0.68 
  -3   0   7   30.20    0.71 
   3   0  -6   -0.03    0.04 
  -3   0   6    0.00    0.03 
  -3   0   6    0.01    0.03 
  -3   0   6    0.00    0.04 
   3   0  -6    0.03    0.04 
   3   0  -5    5.67    0.28 
  -3   0   5    5.73    0.26 
  -3   0   5    5.79    0.24 
  -3   0   5    5.55    0.27 
   3   0  -5    5.51    0.26 
   3   0  -4    0.05    0.04 
  -3   0   4    0.00    0.03 
  -3   0   4    0.02    0.03 
  -3   0   4    0.01    0.03 
   3   0  -4    0.00    0.03 
   3   0  -3   20.17    0.54 
  -3   0   3   20.98    0.53 
  -3   0   3   19.38    0.58 
  -3   0   3   21.87    0.53 
   3   0  -3   20.41    0.55 
   3   0  -2    0.03    0.03 
   3   0  -2    0.00    0.05 
  -3   0   2    0.04    0.05 
   3   0  -2    0.01    0.03 
   3   0  -1    7.94    0.32 
  -3   0   1    7.86    0.31 
   3   0  -1    7.79    0.32 
  -3   0   1    7.67    0.28 
  -3   0   1    7.63    0.33 
   3   0   0    0.01    0.03 
  -3   0   0   -0.01    0.03 
   3   0   0    0.01    0.03 
  -3   0   0    0.00    0.02 
  -3   0  -1    7.99    0.31 
   3   0   1    7.92    0.29 
  -3   0  -1    8.69    0.29 
   3   0   2   -0.01    0.03 
   3   0   2    0.00    0.03 
   3   0   2    0.00    0.02 
   3   0   3   18.79    0.59 
   3   0   3   19.47    0.59 
   3   0   3   20.76    0.59 
  -3   0  -3   19.24    0.60 
   3   0   4    0.01    0.04 
   3   0   4    0.01    0.04 
   3   0   4   -0.01    0.03 
  -3   0  -4    0.01    0.04 
  -3   0  -4    0.01    0.04 
   3   0   5 1042.39   11.38 
   3   0   5 1081.65    8.24 
   3   0   5 1036.31   11.78 
  -3   0  -5 1095.90    8.67 
   3   0   6    0.00    0.05 
   3   0   6    0.00    0.04 
   3   0   6    0.02    0.05 
  -3   0  -6    0.02    0.04 
   3   0   7    0.59    0.09 
   3   0   7    0.58    0.09 
   3   0   8    0.02    0.05 
   3   0   8    0.04    0.05 
   3   0   9    0.74    0.10 
   3   0   9    0.41    0.09 
   3   0  10    0.01    0.06 
   3   0  11    0.40    0.09 
  -3   1  12    1.55    0.13 
  -3  -1  12    1.40    0.15 
  -3   1  12    1.37    0.15 
  -3  -1  11   12.00    0.36 
  -3   1  11   12.47    0.34 
  -3  -1  11   12.12    0.40 
  -3   1  11   12.23    0.40 
   3  -1 -10    1.67    0.15 
  -3  -1  10    1.79    0.14 
  -3   1  10    1.68    0.13 
  -3  -1  10    1.80    0.16 
  -3   1  10    1.88    0.16 
   3  -1  -9    3.38    0.22 
  -3  -1   9    3.26    0.20 
  -3  -1   9    3.04    0.18 
  -3   1   9    3.42    0.19 
  -3  -1   9    3.21    0.21 
  -3   1   9    3.21    0.21 
   3  -1  -8   19.92    0.66 
   3   1  -8   19.81    0.58 
  -3  -1   8   20.19    0.56 
  -3  -1   8   20.61    0.55 
  -3   1   8   21.74    0.55 
  -3  -1   8   20.39    0.58 
  -3   1   8   20.47    0.59 
   3  -1  -7   33.08    0.76 
   3   1  -7   35.47    0.79 
  -3   1   7   34.57    0.75 
  -3  -1   7   32.68    0.72 
  -3  -1   7   34.33    0.71 
  -3   1   7   33.59    0.69 
   3   1  -7   33.34    0.75 
  -3  -1   7   34.37    0.76 
  -3   1   7   34.13    0.77 
   3  -1  -6    0.13    0.06 
   3   1  -6    0.03    0.04 
  -3   1   6    0.04    0.04 
  -3  -1   6    0.05    0.04 
  -3  -1   6    0.06    0.04 
  -3   1   6    0.05    0.04 
   3   1  -6    0.03    0.03 
  -3  -1   6    0.02    0.04 
  -3   1   6    0.09    0.05 
   3   1  -6    0.02    0.04 
   3  -1  -6    0.05    0.05 
   3  -1  -5    5.28    0.28 
   3   1  -5    4.71    0.26 
  -3   1   5    5.04    0.26 
  -3  -1   5    4.87    0.25 
  -3  -1   5    4.91    0.24 
   3   1  -5    4.97    0.24 
  -3   1   5    5.29    0.26 
  -3   1   5    5.11    0.27 
   3   1  -5    4.98    0.26 
   3  -1  -4  156.51    3.18 
  -3   1   4  160.92    3.25 
   3   1  -4  158.30    3.25 
  -3  -1   4  158.10    3.18 
  -3  -1   4  161.84    3.30 
   3   1  -4  153.08    3.08 
  -3   1   4  147.35    3.12 
   3   1  -4  155.71    3.19 
  -3   1   4  159.55    3.32 
   3  -1  -4  149.46    3.32 
   3  -1  -3   22.55    0.68 
   3   1  -3   24.00    0.70 
  -3  -1   3   21.99    0.64 
  -3   1   3   21.62    0.70 
  -3  -1   3   22.34    0.73 
   3   1  -3   20.12    0.59 
  -3  -1   3   21.39    0.66 
   3   1  -3   21.98    0.66 
  -3   1   3   22.34    0.69 
   3  -1  -2   33.29    0.71 
  -3   1   2   29.97    0.67 
   3   1  -2   32.14    0.68 
  -3  -1   2   32.56    0.65 
   3  -1  -2   31.53    0.76 
  -3   1   2   29.86    0.77 
   3   1  -2   29.17    0.68 
  -3  -1   2   33.21    0.74 
   3   1  -2   33.01    0.71 
  -3   1   2   31.23    0.71 
  -3   1   1  660.66    6.73 
   3   1  -1  664.88    6.76 
   3  -1  -1  677.18    6.65 
  -3   1   1  700.90    7.36 
   3   1  -1  682.76    6.64 
  -3  -1   1  655.47    6.87 
   3   1  -1  681.98    7.21 
  -3   1   0   32.98    0.68 
  -3  -1   0   31.23    0.64 
   3  -1   0   33.12    0.74 
  -3   1   0   28.74    0.62 
   3   1   0   30.53    0.60 
  -3  -1   0   31.76    0.67 
  -3  -1   0   32.53    0.72 
   3   1   1   10.19    0.36 
   3  -1   1   11.62    0.39 
  -3   1  -1   11.83    0.38 
   3   1   1   10.94    0.37 
   3  -1   1   10.07    0.36 
  -3   1  -1    9.99    0.32 
   3   1   1   12.04    0.36 
  -3  -1  -1   11.85    0.38 
   3  -1   2   16.43    0.53 
  -3   1  -2   15.44    0.50 
   3  -1   2   16.58    0.52 
   3   1   2   16.09    0.49 
  -3  -1  -2   15.85    0.50 
  -3  -1  -2   15.08    0.51 
   3  -1   3   84.36    1.22 
  -3  -1  -3   84.14    1.19 
   3   1   3   84.66    1.19 
   3  -1   3   84.59    1.24 
   3  -1   3   89.14    1.18 
  -3   1  -3   80.54    1.04 
   3   1   3   82.73    1.06 
  -3   1  -3   90.36    1.22 
  -3  -1  -3   88.06    1.19 
  -3  -1  -4   12.70    0.44 
   3  -1   4   12.48    0.43 
   3   1   4   12.63    0.43 
   3  -1   4   12.10    0.41 
   3  -1   4   11.45    0.39 
  -3   1  -4   11.21    0.36 
   3   1   4   11.52    0.37 
  -3   1  -4   11.36    0.41 
  -3  -1  -4   12.12    0.42 
  -3  -1  -5    1.99    0.17 
   3  -1   5    1.86    0.16 
   3   1   5    2.01    0.16 
   3  -1   5    2.02    0.15 
   3  -1   5    1.81    0.14 
   3   1   5    1.90    0.14 
  -3   1  -5    1.87    0.16 
  -3  -1  -5    2.02    0.16 
  -3  -1  -6    0.39    0.09 
   3  -1   6    0.48    0.09 
   3   1   6    0.44    0.08 
   3  -1   6    0.42    0.08 
   3   1   6    0.45    0.08 
   3   1   6    0.47    0.09 
  -3  -1  -6    0.43    0.08 
  -3  -1  -7   19.65    0.58 
   3  -1   7   19.11    0.55 
   3  -1   7   19.79    0.54 
   3   1   7   20.34    0.59 
  -3  -1  -7   20.07    0.56 
  -3  -1  -8   10.31    0.36 
   3  -1   8    9.92    0.34 
   3  -1   8   10.02    0.33 
   3   1   8   10.40    0.37 
  -3  -1  -9    0.10    0.06 
   3  -1   9    0.15    0.07 
   3   1   9    0.14    0.07 
   3   1   9    0.15    0.07 
   3   1  10    0.10    0.06 
   3  -1  10    0.19    0.07 
   3   1  10    0.15    0.07 
   3  -1  11   27.35    0.53 
   3   1  11   27.56    0.51 
  -3   2  12    0.04    0.06 
  -3  -2  12    0.04    0.08 
  -3   2  12    0.03    0.08 
   3  -2 -11    0.22    0.08 
  -3  -2  11    0.25    0.07 
  -3   2  11    0.23    0.07 
  -3  -2  11    0.40    0.10 
  -3   2  11    0.28    0.09 
   3  -2 -10    0.44    0.10 
  -3  -2  10    0.80    0.11 
  -3   2  10    0.56    0.08 
  -3  -2  10    0.52    0.10 
  -3   2  10    0.49    0.09 
   3  -2  -9    0.05    0.06 
  -3  -2   9    0.03    0.05 
  -3   2   9    0.01    0.04 
  -3  -2   9    0.01    0.07 
  -3   2   9    0.02    0.06 
   3  -2  -8    2.51    0.19 
  -3  -2   8    2.36    0.16 
  -3  -2   8    2.50    0.18 
  -3   2   8    2.34    0.16 
  -3  -2   8    2.42    0.18 
  -3   2   8    2.45    0.19 
   3  -2  -7   28.12    0.63 
   3   2  -7   28.99    0.63 
  -3  -2   7   28.26    0.57 
  -3  -2   7   27.03    0.60 
   3   2  -7   26.62    0.53 
  -3   2   7   25.51    0.56 
  -3   2   7   27.20    0.61 
   3  -2  -6   44.25    0.93 
   3   2  -6   48.55    0.84 
  -3  -2   6   48.57    0.79 
  -3  -2   6   46.82    0.88 
   3   2  -6   47.69    0.76 
  -3   2   6   48.62    0.84 
  -3   2   6   48.21    0.86 
   3  -2  -5    0.02    0.05 
  -3   2   5    0.01    0.04 
   3   2  -5    0.07    0.04 
  -3  -2   5    0.02    0.03 
  -3  -2   5    0.05    0.04 
   3   2  -5    0.04    0.03 
  -3   2   5    0.04    0.04 
  -3  -2   5    0.02    0.04 
   3   2  -5    0.05    0.04 
  -3   2   5    0.04    0.05 
   3  -2  -4   36.39    0.74 
   3   2  -4   35.80    0.72 
  -3  -2   4   37.51    0.69 
  -3   2   4   35.29    0.78 
  -3  -2   4   36.22    0.79 
   3   2  -4   36.68    0.63 
  -3  -2   4   36.17    0.73 
   3   2  -4   35.18    0.71 
  -3   2   4   36.46    0.75 
   3  -2  -3    0.18    0.06 
  -3   2   3    0.15    0.05 
   3   2  -3    0.19    0.06 
  -3  -2   3    0.16    0.05 
  -3  -2   3    0.15    0.06 
  -3   2   3    0.18    0.06 
   3   2  -3    0.17    0.05 
  -3  -2   3    0.16    0.06 
   3   2  -3    0.17    0.05 
  -3   2   3    0.19    0.06 
   3   2  -2  203.46    4.02 
   3  -2  -2  182.41    3.78 
  -3   2   2  200.23    3.98 
   3   2  -2  205.15    4.03 
   3  -2  -2  190.96    3.96 
   3   2  -2  202.57    4.08 
  -3   2   2  207.34    4.21 
  -3  -2   2  185.21    3.77 
   3   2  -2  202.12    4.03 
   3   2  -1   38.52    0.98 
  -3   2   1   38.94    0.98 
   3   2  -1   38.88    0.97 
   3   2  -1   37.95    1.13 
   3  -2  -1   38.70    1.06 
  -3   2   1   36.42    0.98 
   3   2  -1   36.50    1.01 
  -3  -2   1   38.52    1.00 
   3   2  -1   37.24    0.97 
   3   2   0    1.25    0.13 
   3  -2   0    1.01    0.12 
  -3   2   0    1.23    0.13 
   3   2   0    1.30    0.13 
   3  -2   0    1.30    0.15 
  -3   2   0    1.18    0.13 
   3   2   0    1.36    0.13 
  -3  -2   0    1.27    0.13 
   3   2   0    1.24    0.13 
  -3  -2  -1   35.55    0.93 
   3   2   1   37.51    0.96 
   3  -2   1   35.40    0.93 
  -3   2  -1   35.87    0.92 
   3  -2   1   36.77    0.99 
   3   2   1   33.67    0.87 
  -3  -2  -2    0.23    0.07 
   3   2   2    0.18    0.06 
   3  -2   2    0.25    0.06 
  -3   2  -2    0.20    0.06 
   3  -2   2    0.22    0.06 
   3   2   2    0.21    0.06 
  -3  -2  -2    0.27    0.07 
  -3  -2  -3    2.05    0.17 
   3   2   3    1.89    0.16 
   3  -2   3    2.06    0.16 
  -3   2  -3    1.97    0.15 
   3  -2   3    2.13    0.17 
  -3   2  -3    2.03    0.14 
   3   2   3    1.98    0.15 
  -3  -2  -3    2.13    0.17 
  -3   2  -3    1.96    0.16 
   3  -2   4   43.84    0.96 
  -3  -2  -4   44.01    0.88 
   3   2   4   44.71    0.88 
   3  -2   4   42.73    0.90 
   3  -2   4   44.26    0.87 
  -3   2  -4   41.47    0.75 
   3   2   4   45.24    0.82 
   3   2   4   44.13    0.88 
  -3   2  -4   45.22    0.88 
  -3  -2  -4   42.38    0.87 
  -3  -2  -5   70.36    1.16 
   3  -2   5   66.98    1.19 
   3  -2   5   72.13    1.03 
   3   2   5   70.65    0.92 
   3   2   5   68.75    1.22 
  -3  -2  -5   66.00    1.20 
  -3  -2  -6    3.52    0.22 
   3  -2   6    4.39    0.25 
   3  -2   6    3.77    0.22 
   3   2   6    3.81    0.20 
   3   2   6    4.09    0.24 
  -3  -2  -6    3.68    0.22 
  -3  -2  -7    0.16    0.07 
   3  -2   7    0.17    0.06 
   3  -2   7    0.13    0.05 
   3  -2   7    0.15    0.07 
   3   2   7    0.11    0.06 
   3   2   7    0.17    0.07 
  -3  -2  -7    0.13    0.05 
  -3  -2  -8   -0.02    0.06 
   3  -2   8   -0.02    0.05 
  -3  -2  -9    0.02    0.06 
   3  -2   9    0.02    0.06 
   3  -2  10    0.33    0.08 
   3   2  10    0.52    0.09 
   3  -3 -11    0.16    0.09 
  -3   3  11    0.10    0.06 
  -3  -3  11    0.10    0.08 
  -3   3  11    0.06    0.07 
   3  -3 -10    0.26    0.08 
  -3  -3  10    0.39    0.09 
  -3   3  10    0.31    0.07 
  -3  -3  10    0.33    0.08 
  -3   3  10    0.43    0.10 
   3  -3  -9    5.18    0.26 
  -3  -3   9    4.97    0.26 
  -3   3   9    5.14    0.23 
  -3   3   9    5.31    0.26 
   3  -3  -8    2.24    0.18 
  -3  -3   8    2.08    0.18 
  -3   3   8    2.10    0.16 
  -3   3   8    2.18    0.17 
   3  -3  -7    8.96    0.36 
  -3  -3   7    8.47    0.38 
  -3   3   7    8.28    0.34 
  -3  -3   7    9.16    0.37 
  -3   3   7    8.62    0.36 
   3   3  -6    0.40    0.08 
   3  -3  -6    0.42    0.09 
   3   3  -6    0.42    0.08 
  -3  -3   6    0.36    0.08 
   3   3  -6    0.41    0.07 
  -3   3   6    0.35    0.08 
  -3  -3   6    0.71    0.11 
  -3   3   6    0.37    0.08 
   3   3  -5    0.26    0.07 
   3  -3  -5    0.39    0.09 
   3   3  -5    0.31    0.07 
  -3   3   5    0.26    0.08 
  -3  -3   5    0.28    0.08 
   3   3  -5    0.24    0.05 
  -3  -3   5    0.19    0.07 
   3   3  -5    0.27    0.07 
  -3   3   5    0.32    0.08 
   3   3  -4   37.95    0.79 
   3  -3  -4   35.97    0.82 
  -3   3   4   38.07    0.79 
   3   3  -4   36.61    0.77 
  -3   3   4   40.10    0.88 
  -3  -3   4   38.14    0.88 
   3   3  -4   37.42    0.74 
  -3  -3   4   38.85    0.82 
   3   3  -4   35.98    0.77 
  -3   3   4   38.81    0.84 
   3   3  -3    1.53    0.14 
  -3   3   3    1.41    0.13 
   3   3  -3    1.69    0.14 
  -3  -3   3    1.55    0.16 
  -3   3   3    1.54    0.16 
   3   3  -3    1.44    0.14 
  -3  -3   3    1.46    0.14 
   3   3  -3    1.43    0.13 
  -3   3   3    1.37    0.14 
   3   3  -2    0.26    0.07 
  -3   3   2    0.34    0.07 
   3   3  -2    0.28    0.07 
   3  -3  -2    0.23    0.08 
   3   3  -2    0.26    0.07 
  -3   3   2    0.27    0.07 
  -3  -3   2    0.36    0.08 
   3   3  -2    0.28    0.06 
   3   3  -1   91.24    1.26 
   3  -3  -1   94.52    1.31 
  -3   3   1   88.06    1.18 
   3   3  -1   86.03    1.21 
   3   3  -1   91.29    1.39 
   3  -3  -1   91.19    1.36 
  -3   3   1   90.79    1.30 
  -3  -3   1   89.78    1.53 
   3   3  -1   88.04    1.19 
  -3  -3   0   29.13    0.66 
   3   3   0   31.73    0.65 
   3  -3   0   29.51    0.65 
  -3   3   0   28.85    0.63 
   3  -3   0   29.71    0.72 
   3   3   0   32.34    0.68 
   3   3   0   31.77    0.66 
   3   3   1    3.85    0.22 
   3  -3   1    3.91    0.23 
  -3   3  -1    3.63    0.22 
   3  -3   1    3.80    0.25 
   3   3   1    4.19    0.24 
   3   3   1    3.68    0.22 
  -3  -3  -2    8.75    0.36 
   3   3   2    8.49    0.34 
   3  -3   2    8.76    0.36 
  -3   3  -2    8.25    0.33 
   3  -3   2    8.88    0.39 
  -3   3  -2    8.51    0.32 
   3   3   2    8.47    0.34 
  -3  -3  -3    9.40    0.36 
   3   3   3    8.32    0.33 
   3  -3   3    9.22    0.36 
  -3   3  -3    9.46    0.34 
   3  -3   3   10.04    0.40 
  -3   3  -3    9.38    0.32 
   3   3   3    9.35    0.34 
  -3  -3  -4   57.74    1.09 
   3  -3   4   54.31    1.16 
  -3   3  -4   57.61    1.02 
   3   3   4   58.37    1.03 
   3   3   4   58.16    1.06 
  -3  -3  -5    0.05    0.06 
   3  -3   5    0.07    0.05 
   3  -3   5    0.05    0.04 
   3   3   5    0.08    0.05 
   3   3   5    0.04    0.04 
  -3  -3  -6   24.01    0.65 
   3  -3   6   24.14    0.65 
   3  -3   6   22.68    0.63 
   3   3   6   24.16    0.60 
  -3  -3  -7    4.26    0.24 
   3  -3   7    4.29    0.24 
   3   3   7    4.09    0.20 
  -3  -3  -8    0.15    0.07 
   3  -3   8    0.17    0.08 
   3   3   8    0.17    0.06 
  -3  -3  -9    0.13    0.08 
   3  -3   9    0.09    0.07 
  -3  -3 -10    0.28    0.08 
   3  -3  10    0.24    0.09 
   3  -4 -11    0.10    0.08 
  -3   4  11    0.11    0.07 
  -3   4  11    0.13    0.07 
   3  -4 -10   10.45    0.45 
  -3   4  10    9.72    0.39 
  -3   4  10    9.69    0.42 
   3  -4  -9    9.33    0.35 
  -3  -4   9    9.08    0.37 
  -3   4   9    8.42    0.30 
  -3  -4   9    9.16    0.35 
  -3   4   9    8.59    0.33 
   3  -4  -8    0.02    0.06 
  -3  -4   8    0.02    0.06 
  -3   4   8    0.03    0.06 
  -3  -4   8    0.00    0.07 
  -3   4   8    0.02    0.06 
   3  -4  -7   40.87    0.79 
  -3  -4   7   39.41    0.83 
  -3   4   7   40.16    0.77 
  -3  -4   7   39.59    0.78 
  -3   4   7   41.65    0.80 
   3  -4  -6    7.61    0.34 
  -3  -4   6    7.42    0.36 
  -3   4   6    7.35    0.33 
  -3  -4   6    7.47    0.33 
  -3   4   6    7.88    0.34 
   3  -4  -5    6.19    0.31 
   3   4  -5    6.06    0.28 
  -3  -4   5    5.66    0.31 
   3   4  -5    5.55    0.25 
  -3  -4   5    6.06    0.30 
  -3   4   5    6.39    0.31 
   3   4  -4    0.82    0.11 
   3   4  -4    0.83    0.10 
  -3  -4   4    0.83    0.12 
   3   4  -4    0.79    0.10 
  -3  -4   4    0.80    0.11 
   3   4  -4    0.87    0.11 
  -3   4   4    0.73    0.11 
   3   4  -3  134.42    1.60 
   3   4  -3  138.09    1.99 
   3   4  -3  134.97    1.65 
  -3  -4   3  137.98    2.10 
   3   4  -3  138.23    2.07 
   3   4  -2    6.05    0.28 
   3  -4  -2    5.57    0.28 
  -3   4   2    5.77    0.26 
   3   4  -2    6.06    0.27 
   3  -4  -2    5.53    0.31 
   3   4  -2    5.73    0.29 
   3   4  -2    5.72    0.26 
  -3  -4   1   12.60    0.42 
   3   4  -1   12.55    0.41 
   3  -4  -1   11.84    0.41 
  -3   4   1   11.47    0.39 
   3  -4  -1   12.46    0.47 
   3   4  -1   12.65    0.45 
  -3   4   1   10.81    0.41 
   3   4  -1   12.59    0.41 
  -3  -4   0    8.58    0.34 
   3   4   0    9.15    0.34 
   3  -4   0    9.06    0.35 
  -3   4   0    8.24    0.32 
   3   4   0    8.38    0.36 
   3  -4   0    9.20    0.39 
   3   4   0    8.71    0.33 
  -3  -4  -1   19.37    0.53 
   3   4   1   19.39    0.50 
   3  -4   1   22.05    0.56 
  -3   4  -1   21.06    0.52 
   3  -4   1   19.16    0.57 
   3   4   1   20.22    0.53 
   3   4   1   20.89    0.52 
   3  -4   2    1.66    0.15 
  -3   4  -2    1.44    0.13 
   3  -4   2    1.36    0.15 
   3   4   2    1.54    0.14 
   3   4   2    1.50    0.14 
   3   4   2    1.59    0.15 
  -3  -4  -3    0.01    0.05 
   3  -4   3    0.01    0.04 
  -3   4  -3    0.01    0.04 
   3  -4   3    0.00    0.05 
   3   4   3   -0.01    0.05 
  -3  -4  -4   39.69    0.97 
   3  -4   4   39.59    0.97 
   3   4   4   36.89    0.89 
  -3  -4  -5   24.27    0.65 
   3  -4   5   22.89    0.68 
   3  -4   5   20.98    0.62 
   3   4   5   25.65    0.63 
  -3  -4  -6   17.55    0.51 
   3  -4   6   18.83    0.53 
   3   4   6   17.26    0.45 
  -3  -4  -7    4.62    0.25 
   3  -4   7    4.33    0.25 
   3   4   7    4.66    0.22 
  -3  -4  -8    0.08    0.07 
   3  -4   8    0.01    0.07 
   3   4   8    0.04    0.06 
  -3  -4  -9    9.80    0.42 
   3  -4   9   10.07    0.44 
   3   4   9    9.16    0.37 
   3  -5 -10    0.12    0.09 
  -3   5  10    0.13    0.06 
   3  -5  -9   12.59    0.51 
  -3   5   9   12.93    0.49 
  -3  -5   9   13.24    0.53 
  -3   5   9   12.16    0.49 
   3  -5  -8    0.50    0.11 
  -3  -5   8    0.55    0.11 
  -3   5   8    0.46    0.10 
  -3  -5   8    0.70    0.12 
  -3   5   8    0.58    0.10 
   3  -5  -7   17.60    0.49 
  -3  -5   7   17.66    0.54 
  -3   5   7   16.88    0.47 
  -3   5   7   17.22    0.49 
   3  -5  -6    7.59    0.34 
  -3  -5   6    6.98    0.35 
  -3   5   6    7.51    0.34 
  -3  -5   5  104.45    1.94 
  -3   5   5  105.56    1.87 
   3  -5  -4   15.64    0.51 
   3   5  -4   17.88    0.51 
  -3  -5   4   17.88    0.59 
   3   5  -4   16.82    0.51 
  -3   5   4   16.99    0.54 
   3   5  -3   67.02    1.44 
   3  -5  -3   65.24    1.43 
   3   5  -3   67.47    1.40 
   3   5  -3   67.01    1.45 
   3   5  -3   67.62    1.42 
   3   5  -2   19.81    0.59 
   3  -5  -2   20.37    0.62 
   3   5  -2   19.94    0.59 
   3   5  -2   19.96    0.63 
   3   5  -2   20.07    0.59 
  -3  -5   1  171.83    3.52 
   3  -5  -1  160.80    3.09 
   3  -5  -1  172.70    3.30 
   3   5  -1  161.83    3.07 
   3   5  -1  155.16    3.21 
  -3  -5   0    2.96    0.21 
   3  -5   0    2.70    0.20 
  -3   5   0    2.62    0.18 
   3  -5   0    3.08    0.23 
   3   5   0    2.61    0.18 
  -3  -5  -1    0.44    0.09 
   3  -5   1    0.49    0.09 
  -3   5  -1    0.49    0.08 
   3  -5   1    0.47    0.11 
  -3  -5  -2    0.86    0.12 
   3  -5   2    0.99    0.12 
   3  -5   2    0.92    0.13 
   3   5   2    0.87    0.12 
   3  -5   3    0.85    0.11 
   3   5   3    0.81    0.11 
  -3  -5  -4    1.70    0.16 
   3  -5   4    1.72    0.15 
   3   5   4    1.57    0.14 
  -3  -5  -5    0.28    0.08 
   3  -5   5    0.23    0.09 
   3   5   5    0.30    0.08 
  -3  -5  -6    0.53    0.11 
   3  -5   6    0.50    0.11 
   3   5   6    0.40    0.09 
  -3  -5  -7    5.37    0.27 
   3  -5   7    5.37    0.29 
   3   5   7    5.47    0.24 
  -3  -5  -8    0.03    0.07 
   3  -5   8    0.11    0.09 
   3   5   8    0.05    0.07 
  -3  -5  -9    0.72    0.12 
   3  -5   9    0.72    0.12 
   3   5   9    0.76    0.10 
   3  -6  -9    1.64    0.16 
  -3   6   9    1.67    0.15 
   3  -6  -8    1.19    0.14 
  -3   6   8    1.10    0.13 
  -3   6   8    1.25    0.14 
   3  -6  -7   16.82    0.48 
  -3  -6   7   17.11    0.52 
  -3   6   7   17.52    0.47 
  -3   6   7   16.04    0.46 
  -3  -6   6    6.89    0.33 
  -3   6   6    6.86    0.30 
   3  -6  -5    2.54    0.19 
  -3  -6   5    2.54    0.21 
  -3   6   5    2.23    0.18 
   3  -6  -4    1.81    0.17 
  -3   6   4    1.91    0.17 
   3  -6  -3   70.35    1.55 
   3   6  -3   69.45    1.54 
   3  -6  -2   24.07    0.60 
   3   6  -2   24.30    0.56 
  -3  -6   1    0.23    0.08 
   3  -6  -1    0.16    0.07 
   3  -6  -1    0.29    0.09 
  -3  -6   0    0.01    0.06 
   3  -6   0   -0.01    0.05 
   3  -6   0    0.04    0.07 
  -3  -6  -1    0.41    0.09 
   3  -6   1    0.41    0.09 
   3  -6   1    0.43    0.11 
  -3  -6  -2    0.34    0.09 
   3  -6   2    0.28    0.08 
   3   6   2    0.34    0.08 
  -3  -6  -3    9.52    0.38 
   3  -6   3    9.42    0.39 
   3   6   3    9.70    0.38 
   3  -6   4    0.57    0.12 
   3   6   4    0.75    0.11 
  -3  -6  -5   30.96    0.63 
   3  -6   5   29.61    0.68 
   3   6   5   29.17    0.57 
  -3  -6  -6    0.35    0.10 
   3  -6   6    0.33    0.10 
   3   6   6    0.45    0.09 
  -3  -6  -7    0.42    0.11 
   3  -6   7    0.47    0.11 
   3   6   7    0.50    0.09 
  -3   7   7   -0.01    0.07 
   3  -7  -6    0.16    0.09 
  -3   7   6    0.16    0.08 
   3  -7  -5    0.16    0.09 
  -3   7   5    0.19    0.08 
   3  -7  -4   17.10    0.48 
  -3   7   4   17.33    0.49 
   3  -7  -3    0.78    0.12 
   3  -7  -2    6.34    0.29 
   3   7  -2    6.59    0.27 
  -3  -7   1   14.37    0.43 
   3  -7  -1   13.88    0.43 
  -3  -7   0    1.31    0.14 
   3  -7   0    1.11    0.13 
   3  -7   0    1.08    0.15 
  -3  -7  -1    2.82    0.20 
   3  -7   1    2.69    0.19 
  -3  -7  -2    0.92    0.12 
   3  -7   2    1.00    0.12 
   3   7   2    0.86    0.12 
  -3  -7  -3    0.35    0.09 
   3  -7   3    0.26    0.10 
   3   7   3    0.54    0.11 
  -3  -7  -4   36.87    1.14 
   3  -7   4   36.76    1.17 
   3   7   4   33.34    1.03 
   3  -7   5    0.50    0.12 
   3   7   5    0.69    0.11 
  -3  -7  -6   14.93    0.44 
   3  -7   6   14.06    0.46 
   3   7   6   15.18    0.40 
   3  -8  -4    5.56    0.27 
   3  -8  -3    1.58    0.16 
   3  -8  -2   10.47    0.37 
  -3  -8   1    1.48    0.15 
   3  -8  -1    1.44    0.15 
  -3  -8   0    0.22    0.08 
   3  -8   0    0.27    0.09 
  -3  -8  -1    5.36    0.26 
   3  -8   1    5.21    0.26 
   3   8   1    5.15    0.26 
  -3  -8  -2    0.96    0.13 
   3  -8   2    0.79    0.14 
   3   8   2    0.97    0.13 
  -3  -8  -3    0.86    0.13 
   3  -8   3    1.14    0.16 
   3   8   3    1.15    0.13 
  -4   0  12   31.45    0.62 
  -4   0  11   -0.02    0.05 
  -4   0  11    0.03    0.08 
  -4   0  10  143.83    1.58 
  -4   0  10  144.09    1.39 
   4   0  -9   -0.01    0.05 
  -4   0   9   -0.01    0.04 
  -4   0   9   -0.01    0.05 
   4   0  -8    5.86    0.29 
  -4   0   8    5.65    0.27 
  -4   0   8    6.21    0.26 
  -4   0   8    6.03    0.29 
   4   0  -7   -0.01    0.04 
  -4   0   7   -0.03    0.04 
  -4   0   7   -0.01    0.03 
  -4   0   7    0.00    0.04 
   4   0  -6   35.63    0.73 
  -4   0   6   38.78    0.72 
  -4   0   6   36.72    0.69 
  -4   0   6   36.89    0.81 
   4   0  -5   -0.02    0.03 
  -4   0   5    0.03    0.04 
  -4   0   5    0.00    0.02 
   4   0  -5    0.01    0.04 
   4   0  -4   12.45    0.41 
  -4   0   4   12.46    0.39 
  -4   0   4   11.47    0.43 
  -4   0   4   12.27    0.36 
   4   0  -4   12.54    0.41 
   4   0  -3    0.00    0.03 
  -4   0   3    0.02    0.03 
  -4   0   3    0.02    0.03 
   4   0  -3    0.00    0.03 
   4   0  -2    3.17    0.21 
   4   0  -2    3.06    0.23 
  -4   0   2    3.09    0.18 
  -4   0   2    3.02    0.21 
   4   0  -1    0.01    0.03 
  -4   0   1    0.00    0.03 
   4   0  -1    0.01    0.03 
  -4   0   1    0.00    0.02 
  -4   0   1   -0.01    0.03 
  -4   0   0   85.98    1.85 
   4   0   0   83.19    1.77 
  -4   0   0   81.45    1.71 
  -4   0  -1   -0.01    0.03 
   4   0   1    0.01    0.03 
  -4   0  -1    0.00    0.03 
   4   0   2    2.36    0.17 
   4   0   2    2.46    0.16 
  -4   0  -2    2.55    0.15 
   4   0   3    0.00    0.04 
   4   0   3    0.03    0.04 
   4   0   3    0.00    0.04 
  -4   0  -3    0.01    0.03 
  -4   0  -3    0.02    0.04 
   4   0   4  155.88    2.18 
   4   0   4  155.10    2.10 
   4   0   4  150.27    1.99 
  -4   0  -4  162.32    2.22 
   4   0   5    0.01    0.04 
   4   0   5    0.00    0.04 
   4   0   5    0.01    0.05 
  -4   0  -5   -0.03    0.04 
   4   0   6    2.04    0.16 
   4   0   6    1.86    0.15 
   4   0   6    1.85    0.14 
  -4   0  -6    1.92    0.16 
   4   0   7    0.02    0.04 
   4   0   7    0.01    0.05 
   4   0   7    0.00    0.05 
   4   0   8   79.18    1.86 
   4   0   9    0.00    0.05 
   4   0  10    0.21    0.08 
  -4  -1  12    0.30    0.09 
  -4   1  12    0.43    0.10 
  -4   1  11    3.30    0.18 
  -4  -1  11    3.29    0.21 
  -4   1  11    3.39    0.21 
   4  -1 -10   22.75    0.54 
  -4  -1  10   23.79    0.50 
  -4   1  10   22.58    0.46 
  -4  -1  10   23.76    0.54 
  -4   1  10   23.15    0.54 
   4  -1  -9    7.04    0.31 
   4   1  -9    6.56    0.30 
  -4  -1   9    6.59    0.27 
  -4   1   9    6.19    0.25 
  -4  -1   9    6.77    0.30 
  -4   1   9    6.85    0.30 
   4  -1  -8    5.83    0.29 
   4   1  -8    6.12    0.29 
  -4  -1   8    5.84    0.27 
  -4  -1   8    5.90    0.26 
  -4   1   8    6.13    0.26 
  -4  -1   8    5.72    0.28 
  -4   1   8    6.00    0.29 
   4  -1  -7    0.04    0.05 
   4   1  -7    0.10    0.05 
  -4  -1   7    0.10    0.05 
  -4  -1   7    0.06    0.04 
  -4   1   7    0.07    0.04 
   4   1  -7    0.07    0.04 
  -4   1   7    0.11    0.06 
   4  -1  -6   81.83    1.18 
   4   1  -6   83.41    1.18 
  -4   1   6   81.50    1.12 
  -4  -1   6   80.92    1.29 
  -4  -1   6   83.66    1.12 
  -4   1   6   82.77    1.09 
   4   1  -6   79.09    1.39 
  -4   1   6   85.20    1.26 
   4  -1  -5    0.99    0.12 
   4   1  -5    0.94    0.11 
  -4   1   5    0.87    0.11 
  -4  -1   5    0.91    0.10 
  -4   1   5    0.83    0.12 
  -4  -1   5    0.91    0.11 
  -4   1   5    0.84    0.10 
  -4  -1   5    0.84    0.11 
  -4   1   5    0.88    0.11 
   4   1  -5    0.81    0.11 
   4  -1  -5    0.85    0.11 
   4  -1  -4   36.13    0.75 
   4   1  -4   38.40    0.76 
  -4   1   4   35.98    0.70 
  -4  -1   4   35.76    0.67 
  -4   1   4   36.21    0.79 
  -4  -1   4   38.01    0.75 
   4   1  -4   37.22    0.73 
  -4   1   4   36.99    0.75 
   4  -1  -4   38.04    0.74 
   4  -1  -3   22.49    0.67 
   4   1  -3   23.43    0.69 
  -4  -1   3   23.81    0.66 
  -4   1   3   23.82    0.73 
  -4  -1   3   23.56    0.70 
   4   1  -3   24.34    0.71 
   4  -1  -2   31.62    0.86 
  -4   1   2   32.20    0.85 
   4   1  -2   32.96    0.87 
  -4  -1   2   30.00    0.79 
   4  -1  -2   31.64    0.91 
  -4   1   2   30.25    0.83 
   4   1  -2   31.76    0.83 
  -4  -1   2   31.24    0.87 
   4   1  -2   31.50    0.86 
  -4   1   1  113.72    2.36 
   4   1  -1  107.21    2.31 
   4  -1  -1  114.83    2.47 
   4   1  -1  113.68    2.31 
  -4  -1   1  107.50    2.25 
  -4  -1   1  112.02    2.37 
  -4   1   0   55.67    1.29 
   4   1   0   57.82    1.32 
  -4  -1   0   53.96    1.27 
   4  -1   0   57.85    1.37 
  -4   1   0   58.71    1.34 
   4   1   0   59.43    1.31 
  -4  -1   0   57.89    1.32 
  -4  -1   0   58.30    1.40 
   4  -1   1    0.11    0.05 
  -4   1  -1    0.10    0.05 
   4  -1   1    0.06    0.04 
  -4   1  -1    0.08    0.04 
   4   1   1    0.08    0.04 
  -4  -1  -1    0.13    0.05 
   4   1   2   60.80    0.98 
   4  -1   2   59.58    0.94 
  -4   1  -2   60.82    0.94 
   4  -1   2   63.55    0.94 
   4   1   2   63.90    0.90 
  -4  -1  -2   57.87    0.93 
   4   1   3   34.12    0.82 
   4  -1   3   33.16    0.80 
   4   1   3   34.39    0.81 
  -4   1  -3   34.71    0.80 
   4  -1   3   35.53    0.81 
   4   1   3   34.67    0.77 
  -4  -1  -3   35.63    0.80 
  -4   1  -3   33.61    0.81 
  -4  -1  -3   32.35    0.79 
   4  -1   4    3.56    0.21 
   4   1   4    3.45    0.21 
   4  -1   4    3.55    0.21 
   4   1   4    3.49    0.21 
   4  -1   4    3.60    0.20 
   4   1   4    3.48    0.19 
  -4  -1  -4    3.43    0.19 
  -4   1  -4    3.85    0.22 
  -4  -1  -4    3.62    0.21 
   4  -1   5    0.10    0.06 
   4   1   5    0.14    0.06 
   4  -1   5    0.12    0.05 
   4   1   5    0.10    0.06 
   4  -1   5    0.14    0.05 
   4   1   5    0.08    0.05 
  -4   1  -5    0.09    0.05 
  -4  -1  -5    0.12    0.05 
   4  -1   6   13.32    0.46 
   4  -1   6   13.90    0.45 
   4   1   6   13.64    0.45 
   4  -1   6   14.42    0.46 
   4   1   6   14.35    0.44 
  -4  -1  -6   13.53    0.46 
   4  -1   7    8.57    0.34 
   4  -1   7    8.41    0.33 
   4   1   7    8.63    0.33 
   4  -1   7    7.80    0.31 
   4   1   7    8.84    0.32 
  -4  -1  -7    8.68    0.34 
   4  -1   8    2.53    0.17 
   4   1   8    2.36    0.17 
   4   1   8    2.56    0.17 
   4   1   9    1.57    0.14 
   4  -1   9    1.57    0.14 
   4   1  10    2.47    0.17 
   4  -1  10    2.64    0.18 
  -4   2  12    6.46    0.24 
  -4  -2  12    6.66    0.29 
  -4   2  12    6.45    0.28 
   4  -2 -11   15.78    0.59 
  -4   2  11   14.76    0.54 
  -4  -2  11   15.91    0.59 
  -4   2  11   15.78    0.58 
   4  -2 -10    2.44    0.18 
  -4  -2  10    2.58    0.18 
  -4   2  10    2.67    0.16 
  -4  -2  10    2.67    0.19 
  -4   2  10    2.56    0.18 
   4  -2  -9    0.08    0.06 
  -4  -2   9    0.12    0.06 
  -4   2   9    0.11    0.05 
  -4   2   9    0.07    0.06 
   4  -2  -8    6.62    0.31 
   4   2  -8    6.63    0.30 
  -4  -2   8    6.99    0.29 
  -4  -2   8    6.78    0.31 
  -4   2   8    6.59    0.28 
  -4   2   8    6.35    0.30 
   4  -2  -7    5.01    0.27 
   4   2  -7    5.20    0.27 
  -4  -2   7    5.11    0.25 
  -4  -2   7    4.88    0.27 
  -4   2   7    4.84    0.25 
  -4  -2   7    4.67    0.26 
  -4   2   7    5.12    0.27 
   4  -2  -6    4.77    0.26 
   4   2  -6    4.83    0.25 
  -4  -2   6    4.73    0.23 
  -4   2   6    4.61    0.27 
  -4  -2   6    4.57    0.26 
   4   2  -6    4.50    0.22 
  -4   2   6    4.48    0.24 
  -4  -2   6    4.69    0.25 
  -4   2   6    4.69    0.26 
   4  -2  -5    0.98    0.12 
  -4   2   5    0.92    0.11 
   4   2  -5    0.97    0.11 
  -4  -2   5    0.89    0.10 
  -4   2   5    0.89    0.12 
  -4  -2   5    0.92    0.12 
   4   2  -5    0.92    0.10 
  -4  -2   5    0.79    0.11 
   4   2  -5    0.93    0.11 
  -4   2   5    0.89    0.12 
   4  -2  -4    5.05    0.27 
   4   2  -4    4.65    0.25 
  -4  -2   4    4.91    0.24 
  -4   2   4    5.05    0.29 
   4   2  -4    4.78    0.22 
  -4  -2   4    4.53    0.25 
   4   2  -4    4.78    0.25 
  -4   2   4    4.73    0.27 
   4  -2  -3  314.02    3.73 
  -4   2   3  323.53    5.15 
   4   2  -3  322.52    5.51 
  -4  -2   3  319.80    5.01 
  -4   2   3  320.93    5.21 
   4   2  -3  308.93    2.84 
   4   2  -3  315.15    3.03 
  -4  -2   3  317.30    5.28 
   4   2  -3  315.44    3.55 
  -4   2   3  314.61    3.06 
  -4   2   2    8.42    0.32 
   4   2  -2    7.77    0.30 
  -4  -2   2    8.02    0.30 
   4  -2  -2    8.37    0.37 
   4   2  -2    7.85    0.35 
  -4   2   2    8.27    0.35 
   4   2  -2    7.92    0.31 
  -4  -2   2    8.16    0.32 
   4   2  -2    7.50    0.31 
  -4   2   1   44.70    0.79 
   4   2  -1   45.46    0.82 
   4  -2  -1   46.19    0.91 
  -4   2   1   48.95    0.84 
   4   2  -1   47.37    0.78 
  -4  -2   1   44.65    0.82 
   4   2  -1   44.24    0.82 
   4  -2   0   69.60    1.05 
  -4   2   0   71.65    1.08 
   4   2   0   75.18    1.07 
   4  -2   0   75.84    1.19 
  -4   2   0   70.91    1.02 
   4   2   0   74.07    1.15 
  -4  -2   0   67.88    1.04 
   4   2   1    3.36    0.20 
   4  -2   1    3.39    0.21 
  -4   2  -1    3.71    0.21 
   4   2   1    3.49    0.20 
   4  -2   1    3.32    0.22 
  -4   2  -1    3.21    0.18 
   4   2   1    3.41    0.19 
  -4  -2  -1    3.54    0.21 
   4  -2   2    0.77    0.10 
  -4   2  -2    0.92    0.10 
   4  -2   2    0.97    0.12 
  -4   2  -2    0.77    0.09 
   4   2   2    0.93    0.10 
  -4  -2  -2    0.87    0.11 
   4   2   3    0.42    0.08 
   4  -2   3    0.40    0.08 
  -4   2  -3    0.54    0.08 
   4  -2   3    0.46    0.08 
   4   2   3    0.43    0.07 
  -4  -2  -3    0.51    0.09 
  -4  -2  -3    0.45    0.08 
   4  -2   4    1.51    0.14 
  -4  -2  -4    1.48    0.14 
   4  -2   4    1.53    0.14 
   4  -2   4    1.31    0.13 
   4   2   4    1.46    0.12 
  -4   2  -4    1.51    0.14 
  -4  -2  -4    1.50    0.14 
  -4  -2  -5   11.57    0.39 
   4  -2   5   11.46    0.38 
   4  -2   5   11.99    0.39 
   4  -2   5   11.45    0.37 
   4   2   5   11.97    0.34 
  -4  -2  -5   11.62    0.39 
  -4  -2  -6    0.90    0.12 
   4  -2   6    0.89    0.11 
   4  -2   6    0.82    0.11 
   4  -2   6    0.97    0.12 
   4   2   6    0.91    0.10 
  -4  -2  -6    0.86    0.11 
  -4  -2  -7   15.44    0.45 
   4  -2   7   14.56    0.43 
   4   2   7   14.39    0.45 
  -4  -2  -8    0.11    0.07 
   4   2   8    0.13    0.07 
   4   2   9    0.56    0.09 
   4  -2   9    0.43    0.09 
   4   2   9    0.62    0.10 
   4   2  10    0.01    0.05 
   4  -2  10    0.01    0.07 
   4  -3 -11    0.13    0.08 
  -4   3  11    0.15    0.06 
  -4   3  11    0.08    0.08 
   4  -3 -10    2.70    0.19 
  -4   3  10    2.66    0.17 
  -4   3  10    2.69    0.19 
   4  -3  -9   26.09    0.61 
  -4  -3   9   26.61    0.64 
  -4   3   9   25.65    0.55 
  -4  -3   9   25.56    0.60 
  -4   3   9   25.54    0.59 
   4  -3  -8    1.57    0.15 
  -4  -3   8    1.68    0.16 
  -4   3   8    1.55    0.14 
  -4  -3   8    1.46    0.14 
  -4   3   8    1.59    0.15 
   4  -3  -7    2.99    0.21 
   4   3  -7    2.75    0.19 
  -4  -3   7    2.78    0.21 
  -4   3   7    3.05    0.20 
  -4  -3   7    3.22    0.21 
  -4   3   7    2.66    0.20 
   4   3  -6    7.14    0.31 
   4  -3  -6    7.40    0.34 
   4   3  -6    7.36    0.32 
  -4  -3   6    7.39    0.36 
  -4   3   6    6.78    0.32 
  -4  -3   6    7.54    0.34 
  -4   3   6    7.40    0.34 
   4   3  -5    4.73    0.25 
   4  -3  -5    4.31    0.25 
   4   3  -5    4.83    0.25 
  -4  -3   5    4.42    0.27 
  -4   3   5    4.53    0.27 
   4   3  -5    4.41    0.21 
  -4  -3   5    4.33    0.24 
  -4   3   5    4.52    0.26 
   4   3  -4    5.55    0.26 
   4  -3  -4    6.16    0.29 
   4   3  -4    5.71    0.26 
  -4   3   4    5.70    0.29 
   4   3  -4    5.58    0.25 
  -4  -3   4    6.16    0.28 
   4   3  -4    5.90    0.27 
  -4   3   4    5.80    0.29 
   4   3  -3   19.07    0.51 
  -4   3   3   19.23    0.51 
   4   3  -3   19.61    0.52 
  -4   3   3   18.37    0.55 
   4   3  -3   19.04    0.54 
  -4  -3   3   19.79    0.54 
   4   3  -3   18.72    0.51 
   4   3  -2    0.13    0.06 
   4  -3  -2    0.15    0.06 
  -4   3   2    0.17    0.06 
   4   3  -2    0.14    0.06 
   4  -3  -2    0.14    0.07 
   4   3  -2    0.15    0.06 
  -4   3   2    0.18    0.07 
  -4  -3   2    0.17    0.06 
   4   3  -2    0.13    0.05 
   4   3  -1   12.95    0.44 
   4  -3  -1   12.54    0.45 
  -4   3   1   11.23    0.40 
   4   3  -1   12.48    0.42 
   4   3  -1   12.55    0.47 
   4  -3  -1   12.81    0.49 
  -4   3   1   11.81    0.43 
   4   3  -1   13.30    0.45 
  -4  -3   1   13.22    0.46 
   4   3  -1   12.22    0.43 
   4   3   0    0.86    0.11 
   4  -3   0    0.89    0.11 
  -4   3   0    0.86    0.10 
   4   3   0    0.93    0.11 
   4  -3   0    0.84    0.12 
  -4   3   0    0.94    0.11 
   4   3   0    0.90    0.11 
   4   3   0    0.83    0.11 
   4   3   1    4.52    0.24 
   4  -3   1    4.71    0.25 
  -4   3  -1    5.03    0.25 
   4   3   1    4.50    0.24 
   4  -3   1    4.69    0.27 
  -4   3  -1    4.46    0.23 
   4   3   1    4.91    0.24 
  -4  -3  -2    1.30    0.13 
   4  -3   2    1.43    0.14 
  -4   3  -2    1.36    0.13 
   4  -3   2    1.25    0.14 
   4   3   2    1.37    0.13 
  -4  -3  -3    0.66    0.10 
   4  -3   3    0.58    0.09 
  -4   3  -3    0.56    0.08 
   4  -3   3    0.68    0.11 
   4   3   3    0.57    0.09 
  -4  -3  -4    7.80    0.32 
   4  -3   4    8.11    0.32 
  -4   3  -4    8.02    0.29 
   4  -3   4    7.90    0.33 
   4   3   4    8.07    0.29 
  -4  -3  -5   29.32    0.74 
   4  -3   5   27.05    0.77 
   4  -3   5   28.11    0.73 
   4  -3   5   29.73    0.75 
   4   3   5   29.65    0.69 
  -4  -3  -6   39.17    0.77 
   4  -3   6   37.67    0.87 
   4   3   6   38.87    0.67 
  -4  -3  -7   17.66    0.49 
   4   3   7   16.65    0.42 
  -4  -3  -8    0.15    0.08 
   4  -3   8    0.19    0.08 
   4   3   8    0.14    0.07 
  -4  -3  -9    1.08    0.13 
   4  -3   9    1.32    0.14 
   4   3   9    1.20    0.12 
  -4  -3 -10    1.21    0.14 
   4  -3  10    1.37    0.15 
   4  -4 -11   19.01    0.49 
   4  -4 -10    5.05    0.29 
  -4   4  10    4.86    0.26 
  -4  -4  10    4.46    0.27 
  -4   4  10    4.65    0.27 
   4  -4  -9    2.32    0.18 
  -4   4   9    2.23    0.16 
  -4  -4   9    2.27    0.18 
  -4   4   9    2.45    0.18 
   4  -4  -8    0.71    0.11 
  -4  -4   8    0.66    0.11 
  -4   4   8    0.69    0.10 
  -4  -4   8    0.74    0.12 
  -4   4   8    0.61    0.11 
   4  -4  -7    0.30    0.09 
  -4  -4   7    0.31    0.08 
  -4   4   7    0.26    0.08 
  -4  -4   7    0.27    0.08 
  -4   4   7    0.30    0.09 
   4  -4  -6   23.39    0.64 
   4   4  -6   22.82    0.60 
  -4  -4   6   22.52    0.66 
  -4  -4   6   23.42    0.63 
  -4   4   6   23.41    0.64 
   4  -4  -5    2.90    0.21 
   4   4  -5    3.24    0.20 
  -4  -4   5    3.07    0.22 
  -4  -4   5    3.20    0.21 
  -4   4   5    3.03    0.21 
   4   4  -4    6.93    0.31 
   4   4  -4    7.21    0.31 
   4   4  -4    7.14    0.31 
  -4  -4   4    7.07    0.33 
   4   4  -4    6.94    0.31 
  -4   4   4    6.74    0.31 
   4   4  -3   12.49    0.39 
   4  -4  -3   11.63    0.40 
   4   4  -3   12.14    0.37 
   4   4  -3   12.00    0.41 
  -4  -4   3   12.25    0.41 
   4   4  -3   11.89    0.38 
   4   4  -2    4.26    0.23 
   4  -4  -2    3.99    0.24 
   4   4  -2    3.98    0.22 
   4  -4  -2    4.23    0.27 
   4   4  -2    3.92    0.24 
   4   4  -2    4.33    0.23 
   4   4  -1    0.64    0.10 
   4  -4  -1    0.69    0.10 
  -4   4   1    0.70    0.09 
   4   4  -1    0.65    0.10 
   4   4  -1    0.61    0.10 
   4  -4  -1    0.64    0.11 
   4   4  -1    0.65    0.09 
   4  -4   0    2.70    0.19 
  -4   4   0    2.73    0.18 
   4   4   0    2.37    0.17 
   4   4   0    2.95    0.21 
   4  -4   0    2.94    0.22 
   4   4   0    2.87    0.19 
   4   4   0    2.58    0.18 
  -4  -4  -1    5.76    0.28 
   4  -4   1    5.50    0.28 
  -4   4  -1    5.64    0.26 
   4  -4   1    6.02    0.32 
   4   4   1    5.63    0.27 
   4  -4   2    2.91    0.20 
  -4   4  -2    3.04    0.19 
   4  -4   2    3.15    0.22 
   4   4   2    2.98    0.19 
  -4  -4  -3    0.20    0.07 
   4  -4   3    0.23    0.07 
   4  -4   3    0.22    0.08 
   4   4   3    0.18    0.06 
  -4  -4  -4    4.40    0.25 
   4  -4   4    4.08    0.25 
   4  -4   4    4.19    0.26 
   4   4   4    4.59    0.23 
  -4  -4  -5   15.08    0.46 
   4  -4   5   15.65    0.47 
   4   4   5   15.45    0.41 
  -4  -4  -6    1.37    0.14 
   4   4   6    1.30    0.13 
  -4  -4  -7   10.31    0.36 
   4  -4   7   10.47    0.38 
   4   4   7   10.38    0.32 
  -4  -4  -8    1.84    0.16 
   4  -4   8    1.58    0.15 
   4   4   8    1.67    0.14 
  -4  -4  -9    0.04    0.08 
   4  -4   9    0.06    0.07 
   4   4   9    0.12    0.07 
   4  -5 -10    0.98    0.14 
  -4   5  10    0.94    0.11 
  -4  -5  10    0.87    0.13 
  -4   5  10    0.93    0.12 
   4  -5  -9    0.72    0.12 
  -4   5   9    0.77    0.11 
  -4  -5   9    0.67    0.12 
  -4   5   9    0.69    0.11 
   4  -5  -8    2.02    0.17 
  -4   5   8    2.17    0.17 
  -4  -5   8    1.95    0.17 
  -4   5   8    2.20    0.17 
   4  -5  -7    0.04    0.07 
  -4  -5   7    0.10    0.06 
  -4   5   7    0.08    0.07 
  -4  -5   7    0.12    0.07 
  -4   5   7    0.14    0.07 
   4  -5  -6    5.82    0.30 
  -4  -5   6    5.32    0.30 
  -4  -5   6    5.34    0.28 
  -4   5   6    5.58    0.29 
  -4   5   5   13.78    0.44 
   4  -5  -4   45.41    1.02 
   4   5  -4   45.13    0.94 
  -4   5   4   44.82    0.99 
   4   5  -3    2.52    0.18 
   4  -5  -3    2.66    0.20 
   4   5  -3    2.51    0.17 
   4  -5  -2  172.59    2.98 
   4   5  -2  174.43    2.93 
   4  -5  -2  175.96    3.06 
   4   5  -2  172.86    2.99 
   4  -5  -1    9.72    0.38 
   4   5  -1    8.91    0.34 
   4  -5  -1   10.21    0.43 
   4   5  -1    9.28    0.39 
  -4  -5   0   41.26    0.94 
   4  -5   0   41.36    0.96 
   4  -5   0   40.50    0.99 
   4   5   0   41.60    0.94 
  -4  -5  -1    8.46    0.35 
   4  -5   1    8.48    0.36 
  -4   5  -1    8.51    0.34 
   4  -5   1    9.03    0.40 
   4   5   1    9.49    0.37 
  -4  -5  -2    0.61    0.10 
   4  -5   2    0.59    0.10 
   4  -5   2    0.54    0.11 
   4   5   2    0.57    0.10 
   4  -5   3    1.06    0.12 
   4  -5   3    1.15    0.15 
   4   5   3    1.01    0.12 
  -4  -5  -4    0.02    0.06 
   4  -5   4    0.01    0.04 
   4   5   4    0.01    0.05 
  -4  -5  -5    0.01    0.08 
   4   5   5    0.01    0.06 
  -4  -5  -6   17.96    0.48 
   4  -5   6   18.18    0.52 
   4   5   6   18.22    0.43 
  -4  -5  -7    0.08    0.08 
   4  -5   7    0.07    0.07 
   4   5   7    0.02    0.07 
  -4  -5  -8    0.12    0.08 
   4  -5   8    0.02    0.08 
   4   5   8    0.03    0.06 
   4  -6  -8    0.99    0.13 
  -4   6   8    0.97    0.12 
  -4   6   8    0.79    0.12 
   4  -6  -7    6.78    0.34 
  -4   6   7    6.16    0.32 
  -4   6   7    6.49    0.33 
  -4   6   6   10.33    0.37 
   4  -6  -5    2.36    0.19 
  -4   6   5    2.32    0.18 
   4  -6  -4   10.65    0.38 
  -4   6   4   10.60    0.39 
   4  -6  -3    0.86    0.12 
   4   6  -3    0.90    0.11 
   4  -6  -2   10.07    0.40 
   4   6  -2   10.79    0.39 
   4  -6  -1    6.90    0.33 
   4   6  -1    6.58    0.29 
   4  -6  -1    7.00    0.36 
  -4  -6   0    0.03    0.06 
   4  -6   0    0.08    0.07 
   4  -6   0    0.03    0.07 
   4   6   0    0.06    0.06 
  -4  -6  -1   39.47    0.97 
   4  -6   1   38.83    0.97 
   4  -6   1   38.72    1.02 
   4   6   1   38.45    0.94 
  -4  -6  -2    2.65    0.19 
   4  -6   2    2.59    0.19 
   4  -6   2    2.54    0.21 
   4   6   2    2.56    0.18 
  -4  -6  -3    0.29    0.09 
   4  -6   3    0.27    0.07 
   4  -6   3    0.22    0.09 
   4   6   3    0.22    0.08 
   4   6   4    1.71    0.15 
  -4  -6  -5    0.78    0.12 
   4  -6   5    0.81    0.13 
   4   6   5    0.85    0.11 
  -4  -6  -6    1.40    0.15 
   4  -6   6    1.52    0.17 
   4   6   6    1.64    0.14 
  -4  -6  -7    2.09    0.18 
   4  -6   7    2.28    0.20 
   4   6   7    2.31    0.16 
   4  -7  -6    1.76    0.16 
  -4   7   6    1.81    0.16 
   4  -7  -5    7.16    0.36 
  -4   7   5    7.20    0.36 
   4  -7  -4    5.02    0.26 
  -4   7   4    5.21    0.27 
   4  -7  -3    1.60    0.16 
   4  -7  -2    1.44    0.15 
   4   7  -2    1.30    0.13 
   4  -7  -1   12.07    0.40 
   4   7  -1   11.59    0.36 
  -4  -7   0    5.04    0.25 
   4  -7   0    5.30    0.26 
   4  -7   0    5.16    0.29 
   4   7   0    5.01    0.26 
  -4  -7  -1    0.34    0.09 
   4  -7   1    0.60    0.10 
   4  -7   1    0.57    0.12 
   4   7   1    0.47    0.10 
  -4  -7  -2    0.42    0.10 
   4  -7   2    0.43    0.09 
   4  -7   2    0.53    0.13 
   4   7   2    0.49    0.10 
  -4  -7  -3    2.34    0.19 
   4   7   3    2.30    0.18 
  -4  -7  -4    3.65    0.23 
   4  -7   4    3.13    0.23 
   4   7   4    3.36    0.20 
   4  -7   5   11.77    0.43 
   4   7   5   12.62    0.37 
   4  -8  -3   18.60    0.49 
   4  -8  -2    0.89    0.13 
   4  -8  -1    0.81    0.12 
   4  -8   0   14.10    0.43 
   4   8   0   14.82    0.43 
  -4  -8  -1    0.05    0.07 
   4  -8   1   -0.02    0.08 
   4   8   1    0.04    0.07 
  -4  -8  -2    0.56    0.12 
   4   8   2    0.63    0.11 
  -5   0  12   -0.07    0.06 
  -5   0  11   51.90    0.87 
   5   0 -10    0.01    0.06 
  -5   0  10    0.01    0.05 
  -5   0  10   -0.01    0.07 
   5   0  -9  132.10    2.60 
  -5   0   9  132.55    2.50 
  -5   0   9  130.81    2.57 
   5   0  -8   -0.02    0.05 
  -5   0   8    0.00    0.04 
  -5   0   8    0.01    0.06 
   5   0  -7   99.46    2.01 
  -5   0   7  101.58    2.03 
  -5   0   7   94.64    1.96 
   5   0  -6    0.02    0.05 
  -5   0   6    0.00    0.04 
  -5   0   6    0.00    0.04 
  -5   0   6    0.00    0.03 
   5   0  -5   10.74    0.39 
  -5   0   5   10.69    0.37 
  -5   0   5   10.08    0.40 
  -5   0   5   10.97    0.34 
   5   0  -5   10.68    0.38 
   5   0  -4    0.00    0.03 
  -5   0   4   -0.01    0.04 
  -5   0   4    0.01    0.04 
  -5   0   4    0.01    0.04 
   5   0  -4    0.01    0.04 
   5   0  -3   17.41    0.49 
  -5   0   3   18.09    0.47 
  -5   0   3   16.74    0.43 
  -5   0   3   18.34    0.51 
   5   0  -2    0.02    0.03 
   5   0  -2   -0.01    0.03 
  -5   0   2    0.01    0.02 
  -5   0   2    0.07    0.04 
   5   0  -1    0.24    0.06 
  -5   0   1    0.22    0.06 
   5   0  -1    0.32    0.07 
  -5   0   1    0.26    0.05 
  -5   0   1    0.23    0.06 
  -5   0   0    0.04    0.04 
   5   0   0    0.01    0.03 
  -5   0   0    0.01    0.03 
   5   0   1    2.36    0.17 
  -5   0  -1    2.47    0.17 
   5   0   1    2.66    0.17 
  -5   0  -1    2.60    0.16 
   5   0   2    0.02    0.04 
  -5   0  -2    0.02    0.04 
   5   0   2    0.00    0.03 
  -5   0  -2    0.00    0.03 
   5   0   3    0.61    0.10 
   5   0   3    0.60    0.09 
   5   0   3    0.66    0.09 
  -5   0  -3    0.52    0.08 
  -5   0  -3    0.62    0.10 
   5   0   4    0.04    0.05 
   5   0   4   -0.02    0.04 
   5   0   4   -0.01    0.05 
  -5   0  -4    0.02    0.03 
   5   0   5    6.80    0.31 
   5   0   5    6.73    0.30 
   5   0   5    7.36    0.30 
  -5   0  -5    6.70    0.30 
   5   0   6   -0.01    0.05 
   5   0   6    0.03    0.06 
  -5   0  -6    0.00    0.04 
   5   0   7  299.99    5.43 
   5   0   7  319.39    3.07 
   5   0   8    0.03    0.05 
   5   0   8    0.00    0.06 
   5   0   9    0.01    0.05 
   5   0   9    0.00    0.07 
  -5  -1  12    0.21    0.09 
  -5   1  12    0.25    0.09 
  -5  -1  11    1.06    0.13 
  -5   1  11    1.29    0.14 
   5  -1 -10    0.62    0.10 
  -5   1  10    0.50    0.08 
  -5  -1  10    0.62    0.11 
  -5   1  10    0.46    0.09 
   5  -1  -9    6.79    0.32 
   5   1  -9    6.68    0.31 
  -5  -1   9    6.99    0.30 
  -5   1   9    6.67    0.27 
  -5  -1   9    5.71    0.29 
  -5   1   9    6.89    0.32 
   5  -1  -8   11.54    0.42 
   5   1  -8   10.31    0.39 
  -5  -1   8   10.98    0.38 
  -5   1   8   10.71    0.42 
  -5  -1   8   10.73    0.38 
  -5   1   8   10.81    0.35 
  -5   1   8   10.87    0.40 
   5  -1  -7   64.11    1.40 
   5   1  -7   63.79    1.38 
  -5  -1   7   64.53    1.36 
  -5   1   7   59.16    1.35 
  -5  -1   7   61.22    1.63 
  -5   1   7   67.16    1.39 
  -5   1   7   67.47    1.45 
   5  -1  -6   31.94    0.75 
   5   1  -6   31.19    0.72 
  -5  -1   6   31.42    0.69 
  -5   1   6   29.71    0.75 
  -5  -1   6   31.29    0.77 
  -5   1   6   32.40    0.71 
  -5  -1   6   30.72    0.71 
  -5   1   6   32.60    0.76 
   5  -1  -5   21.89    0.55 
   5   1  -5   22.26    0.55 
  -5   1   5   22.48    0.53 
  -5  -1   5   21.79    0.51 
  -5   1   5   21.23    0.58 
  -5   1   5   22.62    0.58 
  -5  -1   5   22.70    0.57 
  -5   1   5   19.54    0.83 
   5   1  -5   21.50    0.53 
   5  -1  -4    0.27    0.07 
   5   1  -4    0.23    0.06 
  -5   1   4    0.25    0.07 
  -5  -1   4    0.30    0.07 
  -5   1   4    0.22    0.06 
  -5  -1   4    0.29    0.07 
   5   1  -4    0.28    0.07 
   5  -1  -3   45.38    1.01 
   5   1  -3   46.16    1.01 
  -5  -1   3   45.50    0.96 
   5  -1  -3   46.66    1.10 
  -5   1   3   44.85    1.01 
  -5  -1   3   47.64    1.06 
   5   1  -3   43.77    1.00 
   5  -1  -2   60.66    1.00 
  -5   1   2   63.14    0.95 
   5   1  -2   58.24    0.92 
  -5  -1   2   58.61    0.89 
   5  -1  -2   59.64    1.06 
  -5   1   2   59.42    0.91 
   5   1  -2   59.32    0.91 
  -5  -1   2   58.51    0.99 
  -5   1   2   58.03    1.00 
   5   1  -2   58.68    0.95 
  -5   1   1   17.69    0.47 
   5   1  -1   18.39    0.48 
  -5   1   1   19.58    0.46 
   5   1  -1   19.69    0.46 
  -5  -1   1   17.96    0.47 
  -5  -1   1   18.80    0.52 
   5  -1   0   32.41    0.68 
  -5   1   0   32.79    0.63 
   5   1   0   32.53    0.65 
  -5  -1   0   33.53    0.64 
   5  -1   0   33.44    0.70 
  -5   1   0   31.29    0.59 
   5   1   0   32.83    0.99 
  -5  -1   0   33.79    0.65 
  -5  -1   0   33.01    0.70 
   5  -1   1  126.63    2.23 
  -5   1  -1  112.84    1.99 
   5  -1   1  116.59    2.08 
  -5   1  -1  115.96    1.98 
   5   1   1  126.64    2.14 
  -5  -1  -1  116.28    2.03 
   5   1   2    0.02    0.04 
   5  -1   2    0.03    0.04 
  -5   1  -2    0.06    0.04 
   5  -1   2    0.01    0.04 
   5   1   2    0.22    0.06 
  -5   1  -2    0.08    0.04 
  -5  -1  -2    0.02    0.04 
   5   1   3   15.45    0.45 
   5  -1   3   15.51    0.44 
   5   1   3   15.45    0.43 
  -5   1  -3   15.79    0.42 
   5  -1   3   16.25    0.44 
   5   1   3   15.50    0.40 
  -5   1  -3   15.72    0.39 
  -5  -1  -3   16.10    0.42 
  -5  -1  -3   16.38    0.46 
   5  -1   4    3.01    0.19 
   5  -1   4    2.87    0.19 
   5   1   4    2.74    0.18 
   5  -1   4    3.01    0.18 
   5   1   4    2.98    0.17 
  -5   1  -4    2.95    0.19 
  -5  -1  -4    2.94    0.19 
   5  -1   5   14.60    0.48 
   5  -1   5   15.33    0.49 
   5   1   5   14.37    0.47 
   5  -1   5   15.16    0.47 
   5   1   5   14.03    0.43 
  -5  -1  -5   14.66    0.48 
   5  -1   6    9.86    0.37 
   5  -1   6   10.13    0.37 
   5   1   6    9.81    0.36 
   5  -1   6    9.71    0.35 
   5   1   6    9.85    0.33 
  -5  -1  -6    9.96    0.37 
   5  -1   7    1.42    0.13 
   5   1   7    1.38    0.14 
   5  -1   7    1.39    0.13 
   5   1   7    1.41    0.13 
   5  -1   8    0.04    0.05 
   5   1   8    0.06    0.06 
   5  -1   8    0.12    0.07 
   5   1   8    0.05    0.06 
   5   1   9   11.83    0.48 
   5   1   9   12.21    0.45 
   5  -2 -11    0.00    0.06 
  -5   2  11    0.03    0.05 
  -5   2  11    0.02    0.07 
   5  -2 -10    0.01    0.06 
  -5   2  10    0.04    0.05 
  -5   2  10    0.08    0.07 
   5  -2  -9   21.19    0.55 
  -5   2   9   21.09    0.48 
  -5  -2   9   18.37    0.50 
  -5   2   9   21.11    0.54 
   5  -2  -8   16.11    0.48 
   5   2  -8   16.24    0.47 
  -5  -2   8   15.58    0.42 
  -5   2   8   16.23    0.50 
  -5  -2   8   15.78    0.51 
  -5   2   8   15.38    0.42 
  -5  -2   8   15.84    0.46 
  -5   2   8   15.90    0.47 
   5  -2  -7    0.04    0.05 
   5   2  -7    0.00    0.04 
  -5  -2   7    0.03    0.04 
  -5   2   7    0.00    0.04 
  -5  -2   7    0.00    0.04 
  -5   2   7    0.01    0.04 
  -5  -2   7    0.04    0.05 
   5  -2  -6    0.75    0.11 
   5   2  -6    0.74    0.10 
  -5  -2   6    0.75    0.10 
  -5   2   6    0.79    0.11 
  -5   2   6    0.67    0.10 
  -5  -2   6    0.74    0.10 
  -5   2   6    0.80    0.11 
   5  -2  -5    4.03    0.24 
   5   2  -5    3.63    0.22 
  -5  -2   5    3.97    0.21 
  -5   2   5    3.74    0.24 
  -5  -2   5    3.77    0.22 
   5   2  -5    3.86    0.22 
  -5   2   5    4.08    0.24 
   5  -2  -4    0.62    0.10 
   5   2  -4    0.50    0.09 
  -5  -2   4    0.56    0.08 
  -5   2   4    0.50    0.09 
  -5  -2   4    0.57    0.09 
   5   2  -4    0.61    0.10 
  -5   2   4    0.51    0.09 
   5  -2  -3    2.92    0.20 
  -5   2   3    2.84    0.19 
   5   2  -3    2.99    0.19 
  -5  -2   3    2.92    0.18 
   5  -2  -3    2.87    0.22 
  -5   2   3    2.94    0.20 
   5   2  -3    2.87    0.20 
   5   2  -3    2.89    0.17 
  -5  -2   3    3.04    0.20 
   5   2  -3    2.71    0.19 
  -5   2   3    2.75    0.20 
  -5   2   2    7.06    0.30 
   5   2  -2    7.49    0.32 
  -5  -2   2    7.51    0.30 
   5   2  -2    7.09    0.34 
   5  -2  -2    7.24    0.36 
  -5   2   2    7.61    0.33 
   5   2  -2    7.65    0.29 
  -5  -2   2    7.49    0.33 
   5   2  -2    7.34    0.32 
   5   2  -1   12.75    0.43 
   5  -2  -1   12.20    0.43 
  -5   2   1   12.17    0.41 
   5   2  -1   12.24    0.42 
   5  -2  -1   12.81    0.48 
  -5   2   1   12.31    0.42 
   5   2  -1   12.51    0.39 
  -5  -2   1   12.38    0.44 
   5   2  -1   12.20    0.43 
   5   2   0  244.64    3.94 
   5  -2   0  250.48    4.19 
  -5   2   0  245.08    4.03 
   5   2   0  250.18    4.02 
   5  -2   0  232.89    3.97 
  -5   2   0  250.55    4.02 
   5   2   0  239.08    4.02 
  -5  -2   0  237.55    4.11 
   5   2   1   24.14    0.59 
   5  -2   1   24.66    0.61 
  -5   2  -1   24.23    0.58 
   5   2   1   25.08    0.60 
   5  -2   1   24.93    0.64 
  -5   2  -1   25.51    0.56 
   5   2   1   24.20    0.54 
  -5  -2  -1   22.68    0.58 
  -5  -2  -1   24.52    0.75 
   5  -2   2    2.93    0.19 
  -5   2  -2    2.66    0.17 
   5  -2   2    2.66    0.19 
  -5   2  -2    2.67    0.16 
   5   2   2    2.78    0.17 
  -5  -2  -2    2.71    0.18 
   5  -2   3    0.09    0.05 
  -5   2  -3    0.14    0.05 
   5   2   3    0.19    0.07 
   5  -2   3    0.06    0.05 
   5   2   3    0.10    0.05 
  -5  -2  -3    0.12    0.05 
   5  -2   4    1.45    0.14 
   5   2   4    1.26    0.13 
   5  -2   4    1.37    0.14 
   5   2   4    1.35    0.12 
   5  -2   5    0.77    0.10 
   5  -2   5    0.78    0.11 
   5   2   5    0.76    0.11 
   5  -2   5    0.81    0.11 
   5   2   5    0.80    0.10 
  -5  -2  -5    0.78    0.10 
   5  -2   6    4.67    0.24 
   5  -2   6    4.69    0.24 
   5   2   6    4.76    0.24 
   5  -2   6    4.59    0.24 
   5   2   6    4.85    0.22 
   5  -2   7   23.45    0.57 
   5   2   7   23.20    0.53 
   5  -2   7   24.64    0.56 
   5   2   7   22.43    0.49 
   5   2   8    3.97    0.21 
   5   2   8    4.00    0.20 
   5   2   9    0.33    0.08 
   5   2   9    0.33    0.09 
   5  -3 -11   -0.06    0.07 
  -5   3  11    0.02    0.05 
  -5  -3  11    0.16    0.08 
  -5   3  11    0.09    0.08 
   5  -3 -10   24.34    0.57 
  -5   3  10   22.80    0.52 
  -5  -3  10   22.33    0.54 
  -5   3  10   22.31    0.54 
   5  -3  -9   14.22    0.43 
  -5   3   9   14.23    0.39 
  -5  -3   9   13.59    0.41 
  -5   3   9   13.91    0.42 
   5  -3  -8    0.00    0.07 
  -5  -3   8    0.00    0.04 
  -5   3   8    0.02    0.05 
  -5  -3   8   -0.02    0.06 
  -5   3   8   -0.02    0.06 
   5  -3  -7    9.41    0.37 
   5   3  -7    9.15    0.35 
  -5  -3   7    9.24    0.34 
  -5  -3   7    8.78    0.39 
  -5   3   7    9.46    0.36 
  -5  -3   7    9.18    0.36 
  -5   3   7    9.19    0.37 
   5  -3  -6    0.63    0.10 
   5   3  -6    0.65    0.10 
  -5  -3   6    0.64    0.09 
  -5  -3   6    0.70    0.11 
  -5   3   6    0.52    0.10 
   5   3  -5    2.02    0.16 
   5  -3  -5    2.15    0.18 
   5   3  -5    2.15    0.17 
  -5   3   5    2.11    0.18 
  -5  -3   5    2.15    0.17 
  -5   3   5    2.13    0.18 
   5   3  -4    1.04    0.12 
   5  -3  -4    1.02    0.12 
   5   3  -4    1.04    0.12 
  -5   3   4    1.03    0.13 
   5   3  -4    1.01    0.11 
   5   3  -4    1.01    0.12 
  -5  -3   4    1.02    0.12 
   5   3  -4    1.02    0.12 
  -5   3   4    1.02    0.13 
   5   3  -3   16.78    0.46 
   5   3  -3   16.63    0.45 
   5  -3  -3   14.72    0.50 
   5   3  -3   16.17    0.49 
  -5   3   3   16.05    0.48 
   5   3  -3   16.39    0.45 
  -5  -3   3   17.39    0.49 
   5   3  -3   16.70    0.47 
  -5   3   3   16.58    0.49 
   5   3  -2    8.72    0.33 
   5  -3  -2    8.79    0.36 
   5   3  -2    8.93    0.32 
   5  -3  -2    9.17    0.39 
   5   3  -2    8.70    0.37 
  -5   3   2    8.89    0.35 
   5   3  -2    9.37    0.33 
  -5  -3   2    8.89    0.34 
   5   3  -2    9.13    0.34 
   5   3  -1    0.60    0.09 
   5  -3  -1    0.64    0.10 
  -5   3   1    0.63    0.09 
   5   3  -1    0.61    0.10 
   5  -3  -1    0.60    0.11 
  -5   3   1    0.64    0.10 
   5   3  -1    0.66    0.09 
  -5  -3   1    0.58    0.09 
   5   3  -1    0.61    0.09 
   5  -3   0   12.92    0.42 
  -5   3   0   13.28    0.40 
   5   3   0   12.68    0.40 
   5  -3   0   14.26    0.48 
  -5   3   0   13.31    0.39 
   5   3   0   13.24    0.38 
   5  -3   1   44.01    0.91 
  -5   3  -1   47.27    0.90 
   5   3   1   47.60    0.94 
   5  -3   1   42.64    1.26 
   5   3   1   46.46    0.87 
   5  -3   2    4.44    0.24 
  -5   3  -2    4.45    0.22 
   5   3   2    4.75    0.24 
   5  -3   2    4.35    0.25 
   5   3   2    4.47    0.21 
   5  -3   3    0.04    0.05 
  -5   3  -3    0.02    0.04 
   5  -3   3   -0.02    0.05 
   5   3   3    0.02    0.04 
   5  -3   4    0.07    0.05 
   5   3   4    0.12    0.06 
   5  -3   4    0.10    0.06 
   5   3   4    0.11    0.05 
   5  -3   5    8.47    0.33 
   5  -3   5    8.18    0.32 
   5   3   5    8.38    0.32 
   5  -3   5    7.80    0.33 
   5   3   5    7.74    0.28 
   5  -3   6   10.22    0.39 
   5   3   6    9.74    0.37 
   5  -3   6   10.14    0.40 
   5   3   6    9.65    0.34 
   5   3   7    1.88    0.15 
   5   3   7    1.99    0.15 
   5   3   8   16.60    0.44 
   5   3   8   17.11    0.42 
   5   3   9    0.79    0.11 
   5  -3   9    0.75    0.11 
   5   3   9    0.70    0.10 
   5  -4 -10   -0.03    0.08 
  -5   4  10   -0.02    0.05 
  -5  -4  10    0.06    0.08 
  -5   4  10    0.05    0.07 
   5  -4  -9    1.52    0.16 
  -5   4   9    1.41    0.13 
  -5  -4   9    1.40    0.15 
  -5   4   9    1.45    0.15 
   5  -4  -8   32.24    0.65 
  -5   4   8   32.75    0.63 
  -5  -4   8   32.34    0.64 
  -5   4   8   31.24    0.65 
   5  -4  -7    6.10    0.31 
  -5  -4   7    6.34    0.33 
  -5   4   7    6.39    0.31 
  -5  -4   7    6.48    0.31 
  -5   4   7    6.25    0.31 
   5  -4  -6    2.31    0.18 
   5   4  -6    2.12    0.16 
  -5  -4   6    2.28    0.18 
  -5   4   6    2.08    0.18 
   5  -4  -5   26.74    0.70 
   5   4  -5   26.52    0.67 
  -5  -4   5   26.86    0.69 
  -5   4   5   27.60    0.71 
   5   4  -4    3.88    0.22 
   5   4  -4    4.25    0.23 
  -5  -4   4    4.10    0.24 
   5   4  -4    4.17    0.23 
  -5   4   4    3.93    0.24 
   5   4  -3    2.29    0.17 
   5  -4  -3    2.50    0.19 
   5   4  -3    2.43    0.17 
  -5  -4   3    2.51    0.19 
   5   4  -3    2.24    0.17 
   5  -4  -2    6.54    0.30 
   5   4  -2    6.33    0.27 
   5  -4  -2    6.20    0.32 
   5   4  -2    6.08    0.30 
   5   4  -2    6.40    0.28 
  -5  -4   2    6.32    0.29 
   5   4  -2    6.25    0.28 
   5  -4  -1  167.23    1.75 
   5   4  -1  171.09    3.21 
   5   4  -1  164.86    1.90 
   5  -4  -1  178.93    3.40 
   5   4  -1  168.56    3.10 
   5  -4   0    7.30    0.32 
   5   4   0    7.43    0.30 
   5  -4   0    8.42    0.37 
   5   4   0    7.85    0.30 
   5  -4   1    4.85    0.26 
  -5   4  -1    4.85    0.25 
   5   4   1    4.73    0.25 
   5  -4   1    5.17    0.30 
   5   4   1    4.77    0.25 
   5  -4   2    3.74    0.23 
  -5   4  -2    3.55    0.21 
   5   4   2    3.79    0.22 
   5  -4   2    3.82    0.25 
   5   4   2    3.92    0.21 
  -5  -4  -3   17.65    0.53 
   5  -4   3   17.17    0.52 
   5  -4   3   17.89    0.57 
   5   4   3   16.85    0.47 
  -5  -4  -4    1.35    0.15 
   5  -4   4    1.43    0.14 
   5  -4   4    1.52    0.16 
   5   4   4    1.36    0.12 
  -5  -4  -5    0.47    0.10 
   5  -4   5    0.42    0.08 
   5  -4   5    0.42    0.10 
   5   4   5    0.38    0.08 
  -5  -4  -6    7.86    0.32 
   5  -4   6    7.57    0.33 
   5   4   6    7.30    0.27 
  -5  -4  -7   16.14    0.45 
   5   4   7   16.74    0.41 
  -5  -4  -8   11.96    0.38 
   5  -4   8   11.95    0.40 
   5   4   8   12.59    0.34 
   5  -5  -9    3.92    0.23 
  -5   5   9    3.80    0.21 
  -5  -5   9    3.94    0.23 
  -5   5   9    3.68    0.22 
   5  -5  -8    0.17    0.09 
  -5   5   8    0.18    0.07 
  -5  -5   8    0.12    0.07 
  -5   5   8    0.18    0.08 
   5  -5  -7   17.67    0.48 
  -5   5   7   16.48    0.46 
  -5  -5   7   17.48    0.48 
  -5   5   7   17.34    0.48 
   5  -5  -6    0.81    0.12 
  -5  -5   6    1.00    0.13 
  -5   5   6    0.96    0.13 
   5   5  -5    2.03    0.16 
  -5  -5   5    2.36    0.18 
  -5   5   5    2.09    0.18 
   5  -5  -4    5.89    0.29 
   5   5  -4    5.81    0.26 
  -5   5   4    5.60    0.28 
   5  -5  -3   69.90    1.38 
   5   5  -3   72.56    1.33 
   5  -5  -2   21.28    0.60 
   5   5  -2   20.66    0.55 
   5  -5  -2   20.03    0.63 
   5   5  -2   20.28    0.58 
   5  -5  -1   58.33    1.18 
   5   5  -1   57.81    1.16 
   5  -5  -1   59.38    1.26 
   5   5  -1   56.65    1.16 
   5  -5   0    3.50    0.22 
   5   5   0    3.50    0.21 
   5  -5   0    3.63    0.25 
   5   5   0    3.88    0.22 
   5  -5   1  188.75    3.05 
   5   5   1  190.43    2.97 
   5  -5   1  199.34    2.37 
   5   5   1  195.68    2.26 
  -5  -5  -2    3.70    0.22 
   5  -5   2    3.32    0.21 
   5  -5   2    4.03    0.26 
   5   5   2    3.97    0.22 
   5  -5   3    4.94    0.27 
   5  -5   3    5.04    0.29 
   5   5   3    5.33    0.26 
  -5  -5  -4    0.03    0.07 
   5  -5   4    0.02    0.05 
   5  -5   4    0.00    0.07 
   5   5   4    0.02    0.05 
  -5  -5  -5    7.11    0.31 
   5  -5   5    5.89    0.30 
   5   5   5    6.27    0.25 
  -5  -5  -6    0.73    0.12 
   5   5   6    0.68    0.10 
  -5  -5  -7    0.16    0.09 
   5   5   7    0.12    0.06 
   5  -6  -8    2.41    0.19 
  -5   6   8    2.65    0.19 
  -5   6   8    2.73    0.20 
   5  -6  -7    1.04    0.14 
  -5   6   7    1.00    0.13 
  -5   6   7    1.06    0.13 
  -5   6   6    0.53    0.11 
   5  -6  -5   19.02    0.50 
  -5   6   5   18.52    0.49 
   5  -6  -4   15.04    0.44 
  -5   6   4   15.73    0.46 
   5  -6  -3    2.75    0.20 
   5   6  -3    2.85    0.18 
   5  -6  -2    0.55    0.11 
   5   6  -2    0.55    0.09 
   5  -6  -2    0.63    0.12 
   5  -6  -1  104.52    1.44 
   5   6  -1   96.24    1.26 
   5  -6  -1   95.75    1.40 
   5   6  -1  103.33    1.40 
   5  -6   0    5.78    0.28 
   5   6   0    5.18    0.25 
   5  -6   0    5.03    0.29 
   5   6   0    5.35    0.26 
   5  -6   1    1.99    0.17 
   5   6   1    2.11    0.16 
   5  -6   1    2.24    0.20 
   5   6   1    2.03    0.16 
  -5  -6  -2    2.61    0.20 
   5  -6   2    2.77    0.19 
   5  -6   2    2.75    0.22 
   5   6   2    2.75    0.18 
  -5  -6  -3    1.63    0.16 
   5  -6   3    1.49    0.15 
   5  -6   3    1.50    0.17 
   5   6   3    1.68    0.15 
   5  -6   4    9.66    0.39 
   5   6   4    9.31    0.31 
  -5  -6  -5    7.15    0.35 
   5   6   5    6.67    0.31 
  -5  -6  -6   -0.05    0.08 
   5   6   6    0.00    0.06 
   5  -7  -6    4.37    0.25 
  -5   7   6    4.55    0.25 
   5  -7  -5    0.31    0.09 
  -5   7   5    0.31    0.09 
   5  -7  -4    0.53    0.10 
  -5   7   4    0.50    0.10 
   5  -7  -3    4.73    0.28 
   5  -7  -2   12.80    0.41 
   5   7  -2   12.81    0.38 
   5  -7  -1    2.24    0.18 
   5   7  -1    2.31    0.17 
   5  -7  -1    2.40    0.20 
   5   7  -1    2.21    0.17 
   5  -7   0    7.51    0.32 
   5   7   0    7.50    0.29 
   5  -7   0    7.95    0.36 
   5   7   0    7.47    0.30 
   5  -7   1    7.28    0.36 
   5   7   1    7.27    0.34 
   5  -7   1    6.54    0.37 
   5   7   1    7.72    0.35 
  -5  -7  -2    2.20    0.19 
   5  -7   2    2.35    0.22 
   5   7   2    2.47    0.18 
  -5  -7  -3   -0.05    0.08 
   5  -7   3    0.03    0.07 
   5   7   3    0.01    0.06 
  -5  -7  -4    0.11    0.08 
   5   7   4    0.05    0.07 
  -6   0  11    0.07    0.08 
   6   0 -10    0.21    0.07 
  -6   0  10    0.22    0.08 
   6   0  -9   -0.03    0.06 
  -6   0   9    0.08    0.07 
   6   0  -8  236.62    4.36 
  -6   0   8  225.36    3.00 
   6   0  -7    0.02    0.05 
  -6   0   7   -0.02    0.03 
   6   0  -6   52.91    1.20 
  -6   0   6   52.94    1.11 
  -6   0   6   50.71    1.17 
   6   0  -5   -0.02    0.04 
  -6   0   5    0.00    0.04 
   6   0  -4   55.29    1.29 
  -6   0   4   55.14    0.82 
  -6   0   4   57.99    0.97 
   6   0  -3    0.01    0.04 
  -6   0   3    0.01    0.04 
   6   0  -3    0.00    0.03 
  -6   0   3   -0.01    0.02 
  -6   0   3    0.02    0.04 
   6   0  -2   23.10    0.59 
   6   0  -2   21.96    0.61 
  -6   0   2   22.55    0.51 
  -6   0   2   21.88    0.59 
  -6   0   1    0.02    0.04 
   6   0  -1    0.00    0.03 
  -6   0   1    0.00    0.03 
  -6   0   1    0.00    0.03 
  -6   0   0    0.84    0.10 
   6   0   0    0.74    0.10 
  -6   0   0    0.75    0.09 
   6   0   1   -0.02    0.05 
  -6   0  -1    0.05    0.05 
   6   0   1   -0.01    0.04 
  -6   0  -1    0.03    0.03 
   6   0   2   17.88    0.47 
  -6   0  -2   17.53    0.45 
   6   0   2   17.42    0.44 
  -6   0  -2   16.89    0.41 
   6   0   3    0.01    0.04 
   6   0   3   -0.02    0.03 
  -6   0  -3   -0.01    0.04 
   6   0   4    0.44    0.09 
   6   0   4    0.42    0.08 
  -6   0  -4    0.38    0.08 
   6   0   5   -0.01    0.05 
   6   0   5    0.00    0.05 
  -6   0  -5    0.03    0.04 
   6   0   6   -0.01    0.05 
   6   0   6   -0.04    0.06 
   6   0   7    0.05    0.06 
   6   0   7    0.01    0.06 
   6   0   8    3.91    0.21 
   6   0   8    3.76    0.20 
   6   0   9    0.07    0.06 
  -6  -1  11    2.04    0.18 
  -6   1  11    1.96    0.17 
   6  -1 -10    0.02    0.06 
  -6   1  10   -0.02    0.06 
   6  -1  -9    3.77    0.23 
   6   1  -9    3.66    0.22 
  -6   1   9    3.72    0.19 
  -6   1   9    3.81    0.23 
   6  -1  -8    9.98    0.37 
   6   1  -8    9.58    0.35 
  -6   1   8    9.66    0.31 
  -6  -1   8    9.81    0.36 
  -6   1   8    9.89    0.37 
   6  -1  -7    0.74    0.11 
   6   1  -7    0.76    0.11 
  -6   1   7    0.64    0.10 
  -6   1   7    0.84    0.10 
  -6  -1   7    0.79    0.11 
  -6   1   7    0.79    0.12 
   6  -1  -6   20.93    0.62 
   6   1  -6   18.77    0.60 
  -6   1   6   19.96    0.63 
  -6   1   6   20.46    0.61 
  -6  -1   6   21.04    0.63 
   6  -1  -5    9.79    0.36 
   6   1  -5    8.69    0.34 
  -6   1   5    9.10    0.35 
  -6   1   5    8.91    0.34 
  -6  -1   5    9.65    0.36 
   6  -1  -4    0.98    0.12 
   6   1  -4    0.89    0.11 
  -6  -1   4    0.95    0.11 
  -6   1   4    0.95    0.11 
  -6  -1   4    0.86    0.11 
  -6   1   4    0.84    0.11 
   6   1  -4    0.88    0.11 
   6  -1  -3   27.04    0.61 
   6   1  -3   27.61    0.62 
  -6  -1   3   27.88    0.57 
   6  -1  -3   27.79    0.69 
  -6   1   3   25.88    0.64 
  -6  -1   3   27.16    0.63 
  -6   1   3   27.21    0.64 
   6   1  -3   26.92    0.61 
   6  -1  -2   62.27    1.11 
   6   1  -2   59.98    1.05 
  -6   1   2   60.21    1.04 
   6  -1  -2   59.48    1.13 
   6   1  -2   61.38    1.06 
  -6   1   2   55.40    0.94 
  -6  -1   2   57.90    1.02 
  -6  -1   2   56.78    1.10 
  -6   1   2   58.42    1.08 
   6   1  -1    2.38    0.17 
  -6   1   1    2.53    0.17 
  -6  -1   1    1.98    0.15 
   6  -1  -1    2.29    0.19 
   6   1  -1    2.39    0.16 
  -6   1   1    2.49    0.16 
  -6  -1   1    2.50    0.17 
  -6  -1   1    2.42    0.18 
   6  -1   0   25.16    0.62 
   6   1   0   25.85    0.61 
  -6   1   0   25.17    0.58 
  -6  -1   0   26.15    0.59 
   6  -1   0   27.68    0.67 
   6   1   0   25.49    0.57 
  -6   1   0   26.81    0.56 
  -6  -1   0   25.35    0.59 
  -6  -1   0   25.42    0.65 
   6  -1   1   62.64    0.98 
  -6   1  -1   64.35    0.95 
   6  -1   1   60.59    0.96 
   6   1   1   65.79    0.93 
  -6   1  -1   63.73    0.92 
  -6  -1  -1   64.49    0.94 
  -6  -1  -1   62.71    1.01 
   6  -1   2   24.93    0.65 
   6   1   2   24.17    0.59 
  -6   1  -2   25.08    0.59 
   6  -1   2   25.23    0.61 
   6   1   2   25.92    0.58 
  -6   1  -2   26.03    0.56 
  -6  -1  -2   25.63    0.59 
   6  -1   3    3.95    0.22 
   6   1   3    4.00    0.22 
  -6   1  -3    3.94    0.21 
   6  -1   3    3.91    0.21 
   6   1   3    3.98    0.20 
  -6  -1  -3    3.71    0.21 
   6  -1   4   79.53    1.63 
   6  -1   4   78.00    1.78 
   6   1   4   81.70    1.68 
   6  -1   4   79.75    1.61 
   6   1   4   80.42    1.60 
  -6   1  -4   76.57    1.59 
  -6  -1  -4   79.46    1.67 
   6  -1   5    8.72    0.37 
   6   1   5    9.68    0.36 
   6  -1   5    9.76    0.36 
   6   1   5    9.53    0.33 
  -6  -1  -5    9.68    0.36 
   6  -1   6    2.77    0.19 
   6   1   6    2.89    0.19 
   6  -1   6    2.71    0.18 
   6   1   6    2.49    0.17 
   6  -1   7    0.23    0.07 
   6   1   7    0.26    0.08 
   6  -1   7    0.20    0.07 
   6   1   7    0.26    0.07 
   6   1   8    7.88    0.29 
   6  -1   8    7.71    0.29 
   6   1   8    8.00    0.28 
   6   1   9    5.18    0.24 
   6  -1   9    5.06    0.24 
   6   1   9    5.42    0.23 
   6  -2 -11    2.93    0.20 
  -6  -2  11    2.54    0.19 
  -6   2  11    2.67    0.19 
   6  -2 -10    0.70    0.12 
  -6  -2  10    0.66    0.11 
  -6   2  10    0.53    0.10 
   6  -2  -9   11.07    0.38 
  -6   2   9   10.82    0.33 
  -6  -2   9   11.06    0.37 
  -6   2   9   10.69    0.37 
   6  -2  -8    6.71    0.32 
   6   2  -8    6.74    0.31 
  -6   2   8    6.47    0.28 
  -6  -2   8    6.26    0.30 
  -6   2   8    6.47    0.31 
   6  -2  -7    1.88    0.17 
   6   2  -7    1.83    0.16 
  -6   2   7    1.71    0.16 
  -6   2   7    1.84    0.15 
  -6  -2   7    1.72    0.15 
  -6   2   7    1.78    0.16 
   6  -2  -6    0.18    0.07 
   6   2  -6    0.27    0.07 
  -6   2   6    0.22    0.07 
  -6   2   6    0.20    0.06 
  -6  -2   6    0.21    0.07 
  -6   2   6    0.24    0.08 
   6  -2  -5    0.41    0.09 
   6   2  -5    0.35    0.07 
  -6  -2   5    0.39    0.07 
  -6   2   5    0.34    0.08 
  -6  -2   5    0.38    0.08 
  -6   2   5    0.42    0.09 
   6  -2  -4    1.02    0.12 
   6   2  -4    1.01    0.12 
  -6  -2   4    1.20    0.12 
  -6   2   4    0.92    0.12 
  -6  -2   4    1.00    0.12 
   6   2  -4    1.09    0.12 
   6  -2  -3    3.13    0.21 
   6   2  -3    3.16    0.20 
  -6  -2   3    2.87    0.18 
   6  -2  -3    3.13    0.23 
  -6   2   3    2.74    0.19 
  -6  -2   3    3.05    0.20 
   6   2  -3    3.02    0.20 
   6   2  -2   22.08    0.57 
   6  -2  -2   20.85    0.59 
  -6   2   2   21.32    0.51 
   6   2  -2   22.36    0.48 
  -6  -2   2   21.79    0.56 
   6   2  -2   21.76    0.54 
   6  -2  -1   75.03    1.21 
   6   2  -1   72.89    1.04 
   6  -2  -1   79.63    1.22 
  -6   2   1   75.44    1.03 
   6   2  -1   75.73    1.00 
  -6  -2   1   78.24    1.17 
   6  -2   0    0.62    0.10 
  -6   2   0    0.73    0.10 
   6   2   0    0.69    0.10 
   6  -2   0    0.62    0.10 
  -6   2   0    0.68    0.09 
   6   2   0    0.59    0.08 
  -6  -2   0    0.70    0.10 
  -6  -2   0    0.69    0.10 
   6  -2   1   18.77    0.53 
  -6   2  -1   17.50    0.47 
   6   2   1   18.80    0.51 
   6  -2   1   18.61    0.55 
  -6   2  -1   17.98    0.46 
   6   2   1   18.85    0.48 
  -6  -2  -1   17.67    0.50 
  -6  -2  -1   18.08    0.56 
   6  -2   2    2.67    0.19 
  -6   2  -2    2.91    0.18 
   6  -2   2    3.00    0.20 
   6   2   2    2.66    0.16 
  -6  -2  -2    2.75    0.18 
  -6  -2  -2    2.94    0.20 
   6  -2   3   26.66    0.73 
   6   2   3   26.86    0.71 
  -6   2  -3   27.00    0.69 
   6  -2   3   26.37    0.72 
   6   2   3   26.55    0.67 
  -6  -2  -3   25.04    0.69 
  -6  -2  -3   28.05    0.76 
   6  -2   4    3.81    0.22 
   6   2   4    3.45    0.21 
   6  -2   4    3.70    0.23 
   6   2   4    3.82    0.20 
   6  -2   5    0.30    0.07 
   6  -2   5    0.32    0.07 
   6   2   5    0.29    0.08 
   6  -2   5    0.30    0.08 
   6   2   5    0.28    0.07 
   6  -2   6   10.79    0.37 
   6   2   6   10.18    0.35 
   6  -2   6    9.91    0.35 
   6   2   6   10.31    0.32 
   6  -2   7    0.30    0.08 
   6   2   7    0.31    0.08 
   6  -2   7    0.26    0.08 
   6   2   7    0.31    0.07 
   6   2   8    1.01    0.12 
   6  -2   8    0.95    0.12 
   6   2   8    0.98    0.11 
   6   2   9    7.07    0.28 
   6  -2   9    7.04    0.29 
   6   2   9    7.40    0.27 
   6  -3 -11    0.29    0.09 
  -6  -3  11    0.35    0.09 
  -6   3  11    0.36    0.10 
   6  -3 -10    1.49    0.16 
  -6   3  10    1.46    0.13 
  -6  -3  10    1.46    0.15 
  -6   3  10    1.57    0.16 
   6  -3  -9    0.28    0.09 
  -6   3   9    0.32    0.08 
  -6  -3   9    0.35    0.09 
  -6   3   9    0.30    0.08 
   6  -3  -8   14.47    0.45 
  -6   3   8   13.38    0.40 
  -6  -3   8   13.79    0.44 
  -6   3   8   13.89    0.44 
   6  -3  -7   47.37    1.15 
   6   3  -7   49.22    1.19 
  -6   3   7   52.63    1.21 
  -6  -3   7   50.28    1.19 
  -6   3   7   52.61    1.21 
   6  -3  -6    0.20    0.07 
   6   3  -6    0.13    0.06 
  -6  -3   6    0.18    0.07 
  -6   3   6    0.14    0.07 
   6  -3  -5    0.67    0.11 
   6   3  -5    0.71    0.10 
  -6   3   5    0.68    0.10 
  -6  -3   5    0.71    0.10 
  -6   3   5    0.66    0.11 
   6  -3  -4    3.19    0.22 
   6   3  -4    3.14    0.21 
  -6   3   4    2.99    0.21 
  -6  -3   4    3.44    0.22 
   6   3  -4    3.32    0.21 
  -6   3   4    3.12    0.22 
   6   3  -3   10.45    0.35 
   6  -3  -3   10.71    0.42 
  -6   3   3    9.28    0.35 
   6   3  -3   10.10    0.32 
  -6  -3   3   10.26    0.37 
   6   3  -3    9.47    0.35 
  -6   3   3   10.03    0.38 
   6  -3  -2    8.65    0.34 
   6   3  -2    8.68    0.32 
   6   3  -2    8.32    0.36 
   6  -3  -2    8.59    0.37 
  -6   3   2    8.60    0.32 
   6   3  -2    8.52    0.29 
  -6  -3   2    8.81    0.34 
   6   3  -2    8.32    0.33 
   6  -3  -1    5.31    0.26 
   6   3  -1    5.01    0.24 
   6  -3  -1    4.79    0.28 
   6   3  -1    4.98    0.22 
  -6  -3   1    4.98    0.25 
   6  -3   0    0.02    0.05 
   6   3   0    0.02    0.05 
   6  -3   0    0.02    0.05 
   6   3   0    0.03    0.04 
  -6  -3   0    0.02    0.04 
   6  -3   1   17.51    0.55 
   6   3   1   16.27    0.51 
   6  -3   1   15.98    0.55 
   6   3   1   16.94    0.49 
   6  -3   2    1.45    0.14 
  -6   3  -2    1.23    0.12 
   6   3   2    1.63    0.15 
   6  -3   2    1.54    0.16 
   6   3   2    1.37    0.12 
   6  -3   3    0.21    0.06 
   6  -3   3    0.29    0.09 
   6   3   3    0.34    0.07 
   6  -3   4    9.65    0.37 
   6   3   4   10.52    0.36 
   6  -3   4    9.93    0.37 
   6   3   4    9.30    0.30 
   6  -3   5    2.97    0.20 
   6   3   5    2.99    0.20 
   6  -3   5    3.13    0.22 
   6   3   5    3.13    0.19 
   6  -3   6    0.96    0.11 
   6   3   6    0.80    0.11 
   6  -3   6    0.96    0.13 
   6   3   6    0.87    0.11 
   6   3   7    3.99    0.22 
   6  -3   7    3.86    0.23 
   6   3   7    3.37    0.19 
   6   3   8    3.13    0.19 
   6  -3   8    3.23    0.21 
   6   3   8    3.24    0.18 
   6  -4 -10    0.12    0.08 
  -6   4  10    0.02    0.05 
  -6  -4  10    0.14    0.08 
  -6   4  10    0.08    0.08 
   6  -4  -9    8.43    0.39 
  -6   4   9    7.80    0.36 
  -6  -4   9    8.60    0.39 
  -6   4   9    8.23    0.38 
   6  -4  -8    7.45    0.31 
  -6   4   8    7.42    0.30 
  -6  -4   8    7.30    0.31 
  -6   4   8    7.68    0.32 
   6  -4  -7    2.09    0.18 
  -6   4   7    1.89    0.16 
  -6  -4   7    1.98    0.16 
  -6   4   7    1.87    0.17 
   6  -4  -6    6.80    0.32 
   6   4  -6    6.44    0.30 
  -6  -4   6    6.50    0.31 
  -6   4   6    6.52    0.32 
   6  -4  -5    9.94    0.37 
   6   4  -5    9.90    0.35 
  -6  -4   5   10.08    0.37 
  -6   4   5   10.26    0.39 
   6   4  -4   27.15    0.67 
  -6  -4   4   27.58    0.70 
  -6   4   4   26.89    0.70 
   6  -4  -3    0.39    0.09 
   6   4  -3    0.32    0.07 
   6  -4  -3    0.37    0.09 
   6   4  -3    0.33    0.07 
  -6  -4   3    0.30    0.07 
   6  -4  -2   19.42    0.57 
   6   4  -2   19.64    0.55 
   6  -4  -2   21.45    0.66 
   6   4  -2   19.19    0.54 
  -6  -4   2   18.84    0.57 
   6  -4  -1   10.36    0.40 
   6   4  -1   10.39    0.38 
   6  -4  -1   10.44    0.43 
   6   4  -1   10.09    0.36 
   6  -4   0    2.65    0.19 
   6   4   0    2.94    0.19 
   6  -4   0    2.86    0.22 
   6   4   0    2.81    0.18 
   6  -4   1    1.63    0.15 
   6   4   1    1.63    0.15 
   6  -4   1    1.70    0.17 
   6   4   1    1.68    0.14 
   6  -4   2   31.76    0.79 
   6   4   2   31.61    0.74 
   6  -4   2   35.12    0.88 
   6   4   2   32.20    0.71 
   6  -4   3    4.79    0.25 
   6   4   3    5.02    0.24 
   6  -4   3    4.84    0.27 
   6   4   3    4.85    0.22 
   6  -4   4    6.42    0.29 
   6  -4   4    6.24    0.31 
   6   4   4    5.99    0.25 
   6   4   5    1.07    0.13 
   6  -4   5    1.16    0.15 
   6   4   5    1.07    0.11 
   6   4   6    0.54    0.10 
   6  -4   6    0.48    0.10 
   6   4   6    0.49    0.08 
   6   4   7    1.05    0.13 
   6  -4   7    0.87    0.14 
   6   4   7    0.85    0.10 
   6  -5  -9    0.86    0.13 
  -6   5   9    0.91    0.11 
  -6  -5   9    0.81    0.12 
  -6   5   9    0.87    0.12 
   6  -5  -8   14.89    0.57 
  -6   5   8   15.34    0.57 
  -6  -5   8   14.26    0.55 
  -6   5   8   13.46    0.53 
   6  -5  -7    0.05    0.07 
  -6  -5   7    0.12    0.07 
  -6   5   7    0.03    0.07 
   6  -5  -6    0.95    0.13 
  -6  -5   6    1.17    0.13 
  -6   5   6    1.09    0.14 
   6   5  -5    0.21    0.06 
  -6  -5   5    0.34    0.08 
  -6   5   5    0.38    0.09 
   6  -5  -4   10.75    0.42 
   6   5  -4   10.56    0.39 
  -6  -5   4    9.78    0.39 
  -6   5   4   10.15    0.41 
   6  -5  -3    2.53    0.20 
   6   5  -3    2.33    0.17 
   6  -5  -2   24.28    0.69 
   6   5  -2   24.30    0.66 
   6  -5  -2   25.73    0.77 
   6   5  -2   23.94    0.66 
   6  -5  -1    8.70    0.37 
   6   5  -1    8.85    0.35 
   6  -5  -1    9.79    0.43 
   6   5  -1    8.94    0.35 
   6  -5   0   80.64    1.72 
   6   5   0   76.90    1.69 
   6  -5   0   77.11    1.72 
   6   5   0   80.78    1.66 
   6  -5   1   10.49    0.41 
   6   5   1   10.62    0.39 
   6  -5   1   10.21    0.44 
   6   5   1   10.58    0.38 
   6  -5   2   42.97    0.81 
   6   5   2   44.16    0.77 
   6  -5   2   40.14    0.84 
   6   5   2   45.40    0.75 
   6  -5   3    7.75    0.32 
   6   5   3    7.82    0.30 
   6  -5   3    7.80    0.35 
   6   5   3    7.35    0.27 
   6   5   4   40.00    0.68 
   6  -5   4   39.96    0.77 
   6   5   4   38.83    0.63 
   6  -5   5    0.67    0.12 
   6   5   5    0.84    0.11 
   6   5   6    0.10    0.08 
   6  -5   6    0.09    0.09 
   6   5   6    0.05    0.06 
  -6   6   7    2.84    0.20 
   6  -6  -6    0.11    0.08 
  -6   6   6    0.05    0.06 
   6  -6  -5    0.22    0.08 
  -6   6   5    0.30    0.09 
   6  -6  -4    8.01    0.33 
  -6   6   4    7.88    0.33 
   6  -6  -3    0.41    0.09 
   6   6  -3    0.49    0.09 
   6  -6  -2    6.60    0.29 
   6   6  -2    6.48    0.27 
   6  -6  -2    7.20    0.34 
   6  -6  -1    4.18    0.24 
   6   6  -1    4.18    0.22 
   6  -6  -1    4.48    0.27 
   6  -6   0    2.99    0.20 
   6   6   0    2.89    0.19 
   6  -6   0    2.77    0.22 
   6   6   0    3.04    0.19 
   6  -6   1    8.70    0.34 
   6   6   1    8.61    0.31 
   6  -6   1    8.50    0.37 
   6   6   1    8.50    0.30 
   6  -6   2   25.28    0.58 
   6   6   2   25.06    0.54 
   6  -6   2   22.97    0.61 
   6   6   2   23.51    0.50 
   6   6   3   20.85    0.50 
   6  -6   3   20.63    0.57 
   6   6   3   20.78    0.47 
   6   6   4    0.25    0.09 
   6  -6   4    0.24    0.09 
   6   6   4    0.23    0.07 
   6   6   5    0.43    0.10 
   6  -6   5    0.33    0.11 
   6   6   5    0.25    0.08 
   6  -7  -5    1.52    0.16 
  -6   7   5    1.45    0.15 
   6  -7  -4    5.55    0.27 
  -6   7   4    5.14    0.26 
   6  -7  -3    2.72    0.20 
   6  -7  -2    1.26    0.14 
   6   7  -2    1.31    0.13 
   6  -7  -1    0.07    0.07 
   6   7  -1    0.07    0.07 
   6  -7  -1    0.13    0.08 
   6  -7   0    1.21    0.14 
   6   7   0    1.17    0.13 
   6  -7   0    1.09    0.15 
   6  -7   1    9.79    0.35 
   6   7   1   10.27    0.34 
   6  -7   1   10.12    0.40 
   6   7   1   10.18    0.33 
   6   7   2    0.95    0.12 
   6  -7   2    0.94    0.15 
   6   7   2    0.91    0.11 
   6   7   3    3.67    0.21 
   6  -7   3    4.03    0.26 
   6   7   3    3.64    0.20 
  -7   0  11    8.94    0.34 
   7   0 -10    0.01    0.06 
   7   0  -9    3.09    0.20 
   7   0  -8   -0.01    0.05 
  -7   0   8    0.05    0.07 
   7   0  -7   90.54    1.33 
  -7   0   7   95.73    1.33 
   7   0  -6   -0.02    0.05 
  -7   0   6   -0.01    0.05 
   7   0  -5  216.78    3.52 
  -7   0   5  215.73    3.94 
   7   0  -4   -0.01    0.05 
  -7   0   4    0.00    0.05 
   7   0  -3    3.29    0.21 
   7   0  -3    3.49    0.24 
  -7   0   3    3.35    0.18 
  -7   0   3    3.20    0.21 
   7   0  -2   -0.01    0.04 
   7   0  -2    0.00    0.04 
  -7   0   2    0.00    0.03 
  -7   0   2    0.03    0.05 
   7   0  -1   20.42    0.55 
   7   0  -1   21.97    0.58 
  -7   0   1   22.08    0.51 
  -7   0   1   22.47    0.61 
   7   0   0   -0.02    0.03 
  -7   0   0   -0.01    0.03 
  -7   0   0    0.00    0.04 
   7   0   1    0.21    0.07 
   7   0   1    0.22    0.06 
  -7   0  -1    0.23    0.06 
   7   0   2    0.01    0.05 
   7   0   2    0.05    0.04 
   7   0   3    0.04    0.06 
   7   0   3    0.07    0.05 
  -7   0  -3    0.01    0.04 
   7   0   4    0.00    0.05 
   7   0   4   -0.01    0.05 
  -7   0  -4    0.00    0.04 
   7   0   5    4.70    0.25 
   7   0   5    4.88    0.24 
   7   0   6   -0.01    0.05 
   7   0   6    0.05    0.06 
   7   0   7    1.27    0.13 
   7   0   7    1.34    0.13 
   7   0   8    0.01    0.05 
   7   0   8    0.09    0.07 
   7  -1 -11   17.42    0.47 
  -7   1  11   17.77    0.47 
   7  -1 -10    0.09    0.07 
  -7  -1  10    0.09    0.08 
  -7   1  10    0.12    0.08 
   7  -1  -9    2.45    0.19 
   7   1  -9    2.66    0.19 
  -7  -1   9    2.72    0.19 
  -7   1   9    2.73    0.20 
   7  -1  -8    0.95    0.12 
   7   1  -8    1.16    0.13 
  -7  -1   8    1.03    0.12 
   7  -1  -7    0.69    0.11 
   7   1  -7    0.71    0.10 
  -7   1   7    0.70    0.09 
  -7  -1   7    0.71    0.11 
   7  -1  -6   18.06    0.54 
   7   1  -6   18.03    0.53 
  -7   1   6   16.74    0.50 
  -7   1   6   17.33    0.54 
  -7  -1   6   18.04    0.54 
  -7   1   6   16.99    0.53 
   7  -1  -5   80.38    1.69 
   7   1  -5   81.95    1.69 
  -7   1   5   78.64    1.60 
  -7  -1   5   76.35    1.68 
  -7   1   5   80.76    1.70 
   7  -1  -4   11.34    0.39 
   7   1  -4   11.41    0.38 
  -7   1   4   11.55    0.35 
  -7  -1   4   11.59    0.39 
  -7   1   4   11.67    0.41 
   7  -1  -3    0.01    0.05 
   7   1  -3    0.02    0.05 
   7  -1  -3    0.02    0.05 
   7   1  -3    0.01    0.04 
  -7   1   3    0.01    0.03 
  -7  -1   3    0.03    0.05 
  -7   1   3    0.01    0.04 
   7  -1  -2    1.15    0.13 
   7   1  -2    1.09    0.12 
   7  -1  -2    1.12    0.14 
   7   1  -2    1.14    0.12 
  -7   1   2    1.08    0.10 
  -7  -1   2    1.08    0.12 
  -7  -1   2    1.09    0.13 
  -7   1   2    1.20    0.13 
   7   1  -1   63.04    1.15 
   7  -1  -1   62.93    1.18 
   7   1  -1   60.24    1.07 
  -7   1   1   59.23    1.00 
  -7  -1   1   60.60    1.05 
  -7  -1   1   61.85    1.16 
   7  -1   0    0.40    0.09 
   7   1   0    0.30    0.07 
   7  -1   0    0.27    0.07 
   7   1   0    0.28    0.06 
  -7   1   0    0.32    0.06 
  -7  -1   0    0.27    0.06 
  -7  -1   0    0.35    0.08 
   7  -1   1   17.45    0.47 
   7  -1   1   16.36    0.46 
   7   1   1   16.69    0.41 
  -7   1  -1   16.05    0.38 
  -7  -1  -1   17.84    0.44 
  -7  -1  -1   16.97    0.49 
   7  -1   2    8.50    0.35 
   7   1   2    8.33    0.34 
   7  -1   2    8.10    0.34 
   7   1   2    7.47    0.30 
   7  -1   3    0.05    0.05 
   7  -1   3    0.02    0.05 
   7   1   3    0.04    0.05 
  -7  -1  -3   -0.01    0.04 
   7  -1   4    5.71    0.27 
   7   1   4    5.75    0.26 
   7  -1   4    5.90    0.27 
   7   1   4    5.79    0.24 
   7  -1   5   13.63    0.47 
   7   1   5   12.92    0.44 
   7  -1   5   13.62    0.45 
   7   1   5   12.74    0.41 
   7  -1   6    0.00    0.05 
   7   1   6    0.03    0.06 
   7  -1   6   -0.03    0.06 
   7   1   6    0.01    0.05 
   7  -1   7    0.03    0.06 
   7   1   7    0.04    0.06 
   7  -1   7    0.04    0.06 
   7   1   7    0.04    0.06 
   7   1   8    6.52    0.27 
   7  -1   8    6.11    0.26 
   7   1   8    6.69    0.26 
   7  -2 -11    3.11    0.21 
  -7  -2  11    3.14    0.21 
  -7   2  11    3.16    0.20 
   7  -2 -10    0.72    0.11 
  -7  -2  10    0.77    0.12 
  -7   2  10    0.91    0.13 
   7  -2  -9    4.18    0.24 
  -7  -2   9    3.95    0.23 
  -7   2   9    4.54    0.25 
   7  -2  -8    0.24    0.09 
   7   2  -8    0.29    0.07 
  -7   2   8    0.26    0.06 
  -7  -2   8    0.20    0.07 
  -7   2   8    0.23    0.09 
   7  -2  -7   26.60    0.74 
   7   2  -7   25.61    0.70 
  -7   2   7   24.71    1.09 
  -7  -2   7   26.23    0.72 
  -7   2   7   25.34    0.72 
   7  -2  -6   37.52    0.86 
   7   2  -6   36.07    0.83 
  -7   2   6   35.49    0.84 
  -7  -2   6   35.81    0.83 
   7  -2  -5    1.17    0.13 
   7   2  -5    1.22    0.13 
  -7   2   5    1.27    0.13 
  -7  -2   5    1.29    0.14 
   7  -2  -4    0.98    0.12 
   7   2  -4    0.91    0.11 
  -7   2   4    0.92    0.11 
  -7  -2   4    0.91    0.11 
  -7   2   4    0.90    0.12 
   7   2  -4    0.95    0.12 
   7  -2  -3    2.13    0.17 
   7   2  -3    2.39    0.18 
   7  -2  -3    2.56    0.21 
  -7   2   3    2.45    0.17 
  -7  -2   3    2.47    0.18 
  -7   2   3    2.44    0.19 
   7   2  -3    2.33    0.18 
   7   2  -2    6.76    0.29 
   7  -2  -2    5.89    0.31 
  -7   2   2    6.07    0.25 
   7   2  -2    6.22    0.25 
  -7  -2   2    6.08    0.28 
  -7   2   2    6.35    0.30 
   7  -2  -1    3.51    0.21 
   7   2  -1    3.54    0.21 
   7  -2  -1    3.58    0.24 
  -7   2   1    3.55    0.19 
   7   2  -1    3.63    0.19 
  -7  -2   1    3.73    0.22 
   7  -2   0    0.10    0.06 
   7   2   0    0.10    0.06 
   7  -2   0    0.13    0.07 
   7   2   0    0.06    0.05 
  -7  -2   0    0.08    0.05 
  -7  -2   0    0.10    0.05 
   7  -2   1    3.59    0.22 
   7   2   1    3.84    0.22 
   7  -2   1    3.97    0.25 
   7   2   1    4.05    0.21 
  -7  -2  -1    3.98    0.23 
  -7  -2  -1    3.87    0.23 
   7  -2   2   93.01    1.72 
   7  -2   2   93.92    1.76 
   7   2   2   93.51    1.65 
  -7  -2  -2   96.10    1.79 
   7  -2   3    4.22    0.24 
   7   2   3    4.08    0.23 
   7  -2   3    4.25    0.24 
   7   2   3    4.55    0.22 
  -7  -2  -3    4.03    0.22 
  -7  -2  -3    4.25    0.24 
   7  -2   4    5.37    0.28 
   7   2   4    5.58    0.27 
   7  -2   4    5.53    0.28 
   7   2   4    5.12    0.24 
   7  -2   5    5.19    0.26 
   7   2   5    5.08    0.25 
   7  -2   5    5.21    0.26 
   7   2   5    5.32    0.23 
   7  -2   6    0.07    0.06 
   7   2   6    0.06    0.07 
   7  -2   6    0.12    0.08 
   7   2   6    0.10    0.07 
   7   2   7    0.02    0.06 
   7  -2   7    0.07    0.07 
   7   2   7    0.01    0.05 
   7   2   8    0.12    0.07 
   7  -2   8    0.08    0.07 
   7   2   8    0.09    0.07 
   7  -3 -10    0.08    0.07 
  -7  -3  10    0.02    0.08 
  -7   3  10    0.09    0.07 
   7  -3  -9    7.94    0.32 
  -7  -3   9    8.21    0.32 
  -7   3   9    8.36    0.33 
   7  -3  -8    6.10    0.29 
  -7   3   8    6.57    0.28 
  -7  -3   8    6.45    0.29 
  -7   3   8    6.19    0.29 
   7  -3  -7   27.18    0.63 
   7   3  -7   25.77    0.59 
  -7   3   7   26.47    0.63 
  -7  -3   7   26.73    0.61 
  -7   3   7   26.08    0.62 
   7  -3  -6    0.03    0.06 
   7   3  -6   -0.01    0.04 
  -7  -3   6    0.00    0.06 
  -7   3   6    0.10    0.07 
   7  -3  -5    0.00    0.06 
   7   3  -5    0.04    0.05 
  -7   3   5    0.07    0.05 
  -7  -3   5    0.08    0.05 
  -7   3   5    0.02    0.06 
   7   3  -4   20.84    0.57 
  -7   3   4   20.79    0.57 
  -7  -3   4   20.87    0.58 
   7   3  -3    0.28    0.07 
   7  -3  -3    0.25    0.08 
  -7  -3   3    0.27    0.07 
   7  -3  -2    1.69    0.16 
   7   3  -2    1.62    0.15 
   7  -3  -2    1.64    0.17 
   7   3  -2    1.57    0.13 
  -7  -3   2    1.54    0.14 
   7  -3  -1   10.41    0.40 
   7   3  -1   10.63    0.38 
   7  -3  -1   11.43    0.45 
   7   3  -1   10.51    0.34 
  -7  -3   1   10.16    0.40 
   7  -3   0    0.73    0.11 
   7   3   0    0.63    0.10 
   7  -3   0    0.71    0.11 
   7   3   0    0.66    0.08 
  -7  -3   0    0.72    0.10 
   7  -3   1    0.03    0.05 
   7   3   1    0.07    0.05 
   7  -3   1    0.02    0.06 
   7   3   1    0.04    0.04 
   7  -3   2   10.46    0.39 
   7   3   2   10.66    0.38 
   7  -3   2   10.77    0.42 
   7   3   2   10.48    0.34 
   7  -3   3    5.29    0.27 
   7  -3   3    4.65    0.27 
   7   3   3    5.18    0.24 
   7  -3   4    0.31    0.08 
   7   3   4    0.23    0.08 
   7  -3   4    0.29    0.09 
   7   3   4    0.34    0.07 
   7  -3   5    0.86    0.11 
   7   3   5    0.82    0.11 
   7  -3   5    0.92    0.13 
   7   3   5    0.87    0.10 
   7   3   6    0.10    0.07 
   7  -3   6   -0.02    0.07 
   7   3   6    0.09    0.07 
   7   3   7    4.68    0.23 
   7  -3   7    4.88    0.26 
   7   3   7    4.53    0.21 
   7  -4  -9   -0.01    0.07 
  -7   4   9   -0.03    0.06 
  -7  -4   9    0.03    0.08 
  -7   4   9   -0.03    0.07 
   7  -4  -8    0.37    0.11 
  -7   4   8    0.36    0.08 
  -7  -4   8    0.34    0.09 
  -7   4   8    0.23    0.08 
   7  -4  -7    2.13    0.18 
  -7  -4   7    2.17    0.17 
  -7   4   7    2.04    0.17 
   7  -4  -6   37.34    0.70 
   7   4  -6   36.46    0.68 
  -7  -4   6   37.60    0.69 
  -7   4   6   38.75    0.73 
   7   4  -5    5.63    0.28 
  -7  -4   5    5.76    0.29 
  -7   4   5    5.62    0.30 
   7  -4  -4    4.57    0.26 
   7   4  -4    5.03    0.26 
  -7  -4   4    4.41    0.26 
  -7   4   4    5.10    0.28 
   7  -4  -3    0.01    0.06 
   7   4  -3   -0.03    0.05 
   7  -4  -3   -0.02    0.05 
  -7  -4   3    0.01    0.04 
   7  -4  -2    0.05    0.06 
   7   4  -2    0.05    0.06 
   7  -4  -2    0.03    0.07 
  -7  -4   2    0.04    0.05 
   7  -4  -1   19.33    0.52 
   7   4  -1   19.87    0.50 
   7  -4  -1   19.57    0.57 
   7   4  -1   20.28    0.47 
   7  -4   0    5.00    0.26 
   7   4   0    5.03    0.24 
   7  -4   0    5.33    0.29 
   7   4   0    5.47    0.23 
   7  -4   1   37.66    0.94 
   7   4   1   41.48    0.98 
   7  -4   1   39.81    1.03 
   7   4   1   41.75    0.94 
   7  -4   2    8.75    0.36 
   7   4   2    8.66    0.34 
   7  -4   2    9.55    0.41 
   7   4   2    8.75    0.32 
   7  -4   3    0.08    0.06 
   7   4   3    0.11    0.07 
   7  -4   3    0.03    0.08 
   7   4   3    0.07    0.05 
   7  -4   4    0.02    0.05 
   7  -4   4    0.02    0.07 
   7   4   4    0.00    0.05 
   7   4   5    2.49    0.18 
   7  -4   5    2.41    0.19 
   7   4   5    2.50    0.16 
   7   4   6    2.50    0.18 
   7  -4   6    2.74    0.21 
   7   4   6    2.50    0.16 
   7  -5  -8    1.40    0.15 
  -7   5   8    1.33    0.14 
  -7  -5   8    1.46    0.15 
  -7   5   8    1.43    0.15 
   7  -5  -7    8.01    0.38 
  -7  -5   7    8.13    0.38 
  -7   5   7    8.30    0.39 
  -7  -5   6    0.02    0.06 
  -7   5   6    0.04    0.07 
   7  -5  -5   -0.02    0.07 
   7   5  -5   -0.02    0.05 
  -7  -5   5    0.00    0.05 
  -7   5   5    0.03    0.06 
   7  -5  -4    1.83    0.16 
   7   5  -4    1.93    0.15 
  -7  -5   4    1.70    0.15 
  -7   5   4    1.76    0.16 
   7  -5  -3    1.57    0.16 
   7   5  -3    1.64    0.14 
   7  -5  -3    1.79    0.18 
   7  -5  -2    0.98    0.13 
   7   5  -2    1.00    0.12 
   7  -5  -2    0.88    0.14 
   7  -5  -1   13.32    0.43 
   7   5  -1   13.00    0.39 
   7  -5  -1   12.49    0.45 
   7  -5   0   11.08    0.39 
   7   5   0   10.56    0.35 
   7  -5   0   10.42    0.41 
   7   5   0   10.67    0.34 
   7  -5   1   33.01    0.67 
   7   5   1   31.98    0.60 
   7  -5   1   33.57    0.72 
   7   5   1   32.66    0.57 
   7  -5   2    0.49    0.10 
   7   5   2    0.43    0.10 
   7  -5   2    0.47    0.11 
   7   5   2    0.39    0.08 
   7  -5   3   90.32    1.11 
   7   5   3   90.12    1.03 
   7  -5   3   85.76    1.23 
   7   5   3   87.60    1.09 
   7   5   4    3.99    0.24 
   7  -5   4    4.50    0.29 
   7   5   4    4.03    0.22 
   7  -5   5   11.24    0.41 
   7   5   5   11.73    0.33 
   7  -6  -6    5.92    0.28 
  -7   6   6    6.01    0.28 
   7  -6  -5    4.99    0.29 
  -7   6   5    4.79    0.28 
   7  -6  -4    4.39    0.27 
  -7   6   4    4.41    0.27 
   7  -6  -3    2.10    0.18 
   7   6  -3    2.24    0.16 
   7  -6  -2   10.24    0.37 
   7   6  -2   10.43    0.34 
   7  -6  -2   10.27    0.40 
   7  -6  -1   11.37    0.38 
   7   6  -1   11.25    0.36 
   7  -6  -1   11.06    0.42 
   7  -6   0    0.00    0.06 
   7   6   0    0.00    0.06 
   7  -6   0    0.04    0.09 
   7  -6   1   26.91    0.97 
   7   6   1   31.49    0.97 
   7  -6   1   30.01    1.00 
   7  -6   2    0.95    0.12 
   7   6   2    0.98    0.12 
   7  -6   2    0.99    0.15 
   7   6   2    0.89    0.11 
   7   6   3    2.89    0.19 
   7  -6   3    2.59    0.21 
   7   6   3    2.94    0.17 
   7   6   4    7.25    0.29 
   7  -6   4    6.74    0.32 
   7   6   4    6.79    0.25 
   7  -7  -3    0.46    0.10 
   7  -7  -2    0.74    0.12 
   7   7  -2    0.84    0.11 
   7  -7  -1    4.56    0.24 
   7   7  -1    4.29    0.22 
   7  -7  -1    4.43    0.27 
   7  -7   0    5.27    0.26 
   7   7   0    6.10    0.26 
   7  -7   0    6.21    0.32 
   8   0 -10    0.82    0.12 
  -8   0  10    0.89    0.13 
   8   0  -9    0.02    0.06 
  -8   0   9    0.00    0.07 
   8   0  -8   32.93    0.64 
  -8   0   8   30.67    0.63 
   8   0  -7    0.04    0.06 
  -8   0   7    0.01    0.06 
   8   0  -6  125.11    1.61 
  -8   0   6  127.32    1.63 
   8   0  -5   -0.01    0.05 
  -8   0   5   -0.02    0.05 
   8   0  -4  119.15    2.12 
  -8   0   4  111.36    2.01 
   8   0  -3    0.06    0.06 
   8   0  -3    0.00    0.04 
  -8   0   3    0.00    0.03 
  -8   0   3    0.08    0.06 
   8   0  -2   72.38    1.52 
   8   0  -2   69.88    1.55 
  -8   0   2   66.61    1.44 
  -8   0   2   72.34    1.56 
   8   0  -1    0.02    0.04 
  -8   0   1    0.02    0.04 
  -8   0   1    0.01    0.04 
   8   0   0    9.68    0.38 
   8   0   0   11.61    0.41 
  -8   0   0   11.48    0.36 
  -8   0   0   10.97    0.42 
   8   0   1    0.01    0.05 
   8   0   1    0.05    0.05 
   8   0   2    1.14    0.13 
   8   0   2    1.15    0.12 
   8   0   3   -0.03    0.05 
   8   0   3    0.02    0.05 
  -8   0  -3    0.01    0.04 
   8   0   4    0.64    0.10 
   8   0   4    0.74    0.10 
   8   0   5    0.02    0.05 
   8   0   5    0.07    0.06 
   8   0   6   -0.02    0.05 
   8   0   6    0.01    0.07 
   8   0   7    0.01    0.05 
   8   0   7   -0.03    0.06 
   8  -1 -10    4.41    0.24 
  -8  -1  10    4.82    0.25 
   8  -1  -9    0.83    0.12 
   8   1  -9    0.77    0.11 
  -8  -1   9    0.91    0.13 
   8  -1  -8    3.66    0.22 
   8   1  -8    3.36    0.21 
  -8  -1   8    3.52    0.21 
  -8   1   8    3.34    0.22 
   8  -1  -7    2.52    0.19 
   8   1  -7    2.27    0.17 
  -8  -1   7    2.31    0.18 
  -8   1   7    2.51    0.19 
   8  -1  -6    4.71    0.25 
   8   1  -6    4.76    0.25 
  -8   1   6    4.70    0.23 
  -8  -1   6    4.51    0.25 
  -8   1   6    4.80    0.26 
   8  -1  -5    0.02    0.06 
   8   1  -5    0.00    0.06 
  -8   1   5    0.01    0.03 
  -8  -1   5    0.01    0.06 
  -8   1   5    0.06    0.06 
   8  -1  -4   13.92    0.46 
   8   1  -4   13.48    0.45 
  -8   1   4   13.69    0.40 
  -8  -1   4   13.49    0.46 
  -8   1   4   14.09    0.48 
   8  -1  -3   22.59    0.62 
   8   1  -3   22.25    0.62 
   8  -1  -3   22.83    0.68 
  -8   1   3   22.53    0.55 
  -8  -1   3   23.32    0.65 
  -8   1   3   23.07    0.65 
   8   1  -2   49.61    1.06 
   8  -1  -2   50.69    1.14 
   8   1  -2   47.29    1.07 
  -8   1   2   48.08    0.96 
  -8  -1   2   49.15    1.02 
  -8  -1   2   48.03    1.05 
  -8   1   2   47.21    1.05 
   8  -1  -1   21.79    0.61 
   8   1  -1   22.79    0.62 
   8  -1  -1   23.16    0.67 
   8   1  -1   24.61    0.63 
  -8   1   1   24.14    0.57 
  -8  -1   1   23.52    0.61 
  -8  -1   1   23.90    0.66 
  -8   1   1   23.93    0.66 
   8  -1   0   26.37    0.69 
   8  -1   0   25.30    0.69 
   8   1   0   24.75    0.62 
  -8   1   0   26.16    0.61 
  -8  -1   0   24.23    0.61 
  -8  -1   0   24.56    0.68 
   8  -1   1    0.30    0.08 
   8  -1   1    0.22    0.07 
   8   1   1    0.25    0.06 
  -8  -1  -1    0.28    0.07 
   8  -1   2    0.41    0.09 
   8   1   2    0.35    0.08 
   8  -1   2    0.47    0.09 
   8   1   2    0.37    0.07 
  -8  -1  -2    0.33    0.08 
   8  -1   3   12.90    0.45 
   8   1   3   13.41    0.46 
   8  -1   3   12.82    0.45 
   8   1   3   13.15    0.42 
   8  -1   4    8.31    0.33 
   8   1   4    8.87    0.32 
   8  -1   4    8.23    0.32 
   8   1   4    8.48    0.29 
   8  -1   5    3.50    0.21 
   8   1   5    3.63    0.21 
   8  -1   5    3.73    0.21 
   8   1   5    3.55    0.19 
   8  -1   6   27.01    0.75 
   8   1   6   29.81    0.59 
   8  -1   6   30.08    0.60 
   8   1   6   30.45    0.56 
   8  -1   7    0.83    0.11 
   8   1   7    0.88    0.12 
   8  -1   7    0.97    0.12 
   8   1   7    0.95    0.11 
   8  -2 -10    1.43    0.15 
  -8  -2  10    1.49    0.15 
  -8   2  10    1.21    0.15 
   8  -2  -9    5.26    0.29 
  -8  -2   9    5.00    0.28 
  -8   2   9    4.96    0.29 
   8  -2  -8   13.93    0.43 
   8   2  -8   14.42    0.42 
  -8  -2   8   14.78    0.43 
  -8   2   8   12.48    0.40 
   8  -2  -7    0.42    0.09 
   8   2  -7    0.40    0.08 
  -8   2   7    0.35    0.08 
  -8  -2   7    0.32    0.09 
   8  -2  -6    1.03    0.13 
   8   2  -6    1.18    0.13 
  -8  -2   6    1.18    0.13 
   8  -2  -5    1.79    0.16 
   8   2  -5    1.83    0.16 
  -8  -2   5    1.87    0.16 
  -8   2   5    1.89    0.17 
   8  -2  -4   14.85    0.48 
   8   2  -4   14.71    0.47 
  -8   2   4   14.39    0.43 
  -8  -2   4   14.72    0.48 
  -8   2   4   14.99    0.49 
   8   2  -3    9.06    0.35 
   8  -2  -3    8.58    0.38 
  -8   2   3    8.52    0.31 
  -8  -2   3    8.93    0.36 
  -8   2   3    8.94    0.37 
   8  -2  -2    0.07    0.06 
   8   2  -2    0.09    0.06 
   8  -2  -2    0.07    0.06 
  -8   2   2    0.04    0.04 
  -8  -2   2    0.06    0.05 
  -8   2   2    0.03    0.05 
   8  -2  -1    0.25    0.08 
   8   2  -1    0.18    0.06 
   8  -2  -1    0.13    0.06 
   8   2  -1    0.20    0.06 
  -8  -2   1    0.22    0.06 
   8  -2   0   11.51    0.41 
   8   2   0   10.97    0.39 
   8  -2   0   10.98    0.43 
   8   2   0   10.92    0.36 
  -8  -2   0   10.66    0.39 
  -8  -2   0   10.12    0.38 
   8  -2   1    2.15    0.17 
   8  -2   1    2.06    0.18 
   8   2   1    2.09    0.15 
  -8  -2  -1    2.09    0.17 
   8  -2   2    0.14    0.06 
   8  -2   2    0.15    0.07 
   8   2   2    0.18    0.06 
  -8  -2  -2    0.16    0.06 
   8  -2   3    1.99    0.17 
   8   2   3    1.87    0.16 
   8  -2   3    1.99    0.17 
   8   2   3    1.97    0.15 
   8  -2   4    7.53    0.31 
   8   2   4    6.94    0.28 
   8  -2   4    6.82    0.30 
   8   2   4    7.03    0.26 
   8  -2   5   27.92    0.58 
   8   2   5   28.99    0.58 
   8  -2   5   28.77    0.60 
   8   2   5   28.81    0.53 
   8  -2   6    2.65    0.19 
   8   2   6    2.58    0.19 
   8  -2   6    2.67    0.20 
   8   2   6    2.82    0.18 
   8   2   7    0.21    0.08 
   8  -2   7    0.13    0.08 
   8   2   7    0.16    0.07 
   8  -3  -9    2.83    0.20 
  -8  -3   9    2.94    0.20 
  -8   3   9    2.88    0.20 
   8  -3  -8    1.16    0.14 
  -8  -3   8    1.10    0.13 
  -8   3   8    1.13    0.14 
   8  -3  -7    0.15    0.08 
   8   3  -7    0.14    0.07 
  -8   3   7    0.09    0.06 
  -8  -3   7    0.12    0.07 
  -8   3   7    0.10    0.08 
   8  -3  -6    2.42    0.19 
   8   3  -6    2.46    0.18 
  -8  -3   6    2.21    0.17 
  -8   3   6    2.30    0.19 
   8  -3  -5   40.27    0.99 
   8   3  -5   40.17    0.97 
  -8  -3   5   39.80    0.97 
   8   3  -4    9.90    0.38 
  -8  -3   4   11.25    0.42 
   8  -3  -3    0.00    0.05 
   8   3  -3    0.00    0.05 
   8  -3  -3    0.01    0.05 
  -8  -3   3    0.02    0.05 
  -8   3   3    0.02    0.06 
   8  -3  -2   13.19    0.42 
   8   3  -2   14.37    0.42 
   8  -3  -2   13.89    0.48 
  -8  -3   2   13.42    0.47 
   8  -3  -1    0.25    0.08 
   8   3  -1    0.24    0.07 
   8  -3  -1    0.17    0.08 
  -8  -3   1    0.22    0.06 
   8  -3   0    2.24    0.17 
   8   3   0    2.03    0.16 
   8  -3   0    1.85    0.18 
   8   3   0    2.22    0.15 
  -8  -3   0    1.82    0.15 
   8  -3   1    0.14    0.07 
   8   3   1    0.10    0.07 
   8  -3   1    0.08    0.07 
   8   3   1    0.08    0.05 
   8  -3   2    1.60    0.15 
   8  -3   2    1.64    0.16 
   8   3   2    1.74    0.13 
   8  -3   3    3.63    0.22 
   8  -3   3    3.53    0.23 
   8   3   3    3.73    0.19 
   8  -3   4    1.19    0.13 
   8   3   4    1.37    0.14 
   8  -3   4    1.51    0.16 
   8   3   4    1.44    0.12 
   8  -3   5    2.67    0.20 
   8   3   5    2.80    0.19 
   8  -3   5    2.48    0.20 
   8   3   5    3.02    0.19 
   8   3   6   14.66    0.40 
   8  -3   6   15.63    0.45 
   8   3   6   15.47    0.38 
   8  -4  -9    0.40    0.10 
  -8  -4   9    0.45    0.10 
  -8   4   9    0.36    0.10 
   8  -4  -8    3.28    0.21 
  -8  -4   8    3.40    0.21 
  -8   4   8    3.24    0.21 
   8  -4  -7    0.06    0.07 
  -8  -4   7    0.07    0.06 
  -8   4   7   -0.02    0.06 
   8  -4  -6    5.26    0.27 
   8   4  -6    4.97    0.25 
  -8  -4   6    5.01    0.25 
  -8   4   6    4.96    0.26 
   8   4  -5    0.26    0.08 
  -8  -4   5    0.24    0.08 
  -8   4   5    0.16    0.09 
   8  -4  -4    1.08    0.13 
   8   4  -4    1.23    0.13 
  -8  -4   4    1.22    0.13 
  -8   4   4    1.13    0.14 
   8  -4  -3   24.70    0.60 
   8   4  -3   25.46    0.58 
   8  -4  -3   25.49    0.65 
  -8  -4   3   21.56    0.66 
   8  -4  -2   11.88    0.40 
   8   4  -2   12.06    0.38 
   8  -4  -2   12.07    0.44 
   8  -4  -1    0.48    0.09 
   8   4  -1    0.47    0.09 
   8  -4  -1    0.58    0.11 
   8  -4   0   22.23    0.56 
   8   4   0   23.25    0.53 
   8  -4   0   22.74    0.61 
   8  -4   1    3.92    0.23 
   8   4   1    3.91    0.22 
   8  -4   1    3.78    0.25 
   8   4   1    3.82    0.19 
   8  -4   2    0.24    0.08 
   8   4   2    0.20    0.08 
   8  -4   2    0.22    0.09 
   8   4   2    0.26    0.07 
   8  -4   3    3.57    0.21 
   8  -4   3    4.04    0.25 
   8   4   3    3.84    0.19 
   8  -4   4   60.87    0.87 
   8   4   4   56.28    1.60 
   8  -4   4   60.04    0.95 
   8   4   4   61.95    0.77 
   8   4   5    4.98    0.24 
   8  -4   5    5.83    0.29 
   8   4   5    4.79    0.21 
   8  -5  -7    1.83    0.17 
  -8  -5   7    1.85    0.16 
  -8   5   7    1.96    0.18 
  -8  -5   6    4.13    0.26 
  -8   5   6    4.48    0.27 
   8  -5  -5    1.34    0.15 
   8   5  -5    1.53    0.14 
  -8  -5   5    1.56    0.15 
  -8   5   5    1.63    0.16 
   8  -5  -4    0.57    0.10 
   8   5  -4    0.65    0.10 
  -8   5   4    0.67    0.12 
   8  -5  -3    0.51    0.11 
   8   5  -3    0.45    0.09 
   8  -5  -3    0.34    0.10 
   8  -5  -2   20.51    0.51 
   8   5  -2   20.63    0.48 
   8  -5  -2   19.87    0.56 
   8  -5  -1    0.28    0.09 
   8   5  -1    0.31    0.08 
   8  -5  -1    0.25    0.09 
   8  -5   0    3.87    0.23 
   8   5   0    4.12    0.22 
   8  -5   0    4.10    0.26 
   8  -5   1    6.02    0.28 
   8   5   1    5.76    0.26 
   8  -5   1    6.03    0.31 
   8  -5   2   28.50    0.92 
   8   5   2   28.08    0.89 
   8  -5   2   28.07    0.95 
   8  -5   3    7.33    0.30 
   8   5   3    7.25    0.29 
   8  -5   3    7.14    0.33 
   8   5   3    7.11    0.26 
   8  -5   4   25.65    0.62 
   8   5   4   25.83    0.49 
   8  -6  -5    0.86    0.12 
  -8   6   5    0.83    0.13 
   8  -6  -4    0.70    0.12 
  -8   6   4    0.71    0.12 
   8  -6  -3    2.09    0.18 
   8   6  -3    2.38    0.17 
   8  -6  -2    2.90    0.20 
   8   6  -2    3.24    0.20 
   8  -6  -2    3.07    0.23 
   8  -6  -1    0.57    0.11 
   8   6  -1    0.45    0.09 
   8  -6  -1    0.66    0.13 
   8  -6   0   15.02    0.43 
   8   6   0   14.84    0.41 
   8  -6   0   14.83    0.48 
   8  -6   1    8.29    0.33 
   8   6   1    8.31    0.31 
   8  -6   1    8.03    0.36 
   8   6   2    0.16    0.08 
   8  -6   2    0.11    0.09 
   9   0 -10   -0.01    0.07 
  -9   0  10    0.01    0.07 
   9   0  -9    0.20    0.08 
  -9   0   9    0.17    0.08 
   9   0  -8    0.03    0.06 
  -9   0   8    0.03    0.06 
   9   0  -7    5.96    0.28 
  -9   0   7    5.73    0.27 
   9   0  -6    0.02    0.06 
  -9   0   6   -0.02    0.05 
   9   0  -5    4.28    0.24 
  -9   0   5    4.24    0.25 
   9   0  -4   -0.03    0.06 
  -9   0   4    0.07    0.06 
   9   0  -3  209.13    2.33 
  -9   0   3  204.70    2.29 
   9   0  -2    0.05    0.06 
  -9   0   2    0.03    0.05 
   9   0  -1    7.94    0.33 
  -9   0   1    7.92    0.28 
  -9   0   1    7.90    0.33 
   9   0   0    0.00    0.05 
   9   0   0    0.01    0.04 
  -9   0   0    0.00    0.04 
   9   0   1   19.95    0.60 
   9   0   1   19.98    0.59 
  -9   0  -1   18.73    0.59 
   9   0   2   -0.01    0.05 
   9   0   2   -0.03    0.05 
   9   0   3    2.07    0.16 
   9   0   3    1.75    0.15 
   9   0   4    0.00    0.06 
   9   0   4    0.01    0.06 
   9   0   5    0.25    0.08 
   9   0   5    0.19    0.08 
   9   0   6    0.00    0.06 
   9   0   6   -0.01    0.07 
   9  -1 -10    8.97    0.34 
  -9  -1  10    9.17    0.34 
  -9   1  10    8.21    0.32 
   9  -1  -9   32.21    0.64 
   9   1  -9   32.44    0.64 
  -9  -1   9   33.30    0.64 
  -9   1   9   32.26    0.64 
   9  -1  -8    0.02    0.06 
   9   1  -8    0.01    0.07 
  -9  -1   8   -0.01    0.06 
  -9   1   8   -0.05    0.06 
   9  -1  -7    0.56    0.11 
   9   1  -7    0.49    0.10 
  -9  -1   7    0.54    0.10 
  -9   1   7    0.53    0.10 
   9  -1  -6    2.33    0.18 
   9   1  -6    2.23    0.17 
  -9  -1   6    2.13    0.17 
  -9   1   6    2.08    0.17 
   9  -1  -5    0.45    0.10 
   9   1  -5    0.50    0.10 
  -9  -1   5    0.45    0.09 
  -9   1   5    0.48    0.10 
   9  -1  -4   12.63    0.45 
   9   1  -4   12.24    0.45 
  -9  -1   4   11.91    0.44 
  -9   1   4   12.53    0.46 
   9  -1  -3   26.77    0.64 
   9   1  -3   26.69    0.61 
  -9  -1   3   27.07    0.62 
  -9   1   3   26.45    0.63 
   9   1  -2    0.77    0.11 
   9  -1  -2    0.64    0.11 
  -9   1   2    0.78    0.09 
  -9  -1   2    0.73    0.11 
  -9   1   2    0.78    0.12 
   9  -1  -1    9.46    0.35 
   9   1  -1    9.05    0.34 
   9  -1  -1    8.65    0.36 
  -9   1   1    9.09    0.29 
  -9  -1   1    9.31    0.36 
  -9   1   1    9.65    0.37 
   9  -1   0    8.47    0.36 
   9  -1   0    8.53    0.37 
   9   1   0    8.14    0.33 
  -9  -1   0    8.20    0.36 
   9  -1   1    3.55    0.22 
   9   1   1    3.59    0.22 
   9  -1   1    3.96    0.24 
   9   1   1    3.55    0.21 
  -9  -1  -1    3.58    0.23 
   9  -1   2    5.32    0.26 
   9   1   2    5.49    0.26 
   9  -1   2    5.37    0.26 
   9   1   2    5.38    0.24 
  -9  -1  -2    5.56    0.27 
   9  -1   3   14.97    0.44 
   9   1   3   15.76    0.43 
   9  -1   3   16.15    0.44 
   9   1   3   15.64    0.40 
   9  -1   4    1.36    0.14 
   9   1   4    1.35    0.13 
   9  -1   4    1.27    0.13 
   9   1   4    1.30    0.12 
   9  -1   5    4.83    0.27 
   9   1   5    4.88    0.27 
   9  -1   5    4.94    0.27 
   9   1   5    4.84    0.25 
   9  -1   6    6.32    0.27 
   9   1   6    5.88    0.26 
   9  -1   6    6.07    0.27 
   9   1   6    5.86    0.24 
   9  -2  -9    0.08    0.08 
  -9  -2   9    0.09    0.08 
   9  -2  -8   -0.06    0.07 
   9   2  -8    0.00    0.06 
  -9  -2   8    0.07    0.07 
   9  -2  -7    5.17    0.26 
   9   2  -7    5.05    0.25 
  -9  -2   7    4.96    0.25 
  -9   2   7    4.99    0.26 
   9  -2  -6    2.03    0.17 
   9   2  -6    1.75    0.15 
  -9  -2   6    1.79    0.16 
  -9   2   6    2.02    0.17 
   9  -2  -5    1.96    0.17 
   9   2  -5    1.94    0.16 
  -9  -2   5    1.80    0.16 
  -9   2   5    1.83    0.17 
   9  -2  -4   18.78    0.58 
   9   2  -4   20.01    0.51 
  -9  -2   4   19.28    0.51 
  -9   2   4   18.94    0.53 
   9   2  -3    3.69    0.23 
  -9  -2   3    3.70    0.23 
  -9   2   3    3.68    0.23 
   9  -2  -2    3.86    0.23 
   9   2  -2    3.82    0.23 
   9  -2  -2    3.99    0.26 
  -9  -2   2    3.93    0.24 
  -9   2   2    3.74    0.24 
   9  -2  -1    1.70    0.16 
   9   2  -1    1.71    0.15 
   9  -2  -1    1.82    0.17 
  -9  -2   1    1.74    0.16 
   9  -2   0    1.35    0.14 
   9   2   0    1.33    0.14 
   9  -2   0    1.56    0.16 
  -9  -2   0    1.37    0.14 
   9  -2   1    0.49    0.09 
   9  -2   1    0.64    0.11 
   9   2   1    0.54    0.08 
   9  -2   2    0.59    0.10 
   9   2   2    0.56    0.10 
   9  -2   2    0.45    0.10 
   9   2   2    0.58    0.09 
   9  -2   3    1.69    0.16 
   9   2   3    1.89    0.16 
   9  -2   3    1.68    0.16 
   9   2   3    1.76    0.14 
   9  -2   4   19.15    0.49 
   9   2   4   20.01    0.49 
   9  -2   4   19.66    0.51 
   9   2   4   19.80    0.44 
   9  -2   5    0.13    0.07 
   9   2   5    0.06    0.07 
   9  -2   5    0.09    0.08 
   9   2   5    0.12    0.07 
   9   2   6    2.19    0.17 
   9  -2   6    2.43    0.18 
   9   2   6    2.13    0.15 
   9  -3  -9    1.72    0.16 
  -9  -3   9    1.62    0.15 
  -9   3   9    1.80    0.17 
   9  -3  -8    0.07    0.08 
  -9  -3   8    0.12    0.07 
  -9   3   8    0.01    0.08 
   9  -3  -7    5.43    0.30 
   9   3  -7    5.15    0.28 
  -9  -3   7    5.38    0.29 
   9  -3  -6    0.05    0.08 
   9   3  -6    0.04    0.06 
  -9  -3   6    0.04    0.07 
   9  -3  -5    8.46    0.33 
   9   3  -5    7.54    0.30 
  -9  -3   5    7.26    0.30 
  -9   3   5    7.71    0.32 
   9   3  -4   -0.01    0.06 
  -9  -3   4    0.05    0.06 
  -9   3   4   -0.02    0.06 
   9  -3  -3    6.86    0.30 
   9   3  -3    6.42    0.28 
   9  -3  -3    6.72    0.32 
  -9  -3   3    6.50    0.29 
  -9   3   3    6.35    0.30 
   9  -3  -2   38.08    0.75 
   9   3  -2   36.92    0.71 
   9  -3  -2   37.07    0.80 
  -9  -3   2   38.18    0.81 
  -9   3   2   37.80    0.77 
   9  -3  -1    0.44    0.10 
   9   3  -1    0.36    0.09 
   9  -3  -1    0.35    0.10 
   9  -3   0    0.30    0.08 
   9   3   0    0.32    0.09 
   9  -3   0    0.25    0.09 
   9  -3   1    0.02    0.06 
   9   3   1    0.03    0.06 
   9  -3   1   -0.02    0.06 
   9  -3   2    2.59    0.18 
   9  -3   2    2.44    0.20 
   9   3   2    2.39    0.15 
   9  -3   3    0.61    0.10 
   9   3   3    0.70    0.11 
   9  -3   3    0.55    0.11 
   9   3   3    0.55    0.09 
   9  -3   4    3.05    0.22 
   9   3   4    3.10    0.21 
   9  -3   4    3.43    0.24 
   9   3   4    3.31    0.20 
   9   3   5    0.01    0.06 
   9  -3   5    0.02    0.08 
   9   3   5    0.00    0.06 
   9  -4  -8    4.50    0.25 
  -9  -4   8    4.68    0.24 
  -9   4   8    4.62    0.25 
   9  -4  -7    0.01    0.08 
  -9  -4   7    0.02    0.06 
  -9   4   7   -0.04    0.07 
   9  -4  -6    0.70    0.12 
   9   4  -6    0.67    0.10 
  -9  -4   6    0.61    0.11 
  -9   4   6    0.70    0.12 
   9   4  -5    0.00    0.06 
  -9  -4   5   -0.02    0.05 
   9  -4  -4   15.00    0.44 
   9   4  -4   14.20    0.42 
  -9  -4   4   13.78    0.50 
   9  -4  -3    8.06    0.32 
   9   4  -3    7.68    0.30 
   9  -4  -3    7.93    0.35 
  -9   4   3    7.68    0.32 
   9  -4  -2    3.11    0.21 
   9   4  -2    2.89    0.19 
   9  -4  -2    2.91    0.22 
   9  -4  -1    8.68    0.33 
   9   4  -1    8.44    0.31 
   9  -4  -1    8.70    0.37 
   9  -4   0    2.37    0.18 
   9   4   0    2.62    0.18 
   9  -4   0    2.45    0.20 
   9  -4   1   18.87    0.50 
   9   4   1   19.36    0.48 
   9  -4   1   20.92    0.57 
   9  -4   2    1.61    0.15 
   9   4   2    1.65    0.15 
   9  -4   2    1.44    0.16 
   9  -4   3    0.09    0.07 
   9  -4   3    0.09    0.08 
   9   4   4    5.65    0.26 
   9  -4   4    5.24    0.28 
   9   4   4    5.59    0.23 
  -9   5   6    0.53    0.12 
   9  -5  -5    2.72    0.19 
   9   5  -5    2.56    0.18 
  -9   5   5    2.61    0.19 
   9  -5  -4    0.77    0.12 
   9   5  -4    0.76    0.11 
  -9   5   4    0.79    0.12 
   9  -5  -3   11.56    0.48 
   9   5  -3   11.34    0.45 
   9  -5  -3   11.86    0.52 
   9  -5  -2    0.20    0.08 
   9   5  -2    0.18    0.08 
   9  -5  -2    0.16    0.09 
   9  -5  -1    3.80    0.25 
   9   5  -1    4.07    0.24 
   9  -5  -1    3.84    0.27 
   9  -5   0    0.09    0.07 
   9   5   0    0.00    0.07 
   9  -5   0   -0.03    0.07 
   9  -5   1    0.65    0.11 
   9   5   1    0.74    0.11 
   9  -5   1    0.74    0.13 
   9  -5   2    1.80    0.16 
   9   5   2    1.71    0.15 
   9  -5   2    1.56    0.17 
  10   0  -9   -0.05    0.07 
 -10   0   9    0.02    0.06 
  10   0  -8    0.40    0.10 
 -10   0   8    0.42    0.10 
  10   0  -7    0.04    0.06 
  10   0  -6   24.21    0.55 
 -10   0   6   25.13    0.57 
  10   0  -5   -0.02    0.07 
 -10   0   5    0.01    0.06 
  10   0  -4   11.85    0.38 
 -10   0   4   11.84    0.40 
  10   0  -3   -0.02    0.06 
 -10   0   3    0.01    0.06 
  10   0  -2   80.18    1.17 
 -10   0   2   80.45    1.17 
 -10   0   1    0.01    0.06 
  10   0   0   75.70    1.01 
 -10   0   0   76.89    1.02 
  10   0   1   -0.03    0.06 
  10   0   1    0.00    0.05 
 -10   0  -1    0.01    0.06 
  10   0   2    1.34    0.14 
  10   0   2    1.30    0.14 
 -10   0  -2    1.23    0.14 
  10   0   3    0.02    0.07 
  10   0   3   -0.02    0.06 
  10   0   4    3.11    0.20 
  10   0   4    3.47    0.20 
  10   0   5   -0.03    0.06 
  10   0   5   -0.03    0.07 
  10  -1  -9    1.31    0.15 
  10   1  -9    1.24    0.13 
 -10  -1   9    1.27    0.14 
 -10   1   9    1.26    0.14 
  10  -1  -8    1.32    0.14 
  10   1  -8    1.41    0.14 
 -10  -1   8    1.24    0.14 
 -10   1   8    1.38    0.15 
  10  -1  -7    0.52    0.10 
  10   1  -7    0.56    0.10 
 -10  -1   7    0.45    0.10 
 -10   1   7    0.48    0.10 
  10  -1  -6   15.76    0.45 
  10   1  -6   15.46    0.44 
 -10  -1   6   15.90    0.46 
 -10   1   6   15.01    0.46 
  10  -1  -5    0.79    0.12 
  10   1  -5    0.75    0.11 
 -10  -1   5    0.80    0.11 
 -10   1   5    0.86    0.12 
  10  -1  -4    4.84    0.25 
  10   1  -4    4.72    0.25 
 -10  -1   4    4.82    0.25 
 -10   1   4    4.51    0.25 
  10  -1  -3    0.07    0.06 
  10   1  -3    0.09    0.07 
 -10  -1   3    0.12    0.06 
 -10   1   3    0.07    0.06 
  10   1  -2    1.23    0.14 
 -10  -1   2    1.28    0.14 
 -10   1   2    1.18    0.14 
  10  -1  -1   19.59    0.49 
  10   1  -1   19.38    0.49 
 -10  -1   1   20.77    0.52 
 -10   1   1   20.01    0.52 
  10  -1   0   63.13    0.92 
  10  -1   0   57.92    0.90 
 -10  -1   0   59.19    2.01 
 -10   1   0   61.54    0.93 
  10  -1   1    6.98    0.30 
  10   1   1    6.53    0.29 
  10  -1   1    6.72    0.30 
  10  -1   2    1.52    0.15 
  10   1   2    1.42    0.14 
  10  -1   2    1.44    0.15 
  10   1   2    1.36    0.13 
  10  -1   3    1.29    0.14 
  10   1   3    1.03    0.13 
  10  -1   3    1.25    0.14 
  10   1   3    1.08    0.12 
  10  -1   4    8.71    0.32 
  10   1   4    8.28    0.31 
  10  -1   4    8.80    0.33 
  10   1   4    8.48    0.30 
  10  -1   5    0.40    0.09 
  10   1   5    0.37    0.09 
  10  -2  -8    7.07    0.30 
  10   2  -8    6.09    0.27 
 -10  -2   8    6.53    0.29 
 -10   2   8    6.75    0.30 
  10  -2  -7    6.40    0.33 
  10   2  -7    6.51    0.33 
 -10  -2   7    6.18    0.32 
 -10   2   7    5.66    0.31 
  10  -2  -6   12.37    0.40 
  10   2  -6   11.94    0.39 
 -10  -2   6   11.80    0.39 
 -10   2   6   12.01    0.40 
  10  -2  -5    1.63    0.16 
  10   2  -5    1.44    0.14 
 -10  -2   5    1.59    0.15 
 -10   2   5    1.57    0.16 
  10  -2  -4    1.91    0.17 
  10   2  -4    1.86    0.16 
 -10  -2   4    2.08    0.17 
 -10   2   4    2.00    0.17 
  10   2  -3    0.23    0.07 
 -10  -2   3    0.25    0.07 
 -10   2   3    0.28    0.09 
  10  -2  -2   29.08    0.61 
  10   2  -2   28.40    0.59 
 -10  -2   2   28.43    0.65 
 -10   2   2   27.23    0.60 
  10  -2  -1   16.83    0.46 
  10   2  -1   18.10    0.46 
 -10   2   1   17.50    0.48 
  10  -2   0    0.04    0.07 
  10   2   0    0.08    0.07 
  10  -2   0    0.13    0.07 
  10  -2   1    0.91    0.12 
  10  -2   1    0.93    0.13 
  10  -2   2    0.19    0.08 
  10   2   2    0.16    0.08 
  10  -2   2    0.16    0.08 
  10  -2   3    0.71    0.11 
  10   2   3    0.81    0.12 
  10  -2   3    0.82    0.12 
  10  -2   4    0.16    0.08 
  10   2   4    0.25    0.09 
  10  -2   4    0.25    0.09 
  10   2   4    0.23    0.07 
  10  -3  -7    0.55    0.12 
  10   3  -7    0.64    0.10 
 -10  -3   7    0.56    0.10 
 -10   3   7    0.56    0.11 
  10  -3  -6    1.88    0.17 
  10   3  -6    1.92    0.16 
 -10  -3   6    2.01    0.17 
 -10   3   6    1.70    0.17 
  10  -3  -5    0.03    0.07 
  10   3  -5   -0.03    0.06 
 -10  -3   5    0.00    0.06 
 -10   3   5    0.03    0.08 
  10   3  -4    3.77    0.22 
 -10  -3   4    3.65    0.22 
 -10   3   4    3.72    0.23 
  10  -3  -3   11.59    0.39 
  10   3  -3   10.79    0.36 
 -10   3   3   10.67    0.38 
  10  -3  -2   16.55    0.46 
  10   3  -2   16.21    0.44 
 -10   3   2   17.16    0.48 
  10  -3  -1    0.07    0.07 
  10   3  -1    0.09    0.07 
  10  -3  -1    0.15    0.08 
  10  -3   0    5.13    0.26 
  10   3   0    5.07    0.25 
  10  -3   0    5.08    0.28 
  10  -3   1    5.34    0.29 
  10   3   1    5.25    0.28 
  10  -3   1    5.69    0.32 
  10  -3   2    0.10    0.07 
  10  -3   2    0.08    0.08 
  10  -3   3    0.12    0.07 
  10   3   3    0.10    0.08 
  10  -3   3    0.04    0.08 
  10  -4  -6    3.21    0.21 
  10   4  -6    3.44    0.21 
  10   4  -5    4.09    0.23 
 -10   4   5    4.05    0.24 
  10  -4  -4    0.90    0.12 
  10   4  -4    1.06    0.12 
 -10   4   4    0.75    0.12 
  10  -4  -3    0.08    0.07 
  10   4  -3    0.12    0.08 
 -10   4   3    0.18    0.08 
  10  -4  -2    0.82    0.12 
  10   4  -2    0.59    0.10 
 -10   4   2    0.69    0.11 
  10  -4  -1   23.68    0.80 
  10   4  -1   21.74    0.73 
  10  -4  -1   22.74    0.81 
  10  -4   0    5.68    0.27 
  10   4   0    5.80    0.26 
  10  -4   0    5.83    0.30 
  10  -4   1    1.26    0.14 
  10   4   1    1.27    0.14 
  10  -4   1    1.33    0.16 
  10  -4   2    0.85    0.12 
  10   4   2    0.79    0.12 
  10  -4   2    0.83    0.13 
  10  -5  -3    1.11    0.13 
  10   5  -3    1.26    0.14 
 -10   5   3    1.29    0.15 
  10  -5  -2    3.26    0.21 
  10   5  -2    3.27    0.20 
 -10   5   2    2.98    0.21 
  10  -5  -1    0.07    0.08 
  10   5  -1    0.00    0.06 
  10  -5  -1   -0.04    0.07 
  11   0  -7    5.06    0.26 
 -11   0   7    5.41    0.26 
  11   0  -6   -0.03    0.07 
 -11   0   6    0.03    0.06 
  11   0  -5    5.51    0.30 
 -11   0   5    5.54    0.30 
  11   0  -4   -0.03    0.06 
 -11   0   4    0.03    0.06 
  11   0  -3   17.58    0.48 
 -11   0   3   18.17    0.50 
  11   0  -2    0.01    0.08 
 -11   0   2    0.02    0.06 
 -11   0   1   91.68    1.11 
  11   0   0   -0.05    0.08 
 -11   0   0    0.03    0.06 
  11   0   1   25.03    0.82 
  11   0   2    0.06    0.08 
  11   0   3   16.22    0.44 
  11  -1  -7   15.19    0.44 
  11   1  -7   15.80    0.44 
 -11  -1   7   16.20    0.45 
 -11   1   7   16.13    0.45 
  11  -1  -6    0.29    0.09 
  11   1  -6    0.26    0.08 
 -11  -1   6    0.36    0.09 
 -11   1   6    0.32    0.09 
  11  -1  -5    0.79    0.11 
  11   1  -5    0.69    0.11 
 -11  -1   5    0.70    0.11 
 -11   1   5    1.45    0.15 
  11  -1  -4    1.17    0.13 
  11   1  -4    1.06    0.13 
 -11  -1   4    1.09    0.13 
 -11   1   4    1.40    0.15 
  11   1  -3    1.97    0.17 
 -11  -1   3    2.62    0.19 
 -11   1   3    1.97    0.17 
  11   1  -2    5.17    0.26 
 -11  -1   2    5.12    0.26 
 -11   1   2    5.24    0.26 
  11  -1  -1    4.57    0.24 
  11   1  -1    3.95    0.23 
 -11   1   1    4.35    0.24 
  11  -1   0    0.00    0.07 
 -11   1   0   -0.01    0.06 
  11  -1   1    6.67    0.33 
  11   1   1    7.12    0.34 
 -11   1  -1    7.01    0.35 
  11  -1   2   13.21    0.40 
  11   1   2   12.47    0.39 
  11  -1   3   13.02    0.40 
  11   1   3   12.64    0.39 
  11  -2  -6    5.80    0.27 
  11   2  -6    5.96    0.27 
 -11  -2   6    5.68    0.27 
 -11   2   6    5.92    0.28 
  11  -2  -5    0.01    0.08 
  11   2  -5    0.04    0.07 
 -11  -2   5    0.10    0.07 
 -11   2   5    0.07    0.08 
  11   2  -4    3.04    0.21 
 -11  -2   4    3.06    0.21 
 -11   2   4    2.83    0.21 
  11  -2  -3    6.87    0.34 
  11   2  -3    7.33    0.35 
 -11   2   3    7.14    0.35 
  11  -2  -2    1.82    0.16 
  11   2  -2    1.62    0.15 
 -11   2   2    1.47    0.15 
  11  -2  -1    1.41    0.15 
  11   2  -1    1.14    0.13 
 -11   2   1    1.25    0.14 
  11  -2   0    2.77    0.19 
  11   2   0    2.42    0.18 
 -11   2   0    2.52    0.19 
  11  -2   1    3.45    0.21 
  11  -2   2    0.79    0.11 
  11   2   2    0.74    0.11 
  11   3  -5    2.59    0.19 
 -11   3   5    2.80    0.20 
  11  -3  -4    2.01    0.17 
  11   3  -4    2.15    0.17 
 -11   3   4    2.10    0.18 
  11  -3  -3    0.25    0.09 
  11   3  -3    0.14    0.08 
 -11   3   3    0.22    0.09 
  11  -3  -2    0.04    0.07 
  11   3  -2    0.03    0.07 
 -11   3   2    0.08    0.08 
  11  -3  -1    2.72    0.19 
  11   3  -1    2.97    0.20 
 -11   3   1    2.72    0.20 
  11  -3   0   24.09    0.54 
  11   3   0   24.65    0.54 
  11  -3   1    0.66    0.11 
  11   3   1    0.58    0.11 
  12   0  -5    0.04    0.07 
 -12   0   5    0.01    0.07 
  12   0  -4    0.48    0.11 
 -12   0   4    0.45    0.10 
  12   0  -3   -0.01    0.07 
 -12   0   3    0.00    0.05 
 -12   0   2    3.01    0.21 
  12   0  -1   -0.01    0.06 
  12   0   0    8.76    0.33 
  12  -1  -4   25.36    0.55 
  12   1  -4   24.71    0.55 
 -12  -1   4   24.03    0.57 
 -12   1   4   25.57    0.57 
  12   1  -3    0.15    0.08 
 -12   1   3    0.19    0.08 
  12  -1  -2    3.17    0.20 
  12   1  -2    3.13    0.21 
 -12   1   2    3.03    0.20 
  12  -1  -1    0.49    0.11 
 -12   1   1    0.51    0.10 
   0   0   0    0.00    0.00 
;
_shelx_hkl_checksum              8196
loop_
_space_group_symop_operation_xyz
'x, y, z'
'-x+1/2, y+1/2, -z+1/2'
'-x, -y, -z'
'x-1/2, -y-1/2, z-1/2'
loop_
_atom_site_label
_atom_site_type_symbol
_atom_site_fract_x
_atom_site_fract_y
_atom_site_fract_z
_atom_site_U_iso_or_equiv
_atom_site_adp_type
_atom_site_occupancy
_atom_site_site_symmetry_order
_atom_site_calc_flag
O1 O 0.34781(7) 0.72966(10) 0.38462(6) 0.01405(18) Uani 1 1 d
O2 O 0.55050(7) 0.16128(10) 0.26101(7) 0.01494(18) Uani 1 1 d
O3 O 0.18306(7) 0.13129(9) 0.49963(7) 0.01252(18) Uani 1 1 d
N1 N 0.25681(8) 0.43730(11) 0.44557(7) 0.01060(19) Uani 1 1 d
N2 N 0.44873(8) 0.44772(11) 0.32119(7) 0.01057(18) Uani 1 1 d
N3 N 0.37153(8) 0.14488(11) 0.38783(7) 0.00985(19) Uani 1 1 d
C1 C 0.34906(9) 0.54537(13) 0.38522(8) 0.0099(2) Uani 1 1 d
C2 C 0.46289(9) 0.24557(13) 0.31967(9) 0.0102(2) Uani 1 1 d
C3 C 0.26625(9) 0.23781(13) 0.44637(8) 0.0093(2) Uani 1 1 d
N4 N 0.60575(8) 0.75281(11) 0.05360(8) 0.01159(19) Uani 1 1 d
N5 N 0.63028(8) 0.74162(12) 0.20695(8) 0.01262(19) Uani 1 1 d
H4A H 0.5099(16) 0.7426(19) 0.0196(13) 0.020(3) Uiso 1 1 d
H4B H 0.6491(14) 0.646(2) 0.0220(14) 0.021(3) Uiso 1 1 d
H5A H 0.6010(14) 0.856(2) 0.2330(13) 0.019(3) Uiso 1 1 d
H3 H 0.3732(12) 0.014(2) 0.3870(12) 0.021(3) Uiso 1 1 d
H5B H 0.7252(15) 0.7399(19) 0.2357(14) 0.020(3) Uiso 1 1 d
H4C H 0.6431(14) 0.868(2) 0.0217(14) 0.023(3) Uiso 1 1 d
H2 H 0.5099(14) 0.528(2) 0.2820(13) 0.029(3) Uiso 1 1 d
loop_
_atom_site_aniso_label
_atom_site_aniso_U_11
_atom_site_aniso_U_22
_atom_site_aniso_U_33
_atom_site_aniso_U_23
_atom_site_aniso_U_13
_atom_site_aniso_U_12
O1 0.0183(3) 0.0066(3) 0.0173(3) -0.0001(2) 0.0035(3) 0.0001(2)
O2 0.0143(3) 0.0124(4) 0.0207(3) -0.0019(2) 0.0096(3) 0.0004(2)
O3 0.0125(3) 0.0097(3) 0.0168(3) 0.0013(2) 0.0065(2) -0.0011(2)
N1 0.0116(3) 0.0081(4) 0.0126(3) -0.0006(3) 0.0036(3) 0.0008(3)
N2 0.0113(3) 0.0082(4) 0.0132(3) 0.0008(3) 0.0049(3) -0.0012(3)
N3 0.0106(4) 0.0057(4) 0.0140(4) 0.0004(2) 0.0043(3) 0.0001(2)
C1 0.0104(4) 0.0090(4) 0.0094(4) -0.0001(3) -0.0002(3) -0.0001(3)
C2 0.0097(4) 0.0100(4) 0.0106(4) -0.0005(3) 0.0014(3) 0.0000(3)
C3 0.0084(4) 0.0106(4) 0.0085(4) -0.0002(3) 0.0009(3) 0.0001(3)
N4 0.0125(4) 0.0092(4) 0.0144(4) 0.0002(3) 0.0059(3) 0.0002(3)
N5 0.0138(4) 0.0119(4) 0.0132(4) -0.0002(3) 0.0050(3) 0.0008(3)
loop_
_atom_type_symbol
_atom_type_description
_atom_type_scat_dispersion_real
_atom_type_scat_dispersion_imag
_atom_type_scat_source
C C 0.0033 0.0016 'International Tables Vol C Tables 4.2.6.8 and 6.1.1.4'
H H 0.0000 0.0000 'International Tables Vol C Tables 4.2.6.8 and 6.1.1.4'
N N 0.0061 0.0033 'International Tables Vol C Tables 4.2.6.8 and 6.1.1.4'
O O 0.0106 0.0060 'International Tables Vol C Tables 4.2.6.8 and 6.1.1.4'
loop_
_geom_angle_atom_site_label_1
_geom_angle_atom_site_label_2
_geom_angle_atom_site_label_3
_geom_angle
C3 N1 C1 119.37(7)
C2 N2 C1 123.44(7)
C2 N2 H2 120.2(9)
C1 N2 H2 116.3(9)
C2 N3 C3 123.19(8)
C2 N3 H3 118.5(7)
C3 N3 H3 118.0(7)
O1 C1 N1 122.18(8)
O1 C1 N2 118.46(8)
N1 C1 N2 119.35(8)
O2 C2 N3 122.82(8)
O2 C2 N2 122.64(8)
N3 C2 N2 114.53(7)
O3 C3 N1 121.90(8)
O3 C3 N3 118.16(8)
N1 C3 N3 119.94(7)
N5 N4 H4A 108.3(8)
N5 N4 H4B 108.0(8)
H4A N4 H4B 107.7(11)
N5 N4 H4C 112.7(8)
H4A N4 H4C 111.2(11)
H4B N4 H4C 108.9(12)
N4 N5 H5A 104.7(8)
N4 N5 H5B 105.6(9)
H5A N5 H5B 106.4(12)
loop_
_geom_bond_atom_site_label_1
_geom_bond_atom_site_label_2
_geom_bond_distance
O1 C1 1.2388(12)
O2 C2 1.2306(11)
O3 C3 1.2477(11)
N1 C3 1.3437(12)
N1 C1 1.3528(11)
N2 C2 1.3657(12)
N2 C1 1.3903(11)
N2 H2 0.924(14)
N3 C2 1.3651(11)
N3 C3 1.3872(11)
N3 H3 0.882(16)
N4 N5 1.4573(11)
N4 H4A 0.904(14)
N4 H4B 0.910(14)
N4 H4C 0.931(14)
N5 H5A 0.870(14)
N5 H5B 0.886(13)
loop_
_geom_hbond_atom_site_label_D
_geom_hbond_atom_site_label_H
_geom_hbond_atom_site_label_A
_geom_hbond_distance_DH
_geom_hbond_distance_HA
_geom_hbond_distance_DA
_geom_hbond_angle_DHA
_geom_hbond_site_symmetry_A
N2 H2 N5 0.924(14) 2.053(15) 2.9696(11) 171.1(13) .
N4 H4C N1 0.931(14) 1.928(14) 2.8389(11) 165.6(12) 4_675
N5 H5B O2 0.886(13) 2.181(14) 3.0228(11) 158.5(12) 2_655
N3 H3 O1 0.882(16) 1.924(16) 2.7996(11) 171.9(11) 1_545
N5 H5A O2 0.870(14) 2.137(14) 2.9924(11) 167.4(12) 1_565
N4 H4B O3 0.910(14) 1.910(14) 2.7609(11) 155.0(12) 4_665
N4 H4A O3 0.904(14) 1.948(14) 2.8003(11) 156.6(12) 2
loop_
_geom_torsion_atom_site_label_1
_geom_torsion_atom_site_label_2
_geom_torsion_atom_site_label_3
_geom_torsion_atom_site_label_4
_geom_torsion
C3 N1 C1 O1 -178.08(7)
C3 N1 C1 N2 2.08(11)
C2 N2 C1 O1 177.76(7)
C2 N2 C1 N1 -2.40(11)
C3 N3 C2 O2 -175.73(8)
C3 N3 C2 N2 3.95(11)
C1 N2 C2 O2 179.09(7)
C1 N2 C2 N3 -0.60(11)
C1 N1 C3 O3 -179.41(7)
C1 N1 C3 N3 1.11(11)
C2 N3 C3 O3 176.13(7)
C2 N3 C3 N1 -4.38(11)
