#------------------------------------------------------------------------------
#$Date: 2019-11-24 09:44:36 +0200 (Sun, 24 Nov 2019) $
#$Revision: 237511 $
#$URL: file:///home/coder/svn-repositories/cod/cif/7/23/72/7237240.cif $
#------------------------------------------------------------------------------
#
# This file is available in the Crystallography Open Database (COD),
# http://www.crystallography.net/
#
# All data on this site have been placed in the public domain by the
# contributors.
#
data_7237240
loop_
_publ_author_name
'Rajak, Richa'
'Saraf, Mohit'
'Mobin, Shaikh M.'
_publ_section_title
;
 Robust heterostructures of a bimetallic sodium--zinc metal--organic
 framework and reduced graphene oxide for high-performance supercapacitors
;
_journal_issue                   4
_journal_name_full               'Journal of Materials Chemistry A'
_journal_page_first              1725
_journal_paper_doi               10.1039/C8TA09528K
_journal_volume                  7
_journal_year                    2019
_chemical_formula_sum            'C28 H18 N4 Na O16 Zn2'
_chemical_formula_weight         820.19
_space_group_crystal_system      triclinic
_space_group_IT_number           2
_space_group_name_Hall           '-P 1'
_space_group_name_H-M_alt        'P -1'
_atom_sites_solution_hydrogens   mixed
_audit_creation_method           SHELXL-2016/6
_audit_update_record
;
2018-06-29 deposited with the CCDC.
2018-12-12 downloaded from the CCDC.
;
_cell_angle_alpha                71.619(4)
_cell_angle_beta                 65.447(5)
_cell_angle_gamma                86.347(4)
_cell_formula_units_Z            1
_cell_length_a                   9.7489(5)
_cell_length_b                   10.0757(5)
_cell_length_c                   10.6156(5)
_cell_measurement_reflns_used    3209
_cell_measurement_temperature    293(2)
_cell_measurement_theta_max      70.8610
_cell_measurement_theta_min      4.6386
_cell_volume                     897.32(9)
_computing_cell_refinement       'CrysAlis RED, Oxford Diffraction Ltd.,'
_computing_data_collection       'CrysAlis CCD, Oxford Diffraction Ltd.,'
_computing_data_reduction        'CrysAlis RED, Oxford Diffraction Ltd.,'
_computing_molecular_graphics    Ortep3
_computing_publication_material  Shelx97
_computing_structure_refinement  'SHELXL-2014/7 (Sheldrick, 2014)'
_computing_structure_solution    'SHELXS-97 (Sheldrick, 1997)'
_diffrn_ambient_temperature      293(2)
_diffrn_detector_area_resol_mean 15.9948
_diffrn_measured_fraction_theta_full 0.997
_diffrn_measured_fraction_theta_max 0.975
_diffrn_measurement_device_type  'OXFORD DIFFRACTION SUPER NOVA'
_diffrn_measurement_method       \w/q-scan
_diffrn_radiation_monochromator  graphite
_diffrn_radiation_source         'Micro-Focus (Cu) X-ray Source'
_diffrn_radiation_type           CuK\a
_diffrn_radiation_wavelength     1.54184
_diffrn_reflns_av_R_equivalents  0.0770
_diffrn_reflns_av_unetI/netI     0.0553
_diffrn_reflns_Laue_measured_fraction_full 0.997
_diffrn_reflns_Laue_measured_fraction_max 0.975
_diffrn_reflns_limit_h_max       11
_diffrn_reflns_limit_h_min       -11
_diffrn_reflns_limit_k_max       11
_diffrn_reflns_limit_k_min       -12
_diffrn_reflns_limit_l_max       13
_diffrn_reflns_limit_l_min       -13
_diffrn_reflns_number            5532
_diffrn_reflns_point_group_measured_fraction_full 0.997
_diffrn_reflns_point_group_measured_fraction_max 0.975
_diffrn_reflns_theta_full        67.684
_diffrn_reflns_theta_max         71.228
_diffrn_reflns_theta_min         4.639
_exptl_absorpt_coefficient_mu    2.430
_exptl_absorpt_correction_T_max  1.00000
_exptl_absorpt_correction_T_min  0.70789
_exptl_absorpt_correction_type   multi-scan
_exptl_absorpt_process_details
;
CrysAlisPro, Agilent Technologies,
Version 1.171.37.35 (release 13-08-2014 CrysAlis171 .NET)
(compiled Aug 13 2014,18:06:01)
Empirical absorption correction using spherical harmonics,
 implemented in SCALE3 ABSPACK scaling algorithm.
;
_exptl_crystal_colour            peach
_exptl_crystal_density_diffrn    1.518
_exptl_crystal_density_method    'not measured'
_exptl_crystal_description       block
_exptl_crystal_F_000             413
_exptl_crystal_size_max          0.230
_exptl_crystal_size_mid          0.180
_exptl_crystal_size_min          0.130
_platon_squeeze_details
;
;
_refine_diff_density_max         0.657
_refine_diff_density_min         -1.246
_refine_diff_density_rms         0.134
_refine_ls_extinction_method     none
_refine_ls_goodness_of_fit_ref   1.041
_refine_ls_hydrogen_treatment    constr
_refine_ls_matrix_type           full
_refine_ls_number_parameters     233
_refine_ls_number_reflns         3382
_refine_ls_number_restraints     0
_refine_ls_restrained_S_all      1.041
_refine_ls_R_factor_all          0.0757
_refine_ls_R_factor_gt           0.0730
_refine_ls_shift/su_max          0.000
_refine_ls_shift/su_mean         0.000
_refine_ls_structure_factor_coef Fsqd
_refine_ls_weighting_details
'w=1/[\s^2^(Fo^2^)+(0.1447P)^2^+1.1522P] where P=(Fo^2^+2Fc^2^)/3'
_refine_ls_weighting_scheme      calc
_refine_ls_wR_factor_gt          0.2023
_refine_ls_wR_factor_ref         0.2088
_reflns_Friedel_coverage         0.000
_reflns_number_gt                3113
_reflns_number_total             3382
_reflns_threshold_expression     'I > 2\s(I)'
_cod_data_source_file            c8ta09528k2.cif
_cod_data_source_block           1
_cod_database_code               7237240
_shelx_shelxl_version_number     2016/6
_shelx_space_group_comment
;
The symmetry employed for this shelxl refinement is uniquely defined
by the following loop, which should always be used as a source of
symmetry information in preference to the above space-group names.
They are only intended as comments.
;
_shelx_estimated_absorpt_t_min   0.605
_shelx_estimated_absorpt_t_max   0.743
_shelx_res_file
;
TITL shelxt_a.res in P-1
    shelx.res
    created by SHELXL-2016/6 at 17:20:13 on 04-Jan-2018
CELL  1.54184   9.7489  10.0757  10.6156   71.619   65.447   86.347
ZERR     1.00   0.0005   0.0005   0.0005    0.004    0.005    0.004
LATT   1
SFAC  C    H    N    NA   O    ZN
UNIT  28 18 4 1 16 2
MERG   2
FMAP   2
PLAN   20
SIZE     0.130   0.180   0.230
ACTA
BOND   $H
CONF
LIST   4
L.S.  16
TEMP     0.00
WGHT    0.144700    1.152230
FVAR      27.68524
NA1   4    0.000000    0.000000    0.000000    10.50000    0.03054    0.04976 =
         0.03343    0.00896   -0.01419   -0.01184
ZN1   6    0.157567    0.278448   -0.282048    11.00000    0.02283    0.05391 =
         0.01635    0.00246   -0.00699   -0.00772
O1    5    0.335304    0.252289   -0.230972    11.00000    0.03300    0.07154 =
         0.02843   -0.00056   -0.01821   -0.00857
O2    5    0.167781    0.152554   -0.004425    11.00000    0.02403    0.08283 =
         0.04004   -0.00792   -0.01477   -0.01061
O3    5    0.313465    0.013667    0.403451    11.00000    0.03113    0.09033 =
         0.02566    0.00412   -0.00565   -0.01646
O4    5    0.551232    0.044283    0.366476    11.00000    0.03302    0.08084 =
         0.01925   -0.00423   -0.01019    0.00045
AFIX  83
H4    2    0.632724    0.074674    0.296713    11.00000   -1.50000
AFIX   0
O5    5   -0.055855    0.221799   -0.136490    11.00000    0.01992    0.05293 =
         0.03092    0.00358   -0.00938   -0.00815
O6    5   -0.112940    0.284722   -0.325376    11.00000    0.03156    0.09752 =
         0.02062   -0.00546   -0.00443   -0.00694
O7    5    0.159330    0.050813   -0.267919    11.00000    0.04186    0.04938 =
         0.03860   -0.00809   -0.01448    0.00199
O8    5    0.131094    0.481842   -0.266533    11.00000    0.07952    0.05341 =
         0.04495   -0.01333   -0.00820   -0.00102
AFIX   7
H8A   2    0.090673    0.505222   -0.189423    11.00000   -1.50000
H8B   2    0.158395    0.559282   -0.335813    11.00000   -1.50000
AFIX   0
N1    3    0.272254    0.346995   -0.507805    11.00000    0.03032    0.04816 =
         0.01638   -0.00021   -0.00575   -0.00465
N2    3    0.534642    0.487533   -0.961347    11.00000    0.03971    0.04654 =
         0.02075   -0.00301   -0.00592   -0.00880
C1    1    0.421168    0.370761   -0.565287    11.00000    0.03583    0.07162 =
         0.01717   -0.00013   -0.00715   -0.01424
AFIX  43
H1    2    0.468950    0.356398   -0.502842    11.00000   -1.20000
AFIX   0
C2    1    0.508877    0.416235   -0.714929    11.00000    0.03166    0.07434 =
         0.02222   -0.00582   -0.00528   -0.01102
AFIX  43
H2    2    0.613488    0.430638   -0.752257    11.00000   -1.20000
AFIX   0
C3    1    0.437375    0.439389   -0.806349    11.00000    0.03769    0.03579 =
         0.02010   -0.00054   -0.00612   -0.00463
C4    1    0.283642    0.416239   -0.747739    11.00000    0.03721    0.07267 =
         0.02326   -0.00051   -0.01367   -0.00402
AFIX  43
H4A   2    0.233373    0.431585   -0.808183    11.00000   -1.20000
AFIX   0
C5    1    0.204348    0.370182   -0.598991    11.00000    0.03410    0.07699 =
         0.02014    0.00180   -0.01008   -0.00621
AFIX  43
H5    2    0.099727    0.354420   -0.559797    11.00000   -1.20000
AFIX   0
C6    1    0.299324    0.196565   -0.095173    11.00000    0.03004    0.04486 =
         0.03068   -0.00739   -0.01381   -0.00310
C7    1    0.422851    0.182106   -0.043867    11.00000    0.02174    0.03734 =
         0.02450   -0.00391   -0.01036   -0.00219
C8    1    0.384230    0.127087    0.105397    11.00000    0.02424    0.04064 =
         0.02201   -0.00316   -0.00623   -0.00461
AFIX  43
H8    2    0.283770    0.098518    0.169829    11.00000   -1.20000
AFIX   0
C9    1    0.493836    0.114246    0.159518    11.00000    0.03105    0.03763 =
         0.02164   -0.00371   -0.01254   -0.00251
C10   1    0.446555    0.052533    0.320395    11.00000    0.02945    0.04443 =
         0.01962   -0.00383   -0.00966    0.00042
C11   1    0.644056    0.155438    0.062253    11.00000    0.02743    0.03832 =
         0.02241   -0.00327   -0.01218   -0.00315
AFIX  43
H11   2    0.717452    0.149917    0.097896    11.00000   -1.20000
AFIX   0
C12   1    0.686056    0.205006   -0.088333    11.00000    0.02586    0.03499 =
         0.02413   -0.00306   -0.01097   -0.00115
C13   1   -0.151257    0.240669   -0.191670    11.00000    0.03228    0.03837 =
         0.02425   -0.00236   -0.01058   -0.00369
C14   1    0.572291    0.219651   -0.138457    11.00000    0.03002    0.03703 =
         0.02053   -0.00141   -0.01394    0.00096
AFIX  43
H14   2    0.598402    0.255700   -0.238301    11.00000   -1.20000
AFIX   0
HKLF    4




REM  shelxt_a.res in P-1
REM R1 =  0.0730 for    3113 Fo > 4sig(Fo)  and  0.0757 for all    3382 data
REM    233 parameters refined using      0 restraints

END

WGHT      0.1455      1.0818

REM Highest difference peak  0.657,  deepest hole -1.246,  1-sigma level  0.134
Q1    1   0.0175  0.1160 -0.0778  11.00000  0.05    0.66
Q2    1   0.3091  0.1633 -0.2046  11.00000  0.05    0.62
Q3    1   0.0230  0.3827 -0.3848  11.00000  0.05    0.58
Q4    1   0.0763  0.3759 -0.3628  11.00000  0.05    0.57
Q5    1   0.0220  0.2116 -0.1863  11.00000  0.05    0.57
Q6    1   0.1089  0.0364 -0.3161  11.00000  0.05    0.55
Q7    1   0.1271  0.0829 -0.1311  11.00000  0.05    0.54
Q8    1   0.1644  0.3802 -0.3064  11.00000  0.05    0.53
Q9    1   0.0289  0.1413 -0.3195  11.00000  0.05    0.52
Q10   1   0.2946  0.3519 -0.3773  11.00000  0.05    0.52
Q11   1   0.2539  0.2137 -0.4665  11.00000  0.05    0.52
Q12   1   0.1524  0.1744 -0.2416  11.00000  0.05    0.51
Q13   1   0.3767  0.2336 -0.3420  11.00000  0.05    0.50
Q14   1   0.7019  0.4113 -0.8031  11.00000  0.05    0.49
Q15   1   0.2335  0.2599 -0.3928  11.00000  0.05    0.48
Q16   1   0.4010  0.3477 -0.3570  11.00000  0.05    0.47
Q17   1   0.0566  0.5091 -0.1181  11.00000  0.05    0.45
Q18   1   0.7092  0.0802  0.1496  11.00000  0.05    0.45
Q19   1   0.5997  0.5048 -0.7018  11.00000  0.05    0.44
Q20   1   0.2765  0.3033 -0.1559  11.00000  0.05    0.42
;
_shelx_res_checksum              55883
_shelx_hkl_file
;
   0   0  -1  817499    2950                                                      225929  -16.59    0.01  1.0000
   0   0  -2 2725385   11142                                                     1608510   14.80    0.00  1.0000
   0   0  -3 1348530    9964                                                      856972   -9.11   -0.02  1.0000
   0   0   3 1371982   12071                                                      875688   -9.11    0.02  1.0000
   0   0   4 1092598   19614                                                     1594480    8.41    0.00  1.0000
   0   0  -4 1113616   19152                                                     1619850    8.41    0.00  1.0000
   0   0  -5  628889   15722                                                      808765   -4.11    0.00  1.0000
   0   0   5  633253   16246                                                      813714   -4.11    0.00  1.0000
   0   0   6  116681    4893                                                       58269    3.88    0.02  1.0000
   0   0  -6  118645    4764                                                       59659    3.88   -0.02  1.0000
   0   0  -7  789326   18456                                                      753679   -0.79   -0.01  1.0000
   0   0   7  787107   19423                                                      751511   -0.79    0.01  1.0000
   0   0  -8   39731    4892                                                       42070    0.22   -0.02  1.0000
   0   0   8   27646    3944                                                       29603    0.22    0.02  1.0000
   0   0  -9  448439   18463                                                      536905   -2.44   -0.01  1.0000
   0   0  -9  282854   14003                                                      353933   -2.44   -0.01  1.0000
   0   0 -10   99759    8064                                                      131066    1.79    0.01  1.0000
   0   0 -10   61394    5957                                                       86413    1.79    0.01  1.0000
   0   0 -11   39792    3088                                                       35004   -0.48   -0.02  1.0000
   0   1 -10   51250    4509                                                       48134   -0.27    0.01  1.0000
   0   1 -10   38271    3591                                                       35585   -0.27    0.01  1.0000
   0   1  -9   67970    6016                                                       67597   -0.03   -0.01  1.0000
   0   1  -9  101994    7673                                                      101538   -0.03   -0.01  1.0000
   0   1  -8   58720    6789                                                       77499   -1.40    0.01  1.0000
   0   1  -8   90257    8426                                                      113227   -1.40    0.01  1.0000
   0   1  -7    3559    5239                                                       46246    6.01    0.00  1.0000
   0   1  -7    1579    4432                                                       38075    6.01    0.00  1.0000
   0  -1   7     403    3888                                                       30790    6.01    0.00  1.0000
   0   1  -7     493    4145                                                       31544    6.01    0.00  1.0000
   0   1  -6 1182276   20031                                                      875416   -5.87    0.00  1.0000
   0  -1   6 1085219   18496                                                      792189   -5.87    0.00  1.0000
   0   1  -5     305    2016                                                       11263    4.78    0.03  1.0000
   0  -1   5    1385    1570                                                        7463    4.78   -0.03  1.0000
   0   1  -4 4434002   38646                                                     5286990   -7.49   -0.02  1.0000
   0  -1   4 4112202   35936                                                     4935040   -7.49    0.02  1.0000
   0  -1   3 2025257   16287                                                     2439190    5.37   -0.01  1.0000
   0   1  -3 2445128   20714                                                     2898050    5.37    0.01  1.0000
   0   1  -2   76289    1434                                                       18003   -5.50    0.02  1.0000
   0  -1   2   77611    1125                                                       18648   -5.50   -0.02  1.0000
   0  -1   1 1892156    7881                                                     1820720    1.01    0.00  1.0000
   0   1   0  211972    2841                                                      254756    1.72   -0.03  1.0000
   0   1   2 2170654   13258                                                     1880370   -3.95    0.01  1.0000
   0  -1  -3  456776    7888                                                      414077    1.25    0.03  1.0000
   0  -1  -3  433152    6753                                                      391599    1.25    0.03  1.0000
   0  -1  -4    7892     790                                                        3848   -1.04   -0.01  1.0000
   0   1   5  506754   11898                                                      440730   -1.86    0.03  1.0000
   0  -1  -5  431462    9523                                                      370718   -1.86   -0.03  1.0000
   0   1   6  314856   11220                                                      310247    0.16   -0.03  1.0000
   0   1   7   16068    3894                                                       30638   -1.87    0.03  1.0000
   0  -1  -8  569031   18702                                                      568023   -0.03    0.02  1.0000
   0   1   8  363596   14205                                                      362791   -0.03   -0.02  1.0000
   0  -1  -9   25941    3033                                                       17764   -1.07    0.03  1.0000
   0  -1  -9   39788    4307                                                       29477   -1.07    0.03  1.0000
   0  -1 -10   35788    2908                                                       15937    2.44    0.00  1.0000
   0  -1 -11   69719    4245                                                       52846   -1.32    0.00  1.0000
   0   2 -10   61335    3776                                                       48741    1.04    0.01  1.0000
   0   2 -10   77061    4580                                                       62857    1.04    0.01  1.0000
   0   2  -9   34738    3954                                                       30489   -0.46   -0.01  1.0000
   0   2  -9   27986    3401                                                       24186   -0.46   -0.01  1.0000
   0   2  -8   24297    4139                                                       28720    0.53    0.02  1.0000
   0   2  -8   33687    4865                                                       38862    0.53    0.02  1.0000
   0   2  -7   72105    5643                                                       55708    1.26   -0.02  1.0000
   0   2  -7   83499    6317                                                       65773    1.26   -0.02  1.0000
   0  -2   6     193    3073                                                       21000   -6.14    0.00  1.0000
   0   2  -6       8    3606                                                       24335   -6.14    0.00  1.0000
   0  -2   5  488506   16428                                                      712964    5.63    0.00  1.0000
   0   2  -5  578708   19105                                                      821142    5.63    0.00  1.0000
   0   2  -4  156093    4589                                                       60307   -5.79   -0.02  1.0000
   0  -2   4  146055    4037                                                       54131   -5.79    0.02  1.0000
   0  -2   3   71605    8453                                                      314359   11.34   -0.03  1.0000
   0   2  -3   57526    7900                                                      284016   11.34    0.03  1.0000
   0   2  -2  275672    3193                                                       57079  -11.07    0.03  1.0000
   0  -2   2  272097    3040                                                       55458  -11.07   -0.03  1.0000
   0  -2   2  268192    1749                                                       53703  -11.07   -0.03  1.0000
   0  -2   1  550743    3151                                                      211352   10.93    0.05  1.0000
   0   2  -1  443911    2605                                                      147361   10.93   -0.05  1.0000
   0   2   0  938168    9764                                                     1514890  -10.15    0.05  1.0000
   0  -2  -1  513306    5617                                                      293958    6.74   -0.01  1.0000
   0  -2  -2  793094   10941                                                      925938    2.77   -0.01  1.0000
   0  -2  -3  934283   17904                                                     1988550   17.16    0.01  1.0000
   0  -2  -3  881430   17018                                                     1911090   17.16    0.01  1.0000
   0   2   3  888722   17607                                                     1921820   17.16   -0.01  1.0000
   0  -2  -3  919830   18506                                                     1967440   17.16    0.01  1.0000
   0  -2  -4  530088   15540                                                     1102810  -12.46   -0.01  1.0000
   0  -2  -4  515311   15581                                                     1081450  -12.46   -0.01  1.0000
   0  -2  -4  335239   12671                                                      811936  -12.46   -0.01  1.0000
   0   2   4  309004   12314                                                      770810  -12.46    0.01  1.0000
   0  -2  -5 3648364   36321                                                     4589800    8.99    0.00  1.0000
   0   2   6   92211    3478                                                       28894   -5.17   -0.06  1.0000
   0   2   7  193109    6745                                                       89158    5.45    0.03  1.0000
   0   2   8   13059    1350                                                        3290   -2.20   -0.06  1.0000
   0  -2  -8   19206    2076                                                        6671   -2.20    0.06  1.0000
   0  -2  -9   82372    8989                                                      125193    2.59    0.02  1.0000
   0  -2 -10    3126    1534                                                        4403   -0.40   -0.04  1.0000
   0  -2 -11    5922    1928                                                        9766   -0.85    0.02  1.0000
   0   3  -9  110724    8167                                                      152217   -2.22    0.00  1.0000
   0   3  -9   94635    7525                                                      133244   -2.22    0.00  1.0000
   0   3  -8  209717   12832                                                      277436    2.66   -0.01  1.0000
   0   3  -8  274239   14479                                                      350999    2.66   -0.01  1.0000
   0   3  -7  110429    6202                                                       61501   -3.26    0.01  1.0000
   0   3  -7   95371    5634                                                       50404   -3.26    0.01  1.0000
   0   3  -6  191846    9000                                                      136969    2.63   -0.01  1.0000
   0   3  -6  219284    9831                                                      160295    2.63   -0.01  1.0000
   0   3  -6  192265    9060                                                      137323    2.63   -0.01  1.0000
   0   3  -5    3202    1170                                                        2650   -0.20    0.01  1.0000
   0   3  -4  608626   18288                                                      778372    3.95    0.01  1.0000
   0   3  -4  415769   13886                                                      557875    3.95    0.01  1.0000
   0   3  -3   60216    1408                                                        6910   -6.28    0.00  1.0000
   0   3  -2  208280    5989                                                      139616    3.20   -0.03  1.0000
   0   3  -1  386806    7017                                                      230281   -5.50   -0.03  1.0000
   0   3  -1  244902    2820                                                      124478   -5.50   -0.03  1.0000
   0   3   0    7954    4488                                                      115438    9.70    0.01  1.0000
   0   3   0    9986    4385                                                      122854    9.70    0.01  1.0000
   0   3   2  792293    8147                                                      372376   10.83   -0.05  1.0000
   0  -3  -2  828504    8372                                                      397328   10.83    0.05  1.0000
   0  -3  -2  796221    8201                                                      375070   10.83    0.05  1.0000
   0   3   3  557720    7053                                                      244253   -9.77    0.02  1.0000
   0  -3  -3  548250    5813                                                      238000   -9.77   -0.02  1.0000
   0  -3  -4    8701    3433                                                       54714   -5.44    0.02  1.0000
   0  -3  -4   15149    4235                                                       69545   -5.44    0.02  1.0000
   0  -3  -5   34161    1916                                                       13629    2.63    0.01  1.0000
   0  -3  -5   28358    1754                                                       10063    2.63    0.01  1.0000
   0  -3  -6  452863   12434                                                      405488   -1.40    0.00  1.0000
   0   3   7  150239    9149                                                      156828    0.33    0.04  1.0000
   0   3   8   62685    7488                                                       92782   -2.10   -0.01  1.0000
   0  -3  -8   83822    8551                                                      118165   -2.10    0.01  1.0000
   0  -3  -9    2310     978                                                        1218    0.54   -0.08  1.0000
   0  -3 -10  265870   11772                                                      233625   -1.25    0.00  1.0000
   0  -3 -11   15693    2432                                                       13760    0.31   -0.01  1.0000
   0   4  -9    1806     698                                                        1929   -0.06    0.01  1.0000
   0   4  -8   89302    6212                                                       75443    0.94   -0.01  1.0000
   0   4  -8   86331    6108                                                       72714    0.94   -0.01  1.0000
   0   4  -7  157521    9579                                                      144115   -0.67    0.00  1.0000
   0   4  -7  177468   10168                                                      163220   -0.67    0.00  1.0000
   0   4  -6   42471    5436                                                       47644    0.47    0.00  1.0000
   0   4  -6   54650    6264                                                       60498    0.47    0.00  1.0000
   0   4  -6   32120    4449                                                       36638    0.47    0.00  1.0000
   0   4  -6   64046    6666                                                       70364    0.47    0.00  1.0000
   0   4  -5  506820   16916                                                      490832    0.44   -0.01  1.0000
   0   4  -5  505843   17071                                                      489870    0.44   -0.01  1.0000
   0   4  -4    6937    1073                                                        1987   -1.50    0.02  1.0000
   0   4  -3 3681155   36187                                                     3320030   -3.74   -0.03  1.0000
   0   4  -2  628434   11932                                                      416820    5.69   -0.01  1.0000
   0   4  -1  190055    9260                                                      293907   -4.11    0.05  1.0000
   0   4   0 1525418   15286                                                     1952330    6.28   -0.01  1.0000
   0   4   0 2009846   23264                                                     2495990    6.28   -0.01  1.0000
   0  -4  -1  617447    6679                                                      194071  -13.36   -0.02  1.0000
   0   4   1  625585    6460                                                      198645  -13.36    0.02  1.0000
   0  -4  -2 4252561   28065                                                     3241160   10.13    0.00  1.0000
   0  -4  -3  634036   18685                                                     1299150  -13.29    0.00  1.0000
   0  -4  -4  977284   21428                                                     1467430    8.62   -0.01  1.0000
   0  -4  -5  164196    6784                                                      172656    0.40    0.01  1.0000
   0  -4  -5  175616    8315                                                      184362    0.40    0.01  1.0000
   0  -4  -6  403639   11490                                                      312052    2.97   -0.02  1.0000
   0  -4  -7  262663    9752                                                      198394   -2.60    0.00  1.0000
   0  -4  -8  220848   13586                                                      287055    2.55    0.01  1.0000
   0   4   8  180869   12274                                                      241196    2.55   -0.01  1.0000
   0  -4  -9  176750   11132                                                      186889   -0.46   -0.01  1.0000
   0  -4 -10   51143    4974                                                       41136    0.90    0.07  1.0000
   0  -4 -11   47164    4301                                                       43429   -0.34    0.00  1.0000
   0   5  -8   15768    2857                                                       20922   -0.74    0.01  1.0000
   0  -5   8   13605    2512                                                       18418   -0.74   -0.01  1.0000
   0   5  -7    1050     427                                                         475    0.41   -0.01  1.0000
   0   5  -7     276     472                                                          36    0.41   -0.01  1.0000
   0   5  -7    1296     682                                                         646    0.41   -0.01  1.0000
   0   5  -6  257887   11451                                                      203988   -2.17    0.02  1.0000
   0   5  -6  236424   11000                                                      184951   -2.17    0.02  1.0000
   0   5  -5   36539    6977                                                       75947    3.27    0.00  1.0000
   0   5  -5   22742    5819                                                       55337    3.27    0.00  1.0000
   0   5  -5   38932    7197                                                       79380    3.27    0.00  1.0000
   0   5  -5   24357    6060                                                       57840    3.27    0.00  1.0000
   0   5  -4  289888   16317                                                      458036   -5.35    0.02  1.0000
   0   5  -4  314285   16839                                                      488576   -5.35    0.02  1.0000
   0   5  -4  293978   16418                                                      463173   -5.35    0.02  1.0000
   0   5  -3    3424    5199                                                       54401    6.76   -0.02  1.0000
   0   5  -2  454165   12628                                                      358974   -2.89    0.03  1.0000
   0   5  -1  453215   11060                                                      315584    4.31    0.00  1.0000
   0   5   0     280    2606                                                       20234   -6.15   -0.01  1.0000
   0  -5   0     145    2604                                                       21586   -6.15    0.01  1.0000
   0  -5  -1 2174723   28508                                                     2624280    5.62    0.01  1.0000
   0  -5  -2 1612761   23432                                                     1724130    1.67   -0.02  1.0000
   0  -5  -3  963166   17345                                                      881539    1.64    0.02  1.0000
   0  -5  -4  304547   10219                                                      281453    0.83   -0.03  1.0000
   0  -5  -5 1653440   27771                                                     1824560    2.51    0.00  1.0000
   0  -5  -6  895961   23867                                                     1186540   -5.52   -0.03  1.0000
   0  -5  -7  400395   14352                                                      392326    0.25    0.00  1.0000
   0  -5  -8  143193    8645                                                      135910   -0.38   -0.01  1.0000
   0  -5  -8  149689    9618                                                      142240   -0.38   -0.01  1.0000
   0  -5  -9   87349    7239                                                       78079   -0.62    0.03  1.0000
   0  -5 -10   30805    4464                                                       33161   -0.25   -0.03  1.0000
   0  -5 -11    8833    2226                                                       11505   -0.51    0.00  1.0000
   0  -6   7   48082    4735                                                       55343   -0.62   -0.01  1.0000
   0   6  -7   44555    4810                                                       51555   -0.62    0.01  1.0000
   0   6  -6   36372    3955                                                       24869    1.28   -0.02  1.0000
   0   6  -5  226430   12624                                                      242090    0.63    0.02  1.0000
   0   6  -5  222750   12477                                                      238284    0.63    0.02  1.0000
   0   6  -4   45771    4945                                                       40090   -0.53   -0.05  1.0000
   0   6  -4   63855    6082                                                       57112   -0.53   -0.05  1.0000
   0   6  -4   68166    6399                                                       61192   -0.53   -0.05  1.0000
   0   6  -4   53923    5572                                                       47741   -0.53   -0.05  1.0000
   0   6  -3   94947    6364                                                       68188    1.82    0.02  1.0000
   0   6  -3   93121    6277                                                       66642    1.82    0.02  1.0000
   0   6  -3   97206    6216                                                       70103    1.82    0.02  1.0000
   0   6  -2     563    1735                                                        6430   -2.18   -0.02  1.0000
   0  -6   1  399648   12650                                                      370603   -0.91   -0.01  1.0000
   0  -6   0   15080    3439                                                       28394   -1.77    0.01  1.0000
   0  -6  -1   40065    2231                                                       12325    3.45   -0.01  1.0000
   0  -6  -3 1260488   22547                                                     1206450   -0.94   -0.02  1.0000
   0  -6  -4  122906    9030                                                      178362   -2.78    0.03  1.0000
   0  -6  -5      11    1275                                                        3415    2.13    0.00  1.0000
   0  -6  -6  154231    6595                                                       81320   -4.16    0.03  1.0000
   0  -6  -7   51363    2722                                                       12632    4.42    0.03  1.0000
   0  -6  -7   63773    3323                                                       19124    4.42    0.03  1.0000
   0  -6  -8   45987    5240                                                       48805   -0.25    0.04  1.0000
   0  -6  -8   48786    5913                                                       51686   -0.25    0.04  1.0000
   0  -6  -8   52854    5786                                                       55872   -0.25    0.04  1.0000
   0  -6  -9   17916    4288                                                       26765    1.15   -0.01  1.0000
   0  -6 -10   10329    2301                                                        9559   -0.15    0.01  1.0000
   0  -6 -11   49928    3831                                                       40459    0.86    0.00  1.0000
   0  -7   7  108755    4737                                                       92040   -1.02    0.00  1.0000
   0  -7   6    1824    1636                                                        6371    1.44   -0.01  1.0000
   0  -7   5   19917    4797                                                       38309   -2.11    0.04  1.0000
   0   7  -5   16712    4568                                                       33811   -2.11   -0.04  1.0000
   0   7  -4  180372   11407                                                      200773    0.90    0.03  1.0000
   0   7  -3  120473    7219                                                       81302   -2.40    0.00  1.0000
   0   7  -3   77719    5168                                                       47013   -2.40    0.00  1.0000
   0  -7   2  413281   14465                                                      344820    2.15   -0.02  1.0000
   0   7  -2  321055   12585                                                      261082    2.15    0.02  1.0000
   0  -7   1   29282    2185                                                        9547   -2.84   -0.01  1.0000
   0  -7   0  106098   10341                                                      210880    5.17    0.00  1.0000
   0  -7  -1   15936    5050                                                       50310   -3.79    0.02  1.0000
   0  -7  -2  103846    5610                                                       62560    2.79   -0.01  1.0000
   0  -7  -3  565174   15510                                                      449410   -3.15    0.02  1.0000
   0  -7  -4  399368   17837                                                      589410    5.25   -0.01  1.0000
   0  -7  -5     278     744                                                         764   -1.71    0.01  1.0000
   0  -7  -6   39539    4137                                                       28147    1.20   -0.03  1.0000
   0  -7  -6   45276    4386                                                       33017    1.20   -0.03  1.0000
   0  -7  -6   35172    3763                                                       24482    1.20   -0.03  1.0000
   0  -7  -7   48178    5989                                                       56655    0.72    0.02  1.0000
   0  -7  -7   42310    5417                                                       50276    0.72    0.02  1.0000
   0  -7  -7   48592    5896                                                       57104    0.72    0.02  1.0000
   0  -7  -8    1332    1176                                                        3012   -0.71   -0.04  1.0000
   0  -7  -8     173     755                                                         995   -0.71   -0.04  1.0000
   0  -7  -9    7885    2848                                                       12569   -0.90   -0.03  1.0000
   0  -7 -10   27030    3481                                                       22863   -0.51    0.02  1.0000
   0  -7 -11    9680    1539                                                        7972   -0.35   -0.03  1.0000
   0   8  -6   15455    1971                                                       14913   -0.09    0.01  1.0000
   0  -8   6   21278    2317                                                       20641   -0.09   -0.01  1.0000
   0  -8   5    1178     579                                                         754    0.27    0.04  1.0000
   0  -8   4   16971    3534                                                       22969   -0.82   -0.08  1.0000
   0  -8   3  123340   10057                                                      161097    1.94    0.04  1.0000
   0  -8   2  167760   10066                                                      155253   -0.60    0.00  1.0000
   0  -8   1   13506    2118                                                        8690    0.89    0.01  1.0000
   0  -8   1   10584    1909                                                        6382    0.89    0.01  1.0000
   0  -8   1   18243    2795                                                       12560    0.89    0.01  1.0000
   0  -8   0   44700    4996                                                       44488   -0.02    0.03  1.0000
   0  -8   0   49452    5397                                                       49229   -0.02    0.03  1.0000
   0  -8   0   38275    4741                                                       38079   -0.02    0.03  1.0000
   0  -8  -1   37071    3849                                                       26198   -1.19   -0.03  1.0000
   0  -8  -1   31859    3499                                                       21848   -1.19   -0.03  1.0000
   0  -8  -1   31390    3525                                                       21460   -1.19   -0.03  1.0000
   0  -8  -2   69868    5383                                                       49740    1.60    0.00  1.0000
   0  -8  -2   54485    4294                                                       36910    1.60    0.00  1.0000
   0  -8  -2   76575    5689                                                       55423    1.60    0.00  1.0000
   0  -8  -3  321973   14445                                                      350234   -0.94    0.00  1.0000
   0  -8  -3  323199   14565                                                      351513   -0.94    0.00  1.0000
   0  -8  -4   81847    8252                                                      115250    2.07   -0.01  1.0000
   0  -8  -4   68594    7603                                                       99415    2.07   -0.01  1.0000
   0  -8  -4   70107    7691                                                      101234    2.07   -0.01  1.0000
   0  -8  -5  240644   10592                                                      179746   -2.58    0.01  1.0000
   0  -8  -5  209553    9383                                                      153022   -2.58    0.01  1.0000
   0  -8  -5  208622    9823                                                      152226   -2.58    0.01  1.0000
   0  -8  -6   50340    5526                                                       48879    0.13    0.00  1.0000
   0  -8  -6   58448    6067                                                       56872    0.13    0.00  1.0000
   0  -8  -6   44084    5073                                                       42717    0.13    0.00  1.0000
   0  -8  -7  140842    9373                                                      134857   -0.31    0.01  1.0000
   0  -8  -7  112836    8035                                                      107486   -0.31    0.01  1.0000
   0  -8  -8  116615    8207                                                      105250   -0.66   -0.01  1.0000
   0  -8  -8  189193   10302                                                      174638   -0.66   -0.01  1.0000
   0  -8  -9     888     201                                                         565    0.23    0.00  1.0000
   0  -8 -10    3903     905                                                        2408    0.52    0.00  1.0000
   0  -9   4   35091    4023                                                       41404   -0.62   -0.01  1.0000
   0  -9   3   15748    1990                                                        6693    1.69    0.06  1.0000
   0  -9   2  164764    8362                                                      120492   -2.27    0.03  1.0000
   0  -9   1   41253    5826                                                       54461    1.17   -0.03  1.0000
   0  -9   1   31188    4667                                                       42792    1.17   -0.03  1.0000
   0  -9   0   71042    7730                                                       96188   -1.69    0.04  1.0000
   0  -9   0   59898    7027                                                       83144   -1.69    0.04  1.0000
   0  -9  -1   49979    6226                                                       65914    1.28   -0.04  1.0000
   0  -9  -1   53281    6555                                                       69698    1.28   -0.04  1.0000
   0  -9  -2   51772    4674                                                       36237   -1.44    0.06  1.0000
   0  -9  -2   56948    4695                                                       40587   -1.44    0.06  1.0000
   0  -9  -2   66813    5677                                                       48977   -1.44    0.06  1.0000
   0  -9  -3 1348682   28425                                                     1308610    0.67   -0.03  1.0000
   0  -9  -3 1437247   30322                                                     1395870    0.67   -0.03  1.0000
   0  -9  -4  284701   14231                                                      322968   -1.34    0.03  1.0000
   0  -9  -4  374572   15982                                                      418287   -1.34    0.03  1.0000
   0  -9  -4  410079   17375                                                      455764   -1.34    0.03  1.0000
   0  -9  -4  301101   14700                                                      340420   -1.34    0.03  1.0000
   0  -9  -5   84357    7569                                                       89295    0.32   -0.01  1.0000
   0  -9  -5   74287    6912                                                       78926    0.32   -0.01  1.0000
   0  -9  -6   48841    5226                                                       46458   -0.21    0.00  1.0000
   0  -9  -6   50320    5698                                                       47901   -0.21    0.00  1.0000
   0  -9  -7   26037    2945                                                       15617    1.41   -0.02  1.0000
   0  -9  -7   35706    3852                                                       23277    1.41   -0.02  1.0000
   0  -9  -8    9346    1919                                                        7409   -0.41    0.01  1.0000
   0  -9  -8   22874    3255                                                       19780   -0.41    0.01  1.0000
   0  -9  -9   35556    4222                                                       40879    0.53   -0.01  1.0000
   0  -9 -10      77     362                                                         453   -0.48    0.02  1.0000
   0 -10   3   34451    3522                                                       39963   -0.55    0.03  1.0000
   0 -10   2    1093     889                                                        1502   -0.22   -0.07  1.0000
   0 -10   1  235240   10899                                                      243389    0.32   -0.01  1.0000
   0 -10   0     779     856                                                        1948    0.63   -0.03  1.0000
   0 -10   0    1165    1242                                                        2536    0.63   -0.03  1.0000
   0 -10  -1   25333    3820                                                       25756   -0.05    0.01  1.0000
   0 -10  -1   21682    3451                                                       22073   -0.05    0.01  1.0000
   0 -10  -2   37603    4918                                                       38777    0.12   -0.04  1.0000
   0 -10  -2   28305    3847                                                       29325    0.12   -0.04  1.0000
   0 -10  -3  132455    9105                                                      138957    0.34   -0.01  1.0000
   0 -10  -3  161735   10440                                                      168912    0.34   -0.01  1.0000
   0 -10  -4   82106    6548                                                       78300    0.26   -0.01  1.0000
   0 -10  -4  101211    7518                                                       96981    0.26   -0.01  1.0000
   0 -10  -5   63401    5897                                                       63740   -0.03    0.02  1.0000
   0 -10  -5   66045    6194                                                       66391   -0.03    0.02  1.0000
   0 -10  -6    7328    2072                                                        8758    0.31   -0.03  1.0000
   0 -10  -6    6080    1822                                                        7389    0.31   -0.03  1.0000
   0 -10  -7   51173    5048                                                       49183   -0.17    0.04  1.0000
   0 -10  -7   40173    4110                                                       38412   -0.17    0.04  1.0000
   0 -10  -8    4487    1774                                                        6825   -0.60   -0.02  1.0000
   0 -10  -8   19790    3296                                                       24431   -0.60   -0.02  1.0000
   0 -10  -9       4     379                                                         -99   -0.08    0.01  1.0000
   0 -11   1   23266    2483                                                       22120    0.15    0.05  1.0000
   0 -11   0    4480    1249                                                        4259   -0.06    0.02  1.0000
   0 -11  -1    2548     561                                                         882   -0.81    0.02  1.0000
   0 -11  -1    1119     242                                                         160   -0.81    0.02  1.0000
   0 -11  -2       1     709                                                         198    0.58    0.00  1.0000
   0 -11  -3    8233    1587                                                        5418   -0.66    0.03  1.0000
   0 -11  -4   81119    5939                                                       90071    0.59    0.03  1.0000
   0 -11  -4  120530    7591                                                      131390    0.59    0.03  1.0000
   0 -11  -5    2918     755                                                        1281   -0.71   -0.02  1.0000
   0 -11  -5    1017     491                                                         186   -0.71   -0.02  1.0000
   0 -11  -6   19789    2394                                                       14661    0.76    0.01  1.0000
   0 -11  -6   15876    2065                                                       11323    0.76    0.01  1.0000
   0 -11  -7     938     601                                                         432   -0.38    0.00  1.0000
   0 -11  -8    3262     870                                                        2746    0.18    0.00  1.0000
   0 -12  -2     785     531                                                        1043    0.17    0.01  1.0000
   0 -12  -3     229     214                                                         159   -0.10    0.00  1.0000
   0 -12  -4   75351    4323                                                       75141   -0.01   -0.02  1.0000
   1 -11  -7    8406    1590                                                        8249   -0.03   -0.03  1.0000
   1 -11  -7    4712    1194                                                        4594   -0.03   -0.03  1.0000
   1 -11  -6     133     339                                                         333    0.26    0.03  1.0000
   1 -11  -5   10821    2187                                                       11935   -0.20   -0.02  1.0000
   1 -11  -4    5773    1457                                                        5353    0.11    0.02  1.0000
   1 -11  -3   30513    3353                                                       29603   -0.10    0.00  1.0000
   1 -11  -3   38714    3791                                                       37688   -0.10    0.00  1.0000
   1 -11  -2   26598    3102                                                       24523    0.25    0.03  1.0000
   1 -11  -1    8827    2038                                                       10180   -0.27   -0.01  1.0000
   1 -11  -1    6945    1772                                                        8151   -0.27   -0.01  1.0000
   1 -11   0   14820    2067                                                       11698   -0.53    0.04  1.0000
   1 -11   1    8493    1621                                                       10926    0.48    0.05  1.0000
   1 -11   1    5848    1495                                                        7894    0.48    0.05  1.0000
   1 -10  -9   13859    1736                                                       12529   -0.22    0.00  1.0000
   1 -10  -8    7874    1876                                                       10031   -0.44   -0.02  1.0000
   1 -10  -8    2250    1025                                                        3464   -0.44   -0.02  1.0000
   1 -10  -7   71645    6351                                                       81393   -0.68    0.02  1.0000
   1 -10  -6   69946    6836                                                       85172    1.06    0.00  1.0000
   1 -10  -5    1474     637                                                         310   -0.80   -0.01  1.0000
   1 -10  -4   32813    3830                                                       24763    0.92    0.00  1.0000
   1 -10  -4   30034    3318                                                       22357    0.92    0.00  1.0000
   1 -10  -3   11946    2178                                                        8642   -0.63    0.00  1.0000
   1 -10  -3   19097    3012                                                       14849   -0.63    0.00  1.0000
   1 -10  -3   12308    2087                                                        8951   -0.63    0.00  1.0000
   1 -10  -2   84186    7133                                                       94324    0.66   -0.02  1.0000
   1 -10  -2   64399    6097                                                       73302    0.66   -0.02  1.0000
   1 -10  -1   14572    3562                                                       20649   -0.89    0.00  1.0000
   1 -10   0   29460    3205                                                       22206    0.88   -0.02  1.0000
   1 -10   0   31173    3543                                                       23696    0.88   -0.02  1.0000
   1 -10   1      19     174                                                          90    0.20    0.00  1.0000
   1 -10   1      26     475                                                        -239    0.20    0.00  1.0000
   1 -10   2     228     386                                                         408   -0.16   -0.12  1.0000
   1 -10   3   20848    2851                                                       25519   -0.59    0.05  1.0000
   1  -9  -9   18703    2854                                                       19924    0.17    0.01  1.0000
   1  -9  -8   72708    5979                                                       74499    0.13    0.00  1.0000
   1  -9  -8   42239    4612                                                       43607    0.13    0.00  1.0000
   1  -9  -7   26138    3199                                                       18782    0.95    0.03  1.0000
   1  -9  -6    8546    1903                                                        5988    0.58   -0.02  1.0000
   1  -9  -5  128534    7971                                                      116837   -0.65    0.02  1.0000
   1  -9  -5  153333    9873                                                      140532   -0.65    0.02  1.0000
   1  -9  -4   66386    6186                                                       60446   -0.46    0.00  1.0000
   1  -9  -4   68043    6174                                                       62028   -0.46    0.00  1.0000
   1  -9  -4   51495    4995                                                       46281   -0.46    0.00  1.0000
   1  -9  -3   15074    3156                                                       17842    0.42    0.02  1.0000
   1  -9  -3   14580    3300                                                       17304    0.42    0.02  1.0000
   1  -9  -3   17572    3627                                                       20551    0.42    0.02  1.0000
   1  -9  -2  222996   11878                                                      215592   -0.31    0.00  1.0000
   1  -9  -2  209236   10843                                                      202066   -0.31    0.00  1.0000
   1  -9  -1  300614   14359                                                      312919    0.43    0.01  1.0000
   1  -9   0    5448    1799                                                        4922    0.14    0.00  1.0000
   1  -9   0    3916    1328                                                        3472    0.14    0.00  1.0000
   1  -9   1  254513   12659                                                      267746   -0.50   -0.02  1.0000
   1  -9   1  281916   13050                                                      295835   -0.50   -0.02  1.0000
   1  -9   2   50850    4939                                                       43700   -0.64    0.00  1.0000
   1  -9   2   39202    3982                                                       32957   -0.64    0.00  1.0000
   1  -9   3    9794    2401                                                       10545    0.14    0.10  1.0000
   1  -9   4   63820    4816                                                       54198    0.77    0.00  1.0000
   1  -9   5    9260    1936                                                       13413   -0.76   -0.02  1.0000
   1  -8 -10     666     420                                                         975    0.21    0.01  1.0000
   1  -8  -9   29696    3337                                                       23899    0.69    0.00  1.0000
   1  -8  -8    4088     915                                                        1752   -0.85    0.00  1.0000
   1  -8  -8    5793    1254                                                        2919   -0.85    0.00  1.0000
   1  -8  -7   37618    5310                                                       43739    0.59   -0.02  1.0000
   1  -8  -6   25440    4702                                                       41508   -1.71    0.00  1.0000
   1  -8  -6   37350    6179                                                       56405   -1.71    0.00  1.0000
   1  -8  -5    4199    1869                                                        5776   -0.43   -0.01  1.0000
   1  -8  -5    2074    1262                                                        3220   -0.43   -0.01  1.0000
   1  -8  -5    2973    1715                                                        4319   -0.43   -0.01  1.0000
   1  -8  -4  239871   11670                                                      235870   -0.16    0.00  1.0000
   1  -8  -4  249999   12363                                                      245914   -0.16    0.00  1.0000
   1  -8  -3  165302   10196                                                      197211    1.45   -0.03  1.0000
   1  -8  -3  175953   11221                                                      208829    1.45   -0.03  1.0000
   1  -8  -2  436277   17197                                                      494433   -1.65    0.01  1.0000
   1  -8  -2  439594   17335                                                      497964   -1.65    0.01  1.0000
   1  -8  -1  213850   11982                                                      236739    0.93   -0.04  1.0000
   1  -8  -1  197058   11497                                                      219053    0.93   -0.04  1.0000
   1  -8   0  318173   12423                                                      254647   -2.30    0.03  1.0000
   1  -8   0  333816   12803                                                      268662   -2.30    0.03  1.0000
   1  -8   1   17947    1988                                                        5983    2.19   -0.04  1.0000
   1  -8   1   17475    1855                                                        5711    2.19   -0.04  1.0000
   1  -8   1   16140    1677                                                        4959    2.19   -0.04  1.0000
   1  -8   2   37589    5576                                                       57185   -1.75    0.05  1.0000
   1  -8   2   49984    6793                                                       72267   -1.75    0.05  1.0000
   1  -8   3   83607    9189                                                      136678    3.12    0.01  1.0000
   1  -8   4    4553     260                                                         740   -1.71   -0.07  1.0000
   1  -8   5   13871    2180                                                        9887    0.71   -0.03  1.0000
   1  -8   6   10328    1809                                                        9628   -0.14    0.04  1.0000
   1  -7 -10   43907    4234                                                       41322   -0.24    0.00  1.0000
   1  -7  -9   13286    2098                                                        7857   -1.03   -0.03  1.0000
   1  -7  -8   95740    7967                                                      113596   -1.07   -0.05  1.0000
   1  -7  -8   85602    8355                                                      102527   -1.07   -0.05  1.0000
   1  -7  -7    4547    1838                                                        5332    0.22    0.02  1.0000
   1  -7  -6  480189   17261                                                      512143    0.88   -0.03  1.0000
   1  -7  -6  429158   17019                                                      459394    0.88   -0.03  1.0000
   1  -7  -5   22786    4284                                                       31502   -1.03    0.02  1.0000
   1  -7  -5   32430    4904                                                       42692   -1.03    0.02  1.0000
   1  -7  -4    4320    4450                                                       34159    4.61   -0.01  1.0000
   1  -7  -3  196878    8477                                                      130268   -3.20    0.03  1.0000
   1  -7  -2     117    1364                                                        4248    2.10   -0.01  1.0000
   1  -7  -1   72884    7380                                                      102628   -1.95    0.01  1.0000
   1  -7   0   98631    9193                                                      155937    3.13    0.02  1.0000
   1  -7   1  108288    7646                                                      105002   -0.19    0.01  1.0000
  -1   7  -2   78790    6263                                                       73014   -0.41    0.01  1.0000
   1  -7   2   84083    6383                                                       78113   -0.41   -0.01  1.0000
   1  -7   2  109939    7606                                                      103096   -0.41   -0.01  1.0000
  -1   7  -2  105904    7642                                                       99190   -0.41    0.01  1.0000
  -1   7  -3   63458    6089                                                       63665    0.02   -0.01  1.0000
   1  -7   3   46163    5070                                                       46340    0.02    0.01  1.0000
  -1   7  -3   43400    5044                                                       43571    0.02   -0.01  1.0000
  -1   7  -3   67168    6670                                                       67381    0.02   -0.01  1.0000
  -1   7  -4  163510    9364                                                      131506   -1.61    0.07  1.0000
  -1   7  -4  154184    8771                                                      123157   -1.61    0.07  1.0000
  -1   7  -5    4092    1585                                                        3875   -0.07   -0.08  1.0000
   1  -7   6   33252    3927                                                       31494    0.19    0.00  1.0000
  -1   7  -6   28083    3597                                                       26469    0.19    0.00  1.0000
   1  -7   7   49282    3819                                                       44260   -0.45    0.00  1.0000
  -1   7  -7   24937    2381                                                       21403   -0.45    0.00  1.0000
   1  -6 -11   18255    1915                                                       13130    0.79   -0.01  1.0000
   1  -6 -10    1345     778                                                        1303   -0.02    0.05  1.0000
   1  -6  -9  104338    8604                                                      115912    0.67   -0.06  1.0000
   1  -6  -8     251      66                                                         433    1.37    0.06  1.0000
   1  -6  -8     608     301                                                         127    1.37    0.06  1.0000
   1  -6  -7  145042    7550                                                       98887    2.57    0.04  1.0000
   1  -6  -7  140437    7138                                                       95092    2.57    0.04  1.0000
   1  -6  -7  138413    7962                                                       93428    2.57    0.04  1.0000
   1  -6  -6   17446    3008                                                       16267   -0.18    0.01  1.0000
   1  -6  -6   22158    3274                                                       20827   -0.18    0.01  1.0000
   1  -6  -5  156676    7821                                                      121959   -1.80    0.02  1.0000
   1  -6  -4  192245    8293                                                      144807    2.24    0.01  1.0000
   1  -6  -3   43060    7773                                                      134385   -6.16   -0.01  1.0000
   1  -6  -2  184328    7087                                                      117170    3.37   -0.02  1.0000
  -1   6   1  339945   12197                                                      416891   -2.42    0.01  1.0000
   1  -6  -1  347540   13469                                                      425298   -2.42   -0.01  1.0000
   1  -6   0  182209    6677                                                      102896    4.10    0.00  1.0000
  -1   6   0  169727    6301                                                       93571    4.10    0.00  1.0000
  -1   6  -1      72    3211                                                       20928   -5.93    0.02  1.0000
  -1   6  -2 1123999   26017                                                     1259500    2.40    0.00  1.0000
  -1   6  -3    3976    2684                                                       12436   -1.87    0.01  1.0000
  -1   6  -4   12660    4340                                                       30906    2.45   -0.03  1.0000
  -1   6  -4   10864    4194                                                       28062    2.45   -0.03  1.0000
  -1   6  -4   12575    4390                                                       30773    2.45   -0.03  1.0000
  -1   6  -5  299177   12898                                                      263191   -1.31    0.00  1.0000
  -1   6  -5  267529   12346                                                      233562   -1.31    0.00  1.0000
  -1   6  -6   58916    7712                                                       96076    2.60   -0.01  1.0000
  -1   6  -7    8377    3069                                                       18671   -1.75    0.04  1.0000
   1  -6   8   26702    3469                                                       39108    1.33    0.02  1.0000
   1  -5 -11   32205    3182                                                       30845   -0.15   -0.01  1.0000
   1  -5 -10  261779   12286                                                      296453   -1.27   -0.02  1.0000
   1  -5  -9   10487    2378                                                        8483    0.40   -0.02  1.0000
   1  -5  -8  438956   16154                                                      383183   -1.68    0.04  1.0000
   1  -5  -8  391164   13685                                                      338620   -1.68    0.04  1.0000
   1  -5  -7     439     790                                                        -415    0.81   -0.03  1.0000
   1  -5  -7       1     499                                                         444    0.81   -0.03  1.0000
   1  -5  -6  302320   15972                                                      544279   -7.27   -0.04  1.0000
   1  -5  -5  247917   12433                                                      357841    3.88    0.00  1.0000
   1  -5  -4  560881   13842                                                      490716   -1.87   -0.01  1.0000
   1  -5  -3  748516   14936                                                      615936    3.11   -0.03  1.0000
   1  -5  -2 1456253   22576                                                     1496980   -0.65    0.02  1.0000
  -1   5   1 4157759   35951                                                     4711250    5.09   -0.03  1.0000
   1  -5  -1 4396922   40864                                                     4965620    5.09    0.03  1.0000
  -1   5   0   44160    6908                                                      148832   -6.80    0.00  1.0000
  -1   5  -1 1437613   21649                                                     1261710    2.93   -0.02  1.0000
  -1   5  -2  103000    5867                                                       80108   -1.47    0.01  1.0000
  -1   5  -3  813966   22698                                                     1050780    4.75    0.00  1.0000
  -1   5  -4   19830    5259                                                       52348   -3.40   -0.02  1.0000
  -1   5  -5   25737    3130                                                       15307    1.42    0.04  1.0000
  -1   5  -5   27584    3214                                                       16739    1.42    0.04  1.0000
  -1   5  -5   26735    3122                                                       16079    1.42    0.04  1.0000
  -1   5  -5   29448    3338                                                       18197    1.42    0.04  1.0000
  -1   5  -6   71484    6535                                                       65859   -0.42   -0.02  1.0000
  -1   5  -6   55355    5584                                                       50419   -0.42   -0.02  1.0000
  -1   5  -6   76321    6663                                                       70505   -0.42   -0.02  1.0000
  -1   5  -7   56163    4935                                                       43066   -1.14    0.02  1.0000
  -1   5  -7   41557    4016                                                       30413   -1.14    0.02  1.0000
  -1   5  -7   56694    5174                                                       43531   -1.14    0.02  1.0000
  -1   5  -8  283544   11151                                                      263471    0.74   -0.02  1.0000
  -1   5  -9    5603     953                                                        3437   -0.63    0.00  1.0000
   1  -4 -11   14270    2088                                                       12874   -0.23    0.02  1.0000
   1  -4 -10  133662    9085                                                      155064    1.09   -0.01  1.0000
   1  -4  -9  323141   14278                                                      307359    0.54    0.05  1.0000
  -1   4   8   47198    4742                                                       38400    0.82    0.00  1.0000
   1  -4  -8   78090    6664                                                       66643    0.82    0.00  1.0000
   1  -4  -7 1061361   25586                                                     1077250    0.30   -0.01  1.0000
   1  -4  -7  940383   22453                                                      955342    0.30   -0.01  1.0000
   1  -4  -6    8788    1752                                                        6698   -0.46    0.01  1.0000
   1  -4  -6   12052    1937                                                        9580   -0.46    0.01  1.0000
   1  -4  -5 3013827   30229                                                     2471320    6.35    0.03  1.0000
   1  -4  -5 3139089   29808                                                     2584870    6.35    0.03  1.0000
   1  -4  -4  563203   14060                                                      599831    0.93   -0.03  1.0000
   1  -4  -4  544591   12803                                                      580618    0.93   -0.03  1.0000
   1  -4  -3  579043   10140                                                      463176   -3.11    0.02  1.0000
   1  -4  -3  672135   12607                                                      546801   -3.11    0.02  1.0000
  -1   4   2 1076785   12339                                                     1042120    0.65    0.00  1.0000
   1  -4  -2 1086899   13833                                                     1052070    0.65    0.00  1.0000
  -1   4   1  308364    8217                                                      341415   -1.12    0.01  1.0000
   1  -4  -1  326005    9528                                                      359964   -1.12   -0.01  1.0000
  -1   4   0 1979745   17227                                                     1670570   -4.43    0.03  1.0000
  -1   4   0 3202343   25779                                                     2805560   -4.43    0.03  1.0000
  -1   4  -1   20406    5744                                                      116692    7.69    0.02  1.0000
  -1   4  -2  656106   16547                                                      816779   -3.63    0.03  1.0000
  -1   4  -3  568267   12774                                                      418097    4.15   -0.03  1.0000
  -1   4  -4  117613    2783                                                       17601   -8.14    0.01  1.0000
  -1   4  -5  107724    4173                                                       36040    5.35   -0.02  1.0000
  -1   4  -5  118370    4928                                                       42303    5.35   -0.02  1.0000
  -1   4  -6  127081   11234                                                      198392   -3.44    0.01  1.0000
  -1   4  -6  117842   10830                                                      186805   -3.44    0.01  1.0000
  -1   4  -6  136563   11287                                                      210196   -3.44    0.01  1.0000
  -1   4  -7  300628   15225                                                      352429    1.76   -0.02  1.0000
  -1   4  -7  319027   15183                                                      372328    1.76   -0.02  1.0000
  -1   4  -8    6796    1602                                                        4393   -0.63    0.02  1.0000
  -1   4  -8    7071    1455                                                        4614   -0.63    0.02  1.0000
  -1   4  -9  156845    7236                                                      144072    0.64   -0.01  1.0000
  -1   4  -9  174684    8142                                                      161189    0.64   -0.01  1.0000
   1  -3 -11  146977    7141                                                      156864   -0.49   -0.01  1.0000
   1  -3 -10   79311    6235                                                       75117   -0.29    0.02  1.0000
   1  -3  -9   40602    4196                                                       26411   -1.51   -0.04  1.0000
  -1   3   8   97749    7261                                                       92607    0.32    0.00  1.0000
   1  -3  -8  185910   10821                                                      178793    0.32    0.00  1.0000
   1  -3  -7     110    1858                                                        5816   -2.55   -0.04  1.0000
  -1   3   7       9    1439                                                        3948   -2.55    0.04  1.0000
   1  -3  -5  116112    5028                                                       68538   -3.05   -0.01  1.0000
   1  -3  -5  120421    4736                                                       71858   -3.05   -0.01  1.0000
   1  -3  -4  342781    9401                                                      332087    0.36    0.00  1.0000
   1  -3  -4  382267   10155                                                      370969    0.36    0.00  1.0000
   1  -3  -3  705344    6855                                                      209886  -14.77    0.02  1.0000
   1  -3  -3  732611    6866                                                      224878  -14.77    0.02  1.0000
  -1   3   2  209009   11981                                                      743321   15.67   -0.02  1.0000
   1  -3  -2  199491   10729                                                      725273   15.67    0.02  1.0000
  -1   3   1 2267180   15203                                                     1280920  -14.47    0.01  1.0000
   1  -3  -1 2276264   15258                                                     1287750  -14.47   -0.01  1.0000
  -1   3   1 2209878   12608                                                     1237940  -14.47    0.01  1.0000
  -1   3   0 1528224   20751                                                     2555190   14.02   -0.02  1.0000
  -1   3   0 1135781   17199                                                     2039220   14.02   -0.02  1.0000
  -1   3  -1  575177    7536                                                      276498   -9.00    0.01  1.0000
  -1   3  -1  435917    4853                                                      182899   -9.00    0.01  1.0000
  -1   3  -2  158508    5864                                                      277491    4.98   -0.04  1.0000
   1  -3   2  280501    7368                                                      433315    4.98    0.04  1.0000
  -1   3  -3 1613579   25169                                                     2110280   -7.06   -0.02  1.0000
  -1   3  -4   57244    6466                                                      119063    4.09    0.02  1.0000
  -1   3  -5    3218    1944                                                        9429    1.56    0.01  1.0000
  -1   3  -6  266233   11599                                                      237484    1.11    0.01  1.0000
  -1   3  -6  277731   12051                                                      248350    1.11    0.01  1.0000
  -1   3  -7   34725    5393                                                       45877   -1.08    0.00  1.0000
  -1   3  -7   24061    4527                                                       33475   -1.08    0.00  1.0000
  -1   3  -7   40191    5569                                                       52130   -1.08    0.00  1.0000
  -1   3  -8   49556    6223                                                       65801    1.31   -0.01  1.0000
  -1   3  -8   41096    5929                                                       55992    1.31   -0.01  1.0000
  -1   3  -9    6512    1126                                                        2545   -1.17    0.00  1.0000
  -1   3  -9    4033     797                                                        1106   -1.17    0.00  1.0000
  -1   3 -10   74275    4672                                                       70342    0.28    0.01  1.0000
  -1   3 -10   67262    4149                                                       63522    0.28    0.01  1.0000
   1  -2 -11    1003     485                                                         745   -0.17    0.00  1.0000
   1  -2 -10   94452    7164                                                      101194   -0.42    0.00  1.0000
   1  -2  -9  368454   16787                                                      440248    2.19   -0.02  1.0000
   1  -2  -8  316784   13702                                                      288198   -1.01    0.02  1.0000
  -1   2   7  203465    8555                                                      142420    2.85    0.01  1.0000
   1  -2  -7  252440   10285                                                      183826    2.85   -0.01  1.0000
  -1   2   6    5817    2719                                                       17486   -2.17   -0.01  1.0000
   1  -2  -5  329937   10800                                                      417624    2.78    0.01  1.0000
   1  -2  -5  465393   14522                                                      568567    2.78    0.01  1.0000
   1  -2  -4   60803    2388                                                       21347   -3.89    0.01  1.0000
   1  -2  -4   54117    1846                                                       17465   -3.89    0.01  1.0000
   1  -2  -4   60668    2183                                                       21267   -3.89    0.01  1.0000
  -1   2   3   88964    1841                                                       21640    5.85    0.02  1.0000
   1  -2  -3   86106    1793                                                       20242    5.85   -0.02  1.0000
   1  -2  -3   90245    1983                                                       22274    5.85   -0.02  1.0000
   1  -2  -3   94516    2270                                                       24420    5.85   -0.02  1.0000
   1  -2  -2  660607   14242                                                     1379410   14.00   -0.01  1.0000
   1  -2  -2  568024   13133                                                     1244070   14.00   -0.01  1.0000
  -1   2   1 3108476   18001                                                     2431320   -7.89   -0.01  1.0000
   1  -2  -1 2774022   15862                                                     2136630   -7.89    0.01  1.0000
  -1   2   0 3232166   16787                                                     2574810    7.48    0.03  1.0000
  -1   2  -1  845252    7734                                                      592559   -5.79   -0.06  1.0000
   1  -2   1  909025    8177                                                      646144   -5.79    0.06  1.0000
   1  -2   2 1183509   15667                                                     1358970    3.01    0.00  1.0000
  -1   2  -2 1216728   15932                                                     1394550    3.01    0.00  1.0000
   1  -2   3    5547    1244                                                       12282   -1.41    0.00  1.0000
   1  -2   3    8715    2016                                                       16822   -1.41    0.00  1.0000
  -1   2  -3    8571    1911                                                       16622   -1.41    0.00  1.0000
  -1   2  -4   47714    1856                                                       12735    4.09    0.03  1.0000
   1  -2   4   53743    2234                                                       15936    4.09   -0.03  1.0000
  -1   2  -5  145131    5398                                                       92712   -2.96   -0.02  1.0000
   1  -2   5  186491    7086                                                      126289   -2.96    0.02  1.0000
   1  -2   6   22716    3046                                                       19552   -0.42    0.02  1.0000
  -1   2  -6   20215    2849                                                       17237   -0.42   -0.02  1.0000
  -1   2  -7    1567    1429                                                        3441   -3.80   -0.01  1.0000
  -1   2  -7    2745     969                                                        2102   -3.80   -0.01  1.0000
   1  -2   7    2514    1047                                                        2313   -3.80    0.01  1.0000
  -1   2  -7    2848    1120                                                        2014   -3.80   -0.01  1.0000
  -1   2  -8    4871      82                                                         354    3.43   -0.01  1.0000
  -1   2  -8    3459     459                                                         888    3.43   -0.01  1.0000
  -1   2  -9  493232   15251                                                      394884   -2.86    0.01  1.0000
  -1   2  -9  568934   15923                                                      462904   -2.86    0.01  1.0000
  -1   2 -10    2424    2116                                                       11329    2.21    0.01  1.0000
  -1   2 -10    2550    2057                                                       11600    2.21    0.01  1.0000
   1  -1 -11  155799    5962                                                      144520   -0.56   -0.01  1.0000
   1  -1 -10   18583    3355                                                       23910    0.71   -0.01  1.0000
   1  -1  -9  359011   14354                                                      329607    0.97    0.01  1.0000
   1  -1  -8  611187   18062                                                      494075   -3.05    0.03  1.0000
  -1   1   7  511016   17411                                                      624974    2.93    0.00  1.0000
   1  -1  -7  729455   22513                                                      864492    2.93    0.00  1.0000
  -1   1   6 1069118   24172                                                     1378380   -5.42   -0.03  1.0000
   1  -1  -6 1170683   23965                                                     1493390   -5.42    0.03  1.0000
  -1   1   5   63138    1426                                                        6162    6.69   -0.01  1.0000
   1  -1  -5   68502    1542                                                        7914    6.69    0.01  1.0000
   1  -1  -4 8520293   45687                                                     7124230   -9.67   -0.01  1.0000
   1  -1  -4 7107354   37159                                                     5837700   -9.67   -0.01  1.0000
   1  -1  -3     693    3712                                                      118603   12.31   -0.01  1.0000
   1  -1  -3    3128    4880                                                      139873   12.31   -0.01  1.0000
  -1   1   3    1438    3821                                                      126729   12.31    0.01  1.0000
   1  -1  -3    2083    4392                                                      132286   12.31   -0.01  1.0000
  -1   1   2  516305   10541                                                     1235960  -15.21   -0.02  1.0000
   1  -1  -2  461491   10189                                                     1150310  -15.21    0.02  1.0000
  -1   1   1 2787669   12982                                                     2304100   -5.87    0.00  1.0000
  -1   1   0 2748578   12209                                                     1898350  -10.84    0.02  1.0000
   1  -1   1 2220689   10600                                                     1416620   11.61    0.03  1.0000
  -1   1  -1 2009467    9850                                                     1248980   11.61   -0.03  1.0000
   1  -1   2   68388    1029                                                       10135  -14.01   -0.05  1.0000
   1  -1   3  829226   17392                                                     1579420   13.39   -0.05  1.0000
  -1   1  -3  762236   15533                                                     1486430   13.39    0.05  1.0000
   1  -1   4 3650271   26026                                                     2564560  -11.96    0.03  1.0000
  -1   1  -4 3076031   20805                                                     2087210  -11.96   -0.03  1.0000
   1  -1   5   22170    6443                                                      118831    7.58    0.00  1.0000
  -1   1  -6  224730    6257                                                       94417   -6.45    0.01  1.0000
   1  -1   6  229210    6529                                                       97328   -6.45   -0.01  1.0000
  -1   1  -7  524517   19520                                                      774204    6.02    0.02  1.0000
   1  -1   7  546832   20607                                                      801265    6.02   -0.02  1.0000
  -1   1  -8   77345    7134                                                       82134   -0.33    0.03  1.0000
   1  -1   8   61143    6064                                                       65409   -0.33   -0.03  1.0000
  -1   1  -9    3693    1726                                                        4945   -0.37    0.02  1.0000
  -1   1  -9    1050    1005                                                        1761   -0.37    0.02  1.0000
  -1   1 -10  327089   12943                                                      344691    0.59   -0.01  1.0000
  -1   1 -10  362205   13298                                                      380716    0.59   -0.01  1.0000
  -1   1 -11    5499     853                                                        2955   -0.77    0.00  1.0000
  -1   1 -11    6542     937                                                        3732   -0.77    0.00  1.0000
   1   0 -10  533786   16035                                                      602699    1.77    0.02  1.0000
   1   0  -9   58379    7171                                                       88154   -2.14    0.00  1.0000
   1   0  -8  102978    7835                                                       93269    0.60    0.02  1.0000
   1   0  -7  569795   16529                                                      549648   -0.52   -0.01  1.0000
   1   0  -7  794503   21659                                                      770680   -0.52   -0.01  1.0000
  -1   0   6  284133   11987                                                      353156    2.37    0.03  1.0000
   1   0  -6  368026   14077                                                      446063    2.37   -0.03  1.0000
  -1   0   5 1599663   23719                                                     1707490   -1.62    0.01  1.0000
   1   0  -5 1811256   26269                                                     1925880   -1.62   -0.01  1.0000
   1   0  -4  252721    7269                                                      190504    2.56   -0.04  1.0000
  -1   0   4  226335    6434                                                      167691    2.56    0.04  1.0000
   1   0  -3 5202183   33858                                                     5020820   -1.55    0.01  1.0000
   1   0  -3 4028484   18169                                                     3869080   -1.55    0.01  1.0000
   1   0  -3 4981978   31545                                                     4804530   -1.55    0.01  1.0000
  -1   0   3 4363149   27412                                                     4197190   -1.55   -0.01  1.0000
   1   0  -2  638336    5320                                                      531536    2.70    0.01  1.0000
   1   0  -2  639388    8795                                                      532496    2.70    0.01  1.0000
  -1   0   1 1173330    5888                                                     1426630   -4.30    0.03  1.0000
  -1   0   0  691156    1270                                                       33224   25.11   -0.03  1.0000
  -1   0  -1  191203    3101                                                      152803   -1.79    0.01  1.0000
   1   0   2  790039    8817                                                      781341    0.19    0.01  1.0000
  -1   0  -3 1129085   11594                                                      934663    3.71   -0.01  1.0000
  -1   0  -3 1047537    9753                                                      860605    3.71   -0.01  1.0000
   1   0   4 4812626   25193                                                     4392600   -3.79    0.04  1.0000
  -1   0  -4 4677575   24725                                                     4263620   -3.79   -0.04  1.0000
   1   0   5  432080   14354                                                      645839    5.66   -0.03  1.0000
   1   0   6  123206    9212                                                      205865   -3.97    0.00  1.0000
  -1   0  -6  102668    7829                                                      179043   -3.97    0.00  1.0000
   1   0   7  487668   18811                                                      698308    5.31   -0.01  1.0000
  -1   0  -8  688471   17483                                                      528522   -3.98   -0.04  1.0000
   1   0   8  549405   15295                                                      407647   -3.98    0.04  1.0000
  -1   0  -9    3338    1489                                                        3529   -0.06   -0.02  1.0000
  -1   0  -9    3837    1363                                                        4042   -0.06   -0.02  1.0000
  -1   0 -10   47410    4867                                                       46130    0.11   -0.02  1.0000
  -1   0 -10   39138    4446                                                       37976    0.11   -0.02  1.0000
  -1   0 -11  150286    7002                                                      148425   -0.09    0.00  1.0000
  -1   0 -11  175865    7671                                                      173851   -0.09    0.00  1.0000
   1   1 -10    8171    1757                                                        9680    0.31    0.00  1.0000
   1   1  -9  203259    8276                                                      163895   -1.78   -0.02  1.0000
   1   1  -9  310804   11940                                                      261627   -1.78   -0.02  1.0000
   1   1  -8  267266   12262                                                      235143    1.24   -0.01  1.0000
   1   1  -8  168597    8767                                                      143295    1.24   -0.01  1.0000
   1   1  -7  265166   11845                                                      251870    0.51   -0.02  1.0000
   1   1  -7  277589   12138                                                      263982    0.51   -0.02  1.0000
   1   1  -6  855558   21380                                                      881978    0.55   -0.02  1.0000
  -1  -1   5  425058   10070                                                      301120   -3.99   -0.04  1.0000
   1   1  -5  531366   12922                                                      391535   -3.99    0.04  1.0000
  -1  -1   4  479506    9585                                                      355404    3.73    0.00  1.0000
   1   1  -4  573386   12071                                                      436810    3.73    0.00  1.0000
  -1  -1   3    1753    2111                                                       24096   -7.63    0.00  1.0000
   1   1  -3     175    2888                                                       33810   -7.63    0.00  1.0000
  -1  -1   2 1678746   17097                                                     2413890    9.98    0.00  1.0000
   1   1  -2 2354848   24197                                                     3213260    9.98    0.00  1.0000
   1   1  -2 1854987   11481                                                     2624350    9.98    0.00  1.0000
   1   1  -2 2154458   22442                                                     2978430    9.98    0.00  1.0000
  -1  -1   1  284426    4762                                                      823077  -14.47    0.01  1.0000
   1   1   0 4947602    8502                                                     2825540   21.02   -0.01  1.0000
  -1  -1   0 5637449   10726                                                     3352360   21.02    0.01  1.0000
  -1  -1  -1 8748492   16736                                                     4085950  -36.23    0.01  1.0000
  -1  -1  -2  583393   11038                                                     1145180   11.85   -0.01  1.0000
  -1  -1  -3 1714054   19120                                                     2505860  -10.59   -0.01  1.0000
  -1  -1  -4     795    3223                                                       55135    7.99    0.02  1.0000
  -1  -1  -5  710095    9039                                                      406583   -7.93   -0.04  1.0000
   1   1   5  698907    9038                                                      398128   -7.93    0.04  1.0000
   1   1   6    9795    3808                                                       37115    3.62    0.01  1.0000
   1   1   7   34005    6368                                                       81952   -3.94    0.04  1.0000
  -1  -1  -8    9760    1847                                                        6215    0.77   -0.03  1.0000
   1   1   8    8455    1606                                                        5184    0.77    0.03  1.0000
  -1  -1  -9  296840   12305                                                      250406   -1.72    0.01  1.0000
  -1  -1 -10  192806    8491                                                      133029    2.88    0.02  1.0000
  -1  -1 -10  260817   10345                                                      190390    2.88    0.02  1.0000
  -1  -1 -11   34264    4299                                                       47830   -1.30    0.00  1.0000
  -1  -1 -11   25472    3698                                                       37324   -1.30    0.00  1.0000
   1   2 -10   92228    4540                                                       85537    0.43    0.02  1.0000
   1   2  -9   62854    4541                                                       55847    0.56    0.00  1.0000
   1   2  -9   92756    6168                                                       84199    0.56    0.00  1.0000
   1   2  -8  663364   19978                                                      644573   -0.45    0.02  1.0000
   1   2  -8  439526   15172                                                      424256   -0.45    0.02  1.0000
   1   2  -7   87098    5277                                                       47840    2.96   -0.02  1.0000
   1   2  -7   69682    4550                                                       35184    2.96   -0.02  1.0000
   1   2  -6  572512   22033                                                      828201   -5.94    0.03  1.0000
   1   2  -6  667326   23709                                                      941502   -5.94    0.03  1.0000
   1   2  -5 1129704   27228                                                     1488850    6.09    0.01  1.0000
  -1  -2   4  582449   10987                                                      425554   -4.29    0.01  1.0000
   1   2  -4  707680   14654                                                      533482   -4.29   -0.01  1.0000
  -1  -2   3 2375952   19385                                                     1759980    8.31    0.01  1.0000
   1   2  -3 2861170   26060                                                     2180730    8.31   -0.01  1.0000
   1   2  -2   55113    6164                                                      163663   -6.57    0.04  1.0000
  -1  -2   2   34029    4414                                                      125500   -6.57   -0.04  1.0000
   1   2  -1  258137    8220                                                      411965    5.18    0.01  1.0000
   1   2  -1  246966    5494                                                      397820    5.18    0.01  1.0000
   1   2   0  250730    5525                                                      364409   -3.98    0.01  1.0000
   1   2   0  107730    2246                                                      185896   -3.98    0.01  1.0000
  -1  -2  -1  933019   10516                                                     1109130   -3.37   -0.01  1.0000
  -1  -2  -2 2257377   20164                                                     3127060   10.29   -0.03  1.0000
   1   2   3    7518    1610                                                       15245    8.13   -0.06  1.0000
  -1  -2  -4      61    1832                                                       15206   -5.07   -0.02  1.0000
  -1  -2  -5 1783342   21933                                                     1653010    1.92   -0.02  1.0000
   1   2   6   30233    4084                                                       41383    1.14   -0.10  1.0000
   1   2   7   10980    1876                                                        7164    0.78    0.02  1.0000
  -1  -2  -8  124679    7475                                                      103297    1.23    0.09  1.0000
   1   2   8  120963    7638                                                       99918    1.23   -0.09  1.0000
  -1  -2  -9   67201    6383                                                       67846    0.05    0.04  1.0000
   1   2   9   43307    5181                                                       43825    0.05   -0.04  1.0000
  -1  -2 -10   17706    4185                                                       29282    1.47    0.01  1.0000
  -1  -2 -10   11736    3394                                                       21430    1.47    0.01  1.0000
  -1  -2 -11  107902    7562                                                      146428   -2.10    0.01  1.0000
  -1  -2 -11  172076    9791                                                      219957   -2.10    0.01  1.0000
   1   3  -9  270558   10286                                                      291651   -0.77   -0.01  1.0000
   1   3  -9  183433    7628                                                      200870   -0.77   -0.01  1.0000
   1   3  -8       0     246                                                         102    0.37    0.01  1.0000
   1   3  -8     114     571                                                         408    0.37    0.01  1.0000
   1   3  -7  240490   12222                                                      231933   -0.34   -0.02  1.0000
   1   3  -7  182946   10292                                                      175492   -0.34   -0.02  1.0000
   1   3  -6    6662    3253                                                       17785   -2.00    0.01  1.0000
   1   3  -6    9154    3597                                                       21732   -2.00    0.01  1.0000
   1   3  -6    5282    3041                                                       15481   -2.00    0.01  1.0000
   1   3  -5  213538    8261                                                      120493    4.45   -0.01  1.0000
   1   3  -4  626800   15028                                                      477960   -3.88   -0.02  1.0000
   1   3  -3 1491352   25374                                                     1693240    3.10    0.02  1.0000
   1   3  -2  589986   16785                                                      960557   -8.20    0.00  1.0000
   1   3  -1   61412    5116                                                      203607    7.87   -0.04  1.0000
   1   3  -1   94693    7471                                                      261259    7.87   -0.04  1.0000
   1   3   0  119191    1245                                                       39468   -5.67    0.01  1.0000
   1   3   0  148117    2753                                                       56779   -5.67    0.01  1.0000
   1   3   1 3325277   24843                                                     4119810    7.98   -0.01  1.0000
  -1  -3  -1 2849324   23008                                                     3587960    7.98    0.01  1.0000
  -1  -3  -2  121922    3959                                                       92615   -1.74    0.02  1.0000
  -1  -3  -2  122787    3971                                                       93369   -1.74    0.02  1.0000
  -1  -3  -3   55347    4237                                                       89973    2.50    0.00  1.0000
  -1  -3  -3   64458    4499                                                      101495    2.50    0.00  1.0000
  -1  -3  -4  711920    7243                                                      207160  -15.04   -0.03  1.0000
  -1  -3  -5  886907   11602                                                      429666   11.08    0.00  1.0000
  -1  -3  -6  187373   11788                                                      362369   -6.54    0.03  1.0000
   1   3   7   60024    7807                                                      119746    3.91    0.06  1.0000
   1   3   8   90322    9963                                                      167383   -4.20    0.01  1.0000
  -1  -3  -8   81003    9240                                                      154605   -4.20   -0.01  1.0000
   1   3   9  110401    7021                                                       77355    2.09    0.04  1.0000
  -1  -3  -9  156554    8423                                                      116643    2.09   -0.04  1.0000
  -1  -3 -10    3546    2359                                                        9451   -1.46   -0.07  1.0000
  -1  -3 -11   32003    3991                                                       33907    0.20    0.00  1.0000
  -1  -3 -12   25331    2252                                                       20637    0.60   -0.02  1.0000
   1   4  -8  102247    5770                                                       75082    1.77   -0.02  1.0000
   1   4  -8   87732    5049                                                       62724    1.77   -0.02  1.0000
   1   4  -7   95280    5575                                                       63583   -2.19    0.00  1.0000
   1   4  -7  119360    6923                                                       83502   -2.19    0.00  1.0000
   1   4  -6  709205   23231                                                      822576    2.51   -0.01  1.0000
   1   4  -6  577228   20761                                                      679919    2.51   -0.01  1.0000
   1   4  -5  106666    9133                                                      134987   -1.58    0.01  1.0000
   1   4  -5  131750   10136                                                      163040   -1.58    0.01  1.0000
   1   4  -5  117876    9414                                                      147563   -1.58    0.01  1.0000
   1   4  -4  435929   14790                                                      398956    1.11   -0.01  1.0000
   1   4  -3  485120   12015                                                      317871   -5.13    0.01  1.0000
   1   4  -2  528717   17135                                                      814154    6.78   -0.03  1.0000
   1   4  -1  871359   17558                                                     1122950   -4.88    0.02  1.0000
   1   4   0  114825    7065                                                      249814    6.23   -0.01  1.0000
  -1  -4   0  121811    7489                                                      260069    6.23    0.01  1.0000
   1   4   1 2825100   15968                                                     1938360  -11.16    0.02  1.0000
   1   4   1 3106754   20972                                                     2172810  -11.16    0.02  1.0000
  -1  -4  -2 1424906   15177                                                     1016000    7.19    0.05  1.0000
  -1  -4  -3  943329   20054                                                     1570940  -10.92   -0.06  1.0000
  -1  -4  -4 1178546   21113                                                     1482660    5.11    0.06  1.0000
  -1  -4  -5  496171   15050                                                      631115    3.48    0.00  1.0000
  -1  -4  -6  369831   13272                                                      418964   -1.51   -0.03  1.0000
  -1  -4  -7    9379    2391                                                       12726   -0.62    0.02  1.0000
   1   4   8  126051    8954                                                      129576    0.19    0.02  1.0000
  -1  -4  -8  113191    8106                                                      116532    0.19   -0.02  1.0000
  -1  -4  -8   98484    7135                                                      101602    0.19   -0.02  1.0000
   1   4   9  109954    9044                                                      125592    0.88   -0.01  1.0000
  -1  -4  -9  156020   10466                                                      174549    0.88    0.01  1.0000
  -1  -4 -10  105741    8487                                                      118774   -0.75    0.03  1.0000
  -1  -4 -11   86738    6598                                                       91401    0.30    0.02  1.0000
  -1  -4 -12   51510    3463                                                       48020   -0.30    0.03  1.0000
   1   5  -7  341888   13261                                                      360201   -0.60    0.02  1.0000
   1   5  -7  374712   14074                                                      393873   -0.60    0.02  1.0000
   1   5  -6  169878   10575                                                      173727    0.18    0.02  1.0000
   1   5  -6  151056    9752                                                      154686    0.18    0.02  1.0000
   1   5  -5  962378   25432                                                      978937    0.33   -0.01  1.0000
   1   5  -5  874466   24071                                                      890254    0.33   -0.01  1.0000
   1   5  -4  450348   17240                                                      491247   -1.15    0.03  1.0000
   1   5  -4  463620   17772                                                      505104   -1.15    0.03  1.0000
   1   5  -4  486288   18230                                                      528753   -1.15    0.03  1.0000
   1   5  -4  419113   16040                                                      458599   -1.15    0.03  1.0000
   1   5  -3  305555   11881                                                      267278    1.38   -0.03  1.0000
   1   5  -2 2428172   34223                                                     2711750    3.42    0.02  1.0000
   1   5  -1  332290    9045                                                      241042   -3.31    0.03  1.0000
   1   5   0  583530   11241                                                      484248    2.63   -0.02  1.0000
  -1  -5   0  633369   12587                                                      529741    2.63    0.02  1.0000
  -1  -5  -1  294968    7490                                                      191807   -4.07   -0.01  1.0000
  -1  -5  -2 3008086   34816                                                     4002490   10.30   -0.03  1.0000
  -1  -5  -3  637928   17570                                                      941393   -6.64    0.00  1.0000
  -1  -5  -4  231999    4698                                                       60531    9.12   -0.02  1.0000
  -1  -5  -5  310620    9497                                                      216282   -3.57   -0.01  1.0000
  -1  -5  -6 2092313   31755                                                     2104460    0.16   -0.04  1.0000
  -1  -5  -7    2687    2167                                                        9537   -1.77    0.03  1.0000
  -1  -5  -8    1233     773                                                        1159    2.68   -0.03  1.0000
  -1  -5  -8    1930     746                                                         636    2.68   -0.03  1.0000
  -1  -5  -8    2404     153                                                         405    2.68   -0.03  1.0000
  -1  -5  -8    1698     582                                                         781    2.68   -0.03  1.0000
  -1  -5  -9  240860   11316                                                      202164   -1.59    0.02  1.0000
  -1  -5 -10    6363    2332                                                        8791    0.54    0.03  1.0000
  -1  -5 -11   23940    3653                                                       27440   -0.42   -0.01  1.0000
   1   6  -7   30223    3186                                                       34734    0.48   -0.01  1.0000
  -1  -6   7   29403    3072                                                       33853    0.48    0.01  1.0000
  -1  -6   6   73789    6217                                                       82448   -0.60    0.01  1.0000
   1   6  -6   64186    5934                                                       72277   -0.60   -0.01  1.0000
   1   6  -6   71089    6582                                                       79592   -0.60   -0.01  1.0000
   1   6  -5   19635    4970                                                       37492    2.07   -0.02  1.0000
   1   6  -5   17297    4666                                                       34233    2.07   -0.02  1.0000
   1   6  -4  283069   11568                                                      202010   -3.20    0.00  1.0000
   1   6  -4  285083   11725                                                      203712   -3.20    0.00  1.0000
   1   6  -3   56064    3111                                                       15150    4.40   -0.01  1.0000
   1   6  -3   58414    3264                                                       16383    4.40   -0.01  1.0000
   1   6  -3   56115    2924                                                       15177    4.40   -0.01  1.0000
   1   6  -2  378791   16538                                                      558972   -5.11    0.00  1.0000
   1   6  -1  500294   15307                                                      578747    2.07    0.00  1.0000
  -1  -6   0  101167    4190                                                       44606   -4.13    0.02  1.0000
  -1  -6  -1   54668    1853                                                        8782    5.42   -0.02  1.0000
  -1  -6  -2  399728   14842                                                      550344   -4.24    0.00  1.0000
  -1  -6  -3  213457    8988                                                      198261   -0.65    0.04  1.0000
  -1  -6  -4     971     855                                                        1442   -2.68    0.00  1.0000
  -1  -6  -5  165065    8329                                                      142659    1.11    0.01  1.0000
  -1  -6  -6  462118   13158                                                      322262   -4.34    0.03  1.0000
  -1  -6  -7  303808   15220                                                      399730    3.14    0.00  1.0000
  -1  -6  -7  311690   15383                                                      408764    3.14    0.00  1.0000
  -1  -6  -8   15051    3536                                                       21250   -0.89    0.00  1.0000
  -1  -6  -8    7217    2724                                                       11673   -0.89    0.00  1.0000
  -1  -6  -8   14644    3641                                                       20765   -0.89    0.00  1.0000
  -1  -6  -8    9228    2865                                                       14197   -0.89    0.00  1.0000
  -1  -6  -9   21012    3653                                                       20817   -0.03    0.02  1.0000
  -1  -6 -10  120909    8626                                                      127700    0.37   -0.02  1.0000
  -1  -6 -11   13228    2587                                                       14544    0.22    0.00  1.0000
   1   7  -6    5292    1723                                                        8507    0.75    0.00  1.0000
  -1  -7   6    6353    1800                                                        9840    0.75    0.00  1.0000
  -1  -7   5  115421    8050                                                      129546   -0.78   -0.01  1.0000
  -1  -7   4     255     269                                                         176   -0.11    0.00  1.0000
  -1  -7   3  534237   18663                                                      535534    0.03   -0.02  1.0000
   1   7  -3  445393   17345                                                      446577    0.03    0.02  1.0000
  -1  -7   2   53557    5610                                                       49687   -0.33    0.00  1.0000
  -1  -7   1  121397    8342                                                      119155    0.13   -0.02  1.0000
  -1  -7   0   89668    7225                                                      112336    1.38    0.00  1.0000
  -1  -7  -1   82295    6350                                                       86222    0.26   -0.01  1.0000
  -1  -7  -2   76316    7284                                                      111194   -2.21    0.03  1.0000
  -1  -7  -3  128028    8629                                                      149618    1.12   -0.02  1.0000
  -1  -7  -4  276877   12815                                                      307168    1.08    0.02  1.0000
  -1  -7  -5    3000     113                                                        -145    2.12   -0.04  1.0000
  -1  -7  -6   10831    3532                                                       21338   -1.63    0.01  1.0000
  -1  -7  -6   16151    4113                                                       28592   -1.63    0.01  1.0000
  -1  -7  -6    9858    3365                                                       19963   -1.63    0.01  1.0000
  -1  -7  -7   49139    7726                                                       97968    3.53   -0.01  1.0000
  -1  -7  -7   52359    8030                                                      102493    3.53   -0.01  1.0000
  -1  -7  -7   58494    8299                                                      111008    3.53   -0.01  1.0000
  -1  -7  -8   16776    2319                                                        8451   -1.45    0.01  1.0000
  -1  -7  -9      68     355                                                        -199    0.32    0.00  1.0000
  -1  -7  -9      68     243                                                        -416    0.32    0.00  1.0000
  -1  -7 -10   23039    3982                                                       28741   -0.69   -0.01  1.0000
  -1  -7 -11    5260    1280                                                        4681   -0.16    0.00  1.0000
  -1  -8   5    4054     661                                                        1030   -1.22    0.03  1.0000
   1   8  -5    2537     319                                                         353   -1.22   -0.03  1.0000
  -1  -8   4  150027    8078                                                      127625    1.16   -0.05  1.0000
  -1  -8   3  106908    7532                                                       92474   -0.89    0.04  1.0000
  -1  -8   2  325270   15998                                                      378838    1.75   -0.02  1.0000
   1   8  -1   61076    7394                                                       86319   -1.81   -0.02  1.0000
  -1  -8   1  114849    9806                                                      148656   -1.81    0.02  1.0000
  -1  -8   0   51149    3532                                                       24439    2.70    0.00  1.0000
  -1  -8   0   66504    4670                                                       35363    2.70    0.00  1.0000
   1   8   0   51427    3878                                                       24631    2.70    0.00  1.0000
  -1  -8  -1   74352    4696                                                       36035   -3.21    0.02  1.0000
  -1  -8  -1   61893    3748                                                       27534   -3.21    0.02  1.0000
   1   8   1   63251    3950                                                       28442   -3.21   -0.02  1.0000
  -1  -8  -1   60044    3792                                                       26306   -3.21    0.02  1.0000
  -1  -8  -2    7048    4002                                                       28317    3.26   -0.03  1.0000
  -1  -8  -2    5119    3705                                                       24297    3.26   -0.03  1.0000
  -1  -8  -2    6935    3992                                                       28092    3.26   -0.03  1.0000
  -1  -8  -3  197077   11816                                                      238343   -1.71    0.00  1.0000
  -1  -8  -3  215940   12227                                                      259044   -1.71    0.00  1.0000
  -1  -8  -4   47110    6918                                                       89059    3.15   -0.02  1.0000
  -1  -8  -4   89996    9275                                                      145445    3.15   -0.02  1.0000
  -1  -8  -4   59781    7459                                                      106198    3.15   -0.02  1.0000
  -1  -8  -4  101454    9704                                                      159918    3.15   -0.02  1.0000
  -1  -8  -4   81371    9057                                                      134421    3.15   -0.02  1.0000
  -1  -8  -5  102404    5580                                                       51461   -3.60    0.02  1.0000
  -1  -8  -5   88547    4977                                                       41784   -3.60    0.02  1.0000
  -1  -8  -5  101480    5525                                                       50806   -3.60    0.02  1.0000
  -1  -8  -6     452    1043                                                        2370    1.06   -0.01  1.0000
  -1  -8  -6       8     844                                                         912    1.06   -0.01  1.0000
  -1  -8  -6     528    1237                                                        2541    1.06   -0.01  1.0000
  -1  -8  -7  258766   13528                                                      277041   -0.68    0.04  1.0000
  -1  -8  -7  241208   12830                                                      258862   -0.68    0.04  1.0000
  -1  -8  -8     678    1179                                                        1722   -0.60   -0.03  1.0000
  -1  -8  -9    3826    1374                                                        3031   -0.26   -0.01  1.0000
  -1  -8  -9    4819    1345                                                        3921   -0.26   -0.01  1.0000
  -1  -8 -10    2909     823                                                        1552    0.56   -0.02  1.0000
  -1  -8 -11    3137     690                                                        1867    0.50    0.00  1.0000
   1   9  -4    2808     828                                                        1578   -0.51    0.01  1.0000
  -1  -9   4    4366    1006                                                        2788   -0.51   -0.01  1.0000
  -1  -9   3   32655    3199                                                       21804    1.28    0.04  1.0000
  -1  -9   2   78401    5699                                                       56041   -1.67   -0.01  1.0000
  -1  -9   1  368336   15644                                                      395805    0.86    0.00  1.0000
  -1  -9   0   73069    7472                                                       86711   -0.93    0.03  1.0000
  -1  -9  -1   25396    3946                                                       25359    0.00   -0.03  1.0000
  -1  -9  -1   21148    3578                                                       21115    0.00   -0.03  1.0000
  -1  -9  -2  169860   10357                                                      171098    0.06    0.04  1.0000
  -1  -9  -2  171193   10375                                                      172436    0.06    0.04  1.0000
  -1  -9  -3  220969   10925                                                      198829   -0.94   -0.02  1.0000
  -1  -9  -3  282670   12354                                                      257553   -0.94   -0.02  1.0000
  -1  -9  -4   40759    5017                                                       40555    0.02    0.02  1.0000
  -1  -9  -4   34629    4336                                                       34442    0.02    0.02  1.0000
  -1  -9  -5    5652    1195                                                        2079   -1.14   -0.01  1.0000
  -1  -9  -5    7581    1400                                                        3305   -1.14   -0.01  1.0000
  -1  -9  -6  127593    9892                                                      145701    0.95   -0.01  1.0000
  -1  -9  -6  138029   10080                                                      156839    0.95   -0.01  1.0000
  -1  -9  -7   26260    3975                                                       24759    0.18   -0.02  1.0000
  -1  -9  -7   21262    3373                                                       19914    0.18   -0.02  1.0000
  -1  -9  -8  134969    9425                                                      140920   -0.31   -0.01  1.0000
  -1  -9  -9    9626    2395                                                       11019    0.27   -0.01  1.0000
  -1  -9  -9   11914    2319                                                       13459    0.27   -0.01  1.0000
  -1  -9 -10    2661    1003                                                        2312   -0.14    0.03  1.0000
   1  10  -3    3831    1174                                                        5240    0.41   -0.01  1.0000
  -1 -10   3    4878    1269                                                        6454    0.41    0.01  1.0000
  -1 -10   2  137639    7977                                                      159736   -1.11   -0.02  1.0000
  -1 -10   1       9     648                                                         954    1.31   -0.02  1.0000
  -1 -10   0  123472    7792                                                      112681   -0.61    0.01  1.0000
  -1 -10  -1   19435    2764                                                       13581    0.89   -0.03  1.0000
  -1 -10  -2   13511    3162                                                       17780   -0.66    0.01  1.0000
  -1 -10  -3   74304    7069                                                       87864    0.92   -0.05  1.0000
  -1 -10  -3  102156    8602                                                      117958    0.92   -0.05  1.0000
  -1 -10  -4     327     402                                                        1003   -0.53    0.02  1.0000
  -1 -10  -5  100463    7168                                                       85753    0.93    0.00  1.0000
  -1 -10  -5   82563    6075                                                       69283    0.93    0.00  1.0000
  -1 -10  -6    4597    1266                                                        3178   -0.44   -0.01  1.0000
  -1 -10  -6    3866     925                                                        2576   -0.44   -0.01  1.0000
  -1 -10  -7   63224    6366                                                       72975    0.72    0.02  1.0000
  -1 -10  -7   63371    6189                                                       73133    0.72    0.02  1.0000
  -1 -10  -8    8593    2296                                                       12198   -0.69    0.01  1.0000
  -1 -10  -9    7457    1314                                                        4937    0.62    0.01  1.0000
  -1 -11   1   26049    2617                                                       24913    0.14    0.01  1.0000
  -1 -11   0    7043    1493                                                        6641   -0.09    0.00  1.0000
  -1 -11  -1   26529    3109                                                       23230   -0.40    0.03  1.0000
  -1 -11  -1   28335    3399                                                       24922   -0.40    0.03  1.0000
  -1 -11  -2     542     433                                                         871    0.24   -0.03  1.0000
  -1 -11  -3     397     696                                                         513   -0.11    0.03  1.0000
  -1 -11  -4   33799    4140                                                       35420    0.17    0.02  1.0000
  -1 -11  -5     221     394                                                         346   -0.14    0.00  1.0000
  -1 -11  -6    3249    1012                                                        2870    0.13   -0.03  1.0000
  -1 -11  -6    3719    1144                                                        3313    0.13   -0.03  1.0000
  -1 -11  -7     630     720                                                         759   -0.09    0.03  1.0000
  -1 -11  -7     143     156                                                         208   -0.09    0.03  1.0000
  -1 -11  -8   31437    2700                                                       28034   -0.38   -0.03  1.0000
  -1 -11  -8   23453    2546                                                       20527   -0.38   -0.03  1.0000
  -1 -12  -2    6888    1469                                                        9023    0.46    0.00  1.0000
  -1 -12  -3     161     536                                                         760   -0.58    0.02  1.0000
  -1 -12  -4   24014    2453                                                       21189    0.36    0.00  1.0000
  -1 -12  -5     118     207                                                          54   -0.62   -0.04  1.0000
  -1 -12  -6     641     506                                                        1049    0.27    0.02  1.0000
   2 -11  -6    3643     940                                                        3119   -0.17    0.00  1.0000
   2 -11  -5    1349     684                                                        1197   -0.08    0.01  1.0000
   2 -11  -4    4911    1183                                                        3692   -0.36    0.00  1.0000
   2 -11  -3      15      54                                                         230    0.43    0.00  1.0000
   2 -11  -2    2903    1073                                                        3267   -0.13    0.01  1.0000
   2 -11  -2    5086    1535                                                        5565   -0.13    0.01  1.0000
   2 -11  -1    6244    1335                                                        5297    0.24    0.00  1.0000
   2 -11   0    1203     124                                                         561   -0.43    0.03  1.0000
   2 -11   1   11199    1957                                                       13625    0.42    0.03  1.0000
   2 -10  -8    2013     538                                                        1205   -0.39    0.01  1.0000
   2 -10  -7    4537    1294                                                        4304    0.07   -0.01  1.0000
   2 -10  -7    3209     969                                                        3013    0.07   -0.01  1.0000
   2 -10  -6    3307    1807                                                        6491    0.89    0.04  1.0000
   2 -10  -5   47445    5017                                                       46597   -0.08   -0.03  1.0000
   2 -10  -4    2588    1444                                                        4023    0.49    0.00  1.0000
   2 -10  -3   18707    3367                                                       20259   -0.22   -0.01  1.0000
   2 -10  -3   16150    3109                                                       17594   -0.22   -0.01  1.0000
   2 -10  -2   63399    5983                                                       64565    0.09    0.01  1.0000
   2 -10  -2   99782    7831                                                      101243    0.09    0.01  1.0000
   2 -10  -1    6486    1406                                                        4621   -0.49   -0.02  1.0000
   2 -10  -1   12113    2372                                                        9507   -0.49   -0.02  1.0000
   2 -10   0   49529    5222                                                       49317    0.02    0.02  1.0000
   2 -10   1    2798    1561                                                        5150    0.73   -0.02  1.0000
   2 -10   2  118699    6384                                                      104126   -0.85   -0.08  1.0000
   2 -10   3     710     542                                                         654    0.04    0.01  1.0000
   2  -9  -9   24295    2502                                                       23357    0.12    0.01  1.0000
   2  -9  -8   26162    3334                                                       27623    0.17    0.01  1.0000
   2  -9  -8   33030    3498                                                       34669    0.17    0.01  1.0000
   2  -9  -7    5217    1800                                                        6378    0.30    0.02  1.0000
   2  -9  -7   12496    2480                                                       14261    0.30    0.02  1.0000
   2  -9  -6  136238    8417                                                      119049    0.93   -0.01  1.0000
   2  -9  -5   16841    2030                                                        6925   -1.80    0.00  1.0000
   2  -9  -4   73878    7482                                                       82372    0.59    0.01  1.0000
   2  -9  -4   66825    6578                                                       74914    0.59    0.01  1.0000
   2  -9  -3   53147    6375                                                       61241   -0.66    0.03  1.0000
   2  -9  -3   67536    6935                                                       76625   -0.66    0.03  1.0000
   2  -9  -2  128876    8424                                                      108825    1.13   -0.02  1.0000
   2  -9  -2   99857    7161                                                       82309    1.13   -0.02  1.0000
   2  -9  -1  190113   10910                                                      177046   -0.59    0.01  1.0000
   2  -9   0   48144    6321                                                       61609    1.11   -0.01  1.0000
   2  -9   1    2354    1842                                                        5265   -0.93    0.01  1.0000
   2  -9   2    5162    1495                                                        4660   -0.14   -0.03  1.0000
   2  -9   2    6822    1907                                                        6243   -0.14   -0.03  1.0000
   2  -9   3  122228    7196                                                      117919   -0.24    0.13  1.0000
   2  -9   3  168324    8799                                                      163263   -0.24    0.13  1.0000
   2  -9   4    1467     387                                                         103    1.09   -0.01  1.0000
   2  -9   5    7170    1712                                                       10572   -0.70    0.01  1.0000
   2  -8  -9   56153    4229                                                       48013    0.69   -0.02  1.0000
   2  -8  -8    3304    1432                                                        4781   -0.45   -0.01  1.0000
   2  -8  -8    7475    1939                                                        9629   -0.45   -0.01  1.0000
   2  -8  -7  130014    8539                                                      132932    0.16   -0.02  1.0000
   2  -8  -7   98992    7986                                                      101541    0.16   -0.02  1.0000
   2  -8  -6   61063    5379                                                       46984   -1.17   -0.03  1.0000
   2  -8  -5   33145    5272                                                       42255   -0.91    0.00  1.0000
   2  -8  -4    3754    1838                                                        5345    0.46    0.00  1.0000
   2  -8  -4    4599    1781                                                        6345    0.46    0.00  1.0000
   2  -8  -4    2362    1576                                                        3652    0.46    0.00  1.0000
   2  -8  -3   14732    3640                                                       22199    1.07   -0.02  1.0000
   2  -8  -3   13522    3420                                                       20708    1.07   -0.02  1.0000
   2  -8  -2   23991    3002                                                       13852   -1.44   -0.03  1.0000
   2  -8  -2   15127    2043                                                        7360   -1.44   -0.03  1.0000
   2  -8  -1    5208    1650                                                        4611   -0.17    0.01  1.0000
   2  -8  -1    8903    2262                                                        8117   -0.17    0.01  1.0000
   2  -8   0  158596    9307                                                      140023   -0.93    0.00  1.0000
   2  -8   0  198357   10612                                                      177517   -0.93    0.00  1.0000
   2  -8   1  119037    8836                                                      124704    0.31   -0.03  1.0000
   2  -8   1  127285    9234                                                      133143    0.31   -0.03  1.0000
   2  -8   2   61268    5769                                                       58837    0.19    0.03  1.0000
   2  -8   2   63515    6080                                                       61039    0.19    0.03  1.0000
   2  -8   3   21867    4242                                                       31052    1.10    0.00  1.0000
   2  -8   3   13771    3433                                                       21226    1.10    0.00  1.0000
   2  -8   4  201859   10807                                                      202975    0.05   -0.06  1.0000
   2  -8   5   74630    6414                                                       87316   -0.86   -0.08  1.0000
   2  -8   6  147792    6854                                                      134298    0.70    0.05  1.0000
   2  -7 -10   30304    3000                                                       29088   -0.14    0.01  1.0000
   2  -7  -9   21228    2864                                                       16598   -0.65   -0.02  1.0000
   2  -7  -8     782    1520                                                        4366   -1.47   -0.03  1.0000
   2  -7  -7   12526    1977                                                        7590    0.96    0.02  1.0000
   2  -7  -7   10492    1964                                                        6027    0.96    0.02  1.0000
   2  -7  -6    4614    1203                                                        2905   -0.54   -0.01  1.0000
   2  -7  -5   11961    3631                                                       24362    1.81    0.03  1.0000
   2  -7  -5    7376    3284                                                       17582    1.81    0.03  1.0000
   2  -7  -4   15368    1998                                                        7050    1.55   -0.02  1.0000
   2  -7  -4   16247    2102                                                        7649    1.55   -0.02  1.0000
   2  -7  -3   35580    4387                                                       35565    0.00    0.01  1.0000
   2  -7  -2   54513    4384                                                       34113   -1.89    0.01  1.0000
   2  -7  -1   69746    5031                                                       44569    2.05    0.02  1.0000
   2  -7   0    2976    1230                                                        1992   -0.38    0.00  1.0000
  -2   7   0     977     476                                                         455   -0.38    0.00  1.0000
   2  -7   1  227185   13198                                                      302274    2.83    0.01  1.0000
  -2   7  -1  205388   12586                                                      277048    2.83   -0.01  1.0000
  -2   7  -2    2890     577                                                         490   -2.94   -0.02  1.0000
  -2   7  -2    2470     644                                                         686   -2.94   -0.02  1.0000
   2  -7   2    3882     353                                                         185   -2.94    0.02  1.0000
   2  -7   2    2750     322                                                         550   -2.94    0.02  1.0000
  -2   7  -3  138199    7873                                                       98893    2.22    0.01  1.0000
   2  -7   3  135259    7474                                                       96409    2.22   -0.01  1.0000
  -2   7  -3  126379    7628                                                       88935    2.22    0.01  1.0000
  -2   7  -4   42863    2807                                                       14093   -3.42    0.02  1.0000
  -2   7  -4   47364    3303                                                       16721   -3.42    0.02  1.0000
  -2   7  -5   46283    5947                                                       64970    1.54   -0.04  1.0000
  -2   7  -5   62530    7281                                                       83994    1.54   -0.04  1.0000
  -2   7  -6    7899    2188                                                       10363   -0.50   -0.09  1.0000
   2  -7   7  201247    8575                                                      198825    0.10   -0.02  1.0000
   2  -6 -10   68744    4709                                                       64662    0.31   -0.01  1.0000
   2  -6  -9  105638    7616                                                      107478    0.11   -0.03  1.0000
   2  -6  -8  332326   13852                                                      372018    1.29    0.01  1.0000
   2  -6  -8  341772   15578                                                      382008    1.29    0.01  1.0000
   2  -6  -7   29139    3301                                                       15794    1.74    0.04  1.0000
   2  -6  -7   29128    2941                                                       15786    1.74    0.04  1.0000
   2  -6  -6   31728    4009                                                       29384    0.26   -0.02  1.0000
   2  -6  -6   23494    3351                                                       21483    0.26   -0.02  1.0000
   2  -6  -5  299672   10813                                                      236532   -2.36    0.02  1.0000
   2  -6  -5  227007    9555                                                      172536   -2.36    0.02  1.0000
   2  -6  -4    5161    2790                                                       15862    2.09   -0.01  1.0000
   2  -6  -3   17510    6482                                                       90618   -6.53    0.02  1.0000
   2  -6  -2  146278   10714                                                      252976    4.66   -0.01  1.0000
   2  -6  -1  518682   14485                                                      454780   -1.77   -0.02  1.0000
  -2   6   1  402414   10912                                                      346378   -1.77    0.02  1.0000
  -2   6   0  178404    6797                                                      113350    3.32   -0.01  1.0000
   2  -6   0  199010    7774                                                      129889    3.32    0.01  1.0000
  -2   6  -1    6477    4133                                                       35970   -4.22    0.00  1.0000
  -2   6  -2     279     745                                                        1118    0.65    0.02  1.0000
  -2   6  -3   28903    4219                                                       28843   -0.01   -0.01  1.0000
  -2   6  -4  151527    9536                                                      142347    0.46    0.03  1.0000
  -2   6  -4  173253   10074                                                      163427    0.46    0.03  1.0000
  -2   6  -5   32407    5058                                                       38455    0.62   -0.05  1.0000
  -2   6  -5   30996    4709                                                       36917    0.62   -0.05  1.0000
  -2   6  -6   79719    7510                                                       89006    0.62    0.05  1.0000
  -2   6  -6   74682    7081                                                       83679    0.62    0.05  1.0000
  -2   6  -7  153008    9229                                                      169289   -0.78    0.05  1.0000
  -2   6  -8  156309    7081                                                      145418    0.54    0.01  1.0000
   2  -5 -10    8669    2563                                                       16212   -1.32    0.03  1.0000
   2  -5  -9   74069    6326                                                       71230    0.20   -0.04  1.0000
   2  -5  -8  280390   13276                                                      267460   -0.48    0.07  1.0000
   2  -5  -8  271191   12477                                                      258477   -0.48    0.07  1.0000
   2  -5  -7  183124   10783                                                      172193   -0.50   -0.04  1.0000
   2  -5  -7  185939   10046                                                      174923   -0.50   -0.04  1.0000
   2  -5  -6  215299   12856                                                      307677   -3.51    0.00  1.0000
   2  -5  -6  245025   14375                                                      343025   -3.51    0.00  1.0000
   2  -5  -5  421248   13405                                                      422018   -0.02   -0.01  1.0000
   2  -5  -5  393699   12918                                                      394443   -0.02   -0.01  1.0000
   2  -5  -4  394343   14082                                                      497089    2.98    0.00  1.0000
   2  -5  -4  318017   12450                                                      410891    2.98    0.00  1.0000
   2  -5  -3   37780    2392                                                       15774   -2.66   -0.03  1.0000
   2  -5  -3   27352    1782                                                        9333   -2.66   -0.03  1.0000
   2  -5  -2   51173    1452                                                        5695    5.83    0.00  1.0000
   2  -5  -2   59302    1614                                                        8606    5.83    0.00  1.0000
   2  -5  -1   98245    7883                                                      169945   -3.82    0.00  1.0000
  -2   5   1   72971    5995                                                      136112   -3.82    0.00  1.0000
  -2   5   0  200338    8026                                                      201880    0.07   -0.03  1.0000
  -2   5  -1  203121   10996                                                      321651   -4.51    0.02  1.0000
  -2   5  -2  815929   16192                                                      605096    4.85   -0.01  1.0000
  -2   5  -3  498844   15080                                                      464168   -0.97    0.00  1.0000
  -2   5  -4  199327   11218                                                      230328    1.29   -0.01  1.0000
  -2   5  -5  487573   18076                                                      568317   -2.15    0.03  1.0000
  -2   5  -5  522141   19413                                                      605590   -2.15    0.03  1.0000
  -2   5  -5  522528   18767                                                      606007   -2.15    0.03  1.0000
  -2   5  -5  461964   17387                                                      540641   -2.15    0.03  1.0000
  -2   5  -6  141984   10538                                                      183559    2.00   -0.03  1.0000
  -2   5  -6  131543   10539                                                      171660    2.00   -0.03  1.0000
  -2   5  -6  150230   10982                                                      192918    2.00   -0.03  1.0000
  -2   5  -7  757337   19856                                                      645791   -2.58    0.02  1.0000
  -2   5  -7  667387   18361                                                      562947   -2.58    0.02  1.0000
  -2   5  -8    7136     708                                                        1060    2.03   -0.08  1.0000
  -2   5  -8    2767     539                                                         -58    2.03   -0.08  1.0000
  -2   5  -9  103553    6334                                                      126089   -1.29    0.02  1.0000
   2  -4 -10  125198    7471                                                      131554    0.34   -0.02  1.0000
   2  -4  -9  116896    7204                                                       88009    1.75    0.02  1.0000
   2  -4  -8  193656   11861                                                      211030   -0.75    0.01  1.0000
   2  -4  -7   99437    8768                                                      126320    1.55   -0.02  1.0000
   2  -4  -7   99269    9100                                                      126131    1.55   -0.02  1.0000
   2  -4  -6  452256   13598                                                      357760   -2.88    0.00  1.0000
   2  -4  -5   96019    2045                                                        9798    8.16    0.03  1.0000
   2  -4  -4  126334    8077                                                      182631   -2.78   -0.02  1.0000
   2  -4  -4  122303    7554                                                      177778   -2.78   -0.02  1.0000
   2  -4  -3  951467   17329                                                     1014780    1.24    0.01  1.0000
   2  -4  -3  811070   16320                                                      869604    1.24    0.01  1.0000
   2  -4  -2  586820   11672                                                      478630   -2.87    0.01  1.0000
   2  -4  -2  561809   10796                                                      456069   -2.87    0.01  1.0000
   2  -4  -1  470601   10237                                                      374998    2.85    0.02  1.0000
  -2   4   1  474306    8557                                                      378306    2.85   -0.02  1.0000
  -2   4   0  439321    7959                                                      262273   -5.83    0.05  1.0000
  -2   4  -1 1568067   25647                                                     2277990    9.95   -0.02  1.0000
  -2   4  -2  511471   15278                                                      684563   -4.34    0.03  1.0000
  -2   4  -3  290385    8631                                                      186234    4.15   -0.02  1.0000
  -2   4  -4 1266255   19887                                                      866658   -7.52    0.01  1.0000
  -2   4  -5   98316    9515                                                      178636    4.22   -0.01  1.0000
  -2   4  -6  172758   11352                                                      212358   -1.75   -0.02  1.0000
  -2   4  -6  192300   11331                                                      233967   -1.75   -0.02  1.0000
  -2   4  -6  197569   12001                                                      239776   -1.75   -0.02  1.0000
  -2   4  -7    2500    1111                                                        2101    0.16    0.01  1.0000
  -2   4  -7    3288    1340                                                        2828    0.16    0.01  1.0000
  -2   4  -7    2209     879                                                        1835    0.16    0.01  1.0000
  -2   4  -8 1117782   24588                                                     1164420    0.84    0.00  1.0000
  -2   4  -8 1142720   26911                                                     1189870    0.84    0.00  1.0000
  -2   4  -9    6921    2136                                                       10154   -0.68    0.01  1.0000
  -2   4 -10   87237    4490                                                       78886    0.56    0.01  1.0000
   2  -3 -10   13395    2461                                                       14381   -0.16   -0.01  1.0000
   2  -3 -10   11784    2133                                                       12710   -0.16   -0.01  1.0000
   2  -3  -9  423170   15018                                                      382958   -1.23    0.04  1.0000
   2  -3  -8  118909    9241                                                      129249   -0.57   -0.02  1.0000
   2  -3  -7 1112231   26471                                                     1139940   -0.51   -0.02  1.0000
   2  -3  -7  965443   25289                                                      991271   -0.51   -0.02  1.0000
   2  -3  -6  178629    9951                                                      188136    0.43    0.01  1.0000
   2  -3  -5  542561   16193                                                      594987    1.35   -0.02  1.0000
   2  -3  -4  270782   12216                                                      425064   -5.09   -0.01  1.0000
   2  -3  -3     218    1877                                                       15347   -5.36    0.01  1.0000
   2  -3  -3       0    2304                                                       19233   -5.36    0.01  1.0000
   2  -3  -2  149269    7382                                                      263775    4.92    0.02  1.0000
  -2   3   2  126620    6990                                                      233360    4.92   -0.02  1.0000
  -2   3   1    3010     373                                                         601   -3.07    0.03  1.0000
   2  -3  -1    3943     220                                                         275   -3.07   -0.03  1.0000
  -2   3   0  270264    6933                                                      244266    0.99    0.01  1.0000
  -2   3   0  369201    7812                                                      338704    0.99    0.01  1.0000
   2  -3   1  701894   12748                                                      850275    3.26    0.02  1.0000
  -2   3  -1  653529   12253                                                      796956    3.26   -0.02  1.0000
   2  -3   2  276972    4841                                                      124345   -6.72    0.00  1.0000
  -2   3  -2  223006    4087                                                       89150   -6.72    0.00  1.0000
  -2   3  -3  412543   12953                                                      531348    3.35   -0.01  1.0000
  -2   3  -4    6630    3642                                                       36430   -4.23   -0.01  1.0000
  -2   3  -5  631813   20817                                                     1036860    8.64    0.01  1.0000
  -2   3  -6   30018    1170                                                        3434   -4.44    0.03  1.0000
  -2   3  -7   97790    6082                                                       58986    2.70    0.00  1.0000
  -2   3  -7   94967    5566                                                       56798    2.70    0.00  1.0000
  -2   3  -7   78407    4970                                                       44171    2.70    0.00  1.0000
  -2   3  -7   82283    5302                                                       47092    2.70    0.00  1.0000
  -2   3  -8  262717   12108                                                      227456   -1.38    0.01  1.0000
  -2   3  -8  255197   11108                                                      220463   -1.38    0.01  1.0000
  -2   3  -9  716164   20654                                                      742499    0.60   -0.02  1.0000
  -2   3  -9  689621   18327                                                      715468    0.60   -0.02  1.0000
  -2   3 -10   28437    3090                                                       34123   -0.62    0.01  1.0000
  -2   3 -10   42047    4303                                                       48905   -0.62    0.01  1.0000
   2  -2 -10   77408    5310                                                       71353    0.43    0.01  1.0000
   2  -2  -9     601    1081                                                        1592    0.60   -0.01  1.0000
   2  -2  -8  265928   14078                                                      297089    1.14   -0.02  1.0000
   2  -2  -7   50314    5964                                                       56678   -0.53   -0.01  1.0000
   2  -2  -7   57417    6360                                                       64202   -0.53   -0.01  1.0000
  -2   2   6   93132    5493                                                       68123    1.71   -0.01  1.0000
   2  -2  -5  340354   10591                                                      251687   -3.16   -0.01  1.0000
   2  -2  -4 2155936   28998                                                     2372700    2.79    0.01  1.0000
   2  -2  -3  153306    4349                                                      106471   -2.52    0.00  1.0000
   2  -2  -3  203375    6415                                                      148785   -2.52    0.00  1.0000
   2  -2  -2   40444    8495                                                      488806   19.27   -0.01  1.0000
  -2   2   2   51675   10448                                                      526150   19.27    0.01  1.0000
   2  -2  -1  137142   10576                                                      639543  -16.61   -0.01  1.0000
  -2   2   1  133003    9623                                                      630568  -16.61    0.01  1.0000
  -2   2   0 1659999   21571                                                     2885500   15.87   -0.02  1.0000
  -2   2   0 2055144   20734                                                     3399760   15.87   -0.02  1.0000
  -2   2  -1 1030772    8196                                                      433335  -13.81   -0.02  1.0000
   2  -2   1 1056277    8377                                                      449927  -13.81    0.02  1.0000
  -2   2  -2  183699    8437                                                      434502    8.92   -0.02  1.0000
   2  -2   2  296458    9902                                                      600696    8.92    0.02  1.0000
  -2   2  -3 1177611   14192                                                      826655   -6.81   -0.01  1.0000
   2  -2   3 1065870   13741                                                      733485   -6.81    0.01  1.0000
  -2   2  -4   26736    5742                                                      112773    6.67    0.01  1.0000
   2  -2   4   23718    5902                                                      106478    6.67   -0.01  1.0000
   2  -2   5   19532    5158                                                       64722   -4.44   -0.01  1.0000
  -2   2  -5   15320    4338                                                       56845   -4.44    0.01  1.0000
   2  -2   6 1297576   25034                                                     1244270   -0.91    0.03  1.0000
  -2   2  -7   77713    7982                                                      117462   -2.47   -0.03  1.0000
   2  -2   7   87339    8640                                                      129232   -2.47    0.03  1.0000
  -2   2  -7   89070    8741                                                      131336   -2.47   -0.03  1.0000
  -2   2  -8  547114   16309                                                      470883    2.07   -0.02  1.0000
  -2   2  -8  561608   17867                                                      484336    2.07   -0.02  1.0000
  -2   2  -9   32483    2929                                                       17126   -1.91    0.01  1.0000
  -2   2  -9   32151    3163                                                       16884   -1.91    0.01  1.0000
  -2   2 -10  288229   12600                                                      324713    1.28    0.02  1.0000
  -2   2 -10  243666   10346                                                      277299    1.28    0.02  1.0000
  -2   2 -11    1636     755                                                        2205   -0.25   -0.02  1.0000
   2  -1 -10   14131    2290                                                       15011    0.14    0.00  1.0000
   2  -1  -9  104346    6840                                                       87763    1.04   -0.01  1.0000
   2  -1  -9   73776    5024                                                       59946    1.04   -0.01  1.0000
   2  -1  -8  102729    6475                                                       65599   -2.49   -0.01  1.0000
   2  -1  -7  578485   20436                                                      662303    2.06    0.03  1.0000
   2  -1  -6   37961    2384                                                       12834   -3.16    0.00  1.0000
   2  -1  -5  613346   13483                                                      463954    3.95    0.04  1.0000
   2  -1  -5  687699   15555                                                      528898    3.95    0.04  1.0000
   2  -1  -4   71075    3234                                                       29485   -3.67    0.01  1.0000
   2  -1  -4   59300    2638                                                       22090   -3.67    0.01  1.0000
   2  -1  -3 1540093   22791                                                     1877120    4.99    0.00  1.0000
   2  -1  -3 1474346   21038                                                     1804460    4.99    0.00  1.0000
   2  -1  -2   85706    5397                                                      155612   -3.94    0.01  1.0000
  -2   1   2   57904    4449                                                      117206   -3.94   -0.01  1.0000
   2  -1  -2   81069    5558                                                      149341   -3.94    0.01  1.0000
   2  -1  -2   44332    3264                                                       97514   -3.94    0.01  1.0000
  -2   1   1  869383   11972                                                     1624830  -13.24   -0.02  1.0000
  -2   1   1  734338   14358                                                     1438120  -13.24   -0.02  1.0000
  -2   1   0  276809    7407                                                      429494    5.00    0.04  1.0000
  -2   1  -1  108879    2835                                                       63175   -3.04   -0.03  1.0000
  -2   1  -2  447034    7512                                                      392449    1.63    0.04  1.0000
   2  -1   2  588978    8646                                                      526061    1.63   -0.04  1.0000
  -2   1  -3  693040   11861                                                      745438    1.20    0.02  1.0000
   2  -1   3  635256   11809                                                      685463    1.20   -0.02  1.0000
  -2   1  -4 1271528   17150                                                     1288980    0.30    0.03  1.0000
   2  -1   4 1261368   18563                                                     1278750    0.30   -0.03  1.0000
   2  -1   5  266235   10497                                                      309495   -1.56    0.03  1.0000
  -2   1  -5  218781    8341                                                      258149   -1.56   -0.03  1.0000
   2  -1   6   68706    4623                                                       48136    1.65   -0.01  1.0000
   2  -1   7  544652   17235                                                      549963    0.14   -0.02  1.0000
  -2   1  -7  488587   15160                                                      493618    0.14    0.02  1.0000
  -2   1  -8  270727   14502                                                      389253    4.01    0.05  1.0000
  -2   1  -8  276458   15781                                                      396119    4.01    0.05  1.0000
  -2   1  -9 1047198   28358                                                     1223730   -3.21    0.03  1.0000
  -2   1  -9 1100466   26709                                                     1281260   -3.21    0.03  1.0000
  -2   1 -10    3686    2835                                                       18069    2.85   -0.01  1.0000
  -2   1 -10    5015    3392                                                       20887    2.85   -0.01  1.0000
  -2   1 -11  293477    9588                                                      251819   -1.54   -0.03  1.0000
   2   0 -10    3675    1272                                                        5726    0.58    0.03  1.0000
   2   0  -9  159834    8696                                                      149628   -0.50   -0.01  1.0000
   2   0  -8  678204   21991                                                      750867   -1.66    0.05  1.0000
   2   0  -7  243529   14636                                                      326964    3.03    0.00  1.0000
   2   0  -6 3124071   40255                                                     2870700   -2.83    0.00  1.0000
   2   0  -6 3198442   38863                                                     2942010   -2.83    0.00  1.0000
   2   0  -5   70962    2989                                                       20520    4.76    0.00  1.0000
   2   0  -4 1198822   24622                                                     1620350   -6.89   -0.03  1.0000
   2   0  -4 1084368   22883                                                     1486820   -6.89   -0.03  1.0000
   2   0  -3 1435869   23833                                                     1989730    8.21   -0.03  1.0000
   2   0  -3 1464237   23550                                                     2023100    8.21   -0.03  1.0000
   2   0  -2  663243    6296                                                      276635  -11.16    0.02  1.0000
   2   0  -2  839786    9081                                                      394337  -11.16    0.02  1.0000
   2   0  -2  795384    8743                                                      364100  -11.16    0.02  1.0000
  -2   0   2  689685    6198                                                      293804  -11.16   -0.02  1.0000
  -2   0   1  305156    3333                                                      103254    8.94    0.04  1.0000
   2   0  -1  294322    3415                                                       96993    8.94   -0.04  1.0000
   2   0  -1  305345    3939                                                      103364    8.94   -0.04  1.0000
  -2   0   0   26533     793                                                        5940    3.32    0.00  1.0000
   2   0   0   29334     852                                                        7303    3.32    0.00  1.0000
  -2   0  -1 4470157   24461                                                     5689400   10.48   -0.01  1.0000
  -2   0  -2   67935    7059                                                      384392  -13.90    0.00  1.0000
   2   0   3 1285524    9905                                                      602590   13.83   -0.04  1.0000
   2   0   3 1272967    9544                                                      594002   13.83   -0.04  1.0000
  -2   0  -4  126893    9579                                                      495399  -13.45   -0.06  1.0000
   2   0   4  103919    9235                                                      448886  -13.45    0.06  1.0000
  -2   0  -4   92199    9515                                                      424150  -13.45   -0.06  1.0000
   2   0   4  120775   10656                                                      483237  -13.45    0.06  1.0000
  -2   0  -5 1185035   20057                                                     1858750   10.63    0.00  1.0000
   2   0   5 1202222   20427                                                     1880260   10.63    0.00  1.0000
   2   0   6  267426   14476                                                      510268   -7.63   -0.03  1.0000
   2   0   7  195856    6242                                                       77459    6.35   -0.02  1.0000
  -2   0  -8  397659   11549                                                      264521   -4.50   -0.02  1.0000
   2   0   8  418847   12881                                                      281852   -4.50    0.02  1.0000
  -2   0  -9   14131    2749                                                       13961   -0.03   -0.03  1.0000
  -2   0 -10  813783   22168                                                      812934    0.02   -0.05  1.0000
  -2   0 -10  882110   21051                                                      881226    0.02   -0.05  1.0000
  -2   0 -11   17988    2410                                                       13563   -0.68    0.02  1.0000
  -2   0 -11   17788    2083                                                       13390   -0.68    0.02  1.0000
   2   1  -9  225498    9032                                                      188048   -1.60   -0.03  1.0000
   2   1  -8   49286    6432                                                       70407    1.68    0.01  1.0000
   2   1  -7  498892   18210                                                      516445   -0.48   -0.05  1.0000
   2   1  -6  180382   10883                                                      198068    0.79   -0.02  1.0000
   2   1  -6  151457    9780                                                      167698    0.79   -0.02  1.0000
   2   1  -5  932994   19475                                                      759048   -3.66    0.01  1.0000
   2   1  -4  157320    6545                                                      106783    2.70   -0.04  1.0000
   2   1  -3 2911251   30991                                                     3218620   -3.40    0.03  1.0000
   2   1  -3 2963694   32358                                                     3273750   -3.40    0.03  1.0000
   2   1  -2   69954    5906                                                      156945    5.09    0.00  1.0000
   2   1  -2   58264    5142                                                      139169    5.09    0.00  1.0000
  -2  -1   1  332389    3649                                                      197925   -5.09    0.03  1.0000
   2   1  -1  319200    5319                                                      187778   -5.09   -0.03  1.0000
   2   1  -1  336414    5637                                                      201033   -5.09   -0.03  1.0000
  -2  -1   0   13269    1181                                                       40937   12.29   -0.03  1.0000
   2   1   0   14283    2220                                                       39208   12.29    0.03  1.0000
   2   1   0   16777    1551                                                       35342   12.29    0.03  1.0000
  -2  -1  -1 1556240   16778                                                     3064050  -19.46    0.00  1.0000
   2   1   1 1855822   18066                                                     3479100  -19.46    0.00  1.0000
  -2  -1  -2   72056    4039                                                      129982    3.56    0.01  1.0000
   2   1   3    7145     804                                                        4362    0.72    0.02  1.0000
  -2  -1  -3    6312     801                                                        3717    0.72   -0.02  1.0000
  -2  -1  -3    4340     719                                                        2246    0.72   -0.02  1.0000
  -2  -1  -4 1555955   16033                                                     1637220   -1.24   -0.03  1.0000
   2   1   4 1574371   18039                                                     1656110   -1.24    0.03  1.0000
  -2  -1  -4 1610061   18855                                                     1692710   -1.24   -0.03  1.0000
   2   1   5   10704    2395                                                       23787    1.96    0.00  1.0000
   2   1   5   16031    3020                                                       31465    1.96    0.00  1.0000
   2   1   6 1266721   20518                                                     1072770   -3.47    0.02  1.0000
   2   1   6 1058053   15779                                                      881488   -3.47    0.02  1.0000
   2   1   7  991113   20417                                                      852665    2.79    0.01  1.0000
   2   1   8    1191    1583                                                        4317   -3.48    0.12  1.0000
   2   1   9  821871   23786                                                      897002    1.57   -0.03  1.0000
   2   1   9  852256   22693                                                      928733    1.57   -0.03  1.0000
  -2  -1 -10   52115    6095                                                       61789    0.78   -0.02  1.0000
  -2  -1 -10   56824    5970                                                       66908    0.78   -0.02  1.0000
  -2  -1 -11  244824   10811                                                      246151   -0.05    0.04  1.0000
  -2  -1 -11  233068    9632                                                      234363   -0.05    0.04  1.0000
  -2  -1 -12    1651     565                                                        1218    0.22    0.00  1.0000
   2   2  -9   15762    2407                                                       17596   -0.27    0.02  1.0000
   2   2  -8   61114    6367                                                       76522    1.14    0.01  1.0000
   2   2  -7    1345     619                                                         894   -0.26    0.00  1.0000
   2   2  -6  171217   10005                                                      185985   -0.68    0.02  1.0000
   2   2  -6  187922   10521                                                      203379   -0.68    0.02  1.0000
   2   2  -5  173753    9917                                                      173827    0.00    0.03  1.0000
   2   2  -4  918676   22917                                                     1124920    3.95    0.01  1.0000
   2   2  -3  233947    7124                                                      170652   -2.73    0.00  1.0000
   2   2  -3  294780    9184                                                      223121   -2.73    0.00  1.0000
   2   2  -2  600698   10047                                                      399426    5.53    0.03  1.0000
   2   2  -2  687500   11705                                                      470748    5.53    0.03  1.0000
   2   2  -1    1398    3065                                                       44502   -9.61    0.01  1.0000
   2   2  -1    2418    2546                                                       39672   -9.61    0.01  1.0000
   2   2   0 1165670   17074                                                     1873660   11.19    0.02  1.0000
   2   2   0 1152916   18136                                                     1857480   11.19    0.02  1.0000
   2   2   1  440510    1709                                                       19516  -20.28    0.00  1.0000
  -2  -2  -1  452191    1467                                                       22035  -20.28    0.00  1.0000
   2   2   1  436596    1388                                                       18699  -20.28    0.00  1.0000
   2   2   2    1927    5866                                                      270238   21.81   -0.01  1.0000
  -2  -2  -2    1417    5770                                                      276785   21.81    0.01  1.0000
  -2  -2  -3  363067    5345                                                      170806   -7.32    0.00  1.0000
  -2  -2  -4    2629    1340                                                        7779    5.39    0.03  1.0000
  -2  -2  -5  252163   11599                                                      458853   -6.78   -0.01  1.0000
   2   2   6  124872    9223                                                      263895    6.20   -0.05  1.0000
   2   2   6  160173   10922                                                      314219    6.20   -0.05  1.0000
   2   2   7  163619    5885                                                       99178   -3.47   -0.02  1.0000
   2   2   7  216283    8220                                                      140991   -3.47   -0.02  1.0000
   2   2   8  156688    7611                                                      101084    3.01   -0.02  1.0000
  -2  -2  -9  158453   10530                                                      198229   -1.82    0.11  1.0000
  -2  -2  -9  163988   10860                                                      204414   -1.82    0.11  1.0000
  -2  -2 -10  910421   23829                                                     1033040    2.41    0.03  1.0000
   2   2  10  768260   22211                                                      881215    2.41   -0.03  1.0000
  -2  -2 -11   18530    1651                                                        5362   -2.43    0.01  1.0000
  -2  -2 -11   17384    1461                                                        4754   -2.43    0.01  1.0000
  -2  -2 -12   98963    4932                                                       86277    0.81   -0.01  1.0000
   2   3  -8  186697    9564                                                      202347   -0.69    0.00  1.0000
   2   3  -7  206073   10698                                                      231306    1.04   -0.01  1.0000
   2   3  -7  221090   11284                                                      247200    1.04   -0.01  1.0000
   2   3  -6    3261     385                                                         595   -3.15    0.02  1.0000
   2   3  -6    2889     535                                                         771   -3.15    0.02  1.0000
   2   3  -5 1506121   27147                                                     1205640    5.00   -0.02  1.0000
   2   3  -5 1397769   26147                                                     1108910    5.00   -0.02  1.0000
   2   3  -4   33119    7170                                                       97378   -5.03    0.00  1.0000
   2   3  -4   18674    5434                                                       71140   -5.03    0.00  1.0000
   2   3  -3  664168   17679                                                      822465    3.56   -0.02  1.0000
   2   3  -3  743063   20019                                                      910010    3.56   -0.02  1.0000
   2   3  -2   30396     243                                                         244   -7.35    0.02  1.0000
   2   3  -2   25429     576                                                         930   -7.35    0.02  1.0000
   2   3  -1   77230    1748                                                       11655    6.58   -0.02  1.0000
   2   3   0   77926    5993                                                      149726   -4.17   -0.02  1.0000
   2   3   0   76111    5335                                                      147207   -4.17   -0.02  1.0000
  -2  -3  -1  124032    5430                                                      220520    4.54    0.02  1.0000
   2   3   1  150056    5939                                                      254807    4.54   -0.02  1.0000
  -2  -3  -1  172400    6214                                                      283688    4.54    0.02  1.0000
   2   3   1  142871    5611                                                      245417    4.54   -0.02  1.0000
   2   3   1  176346    7645                                                      288744    4.54   -0.02  1.0000
   2   3   2   38759    1739                                                       17931    2.44    0.02  1.0000
  -2  -3  -2   34735    1590                                                       15230    2.44   -0.02  1.0000
  -2  -3  -2   38441    1719                                                       17715    2.44   -0.02  1.0000
   2   3   2   36782    1670                                                       16595    2.44    0.02  1.0000
   2   3   3   66747    2888                                                       61126   -0.43   -0.03  1.0000
  -2  -3  -3   82956    3888                                                       76675   -0.43    0.03  1.0000
   2   3   3   70681    3646                                                       64893   -0.43   -0.03  1.0000
  -2  -3  -3   77162    3814                                                       71109   -0.43    0.03  1.0000
  -2  -3  -4  306726    5041                                                      102201   -9.06   -0.05  1.0000
  -2  -3  -5  707016   17909                                                     1018000    6.50   -0.04  1.0000
  -2  -3  -6  125700    7573                                                      150355   -1.29    0.06  1.0000
   2   3   7   56848    4980                                                       61597    0.38    0.10  1.0000
   2   3   7   69030    6110                                                       74254    0.38    0.10  1.0000
   2   3   8  132508    8495                                                      121806   -0.58   -0.03  1.0000
  -2  -3  -9   12016    2597                                                       11377    0.11   -0.04  1.0000
   2   3   9   13166    2905                                                       12497    0.11    0.04  1.0000
  -2  -3  -9   14270    2650                                                       13574    0.11   -0.04  1.0000
  -2  -3 -10    3771    1039                                                        1994    0.65   -0.04  1.0000
  -2  -3 -10    5150    1347                                                        3026    0.65   -0.04  1.0000
  -2  -3 -11  431037   13393                                                      390627   -1.22   -0.06  1.0000
   2   3  11  412409   13304                                                      372904   -1.22    0.06  1.0000
  -2  -3 -12     300     906                                                        2552    1.28   -0.02  1.0000
   2   4  -8   15591    2136                                                       13855    0.28   -0.01  1.0000
   2   4  -7   39477    4249                                                       42091   -0.25   -0.02  1.0000
   2   4  -7   44595    4640                                                       47370   -0.25   -0.02  1.0000
   2   4  -6  376176   14812                                                      373436   -0.09   -0.01  1.0000
   2   4  -6  414269   15569                                                      411393   -0.09   -0.01  1.0000
   2   4  -5     955    1463                                                        4289    1.34    0.01  1.0000
   2   4  -5    1615    1770                                                        5591    1.34    0.01  1.0000
   2   4  -5     346    1330                                                        2829    1.34    0.01  1.0000
   2   4  -4  281464   14444                                                      361617   -2.74   -0.03  1.0000
   2   4  -4  201319   11582                                                      269880   -2.74   -0.03  1.0000
   2   4  -4  260675   14153                                                      338000   -2.74   -0.03  1.0000
   2   4  -4  223960   12959                                                      296000   -2.74   -0.03  1.0000
   2   4  -3   52547    5797                                                       66232    1.09    0.03  1.0000
   2   4  -3   47230    5280                                                       60245    1.09    0.03  1.0000
   2   4  -2 2665489   32911                                                     2580490   -1.02   -0.02  1.0000
   2   4  -2 2605946   32220                                                     2521910   -1.02   -0.02  1.0000
   2   4  -1  162507    9220                                                      265166    4.33    0.00  1.0000
   2   4   0  146211    7445                                                      232062   -3.84   -0.02  1.0000
  -2  -4  -1  221342    7298                                                      266601    1.77   -0.02  1.0000
   2   4   1  203174    6414                                                      246624    1.77    0.02  1.0000
  -2  -4  -2 2001367   19416                                                     1752380   -3.52    0.01  1.0000
   2   4   2 2043298   20321                                                     1791630   -3.52   -0.01  1.0000
  -2  -4  -3   12971    1856                                                       13291   -0.05   -0.01  1.0000
   2   4   3   10648    1409                                                       10939   -0.05    0.01  1.0000
  -2  -4  -4    8651     527                                                        1114   -4.89    0.03  1.0000
  -2  -4  -5 1467976   28050                                                     2238610   11.01    0.01  1.0000
  -2  -4  -6  239248    5569                                                       73004   -8.47    0.04  1.0000
  -2  -4  -7  729887   17113                                                      591230    3.31    0.00  1.0000
   2   4   8  346986   11137                                                      251020   -3.41    0.03  1.0000
   2   4   8  454997   14390                                                      343981   -3.41    0.03  1.0000
  -2  -4  -9   29409    5732                                                       56483    2.56    0.05  1.0000
   2   4   9   30309    6112                                                       57728    2.56   -0.05  1.0000
  -2  -4  -9   36025    6180                                                       65522    2.56    0.05  1.0000
  -2  -4 -10  260455   13352                                                      316909   -2.04   -0.07  1.0000
  -2  -4 -10  301038   14246                                                      361524   -2.04   -0.07  1.0000
  -2  -4 -11   68834    5355                                                       61811    0.53    0.04  1.0000
   2   4  12  107988    5602                                                      104651   -0.20   -0.01  1.0000
   2   5  -7    8239    2170                                                       14048   -1.07    0.02  1.0000
   2   5  -6    5413    2621                                                       12952    1.56    0.03  1.0000
   2   5  -6   10352    3277                                                       20158    1.56    0.03  1.0000
   2   5  -6    6764    2875                                                       15000    1.56    0.03  1.0000
   2   5  -5  606478   18759                                                      554920   -1.31    0.02  1.0000
   2   5  -5  534116   17360                                                      485802   -1.31    0.02  1.0000
   2   5  -4  431038   17651                                                      485953    1.57   -0.01  1.0000
   2   5  -4  391699   16733                                                      444126    1.57   -0.01  1.0000
   2   5  -4  315170   15007                                                      362366    1.57   -0.01  1.0000
   2   5  -4  244826   12636                                                      286619    1.57   -0.01  1.0000
   2   5  -3  429365   16642                                                      482090   -1.51    0.01  1.0000
   2   5  -3  434371   16621                                                      487393   -1.51    0.01  1.0000
   2   5  -3  424022   16319                                                      476427   -1.51    0.01  1.0000
   2   5  -3  405040   16252                                                      456293   -1.51    0.01  1.0000
   2   5  -2   10514     916                                                        1895    5.65   -0.02  1.0000
   2   5  -2    8239    1232                                                        3058    5.65   -0.02  1.0000
   2   5  -1 1638362   22077                                                     1278680   -5.77    0.01  1.0000
   2   5   0    5018     848                                                        2513    4.68   -0.02  1.0000
  -2  -5  -1  669127   16313                                                      976770   -6.59   -0.04  1.0000
   2   5   1  850335   20319                                                     1193450   -6.59    0.04  1.0000
   2   5   2  214549   12254                                                      497909    9.38   -0.03  1.0000
  -2  -5  -2  220291   12005                                                      506637    9.38    0.03  1.0000
  -2  -5  -3  689020   11451                                                      419100   -7.07   -0.05  1.0000
   2   5   3  608293    9463                                                      356694   -7.07    0.05  1.0000
  -2  -5  -4  570890   10152                                                      292657    8.30    0.03  1.0000
  -2  -5  -5     570     629                                                         904   -2.09   -0.06  1.0000
  -2  -5  -6 1265247   23702                                                     1204840   -1.05   -0.03  1.0000
  -2  -5  -7    1367    1208                                                        2868    0.64    0.02  1.0000
  -2  -5  -8  221340    9683                                                      173439    2.09   -0.09  1.0000
   2   5   8  351136   13227                                                      290048    2.09    0.09  1.0000
  -2  -5  -8  343107   12638                                                      282755    2.09   -0.09  1.0000
  -2  -5  -8  432177   14719                                                      364087    2.09   -0.09  1.0000
  -2  -5  -8  262056   10558                                                      209679    2.09   -0.09  1.0000
  -2  -5  -9  124948    8585                                                      122384   -0.14    0.10  1.0000
   2   5   9  131235    9153                                                      128607   -0.14   -0.10  1.0000
  -2  -5 -10  317418   13204                                                      309708   -0.27   -0.05  1.0000
  -2  -5 -10  394614   14660                                                      386012   -0.27   -0.05  1.0000
  -2  -5 -11  199568    9288                                                      187879    0.51    0.08  1.0000
  -2  -5 -11  316452   11273                                                      301689    0.51    0.08  1.0000
   2   5  12   46617    3877                                                       46487    0.01   -0.02  1.0000
   2   6  -6   36077    3808                                                       35657    0.04    0.00  1.0000
  -2  -6   5    4514    1432                                                        4018    0.16    0.05  1.0000
   2   6  -5    2932    1135                                                        2535    0.16   -0.05  1.0000
  -2  -6   4 1371411   27741                                                     1297170   -1.24   -0.01  1.0000
   2   6  -4 1343604   28800                                                     1270130   -1.24    0.01  1.0000
   2   6  -3  340401   15457                                                      371986    1.02   -0.03  1.0000
   2   6  -3  330511   15360                                                      361644    1.02   -0.03  1.0000
   2   6  -3  237245   12321                                                      263729    1.02   -0.03  1.0000
  -2  -6   3  377433   15842                                                      410655    1.02    0.03  1.0000
   2   6  -3  257177   13198                                                      284723    1.02   -0.03  1.0000
   2   6  -2  135647    9733                                                      159335   -1.19    0.03  1.0000
  -2  -6   2  169569   10652                                                      195942   -1.19   -0.03  1.0000
   2   6  -2  132421    9041                                                      155837   -1.19    0.03  1.0000
   2   6  -2  174538   10982                                                      201280   -1.19    0.03  1.0000
   2   6  -2  142141   10060                                                      166367   -1.19    0.03  1.0000
   2   6  -1    2841     418                                                        -166   -2.06    0.01  1.0000
   2   6  -1    1172     499                                                         364   -2.06    0.01  1.0000
   2   6   0  259901   11996                                                      289875    1.11   -0.01  1.0000
  -2  -6  -1   99267    5753                                                       94116   -0.32   -0.02  1.0000
   2   6   1  117689    7032                                                      112074   -0.32    0.02  1.0000
   2   6   2   29435    1787                                                        8607    3.05    0.00  1.0000
  -2  -6  -2   27072    1713                                                        7352    3.05    0.00  1.0000
  -2  -6  -3  279012    7502                                                      138645   -6.03    0.03  1.0000
   2   6   3  260534    6253                                                      125713   -6.03   -0.03  1.0000
  -2  -6  -4  110693    8977                                                      185694    3.80   -0.01  1.0000
  -2  -6  -5   94398    9457                                                      188291   -4.90    0.02  1.0000
  -2  -6  -6   86484    6656                                                       82682    0.25    0.02  1.0000
  -2  -6  -7  235287   11348                                                      217233   -0.73    0.01  1.0000
  -2  -6  -7  307331   12955                                                      286646   -0.73    0.01  1.0000
  -2  -6  -8   11853    3364                                                       15700    0.64   -0.01  1.0000
  -2  -6  -8    4454    2053                                                        6917    0.64   -0.01  1.0000
  -2  -6  -8    6833    2341                                                        9818    0.64   -0.01  1.0000
  -2  -6  -8   12838    3221                                                       16830    0.64   -0.01  1.0000
  -2  -6  -9   16956    4475                                                       33690   -2.06    0.04  1.0000
  -2  -6  -9   35209    6054                                                       58068   -2.06    0.04  1.0000
  -2  -6 -10     289     978                                                        1771    0.97   -0.02  1.0000
  -2  -6 -10    1669    1457                                                        4349    0.97   -0.02  1.0000
  -2  -6 -11   17695    2520                                                       15703   -0.30   -0.01  1.0000
  -2  -6 -11   41864    3887                                                       38767   -0.30   -0.01  1.0000
   2   6  12   74170    4649                                                       68187    0.43    0.03  1.0000
   2   7  -6   73554    4224                                                       68934   -0.33   -0.01  1.0000
  -2  -7   5   20780    2288                                                       14181    0.97   -0.01  1.0000
   2   7  -5   21200    2570                                                       14529    0.97    0.01  1.0000
  -2  -7   4     891    1754                                                        5616   -1.74   -0.02  1.0000
  -2  -7   3   94263    9525                                                      147884    3.00   -0.01  1.0000
  -2  -7   2   86470    5343                                                       45610   -3.11    0.00  1.0000
   2   7  -2   63759    4328                                                       29588   -3.11    0.00  1.0000
  -2  -7   1  214161    9300                                                      141771    3.34    0.00  1.0000
   2   7  -1  167733    8091                                                      104524    3.34    0.00  1.0000
  -2  -7   0   94589    8622                                                      131051   -2.11    0.02  1.0000
   2   7   0   82934    8219                                                      117265   -2.11   -0.02  1.0000
   2   7   1   69337    8066                                                      123721    3.42    0.01  1.0000
   2   7   2   71087    3086                                                       21137   -4.69   -0.03  1.0000
  -2  -7  -2   67572    2918                                                       19241   -4.69    0.03  1.0000
  -2  -7  -3  182342    7973                                                      135145    2.30    0.00  1.0000
  -2  -7  -4    1848    1433                                                        3379   -0.59   -0.01  1.0000
  -2  -7  -5   12909    4452                                                       37145    3.06   -0.01  1.0000
  -2  -7  -6    2634    2436                                                       10568   -1.99    0.00  1.0000
  -2  -7  -6    1594    2223                                                        8354   -1.99    0.00  1.0000
  -2  -7  -6    1144    1995                                                        7275   -1.99    0.00  1.0000
  -2  -7  -7   28937    1764                                                        4353    4.03   -0.03  1.0000
  -2  -7  -7   28460    1567                                                        4169    4.03   -0.03  1.0000
  -2  -7  -7   27002    1513                                                        3623    4.03   -0.03  1.0000
  -2  -7  -7   27682    1514                                                        3875    4.03   -0.03  1.0000
  -2  -7  -8  140821    8626                                                      114321   -1.44    0.06  1.0000
  -2  -7  -8  117660    7717                                                       93556   -1.44    0.06  1.0000
  -2  -7  -8  133713    8431                                                      107926   -1.44    0.06  1.0000
  -2  -7  -9    8989    1779                                                        5348    0.84    0.00  1.0000
  -2  -7  -9   17498    2714                                                       12232    0.84    0.00  1.0000
  -2  -7 -10     852     546                                                         721   -0.09    0.01  1.0000
  -2  -7 -10    4446    1545                                                        4139   -0.09    0.01  1.0000
  -2  -7 -11   31239    3253                                                       27314   -0.44    0.00  1.0000
  -2  -7 -11   74928    4855                                                       68778   -0.44    0.00  1.0000
   2   7  12   39883    3227                                                       38014   -0.18    0.00  1.0000
   2   8  -5    3137     705                                                        1609   -0.61    0.01  1.0000
  -2  -8   4   51830    4239                                                       45636    0.54   -0.01  1.0000
   2   8  -4   47513    4333                                                       41591    0.54    0.01  1.0000
  -2  -8   3  236815   11392                                                      245268   -0.33    0.03  1.0000
  -2  -8   2  110085    8451                                                      116066    0.34   -0.01  1.0000
  -2  -8   1  251973   12495                                                      236522   -0.60    0.02  1.0000
  -2  -8   0  160751    9682                                                      140198    1.03   -0.02  1.0000
   2   8   0  105837    7505                                                       89292    1.03    0.02  1.0000
  -2  -8  -1       0     333                                                         835   -1.14    0.02  1.0000
   2   8   1     402     259                                                          91   -1.14   -0.02  1.0000
   2   8   2  218249   10836                                                      227267    0.37    0.01  1.0000
  -2  -8  -2  240552   11730                                                      250015    0.37   -0.01  1.0000
  -2  -8  -3   22053    4025                                                       30359    1.00   -0.02  1.0000
  -2  -8  -3   31518    4896                                                       41318    1.00   -0.02  1.0000
  -2  -8  -3   31427    4953                                                       41214    1.00   -0.02  1.0000
  -2  -8  -4   41314    4583                                                       35608    0.56    0.02  1.0000
  -2  -8  -4   38886    4319                                                       33356    0.56    0.02  1.0000
  -2  -8  -4   54978    5414                                                       48363    0.56    0.02  1.0000
  -2  -8  -5   69268    6056                                                       57474   -0.91   -0.02  1.0000
  -2  -8  -5   50970    4683                                                       40932   -0.91   -0.02  1.0000
  -2  -8  -5   63541    5582                                                       52269   -0.91   -0.02  1.0000
  -2  -8  -6   25796    3191                                                       15770   -1.36    0.02  1.0000
  -2  -8  -6   22295    2751                                                       13060   -1.36    0.02  1.0000
  -2  -8  -6   27902    3310                                                       17426   -1.36    0.02  1.0000
  -2  -8  -7   47302    4721                                                       35066    1.17    0.01  1.0000
  -2  -8  -7   36112    3826                                                       25537    1.17    0.01  1.0000
  -2  -8  -7   38680    4198                                                       27703    1.17    0.01  1.0000
  -2  -8  -7   40693    4319                                                       29410    1.17    0.01  1.0000
  -2  -8  -8     324     530                                                         671   -1.70   -0.01  1.0000
  -2  -8  -8     108    1324                                                        1121   -1.70   -0.01  1.0000
  -2  -8  -8      74    1007                                                        1246   -1.70   -0.01  1.0000
  -2  -8  -9   63612    6086                                                       66996    0.26   -0.05  1.0000
  -2  -8  -9   97932    7651                                                      102120    0.26   -0.05  1.0000
  -2  -8 -10    5872    1614                                                        6060   -0.05   -0.03  1.0000
  -2  -8 -10   12889    2416                                                       13168   -0.05   -0.03  1.0000
  -2  -8 -11   18007    2014                                                       13838    0.64    0.00  1.0000
  -2  -9   3  327611   11451                                                      349798   -0.74    0.03  1.0000
   2   9  -3  287487   11090                                                      308294   -0.74   -0.03  1.0000
  -2  -9   2  174860    9089                                                      164509    0.49   -0.02  1.0000
  -2  -9   1  133003    8367                                                      112912   -1.11    0.01  1.0000
  -2  -9   0   40270    5875                                                       54686    1.28    0.00  1.0000
  -2  -9  -1   45008    6674                                                       67855   -1.87    0.01  1.0000
  -2  -9  -2     525     326                                                         689    1.90   -0.02  1.0000
  -2  -9  -3  101370    6792                                                       72647   -1.89    0.01  1.0000
  -2  -9  -4   24287    3246                                                       14931    1.30    0.00  1.0000
  -2  -9  -4   14241    1938                                                        7342    1.30    0.00  1.0000
  -2  -9  -5   22405    4893                                                       44217   -2.34   -0.01  1.0000
  -2  -9  -5   46364    7066                                                       76131   -2.34   -0.01  1.0000
  -2  -9  -6  102468    9524                                                      139547    2.07   -0.01  1.0000
  -2  -9  -6   78730    8215                                                      111585    2.07   -0.01  1.0000
  -2  -9  -7   93695    7174                                                       83711   -0.65    0.01  1.0000
  -2  -9  -7   69434    5717                                                       60878   -0.65    0.01  1.0000
  -2  -9  -7   85153    6951                                                       75648   -0.65    0.01  1.0000
  -2  -9  -8   65456    6317                                                       66476   -0.08   -0.04  1.0000
  -2  -9  -8   55135    5775                                                       56072   -0.08   -0.04  1.0000
  -2  -9  -9    1795    1055                                                        2310   -0.22    0.03  1.0000
  -2  -9  -9    5785    1689                                                        6684   -0.22    0.03  1.0000
  -2  -9 -10    9246    2028                                                       10632    0.27    0.03  1.0000
  -2  -9 -10   26917    3182                                                       29247    0.27    0.03  1.0000
  -2 -10   2   11098    2244                                                       15864   -0.80    0.00  1.0000
   2  10  -2    8470    2006                                                       12687   -0.80    0.00  1.0000
  -2 -10   1    7461    1003                                                        2873    1.27   -0.02  1.0000
  -2 -10   0  169494    9007                                                      158083   -0.55    0.02  1.0000
  -2 -10  -1   53444    5784                                                       59260    0.47   -0.02  1.0000
  -2 -10  -2   27382    4152                                                       28943   -0.18    0.02  1.0000
  -2 -10  -3     103     710                                                         124   -0.04   -0.02  1.0000
  -2 -10  -3     161     540                                                         188   -0.04   -0.02  1.0000
  -2 -10  -4  177190   10783                                                      178445    0.06    0.03  1.0000
  -2 -10  -5     380     605                                                         471    0.09   -0.01  1.0000
  -2 -10  -6    7979    1719                                                        6145    0.42    0.00  1.0000
  -2 -10  -6    8150    1923                                                        6295    0.42    0.00  1.0000
  -2 -10  -6    8271    1790                                                        6401    0.42    0.00  1.0000
  -2 -10  -7    9480    2075                                                        9289   -0.04    0.01  1.0000
  -2 -10  -7   10352    2156                                                       10152   -0.04    0.01  1.0000
  -2 -10  -7   12128    2533                                                       11912   -0.04    0.01  1.0000
  -2 -10  -8   24302    3377                                                       23588   -0.09    0.01  1.0000
  -2 -10  -9   15754    2093                                                       11860    0.64    0.02  1.0000
  -2 -10  -9   34580    3273                                                       28678    0.64    0.02  1.0000
  -2 -11   0   35217    3655                                                       41533   -0.62    0.00  1.0000
   2  11   0   26668    2895                                                       32198   -0.62    0.00  1.0000
  -2 -11  -1   29572    3576                                                       31128    0.17    0.00  1.0000
  -2 -11  -1   30594    3602                                                       32176    0.17    0.00  1.0000
  -2 -11  -2    5785    1511                                                        4733   -0.28   -0.01  1.0000
  -2 -11  -3   30250    3469                                                       25489    0.55   -0.01  1.0000
  -2 -11  -4    8854    2285                                                       10661   -0.35    0.00  1.0000
  -2 -11  -5   22515    3673                                                       27561    0.62    0.00  1.0000
  -2 -11  -6     831    1037                                                        2024   -0.63   -0.03  1.0000
  -2 -11  -6     517     733                                                        1514   -0.63   -0.03  1.0000
  -2 -11  -7    1927     640                                                        1106    0.41    0.04  1.0000
  -2 -11  -8    1711     265                                                         458   -0.77   -0.02  1.0000
  -2 -12  -3    3837     912                                                        3125   -0.23    0.02  1.0000
  -2 -12  -4       2     439                                                        -610   -0.05    0.02  1.0000
  -2 -12  -4     982     561                                                        1063   -0.05    0.02  1.0000
  -2 -12  -5      33     290                                                        -131   -0.22   -0.01  1.0000
  -2 -12  -6     896     429                                                         770   -0.08    0.01  1.0000
   3 -11  -5    4258     804                                                        3046   -0.39    0.01  1.0000
   3 -11  -5    3254     757                                                        2207   -0.39    0.01  1.0000
   3 -11  -4     196     277                                                         348   -0.18    0.00  1.0000
   3 -11  -3    3816    1136                                                        4391    0.17    0.01  1.0000
   3 -11  -2   29645    3177                                                       28744   -0.10    0.00  1.0000
   3 -11  -1     682     353                                                         712   -0.02    0.01  1.0000
   3 -11  -1    3471    1140                                                        3539   -0.02    0.01  1.0000
   3 -11   0     830     423                                                         890   -0.04    0.01  1.0000
   3 -11   1    3165     980                                                        3540    0.13    0.02  1.0000
   3 -10  -7   15477    1746                                                       12585    0.47    0.00  1.0000
   3 -10  -7   11377    1527                                                        8919    0.47    0.00  1.0000
   3 -10  -6   39314    3408                                                       31859    0.77    0.02  1.0000
   3 -10  -6   18879    2326                                                       13833    0.77    0.02  1.0000
   3 -10  -5    9016    2117                                                       10688    0.33    0.00  1.0000
   3 -10  -4    1901     915                                                        1863   -0.02   -0.01  1.0000
   3 -10  -3   15701    2622                                                       12709    0.49   -0.01  1.0000
   3 -10  -3   18248    2695                                                       15010    0.49   -0.01  1.0000
   3 -10  -2      93     669                                                        -368   -0.37    0.01  1.0000
   3 -10  -2      93     694                                                        -248   -0.37    0.01  1.0000
   3 -10  -1   44661    4855                                                       46956    0.21   -0.01  1.0000
   3 -10  -1   78925    6717                                                       81966    0.21   -0.01  1.0000
   3 -10   0    1432     733                                                        1544   -0.06    0.02  1.0000
   3 -10   0    3293    1172                                                        3462   -0.06    0.02  1.0000
   3 -10   1   10190    1832                                                        7169    0.63   -0.03  1.0000
   3 -10   2   13290    1919                                                        9747   -0.64   -0.02  1.0000
   3 -10   3   16850    2135                                                       16778   -0.01   -0.02  1.0000
   3  -9  -8   41815    3364                                                       41686   -0.01    0.02  1.0000
   3  -9  -7   94007    6059                                                       99154    0.32   -0.01  1.0000
   3  -9  -7   74808    5568                                                       79407    0.32   -0.01  1.0000
   3  -9  -6    7988    1798                                                        7374    0.14    0.00  1.0000
   3  -9  -6    4401    1125                                                        3948    0.14    0.00  1.0000
   3  -9  -5  121203    9184                                                      146443   -1.34   -0.02  1.0000
   3  -9  -4   18234    3451                                                       19647    0.20    0.01  1.0000
   3  -9  -3   81525    7090                                                       78492   -0.21    0.03  1.0000
   3  -9  -3   70984    6169                                                       68155   -0.21    0.03  1.0000
   3  -9  -2   44434    4856                                                       38538    0.56   -0.01  1.0000
   3  -9  -1    4498    1517                                                        3399   -0.34    0.00  1.0000
   3  -9   0  226779   12263                                                      229860    0.12   -0.01  1.0000
   3  -9   1   30820    4539                                                       32847   -0.22    0.00  1.0000
   3  -9   2  111960    8758                                                      132435   -1.13   -0.01  1.0000
   3  -9   3  111969    7718                                                      123805    0.67    0.08  1.0000
   3  -9   4   40054    3678                                                       39833   -0.02    0.01  1.0000
   3  -9   4   58637    4412                                                       58368   -0.02    0.01  1.0000
   3  -9   5   48431    3290                                                       45647    0.25    0.01  1.0000
   3  -8  -8    2937    1166                                                        3705   -0.26    0.01  1.0000
   3  -8  -7    4183    1405                                                        3724   -0.14   -0.01  1.0000
   3  -8  -7    6701    1570                                                        6116   -0.14   -0.01  1.0000
   3  -8  -6   78912    6321                                                       73294   -0.39   -0.02  1.0000
   3  -8  -6   54982    5444                                                       50310   -0.39   -0.02  1.0000
   3  -8  -5   55129    6838                                                       75159   -1.52    0.00  1.0000
   3  -8  -4   44610    4299                                                       28641    1.62    0.01  1.0000
   3  -8  -3   14850    2506                                                       11324   -0.60   -0.01  1.0000
   3  -8  -3   18071    3001                                                       14158   -0.60   -0.01  1.0000
   3  -8  -2    5376    1810                                                        6065    0.18   -0.04  1.0000
   3  -8  -2    6044    1963                                                        6773    0.18   -0.04  1.0000
   3  -8  -1  201265   12224                                                      240091   -1.60    0.01  1.0000
   3  -8  -1  209864   12525                                                      249474   -1.60    0.01  1.0000
   3  -8   0   20595    4132                                                       27015    0.81    0.00  1.0000
   3  -8   0   27602    4814                                                       34966    0.81    0.00  1.0000
   3  -8   1  236146   12014                                                      219548   -0.67    0.00  1.0000
   3  -8   1  199285   10946                                                      184062   -0.67    0.00  1.0000
   3  -8   2     789     348                                                          39    1.33    0.00  1.0000
   3  -8   3   48644    5401                                                       47586    0.09    0.02  1.0000
  -3   8  -3   43475    4967                                                       42476    0.09   -0.02  1.0000
   3  -8   4  149712    9260                                                      171033    1.03   -0.07  1.0000
   3  -8   4  128644    8703                                                      148459    1.03   -0.07  1.0000
   3  -8   5   14037    1693                                                        6855   -1.38   -0.07  1.0000
   3  -8   6    4848     848                                                        2134    0.91    0.01  1.0000
   3  -7  -9     132     496                                                         536   -0.47   -0.04  1.0000
   3  -7  -8   35263    4854                                                       50158   -1.40    0.02  1.0000
   3  -7  -7    3057     790                                                        1233    0.78    0.00  1.0000
   3  -7  -7    5475    1045                                                        2896    0.78    0.00  1.0000
   3  -7  -6   19254    3189                                                       19054   -0.03    0.01  1.0000
   3  -7  -6   19599    3460                                                       19398   -0.03    0.01  1.0000
   3  -7  -6   20872    3299                                                       20664   -0.03    0.01  1.0000
   3  -7  -5  135810   10167                                                      168250    1.61    0.02  1.0000
   3  -7  -5  105110    8526                                                      133858    1.61    0.02  1.0000
   3  -7  -4    5993    2724                                                       12909    1.40    0.00  1.0000
   3  -7  -4    7701    2855                                                       15366    1.40    0.00  1.0000
   3  -7  -3     468     579                                                         267    0.20   -0.02  1.0000
   3  -7  -2   32475    3042                                                       18404   -1.72    0.00  1.0000
   3  -7  -2   36286    3502                                                       21299   -1.72    0.00  1.0000
   3  -7  -1   13564    4021                                                       27130    1.87    0.03  1.0000
   3  -7  -1    4952    2709                                                       14070    1.87    0.03  1.0000
   3  -7   0   71429    6223                                                       69202    0.16   -0.01  1.0000
   3  -7   0   57590    5732                                                       55592    0.16   -0.01  1.0000
  -3   7  -1   46035    6089                                                       64351    1.51    0.01  1.0000
   3  -7   1   62153    7078                                                       83188    1.51   -0.01  1.0000
   3  -7   1   60518    6963                                                       81295    1.51   -0.01  1.0000
  -3   7  -2   71814    5312                                                       54076   -1.37   -0.02  1.0000
  -3   7  -2   79365    6177                                                       60653   -1.37   -0.02  1.0000
   3  -7   2   93916    6676                                                       73450   -1.37    0.02  1.0000
   3  -7   2   89964    6552                                                       69960   -1.37    0.02  1.0000
  -3   7  -3    5076    1388                                                        3292    0.54    0.01  1.0000
  -3   7  -3    3561    1073                                                        2098    0.54    0.01  1.0000
   3  -7   3    5460    1481                                                        3602    0.54   -0.01  1.0000
  -3   7  -4   50169    6678                                                       69516   -1.54   -0.03  1.0000
   3  -7   4   44484    6083                                                       62793   -1.54    0.03  1.0000
  -3   7  -5  285180   13311                                                      283007   -0.08    0.01  1.0000
  -3   7  -6    4869    1144                                                        2851    0.66   -0.18  1.0000
   3  -7   7   98183    6437                                                      107193   -0.54   -0.05  1.0000
   3  -6  -9   48587    4287                                                       48357    0.02    0.00  1.0000
   3  -6  -8  104529    7337                                                       95302    0.56   -0.02  1.0000
   3  -6  -8  105619    6876                                                       96343    0.56   -0.02  1.0000
   3  -6  -7   50683    4243                                                       32119    1.78    0.02  1.0000
   3  -6  -7   47853    4384                                                       29875    1.78    0.02  1.0000
   3  -6  -6  119475    9700                                                      144321   -1.32   -0.04  1.0000
   3  -6  -6  131612    9767                                                      157631   -1.32   -0.04  1.0000
   3  -6  -5     405     729                                                        1165   -0.54    0.03  1.0000
   3  -6  -5     990     787                                                        2069   -0.54    0.03  1.0000
   3  -6  -4  348436   12963                                                      309784   -1.30   -0.03  1.0000
   3  -6  -3   22923    1824                                                        7190   -2.60    0.04  1.0000
   3  -6  -2  146696    8124                                                      140994    0.29    0.00  1.0000
   3  -6  -1   80763    7558                                                      120989    2.46    0.02  1.0000
   3  -6   0   24626    2718                                                       13787   -1.53   -0.03  1.0000
  -3   6   0   16963    1810                                                        8232   -1.53    0.03  1.0000
  -3   6  -1  327627   12325                                                      319856    0.26   -0.04  1.0000
  -3   6  -2  100586    5301                                                       50885   -3.54    0.02  1.0000
  -3   6  -3  461598   18794                                                      586401    3.34   -0.02  1.0000
  -3   6  -4   97820    9589                                                      149297   -2.85    0.03  1.0000
  -3   6  -4  103018    9917                                                      155703   -2.85    0.03  1.0000
  -3   6  -5  122417    6932                                                       72608    3.11   -0.01  1.0000
  -3   6  -6  306352   13259                                                      270196   -1.30    0.02  1.0000
  -3   6  -6  266959   11209                                                      233283   -1.30    0.02  1.0000
  -3   6  -7  203359   10000                                                      213944    0.45    0.13  1.0000
  -3   6  -7  249222   11975                                                      260927    0.45    0.13  1.0000
  -3   6  -8  156917    7314                                                      162294   -0.26    0.01  1.0000
   3  -5 -10  109635    4938                                                       99142   -0.63    0.00  1.0000
   3  -5  -9   35892    4014                                                       37510   -0.16    0.01  1.0000
   3  -5  -8   83678    6820                                                       78538    0.35    0.01  1.0000
   3  -5  -8  104047    7369                                                       98305    0.35    0.01  1.0000
   3  -5  -7  119984    8591                                                      113175   -0.39    0.00  1.0000
   3  -5  -7  145478    9185                                                      137970   -0.39    0.00  1.0000
   3  -5  -6    4707     724                                                        1102   -1.37    0.01  1.0000
   3  -5  -6    2687     439                                                         270   -1.37    0.01  1.0000
   3  -5  -6    5263     955                                                        1379   -1.37    0.01  1.0000
   3  -5  -5  293265   13174                                                      308425   -0.53    0.00  1.0000
   3  -5  -5  371501   14067                                                      388539   -0.53    0.00  1.0000
   3  -5  -4  165448   11097                                                      270633    4.39    0.01  1.0000
   3  -5  -3  670365   14664                                                      525470   -3.63   -0.01  1.0000
   3  -5  -3  692950   14425                                                      545487   -3.63   -0.01  1.0000
   3  -5  -2   16939    6221                                                      103352    7.40    0.00  1.0000
   3  -5  -2   14978    6042                                                       98419    7.40    0.00  1.0000
   3  -5  -1   52281    6881                                                      132672   -5.25   -0.05  1.0000
   3  -5  -1   71410    7881                                                      162263   -5.25   -0.05  1.0000
   3  -5   0 1188840   22477                                                     1280530    1.60    0.03  1.0000
  -3   5   0 1166259   20466                                                     1257090    1.60   -0.03  1.0000
  -3   5  -1  150882    5448                                                       75992   -4.36    0.03  1.0000
  -3   5  -2 1125387   19842                                                      878147    4.79    0.02  1.0000
  -3   5  -3    2905    1228                                                        3533   -0.21   -0.01  1.0000
  -3   5  -4  853628   22421                                                      889249    0.74    0.02  1.0000
  -3   5  -5   70395    6944                                                       80934   -0.74   -0.03  1.0000
  -3   5  -5   69640    6993                                                       80126   -0.74   -0.03  1.0000
  -3   5  -5   57589    5855                                                       67157   -0.74   -0.03  1.0000
  -3   5  -6   62339    5819                                                       57685    0.37    0.03  1.0000
  -3   5  -6   75106    6304                                                       69989    0.37    0.03  1.0000
  -3   5  -7   42415    4381                                                       30938   -1.16   -0.02  1.0000
  -3   5  -7   43704    4259                                                       32040   -1.16   -0.02  1.0000
  -3   5  -8   78838    6842                                                       92980    0.93   -0.08  1.0000
  -3   5  -8   71821    6425                                                       85345    0.93   -0.08  1.0000
  -3   5  -9  215481    8618                                                      226477   -0.45   -0.02  1.0000
   3  -4 -10   27779    2574                                                       25920   -0.22    0.02  1.0000
   3  -4 -10   30057    2668                                                       28122   -0.22    0.02  1.0000
   3  -4  -9  285841   12248                                                      325884    1.40   -0.01  1.0000
   3  -4  -8    6654    2503                                                        9246   -0.56    0.02  1.0000
   3  -4  -7  157940   10185                                                      156972   -0.05   -0.01  1.0000
   3  -4  -7  189391   10944                                                      188331   -0.05   -0.01  1.0000
   3  -4  -6  292068   12401                                                      250497   -1.55    0.02  1.0000
   3  -4  -6  285195   11859                                                      244135   -1.55    0.02  1.0000
   3  -4  -6  255012   11621                                                      216272   -1.55    0.02  1.0000
   3  -4  -5     199    1684                                                        5833    3.50   -0.02  1.0000
   3  -4  -4  937188   20266                                                      911232    0.52    0.01  1.0000
   3  -4  -3     828    2564                                                       16222   -3.81    0.00  1.0000
   3  -4  -2  624747   16206                                                      756805    3.08    0.01  1.0000
   3  -4  -2  509845   13546                                                      629754    3.08    0.01  1.0000
   3  -4  -1   91186    7341                                                      180248   -4.74    0.02  1.0000
   3  -4  -1  128398    8458                                                      231277   -4.74    0.02  1.0000
  -3   4   0  208321    6384                                                      156061    2.37   -0.01  1.0000
  -3   4  -1 1709635   23405                                                     1761200    0.76    0.02  1.0000
  -3   4  -2   88743    7184                                                      143746    3.14    0.00  1.0000
  -3   4  -3  739624   19489                                                      900273   -3.44   -0.01  1.0000
  -3   4  -4   17586    2227                                                       10321   -1.20    0.02  1.0000
  -3   4  -5 1533194   27887                                                     1462740   -1.11    0.00  1.0000
  -3   4  -6  233203   10063                                                      182217    2.17   -0.01  1.0000
  -3   4  -6  226044    9902                                                      175896    2.17   -0.01  1.0000
  -3   4  -7    1067    2228                                                        8326   -2.27    0.00  1.0000
  -3   4  -7     701    2047                                                        7235   -2.27    0.00  1.0000
  -3   4  -8  343832   15827                                                      431409    2.73   -0.02  1.0000
  -3   4  -8  422845   17483                                                      519425    2.73   -0.02  1.0000
  -3   4  -9   34780    2736                                                       19125   -1.87    0.07  1.0000
  -3   4  -9   39733    3234                                                       22840   -1.87    0.07  1.0000
  -3   4 -10  112971    5168                                                       93215    1.19   -0.01  1.0000
   3  -3 -10   25300    2656                                                       27941   -0.31    0.00  1.0000
   3  -3  -9   39319    4336                                                       41234    0.18    0.02  1.0000
   3  -3  -8  271655   11933                                                      232361   -1.52   -0.02  1.0000
   3  -3  -7  434626   17608                                                      483286    1.39    0.01  1.0000
   3  -3  -7  509888   19295                                                      562486    1.39    0.01  1.0000
   3  -3  -6  123974    7800                                                      100675   -1.35   -0.03  1.0000
   3  -3  -6  152992    8837                                                      126975   -1.35   -0.03  1.0000
   3  -3  -6  146583    8444                                                      121142   -1.35   -0.03  1.0000
   3  -3  -5  947211   25266                                                     1206110    4.84    0.00  1.0000
   3  -3  -4  377958    8939                                                      176552   -7.53   -0.02  1.0000
   3  -3  -3 1161266   20521                                                     1119500    0.76    0.01  1.0000
   3  -3  -2   11457    2243                                                       15891   -0.74   -0.02  1.0000
   3  -3  -1 1268747   20171                                                     1442550    2.89    0.01  1.0000
   3  -3  -1  971506   15421                                                     1124290    2.89    0.01  1.0000
  -3   3   0    3886     591                                                        1928   -4.11    0.05  1.0000
  -3   3  -1    2305    3979                                                       62987    7.85   -0.05  1.0000
  -3   3  -2 2744829   24008                                                     1982980   -9.62    0.01  1.0000
  -3   3  -3   36019    6606                                                      127513    6.47   -0.01  1.0000
  -3   3  -4  752724   20200                                                     1026100   -5.62    0.00  1.0000
  -3   3  -5  406955   18490                                                      755045    8.94   -0.01  1.0000
  -3   3  -6 1094191   20948                                                      892716   -3.92    0.00  1.0000
  -3   3  -7  286590   12306                                                      251662    1.30    0.02  1.0000
  -3   3  -8  316521   13908                                                      323528   -0.24    0.02  1.0000
  -3   3  -8  391276   16010                                                      399062   -0.24    0.02  1.0000
  -3   3  -9  465327   14596                                                      446069   -0.55    0.01  1.0000
  -3   3  -9  598670   18270                                                      576799   -0.55    0.01  1.0000
  -3   3 -10   39259    4196                                                       42491    0.31   -0.02  1.0000
   3  -2  -9  196703    8999                                                      194008    0.12    0.00  1.0000
   3  -2  -9  217831    9710                                                      214994    0.12    0.00  1.0000
   3  -2  -8    1169     890                                                        1801    0.32   -0.01  1.0000
   3  -2  -7  493036   17963                                                      493766    0.02   -0.01  1.0000
   3  -2  -6    5234    1710                                                        4955    0.08    0.01  1.0000
   3  -2  -6    5581    1694                                                        5293    0.08    0.01  1.0000
   3  -2  -5   46921    5544                                                       57984   -0.94   -0.01  1.0000
   3  -2  -4  691268   16590                                                      622380   -1.65    0.02  1.0000
   3  -2  -3   32267    4446                                                       55499    2.16   -0.02  1.0000
   3  -2  -2   30337     896                                                        2693    8.74    0.03  1.0000
   3  -2  -1  439545    9820                                                      691267   -6.52   -0.03  1.0000
  -3   2   1  546146   11762                                                      823484   -6.52    0.03  1.0000
  -3   2   0  190272    6864                                                      284522    3.76   -0.03  1.0000
  -3   2  -1    4514    1662                                                       13093   -1.83   -0.01  1.0000
   3  -2   1    3917    1626                                                       12062   -1.83    0.01  1.0000
  -3   2  -2    2401    1805                                                       14787   -2.81    0.02  1.0000
   3  -2   2    3243    1946                                                       16782   -2.81   -0.02  1.0000
  -3   2  -3 2843618   29480                                                     3144590    3.37    0.02  1.0000
  -3   2  -4  359039    9402                                                      270677   -3.05   -0.04  1.0000
   3  -2   4  308899    8912                                                      227390   -3.05    0.04  1.0000
   3  -2   5  268920    8861                                                      182066    3.56   -0.04  1.0000
  -3   2  -5  247467    7839                                                      164493    3.56    0.04  1.0000
   3  -2   6  315213    8368                                                      136990   -7.40    0.02  1.0000
  -3   2  -6  300433    7291                                                      127307   -7.40   -0.02  1.0000
  -3   2  -7  254297   13624                                                      331002    2.75   -0.02  1.0000
   3  -2   7  277729   14542                                                      357662    2.75    0.02  1.0000
  -3   2  -8     323     379                                                         466   -1.53   -0.02  1.0000
  -3   2  -8     463     444                                                         327   -1.53   -0.02  1.0000
  -3   2  -9   50757    5153                                                       42093    0.78   -0.01  1.0000
  -3   2 -10  569985   16954                                                      541483   -0.74    0.00  1.0000
  -3   2 -11    3963    1372                                                        5959    0.55    0.01  1.0000
   3  -1  -9    1997     916                                                        2424    0.18    0.00  1.0000
   3  -1  -9    2317     928                                                        2776    0.18    0.00  1.0000
   3  -1  -8  560919   18206                                                      572586   -0.30   -0.01  1.0000
   3  -1  -8  587551   17934                                                      599490   -0.30   -0.01  1.0000
   3  -1  -7    2882    1170                                                        2253   -0.24    0.01  1.0000
   3  -1  -6   62633    5564                                                       52400    0.83    0.00  1.0000
   3  -1  -6   76460    6309                                                       65106    0.83    0.00  1.0000
   3  -1  -5   66917    6556                                                       80226   -0.95    0.02  1.0000
   3  -1  -4    6506     458                                                         -22    3.12    0.01  1.0000
   3  -1  -3 1577813   22793                                                     1440640   -2.16    0.03  1.0000
   3  -1  -2 1737506   24874                                                     2162880    5.90    0.01  1.0000
   3  -1  -2 1193973   16598                                                     1550570    5.90    0.01  1.0000
   3  -1  -1  101158   10681                                                      655496  -19.02    0.00  1.0000
  -3   1   1   88267    8068                                                      622003  -19.02    0.00  1.0000
  -3   1   0   46338    8473                                                      393707   15.95   -0.01  1.0000
   3  -1   0   78123    9046                                                      478452   15.95    0.01  1.0000
  -3   1   0   75538    8265                                                      472023   15.95   -0.01  1.0000
   3  -1   0   44734    8449                                                      389005   15.95    0.01  1.0000
   3  -1   1  748827    7272                                                      288433  -12.70    0.01  1.0000
  -3   1  -1  714228    6946                                                      267115  -12.70   -0.01  1.0000
  -3   1  -2  285184    3211                                                       54289   11.65    0.01  1.0000
   3  -1   2  313186    3587                                                       66875   11.65   -0.01  1.0000
   3  -1   3    4483    1764                                                       14732   -7.29    0.03  1.0000
  -3   1  -3    7911    1456                                                        9878   -7.29   -0.03  1.0000
   3  -1   3    4484    1807                                                       14730   -7.29    0.03  1.0000
  -3   1  -4 1187154   21030                                                     1633270    7.29    0.02  1.0000
   3  -1   4 1006487   19990                                                     1420070    7.29   -0.02  1.0000
  -3   1  -5  273134    6736                                                      143485   -5.57    0.01  1.0000
   3  -1   5  257475    6948                                                      132199   -5.57   -0.01  1.0000
   3  -1   6 1351202   22634                                                     1126270    3.91    0.03  1.0000
  -3   1  -6 1055979   17534                                                      858318    3.91   -0.03  1.0000
   3  -1   7  405735   14796                                                      398672   -0.22    0.00  1.0000
   3  -1   8   34677    6422                                                       79243    3.69   -0.04  1.0000
   3  -1   8   37801    7220                                                       83932    3.69   -0.04  1.0000
  -3   1  -9  174585   12644                                                      237578   -2.69    0.02  1.0000
  -3   1 -10   51900    3989                                                       26514    2.51    0.00  1.0000
  -3   1 -11  207786    9024                                                      191965   -0.68   -0.02  1.0000
   3   0  -9  154730    7332                                                      151995   -0.14    0.01  1.0000
   3   0  -8   14839    3825                                                       27802   -1.74    0.00  1.0000
   3   0  -8    9829    3025                                                       20756   -1.74    0.00  1.0000
   3   0  -7  393650   14235                                                      320030    2.39    0.02  1.0000
   3   0  -7  407389   13889                                                      332430    2.39    0.02  1.0000
   3   0  -6  295283   14860                                                      368027   -2.45    0.00  1.0000
   3   0  -6  203387   11773                                                      264440   -2.45    0.00  1.0000
   3   0  -5    3105     401                                                         685    3.17    0.03  1.0000
   3   0  -4 1733181   30750                                                     2079210   -4.85   -0.02  1.0000
   3   0  -4 1560006   29365                                                     1889100   -4.85   -0.02  1.0000
   3   0  -3  773841   14946                                                      617629    3.63   -0.03  1.0000
   3   0  -3  798790   15215                                                      639939    3.63   -0.03  1.0000
   3   0  -2 5421437   37120                                                     4703460   -6.18   -0.01  1.0000
   3   0  -2 5009623   34767                                                     4320440   -6.18   -0.01  1.0000
   3   0  -1  414258    9858                                                      436961    0.67   -0.02  1.0000
   3   0  -1  413486    9039                                                      436168    0.67   -0.02  1.0000
  -3   0   0 2501414   16974                                                     1905310    7.79    0.02  1.0000
   3   0   0 2569717   18526                                                     1964980    7.79   -0.02  1.0000
   3   0   1  342093    6758                                                      293562   -1.67    0.00  1.0000
  -3   0  -2  986695   11794                                                      815027   -3.50    0.00  1.0000
   3   0   2  976365    9597                                                      805641   -3.50    0.00  1.0000
   3   0   3 2496638   21464                                                     2284590    2.65   -0.03  1.0000
   3   0   3 2828994   21106                                                     2602970    2.65   -0.03  1.0000
   3   0   4  391602   11233                                                      523814   -3.79    0.00  1.0000
   3   0   4  355460   10730                                                      481877   -3.79    0.00  1.0000
  -3   0  -5 2655127   27143                                                     2752380    1.14   -0.05  1.0000
   3   0   5 2626576   29218                                                     2723310    1.14    0.05  1.0000
   3   0   6   47301    4206                                                       43136   -0.38   -0.02  1.0000
  -3   0  -6   43116    3394                                                       39144   -0.38    0.02  1.0000
   3   0   7 2316216   34772                                                     2354130   -0.48   -0.03  1.0000
   3   0   8  393611   15331                                                      394045    0.01   -0.05  1.0000
   3   0   8  330497   13265                                                      330895    0.01   -0.05  1.0000
   3   0   9 1199106   23687                                                      996412   -3.75    0.06  1.0000
   3   0   9 1038238   23343                                                      850282   -3.75    0.06  1.0000
  -3   0 -10  274668   11545                                                      211629    2.48    0.00  1.0000
   3   0  10  226532    9118                                                      169659    2.48    0.00  1.0000
  -3   0 -11  168502   10524                                                      224567   -2.45   -0.01  1.0000
  -3   0 -12  171551    7061                                                      180960    0.43    0.02  1.0000
   3   1  -9   12719    1997                                                       14650   -0.32   -0.03  1.0000
   3   1  -8  468961   15054                                                      472832    0.11    0.02  1.0000
   3   1  -7   17654    4430                                                       34386    2.03   -0.03  1.0000
   3   1  -7   18143    4182                                                       35068    2.03   -0.03  1.0000
   3   1  -6  638446   21339                                                      744958   -2.48    0.01  1.0000
   3   1  -6  621496   20593                                                      726640   -2.48    0.01  1.0000
   3   1  -6  462043   17603                                                      553267   -2.48    0.01  1.0000
   3   1  -6  436049   17746                                                      524787   -2.48    0.01  1.0000
   3   1  -5  193409   11110                                                      230980    1.58   -0.02  1.0000
   3   1  -5  159664   10105                                                      193953    1.58   -0.02  1.0000
   3   1  -4  573237   14878                                                      448427   -3.38   -0.03  1.0000
   3   1  -3 1283313   19770                                                      966732    5.79   -0.02  1.0000
   3   1  -3 1156720   17769                                                      857292    5.79   -0.02  1.0000
   3   1  -2   10192    3829                                                       52676   -4.97    0.03  1.0000
   3   1  -2    7971    3485                                                       47455   -4.97    0.03  1.0000
   3   1  -1 1197859   19728                                                     1737130    8.65   -0.01  1.0000
   3   1  -1 1106565   18814                                                     1626820    8.65   -0.01  1.0000
   3   1   0 1857868   18434                                                     1703210   -2.24    0.01  1.0000
   3   1   0 1478945   14691                                                     1341320   -2.24    0.01  1.0000
  -3  -1   0 1281181   11675                                                     1153320   -2.24   -0.01  1.0000
   3   1   0 1440175   12363                                                     1304410   -2.24    0.01  1.0000
   3   1   0 2060564   19456                                                     1897510   -2.24    0.01  1.0000
  -3  -1  -1  785096   10250                                                      772654    0.27   -0.01  1.0000
   3   1   1  855172   10208                                                      842184    0.27    0.01  1.0000
   3   1   1  970189   11358                                                      956352    0.27    0.01  1.0000
  -3  -1  -1 1181475   10842                                                     1166200    0.27   -0.01  1.0000
   3   1   1 1233961   14844                                                     1218350    0.27    0.01  1.0000
   3   1   2  238639    3349                                                       68489   -8.78    0.01  1.0000
  -3  -1  -2  269058    3553                                                       85208   -8.78   -0.01  1.0000
   3   1   2  240169    3340                                                       69309   -8.78    0.01  1.0000
   3   1   2  277600    3945                                                       90044   -8.78    0.01  1.0000
   3   1   3 1493288   18829                                                     2530490   14.27   -0.04  1.0000
   3   1   3 2004610   25339                                                     3184770   14.27   -0.04  1.0000
  -3  -1  -3 2258144   25706                                                     3502370   14.27    0.04  1.0000
   3   1   3 2570432   25637                                                     3888810   14.27   -0.04  1.0000
   3   1   3 1465134   22138                                                     2493800   14.27   -0.04  1.0000
   3   1   4 3393600   33131                                                     4575680  -11.49    0.07  1.0000
   3   1   4 3190448   30231                                                     4339280  -11.49    0.07  1.0000
  -3  -1  -5  872468   10088                                                      426656   10.87    0.00  1.0000
   3   1   5  828096   10692                                                      395801   10.87    0.00  1.0000
   3   1   5  821196   10639                                                      391035   10.87    0.00  1.0000
   3   1   6 1387239   18820                                                      931236   -8.23   -0.06  1.0000
   3   1   6 1299592   16994                                                      859683   -8.23   -0.06  1.0000
   3   1   7    1864    4181                                                       48572    6.86    0.01  1.0000
   3   1   7    4382    5375                                                       59251    6.86    0.01  1.0000
   3   1   8  566061   21009                                                      767071   -4.78    0.11  1.0000
   3   1   9     981    1275                                                        2780    3.25    0.05  1.0000
   3   1   9    2223    1015                                                        1361    3.25    0.05  1.0000
  -3  -1  -9    1338    1063                                                        2252    3.25   -0.05  1.0000
   3   1  10  401735   15195                                                      405784    0.12   -0.01  1.0000
  -3  -1 -11  302408   12729                                                      296020    0.23    0.02  1.0000
   3   1  11  231638    9739                                                      226052    0.23   -0.02  1.0000
  -3  -1 -12   37991    3360                                                       33745    0.43    0.00  1.0000
   3   2  -8   36845    3149                                                       26129    1.17    0.02  1.0000
   3   2  -7  747397   19991                                                      697343   -1.14   -0.02  1.0000
   3   2  -7  596945   16249                                                      552304   -1.14   -0.02  1.0000
   3   2  -6   99173    7897                                                      102611    0.21    0.01  1.0000
   3   2  -6   87069    6950                                                       90293    0.21    0.01  1.0000
   3   2  -6   77343    6830                                                       80383    0.21    0.01  1.0000
   3   2  -5  166660    9087                                                      139147   -1.36    0.00  1.0000
   3   2  -5  172684    8838                                                      144656   -1.36    0.00  1.0000
   3   2  -5  169020    9380                                                      141304   -1.36    0.00  1.0000
   3   2  -5  154778    8611                                                      128309   -1.36    0.00  1.0000
   3   2  -4   25388    6409                                                       75353    4.46   -0.01  1.0000
   3   2  -3  218480    7045                                                      141811   -3.51    0.05  1.0000
   3   2  -3  280501    9361                                                      192531   -3.51    0.05  1.0000
   3   2  -2  185919    5816                                                      112147    3.73    0.01  1.0000
   3   2  -2  187829    5956                                                      113632    3.73    0.01  1.0000
   3   2  -1 1429286   20097                                                     1917960   -7.33    0.01  1.0000
   3   2  -1 1696884   24796                                                     2226130   -7.33    0.01  1.0000
   3   2   0    7143    3873                                                       67359    6.77    0.01  1.0000
   3   2   0    5224    3822                                                       61156    6.77    0.01  1.0000
   3   2   1  271641    1836                                                       20193  -14.67    0.04  1.0000
   3   2   1  246645    1348                                                       13816  -14.67    0.04  1.0000
  -3  -2  -1  273160    1432                                                       20609  -14.67   -0.04  1.0000
   3   2   1  253193    1329                                                       15399  -14.67    0.04  1.0000
   3   2   1  273984    2096                                                       20836  -14.67    0.04  1.0000
   3   2   2  233291    2109                                                       23132   12.80   -0.03  1.0000
   3   2   2  217044    1739                                                       18217   12.80   -0.03  1.0000
   3   2   3  148118    3354                                                       86363   -3.52    0.04  1.0000
  -3  -2  -3  203263    5063                                                      129501   -3.52   -0.04  1.0000
   3   2   3  146876    4041                                                       85416   -3.52    0.04  1.0000
   3   2   3  210230    4880                                                      135074   -3.52    0.04  1.0000
  -3  -2  -3  203702    4684                                                      129852   -3.52   -0.04  1.0000
   3   2   3  187833    4955                                                      117247   -3.52    0.04  1.0000
  -3  -2  -4   41061    2542                                                       28769   -1.28    0.00  1.0000
   3   2   4   37315    2548                                                       25648   -1.28    0.00  1.0000
   3   2   4   37706    2295                                                       25973   -1.28    0.00  1.0000
   3   2   4   38925    2095                                                       26986   -1.28    0.00  1.0000
  -3  -2  -5   81569    4743                                                       97373   -1.02    0.03  1.0000
   3   2   5   72642    5133                                                       87596   -1.02   -0.03  1.0000
   3   2   6   87530    6081                                                       99339   -0.75    0.01  1.0000
   3   2   6   85146    5816                                                       96798   -0.75    0.01  1.0000
   3   2   7  871716   19310                                                      923646    1.06   -0.02  1.0000
   3   2   7 1096354   23213                                                     1154500    1.06   -0.02  1.0000
   3   2   8   46795    6302                                                       69337   -1.82    0.16  1.0000
   3   2   9    6073    1536                                                        3803    0.77   -0.28  1.0000
  -3  -2  -9    6664    1569                                                        4283    0.77    0.28  1.0000
   3   2  10   98419    7621                                                       96464   -0.12    0.05  1.0000
  -3  -2 -10  102394    7831                                                      100400   -0.12   -0.05  1.0000
   3   2  11  134413    7577                                                      118453   -0.87   -0.07  1.0000
  -3  -2 -12   79428    5359                                                       77533    0.13   -0.03  1.0000
   3   3  -8   31416    2979                                                       30234    0.13   -0.01  1.0000
   3   3  -7   11224    2618                                                       14139   -0.50    0.01  1.0000
   3   3  -7    6647    1913                                                        8930   -0.50    0.01  1.0000
   3   3  -6  425174   15829                                                      417992   -0.21    0.00  1.0000
   3   3  -6  319821   13496                                                      313596   -0.21    0.00  1.0000
   3   3  -5  927388   25212                                                      993638    1.31    0.01  1.0000
   3   3  -5 1002127   25900                                                     1070950    1.31    0.01  1.0000
   3   3  -4  108989    7764                                                      111934    0.17    0.01  1.0000
   3   3  -4  114868    8375                                                      117891    0.17    0.01  1.0000
   3   3  -4  100729    7693                                                      103561    0.17    0.01  1.0000
   3   3  -3  456714   13656                                                      363754   -2.81   -0.02  1.0000
   3   3  -3  396552   11582                                                      310291   -2.81   -0.02  1.0000
   3   3  -2 1824180   28613                                                     1936410    1.58    0.02  1.0000
   3   3  -2 1769121   27149                                                     1879670    1.58    0.02  1.0000
   3   3  -1  604421   15909                                                      731281   -3.01   -0.03  1.0000
   3   3  -1  676667   16381                                                      810545   -3.01   -0.03  1.0000
   3   3   0  392753    7735                                                      198908    6.99   -0.01  1.0000
   3   3   0  394326    7145                                                      200028    6.99   -0.01  1.0000
   3   3   1  867386   10038                                                      521974   -8.08   -0.02  1.0000
   3   3   1  930799   12284                                                      571417   -8.08   -0.02  1.0000
  -3  -3  -2  188681    9759                                                      643301   14.23    0.03  1.0000
  -3  -3  -2  259034   11437                                                      768497   14.23    0.03  1.0000
   3   3   2  176590   10391                                                      620806   14.23   -0.03  1.0000
   3   3   2   96561    8240                                                      460265   14.23   -0.03  1.0000
   3   3   2  319379   14296                                                      870157   14.23   -0.03  1.0000
  -3  -3  -3     930    3402                                                       58060  -10.50   -0.02  1.0000
   3   3   3     618    3542                                                       60803  -10.50    0.02  1.0000
   3   3   4  911194   13876                                                     1076860    3.22   -0.03  1.0000
  -3  -3  -4 1105847   17895                                                     1287650    3.22    0.03  1.0000
  -3  -3  -5  485790   11438                                                      417396   -1.97   -0.03  1.0000
  -3  -3  -6  187528    5524                                                       79599    5.84    0.00  1.0000
   3   3   6  167786    5071                                                       66928    5.84    0.00  1.0000
   3   3   6  161188    4939                                                       62785    5.84    0.00  1.0000
   3   3   7    1139    2816                                                       17033   -3.74    0.00  1.0000
   3   3   7     833    2643                                                       15783   -3.74    0.00  1.0000
   3   3   8 1266180   28527                                                     1464570    3.29    0.01  1.0000
   3   3   8  989806   23553                                                     1166050    3.29    0.01  1.0000
   3   3   9  105918    9497                                                      144874   -2.13   -0.19  1.0000
  -3  -3  -9  129065   10170                                                      171753   -2.13    0.19  1.0000
  -3  -3 -10  503913   16004                                                      413681    2.58   -0.16  1.0000
   3   3  11  146229    7556                                                      105790   -2.21    0.01  1.0000
  -3  -3 -12  116959    7649                                                      145513    1.53   -0.02  1.0000
   3   3  12  118804    7115                                                      147570    1.53    0.02  1.0000
   3   4  -7  130616    6680                                                      117184    0.74    0.00  1.0000
   3   4  -7   93328    5261                                                       82030    0.74    0.00  1.0000
   3   4  -6   32482    4825                                                       43578   -1.10   -0.01  1.0000
   3   4  -6   25547    4078                                                       35479   -1.10   -0.01  1.0000
   3   4  -5  633350   21636                                                      731533    2.30    0.01  1.0000
   3   4  -5  588299   19632                                                      683054    2.30    0.01  1.0000
   3   4  -4     281    3012                                                       15357   -4.15   -0.01  1.0000
   3   4  -4     212    2961                                                       14817   -4.15   -0.01  1.0000
   3   4  -4     400    3225                                                       16168   -4.15   -0.01  1.0000
   3   4  -4      40    2435                                                       10160   -4.15   -0.01  1.0000
   3   4  -3  263226   10380                                                      189891    2.99   -0.01  1.0000
   3   4  -3  235322    9242                                                      166308    2.99   -0.01  1.0000
   3   4  -2  915747   19302                                                      780771   -2.84    0.02  1.0000
   3   4  -2  900389   19109                                                      766595   -2.84    0.02  1.0000
   3   4  -1  578692   17825                                                      822961    5.67   -0.01  1.0000
   3   4  -1  640855   19575                                                      896786    5.67   -0.01  1.0000
   3   4   0  149893    9104                                                      273504   -5.26   -0.02  1.0000
   3   4   0  155352   10273                                                      280861   -5.26   -0.02  1.0000
   3   4   1  608569   10302                                                      478089    3.43    0.01  1.0000
   3   4   1  697524   13505                                                      557278    3.43    0.01  1.0000
  -3  -4  -2  924227   12417                                                      784172   -2.93   -0.04  1.0000
   3   4   2 1156451   17013                                                      999104   -2.93    0.04  1.0000
  -3  -4  -3   84952    4416                                                       81736   -0.22    0.03  1.0000
   3   4   3   78241    4322                                                       75157   -0.22   -0.03  1.0000
  -3  -4  -4  992760   18618                                                     1210100   -4.01    0.00  1.0000
   3   4   4  786315   14480                                                      980924   -4.01    0.00  1.0000
  -3  -4  -5 2481733   33000                                                     3143580    7.65   -0.01  1.0000
  -3  -4  -6 1799656   24317                                                     1417730   -5.84    0.10  1.0000
   3   4   7  192824    9392                                                      180653    0.55    0.06  1.0000
   3   4   7  197125    9431                                                      184817    0.55    0.06  1.0000
   3   4   8    8477    3088                                                       18249   -1.66   -0.06  1.0000
   3   4   8   12493    3746                                                       23959   -1.66   -0.06  1.0000
   3   4   9  380738   16016                                                      407061    0.81    0.08  1.0000
  -3  -4  -9  488539   17928                                                      518298    0.81   -0.08  1.0000
  -3  -4 -10  129383    8630                                                      120501   -0.49   -0.11  1.0000
  -3  -4 -11  227097   11246                                                      242686   -0.62   -0.03  1.0000
   3   4  12   95534    6472                                                      108621    0.79   -0.04  1.0000
   3   5  -6  407358   13282                                                      404325    0.09    0.01  1.0000
   3   5  -6  316736   11702                                                      314062    0.09    0.01  1.0000
   3   5  -5    9311    2231                                                        8703    0.12    0.03  1.0000
   3   5  -5    8820    2204                                                        8228    0.12    0.03  1.0000
   3   5  -4    2117     964                                                        1450   -0.31   -0.04  1.0000
   3   5  -4    2017     858                                                        1367   -0.31   -0.04  1.0000
   3   5  -4    3889    1368                                                        2963   -0.31   -0.04  1.0000
   3   5  -3    8402    1475                                                        3389    1.29    0.04  1.0000
   3   5  -3    8710    1343                                                        3586    1.29    0.04  1.0000
   3   5  -3   11942    1847                                                        5751    1.29    0.04  1.0000
   3   5  -3   11211    1684                                                        5247    1.29    0.04  1.0000
   3   5  -2   88150    6279                                                       75309    0.87   -0.03  1.0000
   3   5  -2   88501    6489                                                       75633    0.87   -0.03  1.0000
   3   5  -1  778775   18165                                                      758231   -0.45    0.00  1.0000
   3   5  -1  892075   21186                                                      870078   -0.45    0.00  1.0000
   3   5   0 1528844   22094                                                     1418320   -1.76   -0.03  1.0000
   3   5   0 1746576   27427                                                     1628300   -1.76   -0.03  1.0000
   3   5   1   20475    2578                                                       16178    0.62    0.04  1.0000
   3   5   2   15337    2100                                                       12528    0.46   -0.01  1.0000
  -3  -5  -3 1448391   20798                                                     1461090    0.20    0.01  1.0000
   3   5   3 1490399   21741                                                     1503280    0.20   -0.01  1.0000
  -3  -5  -4    1368     906                                                        2131    0.36    0.00  1.0000
  -3  -5  -5  243399    7321                                                      131995    5.03   -0.06  1.0000
  -3  -5  -6  359750    9211                                                      184923   -6.57    0.02  1.0000
  -3  -5  -7  827816   24072                                                     1094010    5.27   -0.05  1.0000
   3   5   8  266091   13207                                                      302003   -1.30    0.07  1.0000
  -3  -5  -8  298653   13789                                                      336632   -1.30   -0.07  1.0000
   3   5   8  286293   13659                                                      323501   -1.30    0.07  1.0000
   3   5   9    7354     717                                                         491    2.46   -0.10  1.0000
  -3  -5  -9    4062     580                                                         -66    2.46    0.10  1.0000
   3   5   9    7886     562                                                         637    2.46   -0.10  1.0000
  -3  -5 -10   45579    4084                                                       27269   -1.87   -0.05  1.0000
  -3  -5 -11   12695    3232                                                       20192    1.13    0.18  1.0000
   3   5  12  117649    7046                                                      123979   -0.35   -0.03  1.0000
   3   6  -6   52836    4227                                                       59576    0.55    0.02  1.0000
   3   6  -5  123317    8290                                                      139033   -0.84   -0.03  1.0000
   3   6  -4  283157   12845                                                      264015    0.71   -0.01  1.0000
  -3  -6   3   16399    3915                                                       28433   -1.57   -0.01  1.0000
  -3  -6   2   59728    4680                                                       38927    1.82   -0.01  1.0000
   3   6  -2   42711    3702                                                       25464    1.82    0.01  1.0000
   3   6  -2   48633    4276                                                       30080    1.82    0.01  1.0000
  -3  -6   1  442388   18070                                                      606516   -4.40    0.00  1.0000
   3   6  -1  504622   20195                                                      679036   -4.40    0.00  1.0000
   3   6   0  705676   22318                                                      901849    4.24    0.03  1.0000
   3   6   1  602732   15403                                                      479759   -3.24    0.03  1.0000
   3   6   2  182671    5889                                                       79358    5.64   -0.04  1.0000
  -3  -6  -3    8002    5111                                                       71884   -6.91   -0.02  1.0000
   3   6   3    9572    5344                                                       76447   -6.91    0.02  1.0000
  -3  -6  -4  229622   12437                                                      382593    5.39    0.02  1.0000
  -3  -6  -5   29475    6537                                                       96216   -5.36   -0.01  1.0000
  -3  -6  -6  167370    8932                                                      157820    0.46    0.04  1.0000
  -3  -6  -7   78486    6271                                                       70590   -0.56    0.00  1.0000
  -3  -6  -7  119446    7889                                                      109657   -0.56    0.00  1.0000
  -3  -6  -8  141903    9728                                                      150098    0.41   -0.04  1.0000
   3   6   8  114900    8698                                                      122286    0.41    0.04  1.0000
  -3  -6  -8  149427    9938                                                      157834    0.41   -0.04  1.0000
   3   6   8   96103    7727                                                      102867    0.41    0.04  1.0000
  -3  -6  -8  126695    8923                                                      134445    0.41   -0.04  1.0000
  -3  -6  -9  381401   17408                                                      445659   -1.93    0.12  1.0000
  -3  -6 -10   47680    5641                                                       51694    0.35   -0.12  1.0000
  -3  -6 -11  334651   12798                                                      340751    0.20    0.06  1.0000
   3   6  12    2602    1033                                                        2675   -0.02    0.11  1.0000
   3   7  -5  144148    7156                                                      149706    0.28   -0.02  1.0000
  -3  -7   4   93560    6386                                                      104174   -0.65   -0.03  1.0000
   3   7  -4  109902    7867                                                      121382   -0.65    0.03  1.0000
  -3  -7   3    2077     378                                                         103    1.37    0.00  1.0000
  -3  -7   2  246174   11545                                                      223096   -0.92    0.00  1.0000
  -3  -7   1   11352    2151                                                        7020    0.88    0.01  1.0000
   3   7  -1   10660    2176                                                        6479    0.88   -0.01  1.0000
  -3  -7   0  113254    8248                                                      110667    0.15    0.02  1.0000
   3   7   0   96191    7564                                                       93808    0.15   -0.02  1.0000
  -3  -7  -1    9541    2657                                                       11890    0.44    0.01  1.0000
   3   7   1    6879    2220                                                        8893    0.44   -0.01  1.0000
   3   7   2  410718   13947                                                      377286   -1.03   -0.02  1.0000
   3   7   3    1226    1645                                                        6082   -1.66    0.02  1.0000
  -3  -7  -4   27318    1963                                                        8210    2.89   -0.01  1.0000
  -3  -7  -5  163217    8433                                                      140107   -1.15    0.02  1.0000
  -3  -7  -6  161959    8497                                                      130067    1.62    0.00  1.0000
  -3  -7  -6  151546    8306                                                      120753    1.62    0.00  1.0000
  -3  -7  -7  192057   10225                                                      172118    0.90   -0.01  1.0000
  -3  -7  -7  188871   10210                                                      169103    0.90   -0.01  1.0000
  -3  -7  -7  187607    9982                                                      167907    0.90   -0.01  1.0000
  -3  -7  -7  168721    9560                                                      150067    0.90   -0.01  1.0000
  -3  -7  -8   23847    4125                                                       27398    0.43    0.05  1.0000
  -3  -7  -8   24791    4253                                                       28409    0.43    0.05  1.0000
  -3  -7  -8   23799    4047                                                       27346    0.43    0.05  1.0000
  -3  -7  -9   16803    2901                                                       14521   -0.35    0.01  1.0000
  -3  -7  -9   22222    3563                                                       19585   -0.35    0.01  1.0000
  -3  -7 -10   29204    3452                                                       20578    1.06    0.01  1.0000
  -3  -7 -11   15503    2949                                                       20155   -0.68    0.01  1.0000
   3   7  12   43321    4000                                                       45956    0.24    0.01  1.0000
  -3  -7 -12   30493    2845                                                       32710    0.24   -0.01  1.0000
   3   8  -4   94495    5229                                                       82472   -0.78    0.00  1.0000
  -3  -8   3   31699    4480                                                       47485    1.54    0.00  1.0000
   3   8  -3   36505    5124                                                       53330    1.54    0.00  1.0000
  -3  -8   2     231     887                                                        1482   -2.08    0.00  1.0000
  -3  -8   1   86670    8665                                                      117875    1.89   -0.01  1.0000
  -3  -8   0   19152    4691                                                       34787   -1.86   -0.01  1.0000
  -3  -8  -1  349356   14017                                                      296057    1.82    0.00  1.0000
   3   8   1  247452   11175                                                      202944    1.82    0.00  1.0000
  -3  -8  -2   19784    5157                                                       42079   -2.49    0.00  1.0000
   3   8   2    9884    3817                                                       26861   -2.49    0.00  1.0000
  -3  -8  -3   83657    9247                                                      135513    3.05   -0.01  1.0000
  -3  -8  -4   69877    7375                                                       87907   -1.24    0.03  1.0000
  -3  -8  -5    8744    1675                                                        4800    0.94   -0.01  1.0000
  -3  -8  -5   13448    2274                                                        8417    0.94   -0.01  1.0000
  -3  -8  -6   41912    3312                                                       18569   -2.65   -0.01  1.0000
  -3  -8  -6   45679    3358                                                       21104   -2.65   -0.01  1.0000
  -3  -8  -6   52815    4078                                                       26037   -2.65   -0.01  1.0000
  -3  -8  -7       1    1358                                                        3097    2.12    0.00  1.0000
  -3  -8  -7     107    1174                                                        1986    2.12    0.00  1.0000
  -3  -8  -7      14    1270                                                        2615    2.12    0.00  1.0000
  -3  -8  -7      33    1451                                                        3679    2.12    0.00  1.0000
  -3  -8  -8   86941    8846                                                      123025   -2.16    0.00  1.0000
  -3  -8  -8   80460    8342                                                      115292   -2.16    0.00  1.0000
  -3  -8  -9   24606    4237                                                       31325    0.78   -0.08  1.0000
  -3  -8 -10   23955    3261                                                       20950   -0.39    0.00  1.0000
  -3  -8 -11    2096     917                                                        2341    0.10   -0.04  1.0000
  -3  -9   3   93208    4377                                                       80919   -0.81    0.03  1.0000
   3   9  -3  121129    5580                                                      107059   -0.81   -0.03  1.0000
  -3  -9   2   45828    4417                                                       49729    0.35   -0.02  1.0000
   3   9  -2   37672    4196                                                       41216    0.35    0.02  1.0000
  -3  -9   1   45566    4455                                                       38118   -0.71    0.03  1.0000
  -3  -9   0  320128   14389                                                      349745    0.99   -0.02  1.0000
  -3  -9  -1  117341    9390                                                      139555   -1.20    0.04  1.0000
  -3  -9  -2  177981   10128                                                      155124    1.08   -0.04  1.0000
  -3  -9  -3  108509    8074                                                       99612   -0.53    0.01  1.0000
  -3  -9  -4   76959    7248                                                       77783    0.06    0.00  1.0000
  -3  -9  -5   60854    7010                                                       75063   -1.06   -0.04  1.0000
  -3  -9  -6    2100    1741                                                        4122    0.71    0.01  1.0000
  -3  -9  -7  101274    8021                                                      111918    0.63    0.02  1.0000
  -3  -9  -7  114938    9065                                                      126260    0.63    0.02  1.0000
  -3  -9  -7  113642    8598                                                      124901    0.63    0.02  1.0000
  -3  -9  -8      62     792                                                         160   -0.79   -0.03  1.0000
  -3  -9  -8     421     574                                                        -631   -0.79   -0.03  1.0000
  -3  -9  -9   30556    3627                                                       29577    0.11    0.02  1.0000
  -3  -9 -10   84623    5922                                                       84645    0.00    0.04  1.0000
  -3  -9 -11       4     486                                                        -581    0.08    0.01  1.0000
  -3 -10   1   46600    3993                                                       46628    0.00   -0.02  1.0000
   3  10  -1   27591    2934                                                       27613    0.00    0.02  1.0000
  -3 -10   0   31670    4117                                                       37577    0.61    0.01  1.0000
  -3 -10  -1  140004    8214                                                      126047   -0.74    0.00  1.0000
   3  10   2    2469     608                                                         661    0.93    0.01  1.0000
  -3 -10  -2    2304     135                                                         577    0.93   -0.01  1.0000
  -3 -10  -3   77718    7592                                                       94650   -1.12    0.02  1.0000
  -3 -10  -3   78437    7672                                                       95443   -1.12    0.02  1.0000
  -3 -10  -4   47736    5967                                                       59084    0.95    0.01  1.0000
  -3 -10  -5   38787    4317                                                       31082   -0.80   -0.01  1.0000
  -3 -10  -6   35425    3635                                                       22398    1.49    0.03  1.0000
  -3 -10  -7   36537    3859                                                       27302   -1.00    0.00  1.0000
  -3 -10  -7   39869    3898                                                       30192   -1.00    0.00  1.0000
  -3 -10  -8  118097    7902                                                      122587    0.25   -0.01  1.0000
  -3 -10  -8  108309    7030                                                      112611    0.25   -0.01  1.0000
  -3 -10  -9      24     327                                                        -220    0.19    0.02  1.0000
  -3 -10  -9      24     658                                                        -818    0.19    0.02  1.0000
  -3 -10 -10   12512    1622                                                        9638    0.53    0.00  1.0000
  -3 -11  -1    8254    1674                                                        9061    0.17   -0.01  1.0000
   3  11   1    9367    1666                                                       10225    0.17    0.01  1.0000
  -3 -11  -2  105327    6327                                                      101934   -0.20    0.00  1.0000
  -3 -11  -3   47802    4682                                                       50567    0.24   -0.01  1.0000
  -3 -11  -4    3011    1243                                                        2938    0.03   -0.01  1.0000
  -3 -11  -5   21826    3303                                                       22816    0.13   -0.01  1.0000
  -3 -11  -6   22255    2964                                                       20114   -0.28    0.00  1.0000
  -3 -11  -6   25261    3040                                                       22976   -0.28    0.00  1.0000
  -3 -11  -7     720     656                                                         977   -0.17    0.01  1.0000
  -3 -11  -7     108      51                                                         220   -0.17    0.01  1.0000
  -3 -11  -8       7     540                                                        -733   -0.10   -0.01  1.0000
  -3 -11  -8     152      58                                                          95   -0.10   -0.01  1.0000
  -3 -11  -9   13117    1859                                                       13788    0.11    0.01  1.0000
  -3 -12  -4     553     198                                                         122   -0.48    0.00  1.0000
  -3 -12  -4    1774     427                                                         879   -0.48    0.00  1.0000
  -3 -12  -5    2061     525                                                        1489    0.26    0.02  1.0000
  -3 -12  -5    2114     691                                                        1535    0.26    0.02  1.0000
  -3 -12  -6     130     296                                                        -202   -0.44   -0.01  1.0000
   4 -11  -4     645     250                                                         451    0.16    0.00  1.0000
   4 -11  -3    7155    1387                                                        6930    0.05    0.01  1.0000
   4 -11  -2    5370    1212                                                        5347   -0.01    0.00  1.0000
   4 -11  -1    5265    1030                                                        4152   -0.31    0.01  1.0000
   4 -11  -1    6713    1271                                                        5447   -0.31    0.01  1.0000
   4 -11   0    1314     663                                                        1424   -0.06   -0.01  1.0000
   4 -11   1    2518     752                                                        2715    0.07    0.02  1.0000
   4 -10  -5   19866    2527                                                       19325   -0.07    0.01  1.0000
   4 -10  -5    7731    1477                                                        7395   -0.07    0.01  1.0000
   4 -10  -4   82446    5915                                                       80426   -0.14   -0.01  1.0000
   4 -10  -3     751     503                                                         855    0.07   -0.01  1.0000
   4 -10  -2    6776    1750                                                        7521   -0.17    0.00  1.0000
   4 -10  -2    8261    1942                                                        9081   -0.17    0.00  1.0000
   4 -10  -1   68849    5866                                                       71522    0.20    0.00  1.0000
   4 -10  -1  105081    7142                                                      108377    0.20    0.00  1.0000
   4 -10   0   60042    5381                                                       65594    0.43    0.01  1.0000
   4 -10   0   90746    6804                                                       97544    0.43    0.01  1.0000
   4 -10   1   10852    1778                                                        8890    0.38   -0.01  1.0000
   4 -10   1   20445    2905                                                       17715    0.38   -0.01  1.0000
   4 -10   2    3275    1281                                                        3616   -0.11   -0.01  1.0000
   4 -10   3   29085    2686                                                       25732   -0.39   -0.01  1.0000
   4  -9  -6     766     280                                                         809    0.03    0.00  1.0000
   4  -9  -6     449     368                                                         482    0.03    0.00  1.0000
   4  -9  -5   22223    3441                                                       27038   -0.59    0.00  1.0000
   4  -9  -5    8209    2202                                                       11228   -0.59    0.00  1.0000
   4  -9  -4   45619    4898                                                       44901   -0.07    0.00  1.0000
   4  -9  -3  115199    8899                                                      127551    0.69    0.02  1.0000
   4  -9  -2    9832    2321                                                       10474   -0.12    0.01  1.0000
   4  -9  -1   47127    5232                                                       46646    0.04    0.00  1.0000
   4  -9   0  174510    9974                                                      164179   -0.49   -0.01  1.0000
   4  -9   1   97959    7582                                                       94032   -0.25   -0.02  1.0000
   4  -9   2   20180    4242                                                       30838   -1.30    0.01  1.0000
   4  -9   3   15139    2330                                                       11137    0.68    0.02  1.0000
   4  -9   4   48874    4152                                                       46413   -0.22    0.03  1.0000
   4  -8  -7       5     402                                                        -396   -0.08    0.01  1.0000
   4  -8  -6   32623    3341                                                       27376   -0.59    0.00  1.0000
   4  -8  -6   23100    2912                                                       18721   -0.59    0.00  1.0000
   4  -8  -6   29644    3142                                                       24653   -0.59    0.00  1.0000
   4  -8  -5   11265    1771                                                        6575   -0.97    0.01  1.0000
   4  -8  -5    5764    1095                                                        2588   -0.97    0.01  1.0000
   4  -8  -5    8461    1376                                                        4480   -0.97    0.01  1.0000
   4  -8  -4  105876    7394                                                       88169    1.10   -0.01  1.0000
   4  -8  -4   82592    5929                                                       67048    1.10   -0.01  1.0000
   4  -8  -3   10792    2229                                                        8439   -0.47    0.02  1.0000
   4  -8  -3    7245    1638                                                        5344   -0.47    0.02  1.0000
   4  -8  -2  145894    8869                                                      142558   -0.17   -0.04  1.0000
   4  -8  -2  241640   11449                                                      237342   -0.17   -0.04  1.0000
   4  -8  -1   26399    4349                                                       35336   -0.99    0.02  1.0000
   4  -8  -1   56813    6455                                                       69619   -0.99    0.02  1.0000
   4  -8   0  111767    8044                                                      101777    0.59   -0.03  1.0000
   4  -8   1   95325    8192                                                      100050    0.29    0.04  1.0000
   4  -8   2    8876    2677                                                       10335    0.29   -0.01  1.0000
   4  -8   3  120528    7775                                                       98351    1.30    0.02  1.0000
  -4   8  -3   91555    6008                                                       72371    1.30   -0.02  1.0000
   4  -8   4    4026    1639                                                        4686   -0.19   -0.06  1.0000
  -4   8  -4    4469    1567                                                        5163   -0.19    0.06  1.0000
   4  -8   5  179551    8520                                                      175732   -0.18   -0.04  1.0000
   4  -8   6    1344     535                                                        1143    0.11   -0.02  1.0000
   4  -7  -8   53229    3463                                                       39630   -1.22    0.01  1.0000
   4  -7  -7     948    1028                                                        1903    0.50   -0.02  1.0000
   4  -7  -7     891     793                                                        1822    0.50   -0.02  1.0000
   4  -7  -6   38659    4295                                                       33540    0.52    0.00  1.0000
   4  -7  -6   58949    5267                                                       52585    0.52    0.00  1.0000
   4  -7  -5   34520    4622                                                       39842    0.53   -0.02  1.0000
   4  -7  -5   22434    3954                                                       26761    0.53   -0.02  1.0000
   4  -7  -5   35366    4798                                                       40750    0.53   -0.02  1.0000
   4  -7  -4   25359    2668                                                       11511    2.01    0.00  1.0000
   4  -7  -4   23578    2374                                                       10321    2.01    0.00  1.0000
   4  -7  -3  108340    8806                                                      133443   -1.40   -0.02  1.0000
   4  -7  -2    8112    1912                                                        6938    0.26   -0.01  1.0000
   4  -7  -2   15918    2735                                                       14256    0.26   -0.01  1.0000
   4  -7  -1   64655    5960                                                       63894   -0.06    0.00  1.0000
   4  -7  -1   52644    5391                                                       51958   -0.06    0.00  1.0000
   4  -7   0  100270    6557                                                       73715    1.75    0.01  1.0000
   4  -7   0  108659    6888                                                       80931    1.75    0.01  1.0000
   4  -7   1  288239   13692                                                      305566   -0.62   -0.02  1.0000
   4  -7   1  277920   13533                                                      294939   -0.62   -0.02  1.0000
   4  -7   2  106375    8278                                                      114204    0.46    0.00  1.0000
  -4   7  -2  127617    9187                                                      136179    0.46    0.00  1.0000
   4  -7   2  184396   11315                                                      194659    0.46    0.00  1.0000
   4  -7   2  155197   10109                                                      164624    0.46    0.00  1.0000
  -4   7  -3   56668    4974                                                       45057   -1.00    0.00  1.0000
   4  -7   3   66463    5961                                                       53833   -1.00    0.00  1.0000
   4  -7   3   43169    4366                                                       33119   -1.00    0.00  1.0000
   4  -7   3   62436    5631                                                       50216   -1.00    0.00  1.0000
  -4   7  -4   50140    5249                                                       47265    0.25   -0.02  1.0000
   4  -7   4   58554    5895                                                       55443    0.25    0.02  1.0000
  -4   7  -5   36380    3684                                                       23417   -1.46    0.00  1.0000
   4  -7   5   42433    3919                                                       28320   -1.46    0.00  1.0000
   4  -7   6   82900    6616                                                      106680    1.50    0.15  1.0000
  -4   7  -6  121805    8784                                                      150315    1.50   -0.15  1.0000
   4  -7   7   18172    1934                                                       11233   -1.12   -0.01  1.0000
   4  -6  -9   20798    2214                                                       19911    0.12    0.00  1.0000
   4  -6  -8   41162    4020                                                       42272    0.11    0.02  1.0000
   4  -6  -7   80671    7289                                                      102235    1.38   -0.01  1.0000
   4  -6  -7  113654    8489                                                      139011    1.38   -0.01  1.0000
   4  -6  -6   29598    3301                                                       18969   -1.33   -0.01  1.0000
   4  -6  -6   44332    4263                                                       31060   -1.33   -0.01  1.0000
   4  -6  -5     315     695                                                         997   -0.53    0.01  1.0000
   4  -6  -5    1612    1386                                                        2913   -0.53    0.01  1.0000
   4  -6  -4   31204    3226                                                       20195   -1.34    0.00  1.0000
   4  -6  -4   34887    3795                                                       23178   -1.34    0.00  1.0000
   4  -6  -3    1829    1769                                                        5761   -1.28    0.02  1.0000
   4  -6  -3    2102    1757                                                        6239   -1.28    0.02  1.0000
   4  -6  -2   85426    6569                                                       89919   -0.29    0.01  1.0000
   4  -6  -1   10955    3675                                                       27691    2.39    0.04  1.0000
   4  -6  -1    8670    3304                                                       23980    2.39    0.04  1.0000
   4  -6   0  210784    8807                                                      167512   -1.93   -0.01  1.0000
   4  -6   0  297578   11232                                                      245696   -1.93   -0.01  1.0000
   4  -6   1  148454    8797                                                      144384    0.21    0.01  1.0000
  -4   6  -1  128609    7886                                                      124822    0.21   -0.01  1.0000
  -4   6  -2   79573    8428                                                      124748   -2.75   -0.01  1.0000
  -4   6  -3   54453    6532                                                       82142    2.06    0.00  1.0000
   4  -6   3   47862    6381                                                       73997    2.06    0.00  1.0000
  -4   6  -4  138749    8124                                                      104393   -1.91    0.01  1.0000
  -4   6  -4  146128    8152                                                      110807   -1.91    0.01  1.0000
  -4   6  -5   37726    3876                                                       23317    1.61    0.05  1.0000
  -4   6  -6    3750    1455                                                        3490   -0.08   -0.05  1.0000
   4  -6   6    5539    1633                                                        5222   -0.08    0.05  1.0000
  -4   6  -7    1249    1065                                                        1942   -0.27    0.20  1.0000
  -4   6  -8      36     319                                                        -136    0.23   -0.02  1.0000
   4  -5  -9   34646    3188                                                       34764    0.01    0.02  1.0000
   4  -5  -8    6239    1478                                                        4624    0.43   -0.04  1.0000
   4  -5  -7    3979    1783                                                        5622    0.46    0.01  1.0000
   4  -5  -7    8397    2426                                                       10721    0.46    0.01  1.0000
   4  -5  -6   14694    2209                                                        7167   -1.41   -0.02  1.0000
   4  -5  -6   22605    2863                                                       12948   -1.41   -0.02  1.0000
   4  -5  -5   32480    3466                                                       20988    1.37    0.03  1.0000
   4  -5  -5   42313    4296                                                       29020    1.37    0.03  1.0000
   4  -5  -5   38202    3792                                                       25634    1.37    0.03  1.0000
   4  -5  -4  104354    6205                                                       75237    1.89   -0.02  1.0000
   4  -5  -4  103303    6574                                                       74345    1.89   -0.02  1.0000
   4  -5  -3  973906   22198                                                      960608   -0.26    0.01  1.0000
   4  -5  -2   53086    6548                                                       91654    2.80   -0.03  1.0000
   4  -5  -1  846343   18419                                                      868871   -0.47   -0.01  1.0000
   4  -5  -1  832431   19414                                                      854775   -0.47   -0.01  1.0000
   4  -5   0  373105   11339                                                      310334   -2.08   -0.03  1.0000
  -4   5  -1 1228436   23283                                                     1302460    1.27   -0.02  1.0000
  -4   5  -2   24778    3522                                                       25897   -0.14    0.02  1.0000
  -4   5  -3   53695    2844                                                       14140    4.36   -0.03  1.0000
  -4   5  -4  449751   14269                                                      347397   -3.14    0.02  1.0000
   4  -5   5  266139   14130                                                      356750    3.15    0.05  1.0000
  -4   5  -5  414298   18092                                                      525711    3.15   -0.05  1.0000
  -4   5  -6  470577   19231                                                      558584   -2.38    0.01  1.0000
  -4   5  -7    5365    2256                                                        8948    0.83    0.02  1.0000
  -4   5  -7    5817    2185                                                        9530    0.83    0.02  1.0000
  -4   5  -8  317068   12550                                                      298550   -0.65   -0.11  1.0000
  -4   5  -8  252275   10151                                                      235787   -0.65   -0.11  1.0000
  -4   5  -9    1534     327                                                         453    0.69   -0.03  1.0000
  -4   5  -9     805     248                                                         110    0.69   -0.03  1.0000
   4  -4  -9   67089    4384                                                       72938    0.43    0.01  1.0000
   4  -4  -9  106053    6022                                                      113375    0.43    0.01  1.0000
   4  -4  -8   61490    5047                                                       55733   -0.46   -0.01  1.0000
   4  -4  -7  349275   14824                                                      378747   -0.95    0.03  1.0000
   4  -4  -7  476872   17770                                                      511209   -0.95    0.03  1.0000
   4  -4  -6   21774    3035                                                       15403   -0.91    0.04  1.0000
   4  -4  -6   36510    4240                                                       28098   -0.91    0.04  1.0000
   4  -4  -5  752672   22506                                                      793802    0.90   -0.02  1.0000
   4  -4  -5  779528   22308                                                      821376    0.90   -0.02  1.0000
   4  -4  -4  308636   12286                                                      271450    1.34    0.03  1.0000
   4  -4  -3    1215    2501                                                       13034   -5.76   -0.03  1.0000
   4  -4  -2 2232542   33930                                                     2626980    4.90    0.04  1.0000
   4  -4  -1  721980   13522                                                      447009   -7.01   -0.03  1.0000
   4  -4   0  524683   11101                                                      377982    4.24    0.05  1.0000
  -4   4   0  606605   11367                                                      447964    4.24   -0.05  1.0000
  -4   4  -1  581168   12812                                                      473083   -2.88    0.03  1.0000
  -4   4  -2 5036373   46959                                                     5524690    4.11    0.00  1.0000
  -4   4  -3  332751   14952                                                      493032   -4.85    0.00  1.0000
  -4   4  -4  663380   18538                                                      672241   -0.21    0.02  1.0000
  -4   4  -5  696904   19018                                                      641729   -1.31    0.01  1.0000
  -4   4  -6   97910    8389                                                      119313    1.26    0.05  1.0000
   4  -4   6   62416    6678                                                       79718    1.26   -0.05  1.0000
  -4   4  -7  220963   11898                                                      252714   -1.26   -0.04  1.0000
  -4   4  -8   70352    5075                                                       48084    1.78   -0.02  1.0000
  -4   4  -8   73121    5506                                                       50378    1.78   -0.02  1.0000
  -4   4  -9  265533   10650                                                      242106   -0.90    0.05  1.0000
  -4   4  -9  259883   10183                                                      236712   -0.90    0.05  1.0000
  -4   4 -10     773     363                                                         529    0.19    0.02  1.0000
  -4   4 -10     613     344                                                         399    0.19    0.02  1.0000
   4  -3  -9  109321    5066                                                       97085    0.74   -0.01  1.0000
   4  -3  -9  148681    6467                                                      134351    0.74   -0.01  1.0000
   4  -3  -8  134020    7353                                                      118515   -0.84   -0.02  1.0000
   4  -3  -7   12534    2067                                                        7092    1.07    0.02  1.0000
   4  -3  -7   15863    2361                                                        9644    1.07    0.02  1.0000
   4  -3  -6  137000    8989                                                      133830    0.17   -0.04  1.0000
   4  -3  -6  194492   11155                                                      190712    0.17   -0.04  1.0000
   4  -3  -5   32851    2352                                                       10476    3.05   -0.02  1.0000
   4  -3  -5   47490    3325                                                       19329    3.05   -0.02  1.0000
   4  -3  -5   50259    3525                                                       21110    3.05   -0.02  1.0000
   4  -3  -5   38704    2654                                                       13886    3.05   -0.02  1.0000
   4  -3  -4  217823    8934                                                      148017   -3.17   -0.01  1.0000
   4  -3  -3   10802    3024                                                       19189   -1.34    0.00  1.0000
   4  -3  -2    4853    3617                                                       31552    4.18   -0.02  1.0000
   4  -3  -1  906360   17030                                                      791726   -2.41    0.01  1.0000
  -4   3   0  194460    8059                                                      268478    2.99    0.02  1.0000
   4  -3   0  134786    6792                                                      197407    2.99   -0.02  1.0000
  -4   3  -1  729239   14286                                                      712862    0.37   -0.02  1.0000
  -4   3  -2 1085007   18879                                                     1073760   -0.21    0.00  1.0000
  -4   3  -3 1530353   23693                                                     1466360   -1.01   -0.03  1.0000
  -4   3  -4   14565    1612                                                        6005    1.67    0.02  1.0000
  -4   3  -5  231878    9423                                                      180579    2.19   -0.02  1.0000
  -4   3  -6  272323   12677                                                      302065    1.07   -0.02  1.0000
  -4   3  -7   76890    5149                                                       47641   -2.28   -0.04  1.0000
   4  -3   7   83078    5394                                                       52537   -2.28    0.04  1.0000
  -4   3  -7   78122    5063                                                       48611   -2.28   -0.04  1.0000
  -4   3  -8   49999    7088                                                       84069    2.57    0.03  1.0000
  -4   3  -9      25    1463                                                        3914   -2.61    0.04  1.0000
  -4   3  -9       0    1512                                                        4602   -2.61    0.04  1.0000
  -4   3 -10  159968    8219                                                      196734    1.69   -0.04  1.0000
  -4   3 -10  210910   10251                                                      252844    1.69   -0.04  1.0000
   4  -2  -9    3098     729                                                        2340    0.28    0.00  1.0000
   4  -2  -9    4590     989                                                        3655    0.28    0.00  1.0000
   4  -2  -8  136618    8281                                                      155817   -0.97    0.00  1.0000
   4  -2  -8  157684    9298                                                      178263   -0.97    0.00  1.0000
   4  -2  -7    5901    2456                                                       10486    0.99    0.02  1.0000
   4  -2  -6   78941    5734                                                       55091   -1.79   -0.03  1.0000
   4  -2  -6   97761    6762                                                       70978   -1.79   -0.03  1.0000
   4  -2  -5   16195    3692                                                       26498    1.37    0.02  1.0000
   4  -2  -5   22450    4462                                                       34356    1.37    0.02  1.0000
   4  -2  -5   16554    3768                                                       26957    1.37    0.02  1.0000
   4  -2  -4       2    3307                                                       20723   -5.51    0.00  1.0000
   4  -2  -3  762641   21729                                                     1019900    5.29    0.01  1.0000
   4  -2  -2  844836   17993                                                      817677    0.58    0.01  1.0000
   4  -2  -1   41627    3935                                                       44120   -0.23    0.01  1.0000
  -4   2   0 1527501   16534                                                     1295000   -3.79    0.01  1.0000
   4  -2   0 1505240   19817                                                     1274510   -3.79   -0.01  1.0000
  -4   2  -1  427938    8243                                                      272166    5.13   -0.02  1.0000
  -4   2  -2  542570   16275                                                      935002   -8.91    0.03  1.0000
  -4   2  -3   77666    8806                                                      238422    8.11    0.03  1.0000
  -4   2  -4   63928    1379                                                        4881   -7.08   -0.01  1.0000
  -4   2  -5   57506    1583                                                        5991    6.28    0.01  1.0000
  -4   2  -6  388276   18037                                                      690114   -8.03   -0.01  1.0000
   4  -2   7  798931   22672                                                      940025    2.93   -0.03  1.0000
  -4   2  -7  849452   22083                                                      994760    2.93    0.03  1.0000
  -4   2  -8     849     933                                                        -275   -1.13    0.01  1.0000
   4  -2   8    2863     475                                                         594   -1.13   -0.01  1.0000
  -4   2  -9  146243    9374                                                      144397    0.09    0.00  1.0000
   4  -2   9  113347    7607                                                      111723    0.09    0.00  1.0000
  -4   2 -10   24211    3462                                                       23177   -0.13   -0.03  1.0000
  -4   2 -10   17726    2622                                                       16843   -0.13   -0.03  1.0000
  -4   2 -11   91945    5503                                                       89451   -0.16    0.03  1.0000
   4  -1  -8   40603    4139                                                       41496   -0.09    0.01  1.0000
   4  -1  -8   43857    4394                                                       44785   -0.09    0.01  1.0000
   4  -1  -7  361314   13842                                                      352054    0.30   -0.03  1.0000
   4  -1  -7  445796   16159                                                      435504    0.30   -0.03  1.0000
   4  -1  -6  669852   19960                                                      687371    0.41    0.02  1.0000
   4  -1  -6  756323   22295                                                      774932    0.41    0.02  1.0000
   4  -1  -5   35035    4338                                                       34895   -0.01    0.01  1.0000
   4  -1  -5   47037    5226                                                       46875   -0.01    0.01  1.0000
   4  -1  -5   40104    4686                                                       39954   -0.01    0.01  1.0000
   4  -1  -4 1371456   26143                                                     1283610    1.48    0.03  1.0000
   4  -1  -3  489347   15704                                                      544880    1.49    0.00  1.0000
   4  -1  -2   11934    3194                                                       27313    2.17    0.03  1.0000
   4  -1  -1 1736184   24736                                                     2421240   -9.22   -0.04  1.0000
   4  -1  -1 1891829   29018                                                     2604440   -9.22   -0.04  1.0000
   4  -1   0 1541368   16303                                                     1082680    7.78    0.03  1.0000
  -4   1   0 1491653   14417                                                     1041080    7.78   -0.03  1.0000
   4  -1   1  839180   13371                                                      705516   -2.95   -0.01  1.0000
  -4   1  -1  845648   12597                                                      711447   -2.95    0.01  1.0000
  -4   1  -2   54136    2974                                                       34980    1.77    0.00  1.0000
  -4   1  -3 7266770   44759                                                     7079540    1.35   -0.02  1.0000
  -4   1  -4  542527   12758                                                      497765   -1.20   -0.04  1.0000
   4  -1   4  428820   10719                                                      389131   -1.20    0.04  1.0000
  -4   1  -5 1714709   26237                                                     1842370    1.85    0.04  1.0000
   4  -1   5 1442029   24341                                                     1559290    1.85   -0.04  1.0000
  -4   1  -6  230737   11199                                                      307626   -2.87   -0.04  1.0000
   4  -1   6  237603   12137                                                      315546   -2.87    0.04  1.0000
  -4   1  -7   49459    1908                                                        8659    5.00    0.00  1.0000
   4  -1   7   53877    2413                                                       10563    5.00    0.00  1.0000
   4  -1   8  425039   15120                                                      397355   -0.84    0.03  1.0000
   4  -1   8  447303   16172                                                      418891   -0.84    0.03  1.0000
  -4   1  -9  323944   14818                                                      346043    0.74    0.00  1.0000
   4  -1   9  281320   13285                                                      301938    0.74    0.00  1.0000
  -4   1 -10  169691   10140                                                      172344   -0.12   -0.02  1.0000
   4  -1  10  135687    8132                                                      138060   -0.12    0.02  1.0000
  -4   1 -11     529     976                                                        2340    0.98    0.01  1.0000
   4   0  -8  421129   12303                                                      411247   -0.30   -0.02  1.0000
   4   0  -8  418909   12134                                                      409054   -0.30   -0.02  1.0000
   4   0  -7  175270    9532                                                      169373    0.27    0.00  1.0000
   4   0  -7  191992   10133                                                      185818    0.27    0.00  1.0000
   4   0  -6    2686    1168                                                        2468    0.08    0.01  1.0000
   4   0  -6    2267    1295                                                        2068    0.08    0.01  1.0000
   4   0  -6    2560    1114                                                        2348    0.08    0.01  1.0000
   4   0  -5  651734   18829                                                      616086   -0.87    0.01  1.0000
   4   0  -5  625696   18458                                                      590777   -0.87    0.01  1.0000
   4   0  -4  238768   11468                                                      248648    0.39   -0.02  1.0000
   4   0  -3  637370   18604                                                      770205   -3.07    0.00  1.0000
   4   0  -2  181782    7644                                                      207449    1.13   -0.05  1.0000
   4   0  -2  238200    9882                                                      267459    1.13   -0.05  1.0000
   4   0  -1  614747    9149                                                      315233   -8.61   -0.01  1.0000
   4   0  -1  617346    9732                                                      317095   -8.61   -0.01  1.0000
   4   0   0  960444    9477                                                      362397   14.63    0.01  1.0000
   4   0   0 1025448   10069                                                      402737   14.63    0.01  1.0000
   4   0   1  562661   15662                                                     1158940  -12.63   -0.01  1.0000
   4   0   1 1094083   21532                                                     1883530  -12.63   -0.01  1.0000
   4   0   2 4764582   37263                                                     5618050    7.25    0.00  1.0000
  -4   0  -3  232906   10926                                                      457676   -7.50   -0.01  1.0000
   4   0   3  125086    7283                                                      299855   -7.50    0.01  1.0000
  -4   0  -4 3969985   31883                                                     3428110    5.45    0.03  1.0000
   4   0   4 2906425   24387                                                     2445650    5.45   -0.03  1.0000
  -4   0  -5   52638    1580                                                        7562   -5.51   -0.01  1.0000
   4   0   5   38465    1027                                                        2879   -5.51    0.01  1.0000
  -4   0  -6 1410442   24734                                                     1673070    4.10   -0.03  1.0000
   4   0   6 1549259   27230                                                     1823970    4.10    0.03  1.0000
   4   0   7   35652    5970                                                       70738   -2.98   -0.07  1.0000
   4   0   8  282212   11915                                                      248046    1.28   -0.05  1.0000
   4   0   8  319158   12945                                                      282755    1.28   -0.05  1.0000
   4   0   9   23523    6464                                                       70076   -4.31   -0.02  1.0000
   4   0   9   18660    6228                                                       61478   -4.31   -0.02  1.0000
   4   0  10  206867   12501                                                      279692    2.86    0.01  1.0000
  -4   0 -11  233461   12337                                                      291069   -2.18    0.01  1.0000
   4   0  11  188063    9883                                                      240092   -2.18   -0.01  1.0000
  -4   0 -12    1932     718                                                        1660    0.12    0.01  1.0000
   4   1  -8   38388    3176                                                       34859   -0.36   -0.01  1.0000
   4   1  -7  367386   14141                                                      425481    1.79    0.02  1.0000
   4   1  -7  360056   14053                                                      417590    1.79    0.02  1.0000
   4   1  -6    4990    2976                                                       16024   -2.16    0.02  1.0000
   4   1  -6    7265    3377                                                       19933   -2.16    0.02  1.0000
   4   1  -6    3937    2748                                                       14088   -2.16    0.02  1.0000
   4   1  -5   30901    2888                                                       15639    1.96   -0.01  1.0000
   4   1  -5   39514    3659                                                       21919    1.96   -0.01  1.0000
   4   1  -5   34059    3242                                                       17908    1.96   -0.01  1.0000
   4   1  -4   14156    1102                                                        2246   -2.77    0.00  1.0000
   4   1  -4   16355    1312                                                        3170   -2.77    0.00  1.0000
   4   1  -3   72150    8284                                                      156106    4.89   -0.03  1.0000
   4   1  -3   83436    9341                                                      172514    4.89   -0.03  1.0000
   4   1  -2 1209553   22443                                                     1388860   -3.05    0.02  1.0000
   4   1  -2 1077813   20242                                                     1247420   -3.05    0.02  1.0000
   4   1  -1 2439708   29037                                                     2953160    6.06    0.01  1.0000
   4   1  -1 2606245   30812                                                     3136110    6.06    0.01  1.0000
   4   1   0 1490685   20822                                                     1563320    1.14    0.00  1.0000
   4   1   0 1189271   16899                                                     1254240    1.14    0.00  1.0000
  -4  -1  -1 1512400   17262                                                     1647720   -2.08    0.02  1.0000
   4   1   1 1730436   18572                                                     1874980   -2.08   -0.02  1.0000
   4   1   2  321566    7259                                                      257193   -2.32    0.02  1.0000
  -4  -1  -2  288862    6805                                                      228038   -2.32   -0.02  1.0000
   4   1   3 2894590   30230                                                     3647200    8.06   -0.06  1.0000
   4   1   3 3727104   33313                                                     4575260    8.06   -0.06  1.0000
   4   1   4  256235    6536                                                      145639   -4.82    0.04  1.0000
   4   1   4  196835    4580                                                      101819   -4.82    0.04  1.0000
   4   1   5  219378    6391                                                      120977    4.66    0.01  1.0000
   4   1   5  203283    5589                                                      109104    4.66    0.01  1.0000
  -4  -1  -6   45058    2905                                                       25216   -2.07    0.08  1.0000
   4   1   6   36098    2674                                                       18638   -2.07   -0.08  1.0000
   4   1   6   40925    2901                                                       22150   -2.07   -0.08  1.0000
   4   1   7 1787503   30210                                                     1906680    1.70   -0.04  1.0000
   4   1   8  717541   20275                                                      726040   -0.19    0.07  1.0000
   4   1   9   44779    5392                                                       46813   -0.18    0.14  1.0000
  -4  -1  -9   58054    6116                                                       60369   -0.18   -0.14  1.0000
   4   1   9   48719    5587                                                       50840   -0.18    0.14  1.0000
   4   1  10  271606   14639                                                      352582    2.81   -0.05  1.0000
  -4  -1 -11   27957    2926                                                       14286   -1.84   -0.03  1.0000
   4   1  11   28881    2629                                                       14949   -1.84    0.03  1.0000
  -4  -1 -12   85598    5149                                                       68830    1.17    0.03  1.0000
   4   1  12   55255    3364                                                       41962    1.17   -0.03  1.0000
   4   2  -7   13534    2583                                                       16751    0.51   -0.01  1.0000
   4   2  -7    8441    1993                                                       11018    0.51   -0.01  1.0000
   4   2  -6  801379   19516                                                      713965   -1.94    0.00  1.0000
   4   2  -6  737734   19103                                                      653965   -1.94    0.00  1.0000
   4   2  -5  219796   10351                                                      190560    1.25   -0.04  1.0000
   4   2  -5  255167   11664                                                      223586    1.25   -0.04  1.0000
   4   2  -5  219859   10885                                                      190619    1.25   -0.04  1.0000
   4   2  -4   35725    4506                                                       38270   -0.26    0.00  1.0000
   4   2  -4   55375    5783                                                       58534   -0.26    0.00  1.0000
   4   2  -4   44603    5293                                                       47443   -0.26    0.00  1.0000
   4   2  -4   44586    5440                                                       47425   -0.26    0.00  1.0000
   4   2  -3 1447233   29284                                                     1552510    1.66    0.00  1.0000
   4   2  -2     620    2326                                                       14771   -3.74    0.03  1.0000
   4   2  -2     309    2100                                                       13042   -3.74    0.03  1.0000
   4   2  -2     394    2491                                                       13571   -3.74    0.03  1.0000
   4   2  -1   25079    3919                                                       43571    1.95    0.01  1.0000
   4   2  -1   20081    3196                                                       36895    1.95    0.01  1.0000
   4   2   0 2149286   23854                                                     1844250   -4.18   -0.02  1.0000
   4   2   0 2002543   23407                                                     1708510   -4.18   -0.02  1.0000
   4   2   1 2847485   28278                                                     2714920   -1.54    0.06  1.0000
   4   2   2       0     514                                                        1196   -1.34    0.00  1.0000
   4   2   2       1     532                                                        1271   -1.34    0.00  1.0000
   4   2   2      40     710                                                        1684   -1.34    0.00  1.0000
   4   2   3  174590    9566                                                      360001    7.05    0.00  1.0000
   4   2   3  118679    8373                                                      277369    7.05    0.00  1.0000
   4   2   4 5571282   35583                                                     4211860  -11.92    0.06  1.0000
   4   2   4 6491241   34890                                                     5016330  -11.92    0.06  1.0000
   4   2   5      29    3551                                                       36348    7.17   -0.01  1.0000
   4   2   5      68    2883                                                       31320    7.17   -0.01  1.0000
  -4  -2  -6  556865   16974                                                      901816   -7.87    0.04  1.0000
   4   2   6  552727   19003                                                      896548   -7.87   -0.04  1.0000
   4   2   7  199498   12507                                                      347384    5.52    0.13  1.0000
   4   2   7  213833   12915                                                      366221    5.52    0.13  1.0000
   4   2   8  131362    4921                                                       51106   -5.28    0.19  1.0000
   4   2   8  145987    5751                                                       60376   -5.28    0.19  1.0000
   4   2   9  186404    8655                                                      122792    3.15   -0.14  1.0000
  -4  -2  -9  228534    9960                                                      157391    3.15    0.14  1.0000
   4   2  10  142421   10765                                                      182275   -1.92   -0.08  1.0000
  -4  -2 -10  166379   11592                                                      209256   -1.92    0.08  1.0000
   4   2  11  143518    8923                                                      147530    0.20    0.03  1.0000
   4   2  12   15498    2288                                                       15041   -0.07   -0.01  1.0000
  -4  -2 -12   14288    2415                                                       13850   -0.07    0.01  1.0000
   4   3  -7  325933   10464                                                      347916   -0.73   -0.01  1.0000
   4   3  -7  265815    9422                                                      285702   -0.73   -0.01  1.0000
   4   3  -6   39139    4593                                                       44864    0.54    0.00  1.0000
   4   3  -6   33676    4423                                                       39001    0.54    0.00  1.0000
   4   3  -5  187718   10370                                                      192747    0.22    0.02  1.0000
   4   3  -5  185170   10877                                                      190165    0.22    0.02  1.0000
   4   3  -4   65771    4734                                                       40810    2.11    0.01  1.0000
   4   3  -4   75215    5299                                                       48316    2.11    0.01  1.0000
   4   3  -4   58253    4761                                                       34936    2.11    0.01  1.0000
   4   3  -4   68721    5224                                                       43140    2.11    0.01  1.0000
   4   3  -3  220719   13392                                                      330157   -4.05    0.03  1.0000
   4   3  -3  197781   13239                                                      301963   -4.05    0.03  1.0000
   4   3  -3  221175   13916                                                      330715   -4.05    0.03  1.0000
   4   3  -2  445912   16979                                                      565745    3.27    0.00  1.0000
   4   3  -2  389859   15260                                                      502370    3.27    0.00  1.0000
   4   3  -1  229857    7919                                                      149873   -3.57   -0.01  1.0000
   4   3  -1  225751    7834                                                      146561   -3.57   -0.01  1.0000
   4   3   0   78472    1864                                                       10531    6.87   -0.01  1.0000
   4   3   0   72497    1766                                                        8417    6.87   -0.01  1.0000
   4   3   1  120190    2675                                                       21540   -7.74    0.02  1.0000
   4   3   2 1633075   28190                                                     2544250   12.27   -0.07  1.0000
   4   3   2  877628   18674                                                     1572440   12.27   -0.07  1.0000
   4   3   3  237503   11366                                                      481590   -7.99    0.03  1.0000
   4   3   3  357182   13586                                                      646852   -7.99    0.03  1.0000
   4   3   4  224823    8702                                                      290363    2.50   -0.04  1.0000
  -4  -3  -4  203228    8092                                                      265747    2.50    0.04  1.0000
  -4  -3  -5 2183237   26788                                                     2268280    1.10    0.03  1.0000
   4   3   5 1773726   26306                                                     1850460    1.10   -0.03  1.0000
   4   3   6  111875    8397                                                      164920    2.77    0.04  1.0000
   4   3   6   86168    6811                                                      133349    2.77    0.04  1.0000
   4   3   7   90047    6274                                                       88206    0.12   -0.08  1.0000
   4   3   7   88740    6495                                                       86913    0.12   -0.08  1.0000
   4   3   8    2857    1378                                                        3897    0.35    0.05  1.0000
   4   3   8    4914    1802                                                        6253    0.35    0.05  1.0000
   4   3   9  180316    9750                                                      182713    0.10   -0.56  1.0000
   4   3   9  237432   12031                                                      240212    0.10   -0.56  1.0000
  -4  -3 -10  240572   12830                                                      255153    0.56   -0.30  1.0000
   4   3  11   56895    6275                                                       67488   -0.82   -0.12  1.0000
   4   3  12  160427    8382                                                      171538    0.53    0.05  1.0000
   4   4  -6  216957    9145                                                      215450    0.06    0.00  1.0000
   4   4  -6  194716    9059                                                      193289    0.06    0.00  1.0000
   4   4  -5    8121    2368                                                       11066    0.58    0.03  1.0000
   4   4  -5    8180    2482                                                       11135    0.58    0.03  1.0000
   4   4  -4  187989    9258                                                      151791   -1.70    0.00  1.0000
   4   4  -4  196644   10252                                                      159578   -1.70    0.00  1.0000
   4   4  -3   83740    6517                                                       77940   -0.39   -0.02  1.0000
   4   4  -3   94877    7324                                                       88697   -0.39   -0.02  1.0000
   4   4  -3  101947    7798                                                       95537   -0.39   -0.02  1.0000
   4   4  -2   50821    4368                                                       35032    1.48    0.02  1.0000
   4   4  -2   49817    4252                                                       34199    1.48    0.02  1.0000
   4   4  -1 1371874   25266                                                     1379300    0.12   -0.04  1.0000
   4   4  -1 1448709   26919                                                     1456340    0.12   -0.04  1.0000
   4   4   0  286293   10832                                                      259844    0.98    0.02  1.0000
   4   4   0  252285    9232                                                      227496    0.98    0.02  1.0000
   4   4   1  504044   13800                                                      646437   -3.64   -0.02  1.0000
   4   4   1  597992   17480                                                      752300   -3.64   -0.02  1.0000
   4   4   2 1404816   25255                                                     1753280    5.37   -0.01  1.0000
   4   4   3   67356     898                                                        2845   -7.98    0.03  1.0000
   4   4   3   73065    1161                                                        4111   -7.98    0.03  1.0000
   4   4   4  681662   12576                                                      529809    3.78   -0.03  1.0000
  -4  -4  -4  651032   11908                                                      502847    3.78    0.03  1.0000
  -4  -4  -5  221421    9208                                                      245985   -0.98   -0.03  1.0000
   4   4   5  199246    9482                                                      222581   -0.98    0.03  1.0000
   4   4   6  295669   11991                                                      308724    0.46   -0.02  1.0000
  -4  -4  -6  334200   12014                                                      348070    0.46    0.02  1.0000
   4   4   7  211215    7243                                                      119438   -4.41   -0.01  1.0000
   4   4   7  224588    8165                                                      129545   -4.41   -0.01  1.0000
  -4  -4  -8  499790   15949                                                      428115    2.04   -0.05  1.0000
   4   4   8  452591   14711                                                      384519    2.04    0.05  1.0000
  -4  -4  -8  516159   15768                                                      443275    2.04   -0.05  1.0000
   4   4   8  441652   14117                                                      374441    2.04    0.05  1.0000
   4   4   9  292777   11865                                                      238501   -2.04    0.02  1.0000
   4   4   9  271008   11149                                                      218894   -2.04    0.02  1.0000
  -4  -4 -10  217599   13265                                                      273495    2.18   -0.48  1.0000
   4   4  11   23065    4966                                                       40236   -1.88   -0.07  1.0000
  -4  -4 -11   26084    4968                                                       44193   -1.88    0.07  1.0000
   4   4  12   22504    2211                                                       11447    1.66    0.03  1.0000
   4   5  -6       0     172                                                         169   -0.52   -0.02  1.0000
   4   5  -5  337385   12543                                                      315051    0.76    0.00  1.0000
   4   5  -4  262499   10971                                                      220944   -1.64   -0.06  1.0000
   4   5  -4  276639   12048                                                      233932   -1.64   -0.06  1.0000
   4   5  -3  122191   10027                                                      177517    2.78    0.01  1.0000
   4   5  -3  140134   11444                                                      199018    2.78    0.01  1.0000
   4   5  -2  502995   17947                                                      563804   -1.61   -0.01  1.0000
   4   5  -2  555414   19713                                                      619225   -1.61   -0.01  1.0000
   4   5  -2  511460   18412                                                      572764   -1.61   -0.01  1.0000
   4   5  -1   16528    3854                                                       30168    1.75   -0.01  1.0000
   4   5  -1   21692    4602                                                       37021    1.75   -0.01  1.0000
   4   5   0  352551    9663                                                      227315   -4.53   -0.01  1.0000
   4   5   0  421754   12276                                                      283494   -4.53   -0.01  1.0000
   4   5   1  574094   14556                                                      440432    3.64    0.03  1.0000
   4   5   2 1626400   27846                                                     1790890   -2.44    0.03  1.0000
   4   5   3  344034   12372                                                      398546    1.73   -0.02  1.0000
   4   5   3  198594    8822                                                      240492    1.73   -0.02  1.0000
   4   5   4  212349    8461                                                      188796   -1.02    0.02  1.0000
   4   5   4  225655    8237                                                      201354   -1.02    0.02  1.0000
   4   5   5 2362479   29701                                                     1980770    5.02    0.05  1.0000
  -4  -5  -5 2535603   28699                                                     2139550    5.02   -0.05  1.0000
   4   5   6   50214    8196                                                      131689   -5.37   -0.07  1.0000
  -4  -5  -6   61064    8187                                                      148931   -5.37    0.07  1.0000
   4   5   7  655581   19325                                                      842124    4.18    0.10  1.0000
   4   5   7  883527   24836                                                     1098210    4.18    0.10  1.0000
   4   5   8   16758    2641                                                       11882   -0.79   -0.07  1.0000
   4   5   8   14694    2345                                                       10155   -0.79   -0.07  1.0000
  -4  -5  -8   21362    3071                                                       15804   -0.79    0.07  1.0000
  -4  -5  -8   19821    3015                                                       14482   -0.79    0.07  1.0000
   4   5   9   73583    5393                                                       49080    1.92    0.06  1.0000
   4   5   9   86536    5997                                                       59756    1.92    0.06  1.0000
  -4  -5 -10  252207   11810                                                      217957   -1.37    0.14  1.0000
  -4  -5 -11  360419   14258                                                      363532    0.10    0.24  1.0000
   4   5  12   10526    2109                                                        9851    0.13   -0.11  1.0000
   4   6  -5     400     417                                                         339   -0.06    0.01  1.0000
   4   6  -4   77728    6324                                                       75387    0.16   -0.01  1.0000
   4   6  -3  137615    9239                                                      135706   -0.10    0.07  1.0000
   4   6  -2  269306   13270                                                      271760    0.09   -0.01  1.0000
  -4  -6   1  120411    8677                                                      142829   -1.20   -0.01  1.0000
   4   6  -1  120217    9434                                                      142617   -1.20    0.01  1.0000
  -4  -6   0   13319    1784                                                        6685    1.30   -0.02  1.0000
   4   6   0   10400    1568                                                        4669    1.30    0.02  1.0000
   4   6   1  188558   10656                                                      205552    0.74    0.01  1.0000
   4   6   2    3318    1792                                                        6547    0.90   -0.01  1.0000
   4   6   3  484682   15580                                                      541323   -1.53   -0.03  1.0000
   4   6   4  236912   10422                                                      256677    0.77    0.01  1.0000
  -4  -6  -5   70991    5533                                                       71126    0.01   -0.01  1.0000
   4   6   6  551377   19504                                                      704383   -3.74   -0.05  1.0000
  -4  -6  -6  604136   19421                                                      763858   -3.74    0.05  1.0000
   4   6   7   65515    4245                                                       29822    3.22    0.05  1.0000
  -4  -6  -7   69852    4358                                                       32771    3.22   -0.05  1.0000
  -4  -6  -7   68404    4194                                                       31781    3.22   -0.05  1.0000
  -4  -6  -7   69205    4201                                                       32328    3.22   -0.05  1.0000
  -4  -6  -8  141900    7796                                                       99530   -2.37   -0.02  1.0000
  -4  -6  -8  147645    8159                                                      104351   -2.37   -0.02  1.0000
   4   6   8  120584    7204                                                       81819   -2.37    0.02  1.0000
  -4  -6  -9   41833    5437                                                       47213    0.49    0.07  1.0000
  -4  -6  -9   43253    5802                                                       48721    0.49    0.07  1.0000
  -4  -6 -10  167370   11345                                                      202193   -1.57   -0.08  1.0000
  -4  -6 -11   95950    6536                                                       78742    1.13    0.02  1.0000
   4   6  12   80373    5521                                                       74231   -0.43    0.18  1.0000
  -4  -6 -12   82371    5283                                                       76152   -0.43   -0.18  1.0000
   4   7  -4   40522    4059                                                       44167    0.34    0.01  1.0000
   4   7  -4   26910    2988                                                       29895    0.34    0.01  1.0000
   4   7  -3   47399    5403                                                       54973   -0.65   -0.03  1.0000
  -4  -7   2   95248    6150                                                       76079    1.27    0.02  1.0000
   4   7  -2  113514    7556                                                       92488    1.27   -0.02  1.0000
  -4  -7   1  141561    7885                                                      109169   -1.77    0.03  1.0000
  -4  -7   0   87103    5571                                                       52903    2.52   -0.02  1.0000
   4   7   0   71070    5057                                                       40587    2.52    0.02  1.0000
  -4  -7  -1   12700     867                                                        1827   -2.72    0.03  1.0000
   4   7   1   14044    1239                                                        2359   -2.72   -0.03  1.0000
  -4  -7  -2  169493   11140                                                      210038    1.80    0.01  1.0000
   4   7   2  173586   11008                                                      214591    1.80   -0.01  1.0000
  -4  -7  -3    4443    4016                                                       29036   -4.01   -0.03  1.0000
   4   7   3    4000    3719                                                       27885   -4.01    0.03  1.0000
  -4  -7  -4    3079    1466                                                        3562    4.46    0.00  1.0000
   4   7   5  109592    5560                                                       60917   -3.26    0.00  1.0000
  -4  -7  -5  120489    6151                                                       69106   -3.26    0.00  1.0000
  -4  -7  -6  194509   11992                                                      255581    2.50    0.04  1.0000
  -4  -7  -6  179630   11202                                                      238482    2.50    0.04  1.0000
   4   7   6  174718   11570                                                      232817    2.50   -0.04  1.0000
  -4  -7  -7     452     651                                                        1010   -0.41   -0.01  1.0000
   4   7   7     277     661                                                         737   -0.41    0.01  1.0000
  -4  -7  -7     342     827                                                         841   -0.41   -0.01  1.0000
  -4  -7  -7    1889    1463                                                        2912   -0.41   -0.01  1.0000
  -4  -7  -8   72009    6064                                                       58527    1.02    0.03  1.0000
  -4  -7  -8   63543    5683                                                       50920    1.02    0.03  1.0000
  -4  -7  -8   53483    4989                                                       41960    1.02    0.03  1.0000
   4   7   8   47645    4824                                                       36808    1.02   -0.03  1.0000
  -4  -7  -9   89940    6971                                                       75984   -0.94    0.06  1.0000
  -4  -7  -9   95314    7294                                                       80930   -0.94    0.06  1.0000
  -4  -7 -10   64810    5375                                                       47243    1.44   -0.07  1.0000
  -4  -7 -11   33685    4011                                                       34302   -0.06    0.06  1.0000
  -4  -7 -12    3201    1081                                                        3854    0.21   -0.05  1.0000
   4   7  12    2929    1146                                                        3554    0.21    0.05  1.0000
   4   8  -3     528     317                                                        -138    0.89    0.01  1.0000
   4   8  -3     528     278                                                        -172    0.89    0.01  1.0000
  -4  -8   2   20485    3445                                                       29216   -1.08    0.00  1.0000
   4   8  -2   30604    4402                                                       41104   -1.08    0.00  1.0000
  -4  -8   1   82786    6998                                                       94010    0.73   -0.05  1.0000
   4   8  -1   85327    7181                                                       96717    0.73    0.05  1.0000
  -4  -8   0   75064    6132                                                       63227   -0.87    0.01  1.0000
  -4  -8  -1   10029    1839                                                        6157    0.84   -0.02  1.0000
  -4  -8  -2   92568    7088                                                       77534   -1.00    0.01  1.0000
   4   8   2   58607    5234                                                       46780   -1.00   -0.01  1.0000
  -4  -8  -3  414481   17301                                                      458208    1.28   -0.02  1.0000
   4   8   3  417139   16404                                                      461002    1.28    0.02  1.0000
  -4  -8  -4    8210    2775                                                       11999    0.73    0.03  1.0000
  -4  -8  -4    7438    2550                                                       11061    0.73    0.03  1.0000
   4   8   4    6992    2222                                                       10515    0.73   -0.03  1.0000
  -4  -8  -5    9866    2926                                                       14191   -0.77    0.00  1.0000
   4   8   6  232115   11297                                                      227045   -0.20    0.02  1.0000
  -4  -8  -6  383021   15305                                                      376500   -0.20   -0.02  1.0000
  -4  -8  -7   94392    7981                                                      100353    0.37   -0.02  1.0000
  -4  -8  -7   87340    7910                                                       93077    0.37   -0.02  1.0000
  -4  -8  -8   40697    5413                                                       46179   -0.51   -0.01  1.0000
  -4  -8  -8   46755    5692                                                       52618   -0.51   -0.01  1.0000
  -4  -8  -9   19020    3408                                                       19967   -0.13   -0.05  1.0000
  -4  -8 -10    5387    1599                                                        6105    0.18    0.02  1.0000
  -4  -8 -11   45490    4635                                                       54241   -0.76   -0.02  1.0000
   4   8  12   22241    2302                                                       20927    0.17   -0.01  1.0000
   4   9  -2    9648    2124                                                       15217   -0.97   -0.01  1.0000
   4   9  -2   15373    2690                                                       22236   -0.97   -0.01  1.0000
  -4  -9   1   46027    3687                                                       34627    1.10    0.01  1.0000
   4   9  -1   42420    3496                                                       31508    1.10   -0.01  1.0000
  -4  -9   0   83161    6012                                                       73281   -0.68    0.01  1.0000
  -4  -9  -1   52993    6089                                                       64762    0.94    0.02  1.0000
  -4  -9  -2   24108    4412                                                       32165   -0.93   -0.01  1.0000
   4   9   2   27301    4637                                                       35838   -0.93    0.01  1.0000
  -4  -9  -3    4704     914                                                        1311    1.25    0.02  1.0000
   4   9   3    4300     731                                                        1102    1.25   -0.02  1.0000
  -4  -9  -4  233157   10948                                                      196308   -1.54    0.00  1.0000
  -4  -9  -5    5957    1618                                                        4838    0.30   -0.02  1.0000
  -4  -9  -6   38540    5379                                                       47892   -0.87   -0.01  1.0000
  -4  -9  -7  162645   11065                                                      198230    1.62    0.04  1.0000
  -4  -9  -7  183429   11769                                                      221110    1.62    0.04  1.0000
  -4  -9  -8   93691    6489                                                       72735   -1.41   -0.03  1.0000
  -4  -9  -8  113851    7219                                                       90614   -1.41   -0.03  1.0000
  -4  -9  -9   10940    2124                                                        7963    0.59    0.02  1.0000
  -4  -9 -10   19065    2913                                                       21219   -0.29    0.01  1.0000
   4   9  11   28096    2683                                                       29834    0.20    0.04  1.0000
  -4  -9 -11   58947    4320                                                       61454    0.20   -0.04  1.0000
   4  10  -1   39808    3036                                                       36007   -0.38   -0.02  1.0000
  -4 -10   0    5788    1120                                                        3889    0.53   -0.02  1.0000
   4  10   0    8447    1514                                                        6114    0.53    0.02  1.0000
  -4 -10  -1   69705    5017                                                       57087   -0.97    0.01  1.0000
   4  10   1   82335    5348                                                       68566   -0.97   -0.01  1.0000
  -4 -10  -2    2863    1567                                                        5385    0.77   -0.04  1.0000
  -4 -10  -2    3442    1865                                                        6169    0.77   -0.04  1.0000
   4  10   2    4063    1838                                                        6993    0.77    0.04  1.0000
  -4 -10  -3   38013    4872                                                       47142   -0.86    0.02  1.0000
   4  10   3   39825    4701                                                       49157   -0.86   -0.02  1.0000
  -4 -10  -4    2553    1446                                                        4240    0.56   -0.02  1.0000
  -4 -10  -5   63128    5710                                                       59984   -0.25   -0.01  1.0000
  -4 -10  -6   15767    2100                                                        9428    1.10    0.02  1.0000
  -4 -10  -7   94647    7280                                                      100824   -0.38    0.01  1.0000
  -4 -10  -7  112599    7943                                                      119327   -0.38    0.01  1.0000
  -4 -10  -8    2741     960                                                        2061   -0.27   -0.02  1.0000
  -4 -10  -8    3207    1077                                                        2467   -0.27   -0.02  1.0000
  -4 -10  -9   41614    4082                                                       43727    0.20    0.03  1.0000
  -4 -10  -9   77587    5818                                                       80464    0.20    0.03  1.0000
  -4 -10 -10    4886     832                                                        3762    0.33    0.00  1.0000
  -4 -11  -2    7063    1555                                                        8667    0.35    0.01  1.0000
   4  11   2    7120    1462                                                        8729    0.35   -0.01  1.0000
  -4 -11  -3     476     280                                                         764   -0.23    0.01  1.0000
  -4 -11  -4   31267    3163                                                       26889    0.50    0.01  1.0000
  -4 -11  -5     443     337                                                         973   -0.39   -0.01  1.0000
  -4 -11  -6    5590    1555                                                        6409    0.20    0.03  1.0000
  -4 -11  -6    7885    1851                                                        8853    0.20    0.03  1.0000
  -4 -11  -7   19442    3168                                                       26322   -0.88   -0.02  1.0000
  -4 -11  -7   19818    3037                                                       26759   -0.88   -0.02  1.0000
  -4 -11  -8    6359    1292                                                        4845    0.39    0.01  1.0000
  -4 -11  -8    6237    1092                                                        4739    0.39    0.01  1.0000
  -4 -11  -9    1322     385                                                        1277   -0.02   -0.01  1.0000
   5 -10  -4    5352    1090                                                        4519   -0.23   -0.01  1.0000
   5 -10  -3    2279     658                                                        1548   -0.32    0.00  1.0000
   5 -10  -2   33429    3495                                                       34423   -0.10   -0.01  1.0000
   5 -10  -1    9302    1957                                                        9374   -0.01    0.01  1.0000
   5 -10  -1    9198    1726                                                        9270   -0.01    0.01  1.0000
   5 -10   0     872     852                                                        1508    0.36   -0.01  1.0000
   5 -10   0     885     743                                                        1525    0.36   -0.01  1.0000
   5 -10   1    3360     773                                                        2286    0.39    0.02  1.0000
   5 -10   1    9642    1720                                                        7752    0.39    0.02  1.0000
   5 -10   2    2753     842                                                        3114   -0.13   -0.01  1.0000
   5 -10   2    6927    1588                                                        7493   -0.13   -0.01  1.0000
   5 -10   3   16158    1833                                                       14173   -0.31    0.00  1.0000
   5  -9  -5   27504    2819                                                       27170    0.04    0.02  1.0000
   5  -9  -4   46197    4283                                                       43980    0.20    0.00  1.0000
   5  -9  -3   43636    4962                                                       50594    0.62    0.00  1.0000
   5  -9  -2   54968    5541                                                       56649    0.14    0.02  1.0000
   5  -9  -2   28279    3529                                                       29487    0.14    0.02  1.0000
   5  -9  -1   38116    4145                                                       38144    0.00    0.00  1.0000
   5  -9  -1   78197    6087                                                       78237    0.00    0.00  1.0000
   5  -9   0    8117    1950                                                        9140   -0.21    0.01  1.0000
   5  -9   0   20936    3350                                                       22561   -0.21    0.01  1.0000
   5  -9   1   30822    3475                                                       27847   -0.34   -0.02  1.0000
   5  -9   1   80317    6366                                                       75467   -0.34   -0.02  1.0000
   5  -9   2   34942    4589                                                       42290   -0.72    0.01  1.0000
   5  -9   3  135498    7702                                                      132878    0.14    0.00  1.0000
   5  -9   4   34724    3701                                                       39622    0.49    0.04  1.0000
   5  -8  -6    6988    1784                                                       10375   -0.71    0.01  1.0000
   5  -8  -5   28553    3016                                                       21447   -0.87    0.02  1.0000
   5  -8  -4   18756    2846                                                       17155    0.23   -0.02  1.0000
   5  -8  -4   15876    2610                                                       14406    0.23   -0.02  1.0000
   5  -8  -3    6080    1674                                                        5621    0.12    0.02  1.0000
   5  -8  -3    5549    1605                                                        5111    0.12    0.02  1.0000
   5  -8  -2   26556    3446                                                       21160   -0.68   -0.01  1.0000
   5  -8  -1   50155    5235                                                       47340   -0.25    0.01  1.0000
   5  -8  -1   65726    5761                                                       62499   -0.25    0.01  1.0000
   5  -8   0   22909    3542                                                       21912    0.13   -0.02  1.0000
   5  -8   0   40168    4807                                                       38843    0.13   -0.02  1.0000
   5  -8   1   38351    5271                                                       45008    0.63    0.01  1.0000
   5  -8   2  204523   10988                                                      193915   -0.46    0.00  1.0000
   5  -8   3    9906    1441                                                        3393    1.60    0.00  1.0000
   5  -8   4  211240   10983                                                      230723   -0.80   -0.03  1.0000
   5  -8   5   12592    2231                                                       11957    0.11   -0.05  1.0000
   5  -8   6    1519     387                                                         837   -0.39    0.00  1.0000
   5  -7  -7      98     208                                                         -92    0.38    0.00  1.0000
   5  -7  -6    4167    1401                                                        5598    0.40   -0.02  1.0000
   5  -7  -5     319     610                                                         904    0.47   -0.01  1.0000
   5  -7  -4   77199    7181                                                      101192    1.56   -0.03  1.0000
   5  -7  -4   87272    8330                                                      112680    1.56   -0.03  1.0000
   5  -7  -3    1230    1537                                                        4645   -1.28    0.01  1.0000
   5  -7  -3    2124    1920                                                        6268   -1.28    0.01  1.0000
   5  -7  -2     230     383                                                         203    0.04   -0.03  1.0000
   5  -7  -1  121275    8585                                                      116106   -0.29    0.01  1.0000
   5  -7   0   49298    5914                                                       63741    1.18   -0.02  1.0000
   5  -7   0   53057    6256                                                       68006    1.18   -0.02  1.0000
   5  -7   1   17902    2997                                                       15071   -0.43    0.03  1.0000
   5  -7   1   17050    2973                                                       14290   -0.43    0.03  1.0000
   5  -7   2   44184    5167                                                       40778   -0.32   -0.02  1.0000
   5  -7   2   76758    6876                                                       72247   -0.32   -0.02  1.0000
   5  -7   3   31873    4762                                                       35893    0.42    0.03  1.0000
   5  -7   3   44215    5745                                                       48929    0.42    0.03  1.0000
  -5   7  -4     366     820                                                        1656   -0.83    0.00  1.0000
   5  -7   4     138     756                                                        1109   -0.83    0.00  1.0000
  -5   7  -5  468920   15768                                                      475743   -0.19   -0.04  1.0000
   5  -7   5  516508   17256                                                      523668   -0.19    0.04  1.0000
  -5   7  -6   14223    2223                                                       10594    0.63   -0.07  1.0000
   5  -7   6   17703    2446                                                       13624    0.63    0.07  1.0000
  -5   7  -7    1885    1006                                                        2513   -0.26   -0.02  1.0000
   5  -6  -7   76502    6012                                                       87354    0.73   -0.01  1.0000
   5  -6  -6    5646    1283                                                        3018   -0.78    0.00  1.0000
   5  -6  -5   67520    7026                                                       80435   -0.92    0.00  1.0000
   5  -6  -4   84848    7421                                                       85728    0.06    0.04  1.0000
   5  -6  -3  149784    8648                                                      114095   -1.91    0.01  1.0000
   5  -6  -3  128355    7299                                                       95497   -1.91    0.01  1.0000
   5  -6  -2   13748    1675                                                        5862    1.57    0.03  1.0000
   5  -6  -2   15241    2073                                                        6850    1.57    0.03  1.0000
   5  -6  -1   59005    5612                                                       52384    0.54    0.01  1.0000
   5  -6  -1   66925    5648                                                       59860    0.54    0.01  1.0000
   5  -6   0   96900    7309                                                      103518    0.40    0.04  1.0000
   5  -6   0   92342    7245                                                       98804    0.40    0.04  1.0000
   5  -6   1  254113   10743                                                      215535   -1.54   -0.03  1.0000
   5  -6   1  197268   10455                                                      163467   -1.54   -0.03  1.0000
   5  -6   2   11205    2595                                                       10548    0.12    0.01  1.0000
  -5   6  -2   14001    2727                                                       13265    0.12   -0.01  1.0000
   5  -6   2   14475    2814                                                       13727    0.12    0.01  1.0000
   5  -6   3   84517    7087                                                       80885   -0.24   -0.02  1.0000
  -5   6  -3   84493    7096                                                       80861   -0.24    0.02  1.0000
  -5   6  -4  442070   16131                                                      450516    0.24    0.01  1.0000
  -5   6  -4  419777   16484                                                      428008    0.24    0.01  1.0000
   5  -6   4  417012   16080                                                      425216    0.24   -0.01  1.0000
  -5   6  -5     693    1081                                                        1659   -0.56    0.04  1.0000
   5  -6   5     209     877                                                         832   -0.56   -0.04  1.0000
  -5   6  -6   88744    6230                                                       66311    1.56   -0.03  1.0000
   5  -6   6   52271    4464                                                       35433    1.56    0.03  1.0000
  -5   6  -7   31450    3126                                                       19616   -1.44    0.11  1.0000
   5  -6   7   28329    2742                                                       17167   -1.44   -0.11  1.0000
  -5   6  -8   31148    3835                                                       39322    0.84    0.00  1.0000
   5  -5  -8   74859    4627                                                       70560    0.31   -0.03  1.0000
   5  -5  -7   44531    4113                                                       36123    0.81   -0.01  1.0000
   5  -5  -6  343497   13534                                                      311652   -1.08   -0.02  1.0000
   5  -5  -5  154717   10943                                                      185158    1.43    0.01  1.0000
   5  -5  -5  134977    9407                                                      163499    1.43    0.01  1.0000
   5  -5  -4  128009    8562                                                      111483    0.92   -0.01  1.0000
   5  -5  -4  112230    7540                                                       96793    0.92   -0.01  1.0000
   5  -5  -3  112154    8334                                                      117941    0.33    0.00  1.0000
   5  -5  -3   98364    7770                                                      103789    0.33    0.00  1.0000
   5  -5  -3  119259    8832                                                      125225    0.33    0.00  1.0000
   5  -5  -2  318892   13977                                                      348060    0.98   -0.03  1.0000
   5  -5  -2  359359   14872                                                      390284    0.98   -0.03  1.0000
   5  -5  -1    2153     790                                                        1208    0.45    0.01  1.0000
   5  -5   0  383312   15694                                                      470485   -2.58   -0.04  1.0000
   5  -5   1  254633   11789                                                      305816    1.87    0.01  1.0000
  -5   5  -1  265873   11756                                                      318123    1.87   -0.01  1.0000
  -5   5  -2   55474    4795                                                       45777   -0.83   -0.01  1.0000
   5  -5   3  388709   12713                                                      284826    3.47    0.02  1.0000
  -5   5  -3  406938   13058                                                      300460    3.47   -0.02  1.0000
   5  -5   4   11991    1000                                                        1312   -2.84    0.00  1.0000
  -5   5  -4   14543    1251                                                        2238   -2.84    0.00  1.0000
  -5   5  -5  828810   24606                                                      948184    2.45   -0.03  1.0000
   5  -5   5  681785   21957                                                      790428    2.45    0.03  1.0000
   5  -5   6  292712   12430                                                      252678   -1.48    0.04  1.0000
  -5   5  -7    1152     803                                                        1095    0.03    0.07  1.0000
   5  -5   7      60     491                                                          46    0.03   -0.07  1.0000
  -5   5  -8    8548    2139                                                        9144   -0.12   -0.09  1.0000
  -5   5  -9   91064    5852                                                       97503    0.41   -0.01  1.0000
   5  -4  -8   87985    5178                                                       78312   -0.65   -0.01  1.0000
   5  -4  -7   72725    6365                                                       81935   -0.64    0.03  1.0000
   5  -4  -6     619    1412                                                        3469   -1.32    0.02  1.0000
   5  -4  -5   18143    4316                                                       28473    1.32    0.02  1.0000
   5  -4  -5   15670    3814                                                       25352    1.32    0.02  1.0000
   5  -4  -4   41639    4707                                                       35032   -0.65    0.02  1.0000
   5  -4  -4   40984    4548                                                       34431   -0.65    0.02  1.0000
   5  -4  -4   48986    4929                                                       41795   -0.65    0.02  1.0000
   5  -4  -4   59818    5734                                                       51842   -0.65    0.02  1.0000
   5  -4  -3  629549   21032                                                      754763   -2.91   -0.02  1.0000
   5  -4  -3  617885   20438                                                      741987   -2.91   -0.02  1.0000
   5  -4  -2  150896    9916                                                      181827    1.47    0.01  1.0000
   5  -4  -1  539588   15035                                                      442095   -2.70    0.00  1.0000
   5  -4   0  421348   14279                                                      424842   -0.10    0.00  1.0000
  -5   4  -1  260603    9488                                                      235602    0.97   -0.01  1.0000
  -5   4  -2   49241    4114                                                       38792   -0.97    0.01  1.0000
  -5   4  -3   39189    4724                                                       42834    0.35    0.01  1.0000
  -5   4  -4   96437    9675                                                      170017   -3.94    0.01  1.0000
  -5   4  -5   32980    2554                                                       10822    3.00    0.01  1.0000
   5  -4   5   22394    1726                                                        5195    3.00   -0.01  1.0000
  -5   4  -6 2243488   35774                                                     2073080   -2.24    0.04  1.0000
   5  -4   6 2048172   33646                                                     1885500   -2.24   -0.04  1.0000
   5  -4   7  262467   13439                                                      299350    1.35   -0.02  1.0000
  -5   4  -8    2054    1467                                                        2868   -0.32   -0.06  1.0000
   5  -4   8    1347    1042                                                        2019   -0.32    0.06  1.0000
  -5   4  -9  114451    7850                                                      130023    0.86    0.03  1.0000
  -5   4 -10   23581    2015                                                       15000   -1.20    0.03  1.0000
   5  -3  -8    2852     883                                                        2045   -0.32   -0.01  1.0000
   5  -3  -7  405449   15002                                                      427649    0.67    0.02  1.0000
   5  -3  -6  179113   10007                                                      159346    0.93   -0.02  1.0000
   5  -3  -5   12091    1862                                                        5297    1.44   -0.04  1.0000
   5  -3  -5    9030    1483                                                        3347    1.44   -0.04  1.0000
   5  -3  -4  396781   15178                                                      374124   -0.71    0.01  1.0000
   5  -3  -4  431140   15892                                                      407508   -0.71    0.01  1.0000
   5  -3  -4  430147   15316                                                      406542   -0.71    0.01  1.0000
   5  -3  -4  456164   16324                                                      431846   -0.71    0.01  1.0000
   5  -3  -3   82727    8111                                                      116667   -2.09   -0.04  1.0000
   5  -3  -2  596049   13747                                                      364568    6.51    0.03  1.0000
   5  -3  -1  252607    8437                                                      151212   -4.40   -0.02  1.0000
   5  -3   0  766581   21569                                                     1044190    5.66    0.04  1.0000
  -5   3  -1   59647    5745                                                       97650   -2.64    0.01  1.0000
  -5   3  -2  850662   16152                                                      679769    3.79    0.00  1.0000
  -5   3  -3  255520    8542                                                      167336   -3.73   -0.02  1.0000
  -5   3  -4     438    2607                                                       14310    3.82    0.00  1.0000
  -5   3  -5 1107179   24599                                                     1114950   -0.14    0.00  1.0000
   5  -3   6      18     918                                                        1678    1.42    0.02  1.0000
  -5   3  -6       0     818                                                        1303    1.42   -0.02  1.0000
   5  -3   7  457922   15355                                                      390701   -2.00    0.07  1.0000
  -5   3  -7  409668   14202                                                      346231   -2.00   -0.07  1.0000
  -5   3  -8    7233     458                                                         742    2.24    0.00  1.0000
   5  -3   8    7222     605                                                         738    2.24    0.00  1.0000
  -5   3  -9   26118    4655                                                       45891   -2.04    0.02  1.0000
   5  -3   9   22577    4468                                                       41156   -2.04   -0.02  1.0000
  -5   3 -10   24588    3485                                                       31700    0.82   -0.02  1.0000
  -5   3 -10   25859    3441                                                       33142    0.82   -0.02  1.0000
   5  -2  -8  222658    8928                                                      241098   -0.74    0.00  1.0000
   5  -2  -7   33364    4450                                                       39368    0.61    0.02  1.0000
   5  -2  -6  291288   12693                                                      264426   -0.99   -0.04  1.0000
   5  -2  -6  248352   10882                                                      223598   -0.99   -0.04  1.0000
   5  -2  -5  289083   13514                                                      286988    0.08    0.02  1.0000
   5  -2  -5  246418   12413                                                      244484    0.08    0.02  1.0000
   5  -2  -5  279524   12846                                                      277464    0.08    0.02  1.0000
   5  -2  -4  282313   15091                                                      384339   -3.43   -0.01  1.0000
   5  -2  -4  286756   15233                                                      389521   -3.43   -0.01  1.0000
   5  -2  -3  207510   12027                                                      259756    2.09    0.02  1.0000
   5  -2  -2   13660    1750                                                        6297    1.45   -0.01  1.0000
   5  -2  -1  124191    9926                                                      219872   -4.51    0.02  1.0000
   5  -2   0   98874    6199                                                       94653    0.26   -0.02  1.0000
  -5   2  -1 1343127   20068                                                     1318320   -0.42   -0.01  1.0000
  -5   2  -2    7621    2697                                                       21599   -2.31    0.02  1.0000
  -5   2  -3    5710    1154                                                        3585    0.61   -0.02  1.0000
  -5   2  -4  938436   20111                                                      924618   -0.28    0.03  1.0000
  -5   2  -5     739     468                                                        1061    0.21   -0.02  1.0000
  -5   2  -6  581996   18660                                                      665783   -2.05    0.00  1.0000
   5  -2   7  491295   17757                                                      529439   -1.03   -0.02  1.0000
  -5   2  -7  527940   17563                                                      567455   -1.03    0.02  1.0000
  -5   2  -8     119    1646                                                        4696    2.23    0.09  1.0000
   5  -2   8     823    2172                                                        7461    2.23   -0.09  1.0000
  -5   2  -9  117401    6413                                                       73958   -2.74    0.00  1.0000
   5  -2   9  116966    6483                                                       73613   -2.74    0.00  1.0000
  -5   2 -10   70239    4544                                                       43560    2.18   -0.01  1.0000
  -5   2 -10   68532    4415                                                       42218    2.18   -0.01  1.0000
   5  -2  10   63838    4038                                                       38552    2.18    0.01  1.0000
  -5   2 -11  149726    6281                                                      126687   -1.20    0.03  1.0000
   5  -1  -8   36301    2941                                                       31003   -0.56   -0.01  1.0000
   5  -1  -7  158228    8266                                                      141100    0.86   -0.02  1.0000
   5  -1  -6   53448    5177                                                       42994   -0.92    0.00  1.0000
   5  -1  -6   36266    3854                                                       27755   -0.92    0.00  1.0000
   5  -1  -5  107448    9043                                                      135236    1.55    0.02  1.0000
   5  -1  -5  105662    8997                                                      133231    1.55    0.02  1.0000
   5  -1  -4   65676    5476                                                       53146   -1.00    0.02  1.0000
   5  -1  -4   79459    6272                                                       65611   -1.00    0.02  1.0000
   5  -1  -4   76115    6065                                                       62576   -1.00    0.02  1.0000
   5  -1  -4   65250    5329                                                       52763   -1.00    0.02  1.0000
   5  -1  -3  196646    7346                                                      100440    4.90    0.01  1.0000
   5  -1  -2 1484378   25410                                                     1356970   -2.07    0.02  1.0000
   5  -1  -1    5719    1236                                                        2571   -0.96   -0.01  1.0000
   5  -1  -1    3034     613                                                         910   -0.96   -0.01  1.0000
  -5   1   0  366519    9154                                                      321223    1.50   -0.01  1.0000
   5  -1   0  382768   11266                                                      336446    1.50    0.01  1.0000
  -5   1  -1  398260   12907                                                      578056    5.00    0.02  1.0000
   5  -1   1  426436   14376                                                      611903    5.00   -0.02  1.0000
  -5   1  -2  804700   13193                                                      550811   -5.99   -0.01  1.0000
  -5   1  -3  353724   15078                                                      644513    8.05    0.02  1.0000
  -5   1  -4     164    3224                                                       26655   -6.81   -0.03  1.0000
  -5   1  -5   34286    7142                                                      117852    6.12    0.02  1.0000
  -5   1  -6  679923   14665                                                      449799   -5.95   -0.03  1.0000
   5  -1   6  561337   12892                                                      354406   -5.95    0.03  1.0000
  -5   1  -7 2000381   28318                                                     1578790    6.11    0.01  1.0000
   5  -1   7 1986849   29674                                                     1566770    6.11   -0.01  1.0000
   5  -1   8  636724   21159                                                      727010   -2.12    0.06  1.0000
   5  -1   9   21120    4131                                                       28415    0.90    0.06  1.0000
  -5   1 -10   26398    4051                                                       29340   -0.34   -0.02  1.0000
   5  -1  10   24053    3755                                                       26865   -0.34    0.02  1.0000
  -5   1 -11   16861    2469                                                       14703    0.33    0.01  1.0000
   5  -1  11   15685    2166                                                       13606    0.33   -0.01  1.0000
   5   0  -7   13073    2611                                                       16094    0.48   -0.01  1.0000
   5   0  -7    7993    1897                                                       10390    0.48   -0.01  1.0000
   5   0  -6  596776   18811                                                      595533    0.03    0.03  1.0000
   5   0  -6  439357   15272                                                      438290    0.03    0.03  1.0000
   5   0  -5  520234   18165                                                      502828   -0.47   -0.02  1.0000
   5   0  -5  395819   15441                                                      380655   -0.47   -0.02  1.0000
   5   0  -4  222776   12141                                                      230577    0.32    0.01  1.0000
   5   0  -4  189741   10724                                                      196945    0.32    0.01  1.0000
   5   0  -4  196759   11186                                                      204094    0.32    0.01  1.0000
   5   0  -3  547443   18313                                                      629112   -2.06   -0.01  1.0000
   5   0  -2   64883    5137                                                       58252   -0.52   -0.01  1.0000
   5   0  -1 2963849   31157                                                     2517070   -5.23   -0.01  1.0000
   5   0  -1 2529190   27456                                                     2117860   -5.23   -0.01  1.0000
   5   0   0   30289     687                                                        1785    8.37    0.02  1.0000
   5   0   0   30390     803                                                        1761    8.37    0.02  1.0000
   5   0   1 1779559   28213                                                     2356750   -7.78   -0.01  1.0000
   5   0   1 1361753   23754                                                     1871730   -7.78   -0.01  1.0000
   5   0   2  202753    8788                                                      234953    1.33    0.01  1.0000
  -5   0  -3 4213703   37021                                                     4074130   -1.33   -0.01  1.0000
  -5   0  -4   22944    3065                                                       24862   -0.24    0.00  1.0000
  -5   0  -5  108702    6564                                                      107129    0.09    0.01  1.0000
   5   0   5   62509    4481                                                       61318    0.09   -0.01  1.0000
  -5   0  -6 2334493   31602                                                     2259680   -0.95   -0.01  1.0000
   5   0   6 1880462   27738                                                     1813380   -0.95    0.01  1.0000
  -5   0  -7  562482   17327                                                      645199    2.06    0.04  1.0000
   5   0   7  516637   17293                                                      596029    2.06   -0.04  1.0000
   5   0   8  421621   17748                                                      509219   -2.49   -0.02  1.0000
  -5   0  -8  415690   17266                                                      502699   -2.49    0.02  1.0000
   5   0   8  419908   17196                                                      507336   -2.49   -0.02  1.0000
   5   0   9    4418    1545                                                        3883   -0.16   -0.09  1.0000
   5   0   9    3685    1377                                                        3198   -0.16   -0.09  1.0000
   5   0  10  167142   10151                                                      173494    0.30    0.00  1.0000
  -5   0 -11    7387    2155                                                        8879    0.32    0.01  1.0000
   5   0  11    9320    2184                                                       10987    0.32   -0.01  1.0000
  -5   0 -12   59915    4528                                                       65100   -0.40    0.00  1.0000
   5   1  -7  369152   10725                                                      372951    0.12    0.01  1.0000
   5   1  -6    1727     397                                                         882   -0.46    0.02  1.0000
   5   1  -6    1735     537                                                         888   -0.46    0.02  1.0000
   5   1  -5  563764   19199                                                      576530   -0.33   -0.02  1.0000
   5   1  -5  453037   16976                                                      464488   -0.33   -0.02  1.0000
   5   1  -4 1125895   27138                                                     1159020    0.60    0.01  1.0000
   5   1  -4  940766   24913                                                      971066    0.60    0.01  1.0000
   5   1  -3 1062918   23226                                                     1058880   -0.08   -0.01  1.0000
   5   1  -3 1027290   24422                                                     1023320   -0.08   -0.01  1.0000
   5   1  -2  326635   10754                                                      263945    2.24   -0.02  1.0000
   5   1  -2  286008    9562                                                      227561    2.24   -0.02  1.0000
   5   1  -1   54062    3978                                                       42446   -1.02    0.02  1.0000
   5   1  -1   55090    4066                                                       43357   -1.02    0.02  1.0000
   5   1   0 1173031   22703                                                     1648040    7.77   -0.01  1.0000
   5   1   0 1559669   27749                                                     2101230    7.77   -0.01  1.0000
   5   1   1  647070    9059                                                      303919   -9.79   -0.03  1.0000
   5   1   1  836136   12384                                                      437300   -9.79   -0.03  1.0000
   5   1   2 1667715   17227                                                     1194520    7.68    0.00  1.0000
   5   1   2 2356006   24498                                                     1786150    7.68    0.00  1.0000
   5   1   3  288090    8863                                                      236839   -1.94   -0.02  1.0000
   5   1   4 1097901   20965                                                     1336190    4.18   -0.01  1.0000
  -5  -1  -5  860502   19704                                                     1006000   -2.92    0.00  1.0000
   5   1   5  539563   13490                                                      655958   -2.92    0.00  1.0000
  -5  -1  -6   25370    1426                                                        4419    3.59    0.02  1.0000
   5   1   6   17891     763                                                        1677    3.59   -0.02  1.0000
  -5  -1  -7 1212996   21375                                                     1072570   -2.54    0.11  1.0000
   5   1   7 1156357   21579                                                     1019350   -2.54   -0.11  1.0000
  -5  -1  -8 1496449   30048                                                     1634050    2.13   -0.09  1.0000
   5   1   8 1533915   31465                                                     1673190    2.13    0.09  1.0000
   5   1   8 1587774   30799                                                     1729420    2.13    0.09  1.0000
   5   1   9     332    1058                                                        1893   -2.39   -0.02  1.0000
  -5  -1  -9     684     728                                                        1266   -2.39    0.02  1.0000
   5   1   9    1105     734                                                         812   -2.39   -0.02  1.0000
  -5  -1  -9     694     630                                                        1252   -2.39    0.02  1.0000
   5   1  10  143227    7090                                                       80414    3.67    0.11  1.0000
   5   1  11  309880   11031                                                      233726   -2.83   -0.06  1.0000
  -5  -1 -12   31575    3043                                                       24084    0.87    0.00  1.0000
   5   1  12   32849    2833                                                       25198    0.87    0.00  1.0000
   5   2  -7   45845    3018                                                       38376    0.70    0.00  1.0000
   5   2  -6  220467    9084                                                      180314   -1.74   -0.02  1.0000
   5   2  -5   22847    4671                                                       37039    1.60   -0.03  1.0000
   5   2  -5   18476    4298                                                       31409    1.60   -0.03  1.0000
   5   2  -4   59186    7119                                                       78664   -1.44    0.02  1.0000
   5   2  -4   47793    6493                                                       65436   -1.44    0.02  1.0000
   5   2  -3   85376    5797                                                       53987    2.32   -0.03  1.0000
   5   2  -3   78547    5452                                                       48585    2.32   -0.03  1.0000
   5   2  -2  535764   13483                                                      397984   -3.91    0.03  1.0000
   5   2  -1  371005   11194                                                      286037    2.87    0.01  1.0000
   5   2   0    3445     923                                                        1689   -3.86    0.00  1.0000
   5   2   1  744451   16726                                                      728448   -0.36    0.02  1.0000
   5   2   2   47663    3800                                                       40495   -0.66    0.04  1.0000
   5   2   3  144017    4741                                                       66410    4.71   -0.02  1.0000
   5   2   4   45731    8409                                                      199698   -9.02    0.06  1.0000
   5   2   4   72293    9117                                                      251906   -9.02    0.06  1.0000
   5   2   5  119188    8075                                                      202544    4.06   -0.01  1.0000
   5   2   5  102942    8629                                                      181184    4.06   -0.01  1.0000
   5   2   6  128452    5217                                                       58424   -4.52   -0.01  1.0000
   5   2   6  107797    3832                                                       44789   -4.52   -0.01  1.0000
  -5  -2  -7  297717    9832                                                      237498    2.26   -0.13  1.0000
   5   2   7  278733   10574                                                      220576    2.26    0.13  1.0000
   5   2   7  259988    9350                                                      203936    2.26    0.13  1.0000
  -5  -2  -8 1572486   27605                                                     1458100   -1.80   -0.20  1.0000
   5   2   8 1633952   29556                                                     1517310   -1.80    0.20  1.0000
  -5  -2  -9  974466   23610                                                     1013330    0.75   -0.04  1.0000
   5   2   9  959566   24121                                                      998135    0.75    0.04  1.0000
   5   2  10    5843    2260                                                        8743    0.66   -0.08  1.0000
  -5  -2 -10    5830    2328                                                        8727    0.66    0.08  1.0000
   5   2  11   43199    3970                                                       28850   -1.47    0.06  1.0000
  -5  -2 -12   68872    6143                                                       85101    1.13    0.02  1.0000
   5   2  12   73554    5924                                                       90297    1.13   -0.02  1.0000
   5   3  -6   55443    4873                                                       63300   -0.62   -0.02  1.0000
   5   3  -5  448685   16776                                                      508363    1.67    0.01  1.0000
   5   3  -4    1131     709                                                        1160    0.02    0.01  1.0000
   5   3  -3   22758    4009                                                       26365   -0.45    0.01  1.0000
   5   3  -3   22300    4084                                                       25872   -0.45    0.01  1.0000
   5   3  -2  113126    7832                                                      103048   -0.59    0.01  1.0000
   5   3  -2  102409    7291                                                       92831   -0.59    0.01  1.0000
   5   3  -2   84687    6271                                                       75999   -0.59    0.01  1.0000
   5   3  -1  133243    8936                                                      160927    1.40    0.00  1.0000
   5   3   0  508390   15538                                                      517589   -0.25   -0.03  1.0000
   5   3   1   74525    5583                                                       72374   -0.15    0.05  1.0000
   5   3   2  906437   20228                                                     1025330    2.34   -0.04  1.0000
   5   3   3  134114    6698                                                      143683    0.50    0.00  1.0000
   5   3   3  204351    8938                                                      216125    0.50    0.00  1.0000
   5   3   4  387239   14319                                                      564248   -4.99    0.00  1.0000
   5   3   4  533128   16000                                                      737941   -4.99    0.00  1.0000
   5   3   5    1068    3132                                                       30139    7.98   -0.02  1.0000
   5   3   5    1333    3456                                                       28825    7.98   -0.02  1.0000
   5   3   6  124563    5794                                                       70517   -3.38   -0.04  1.0000
   5   3   7  247435    8435                                                      135497    5.00    0.02  1.0000
   5   3   8  161157   11951                                                      251013   -3.85   -0.13  1.0000
  -5  -3  -8  132480   10466                                                      214874   -3.85    0.13  1.0000
   5   3   8  132000   10341                                                      214262   -3.85   -0.13  1.0000
  -5  -3  -8  179851   12438                                                      274217   -3.85    0.13  1.0000
   5   3   9  149257   11046                                                      213846    2.94   -0.47  1.0000
   5   3   9  151328   10985                                                      216325    2.94   -0.47  1.0000
   5   3  10    6785     968                                                         613   -2.23   -0.01  1.0000
  -5  -3 -10    6396     671                                                         500   -2.23    0.01  1.0000
   5   3  11    3064     665                                                        1245    0.78   -0.01  1.0000
  -5  -3 -11    2643     801                                                         982    0.78    0.01  1.0000
   5   3  12    2250    1028                                                        3098   -0.32   -0.07  1.0000
  -5  -3 -13   38789    3232                                                       39439    0.06   -0.01  1.0000
   5   4  -6  130952    5912                                                      126985    0.21    0.02  1.0000
   5   4  -5   14315    2683                                                       15727   -0.22    0.03  1.0000
   5   4  -4  599214   18901                                                      585911   -0.33    0.00  1.0000
   5   4  -3  179577   12184                                                      228812   -2.11    0.01  1.0000
   5   4  -2  580668   17160                                                      470988    2.93    0.00  1.0000
   5   4  -2  437335   13890                                                      342907    2.93    0.00  1.0000
   5   4  -1  215789    9733                                                      171268   -1.96   -0.02  1.0000
   5   4  -1  227358   10129                                                      181591   -1.96   -0.02  1.0000
   5   4   0  134728   10204                                                      195071    2.89    0.02  1.0000
   5   4   1  310344   15243                                                      469430   -4.96   -0.02  1.0000
   5   4   2  456906   10587                                                      247658    6.90   -0.03  1.0000
   5   4   3 1000315   14184                                                      624002   -8.13    0.00  1.0000
   5   4   3 1567472   21227                                                     1085280   -8.13    0.00  1.0000
   5   4   4   57032    7064                                                      132079    4.82   -0.02  1.0000
   5   4   4   72113    7674                                                      154568    4.82   -0.02  1.0000
   5   4   5  195177    9992                                                      227947   -1.38    0.00  1.0000
   5   4   5  193265    8856                                                      225881   -1.38    0.00  1.0000
   5   4   6  405279   14118                                                      399860   -0.17    0.05  1.0000
   5   4   7  186410    8463                                                      128946   -2.81   -0.04  1.0000
   5   4   8  158820    9323                                                      145442    0.66    0.16  1.0000
  -5  -4  -8  185357   10095                                                      170882    0.66   -0.16  1.0000
  -5  -4  -8  182830   10180                                                      168456    0.66   -0.16  1.0000
   5   4   9  716190   21137                                                      737842   -0.49   -0.13  1.0000
  -5  -4  -9 1150844   27595                                                     1178250   -0.49    0.13  1.0000
   5   4  10    1402    1768                                                        5230    1.35    0.80  1.0000
  -5  -4 -10    3333    2390                                                        8779    1.35   -0.80  1.0000
   5   4  11  229388   11292                                                      213012   -0.67   -0.14  1.0000
  -5  -4 -11  262748   12036                                                      245202   -0.67    0.14  1.0000
   5   4  12   65124    4887                                                       53677    0.91    0.17  1.0000
  -5  -4 -13    4528     956                                                        3213   -0.41    0.01  1.0000
   5   4  13    7874    1184                                                        6105   -0.41   -0.01  1.0000
   5   5  -5   94445    5655                                                       90202    0.27   -0.02  1.0000
   5   5  -4    1674    1357                                                        3568   -0.73   -0.06  1.0000
   5   5  -3  232969   12806                                                      265512    1.26   -0.01  1.0000
   5   5  -2   86508    7501                                                       89046    0.17    0.00  1.0000
   5   5  -1  267522   12960                                                      280475   -0.48   -0.03  1.0000
   5   5  -1  247010   12641                                                      259462   -0.48   -0.03  1.0000
   5   5   0  374180   13078                                                      329047   -1.47    0.02  1.0000
   5   5   0  515195   16591                                                      461984   -1.47    0.02  1.0000
   5   5   1  196693   10651                                                      202293    0.24   -0.01  1.0000
   5   5   2  379975   13215                                                      337257    1.38    0.02  1.0000
   5   5   3   45802    6355                                                       86075   -3.07    0.04  1.0000
   5   5   4  767076   19948                                                      927894    3.38    0.00  1.0000
   5   5   4  567722   16866                                                      707142    3.38    0.00  1.0000
   5   5   5  170328    8463                                                      154476   -0.76    0.04  1.0000
   5   5   6  190661   10182                                                      197610   -0.31   -0.04  1.0000
   5   5   7    1441    1265                                                        1963   -0.25   -0.01  1.0000
  -5  -5  -7     303     600                                                         564   -0.25    0.01  1.0000
  -5  -5  -8  672960   21915                                                      783170    2.50    0.03  1.0000
  -5  -5  -8  609642   21233                                                      714740    2.50    0.03  1.0000
   5   5   9  447100   17391                                                      482971   -1.02   -0.03  1.0000
  -5  -5  -9  757081   23125                                                      803551   -1.02    0.03  1.0000
  -5  -5 -10 1099195   26100                                                     1051090    0.90   -0.01  1.0000
   5   5  11    5794     628                                                        1139   -1.75   -0.50  1.0000
  -5  -5 -11    4151     332                                                         432   -1.75    0.50  1.0000
   5   5  12    6228    2166                                                       10659    0.94   -0.05  1.0000
  -5  -5 -12    7465    2188                                                       12261    0.94    0.05  1.0000
   5   6  -4  127883    7260                                                      137480   -0.51    0.00  1.0000
   5   6  -3    4752    2192                                                        9543    1.11    0.09  1.0000
   5   6  -3    3342    1777                                                        7492    1.11    0.09  1.0000
   5   6  -2   53089    4805                                                       38270   -1.35   -0.01  1.0000
   5   6  -1      99     737                                                        1260    0.99    0.03  1.0000
   5   6   0   83709    7540                                                      100221   -1.05   -0.01  1.0000
   5   6   0   93627    8397                                                      111047   -1.05   -0.01  1.0000
   5   6   1  365075   17208                                                      480410    3.44    0.02  1.0000
   5   6   2   40174    3507                                                       20368   -2.23    0.00  1.0000
   5   6   3  267139   10970                                                      228325    1.51   -0.02  1.0000
   5   6   4   40316    4922                                                       51818   -1.04    0.00  1.0000
   5   6   5  385165   15039                                                      453009    2.03    0.02  1.0000
   5   6   6   45401    2642                                                       12366   -3.94   -0.04  1.0000
   5   6   7   70345    4187                                                       28745    3.70    0.10  1.0000
  -5  -6  -7   66359    3669                                                       26218    3.70   -0.10  1.0000
  -5  -6  -7   78062    4515                                                       33752    3.70   -0.10  1.0000
   5   6   8  103212    6445                                                       65093   -2.56   -0.04  1.0000
  -5  -6  -8  107783    6230                                                       68733   -2.56    0.04  1.0000
  -5  -6  -9  362842   15954                                                      391234    0.89   -0.09  1.0000
  -5  -6  -9  335899   15685                                                      363237    0.89   -0.09  1.0000
  -5  -6 -10   31632    5701                                                       50870   -1.84    0.11  1.0000
   5   6  11    2711     749                                                         872    0.87    0.07  1.0000
  -5  -6 -11    5087    1063                                                        2383    0.87   -0.07  1.0000
   5   6  12    8262    1790                                                        7991   -0.06    0.18  1.0000
  -5  -6 -12    8330    1746                                                        8058   -0.06   -0.18  1.0000
   5   7  -3  104192    6421                                                      109254   -0.30   -0.01  1.0000
   5   7  -3   75318    5030                                                       79631   -0.30   -0.01  1.0000
   5   7  -2   45849    4972                                                       50424    0.40   -0.07  1.0000
   5   7  -2   49878    5195                                                       54644    0.40   -0.07  1.0000
   5   7  -1  299263   12355                                                      279254   -0.72   -0.02  1.0000
   5   7   0     854    1258                                                        3001    0.99    0.01  1.0000
  -5  -7  -1   12991    3485                                                       21551   -1.27    0.03  1.0000
  -5  -7  -2   41060    4871                                                       39915   -0.11   -0.03  1.0000
   5   7   2   41496    4934                                                       40345   -0.11    0.03  1.0000
  -5  -7  -3  228332   10822                                                      194750   -1.41    0.03  1.0000
   5   7   3  209226    9985                                                      177137   -1.41   -0.03  1.0000
   5   7   4   56638    4757                                                       40276    1.44    0.02  1.0000
   5   7   5   17721    3600                                                       24653   -0.92   -0.01  1.0000
   5   7   6   18798    2759                                                       13957   -0.73   -0.05  1.0000
  -5  -7  -6   24533    3164                                                       18952   -0.73    0.05  1.0000
   5   7   7   15176    1942                                                        6408    1.67    0.00  1.0000
  -5  -7  -7   15572    1966                                                        6667    1.67    0.00  1.0000
  -5  -7  -7   18165    2367                                                        8398    1.67    0.00  1.0000
  -5  -7  -8    6108    2525                                                       11636   -1.15    0.03  1.0000
  -5  -7  -8   10948    3322                                                       18050   -1.15    0.03  1.0000
  -5  -7  -9   76539    7592                                                       86622    0.68    0.05  1.0000
  -5  -7  -9   76586    7471                                                       86672    0.68    0.05  1.0000
  -5  -7 -10  492079   17203                                                      498129    0.17   -0.05  1.0000
   5   7  11   49325    5274                                                       62973    1.12    0.02  1.0000
  -5  -7 -11   65233    6227                                                       80804    1.12   -0.02  1.0000
   5   7  12   26674    2961                                                       27182   -0.06    0.04  1.0000
  -5  -7 -12   37334    3516                                                       37936   -0.06   -0.04  1.0000
   5   8  -2   18669    2286                                                       15298    0.50    0.02  1.0000
   5   8  -2   18567    2297                                                       15205    0.50    0.02  1.0000
   5   8  -1   52858    5307                                                       65834   -1.03    0.03  1.0000
   5   8  -1   76651    6761                                                       92132   -1.03    0.03  1.0000
  -5  -8   0   91127    7121                                                      108518    1.07   -0.03  1.0000
   5   8   0  153411   10153                                                      175751    1.07    0.03  1.0000
  -5  -8  -1       0     805                                                        1065   -1.24    0.02  1.0000
   5   8   1      91     751                                                         510   -1.24   -0.02  1.0000
  -5  -8  -2   18781    2296                                                        9556    1.52   -0.01  1.0000
   5   8   2   24680    3059                                                       13879    1.52    0.01  1.0000
  -5  -8  -3   22995    3123                                                       15276   -1.09    0.01  1.0000
   5   8   3   27359    3435                                                       18868   -1.09   -0.01  1.0000
  -5  -8  -4  109852    9329                                                      157701    2.54    0.00  1.0000
   5   8   4  149475   10987                                                      204573    2.54    0.00  1.0000
  -5  -8  -5   21640    4887                                                       42183   -2.25   -0.01  1.0000
   5   8   5   30727    5407                                                       54556   -2.25    0.01  1.0000
  -5  -8  -6   34166    3260                                                       19609    1.73    0.01  1.0000
  -5  -8  -7   34754    4034                                                       27821   -0.76   -0.06  1.0000
  -5  -8  -7   45922    4975                                                       37895   -0.76   -0.06  1.0000
  -5  -8  -8   18974    3804                                                       25101    0.80   -0.01  1.0000
  -5  -8  -8   30656    4880                                                       38328    0.80   -0.01  1.0000
  -5  -8  -9   56522    6442                                                       70090   -1.04    0.00  1.0000
  -5  -8  -9   58858    6604                                                       72689   -1.04    0.00  1.0000
  -5  -8 -10  157217    9504                                                      172171    0.71    0.00  1.0000
   5   8  11  219072    8033                                                      195294   -1.01   -0.04  1.0000
  -5  -8 -11  361387   11502                                                      330653   -1.01    0.04  1.0000
  -5  -8 -12   16298    1862                                                       15073   -0.19    0.03  1.0000
   5   9  -1     444     492                                                        -456    0.82    0.01  1.0000
   5   9   0    1387    1022                                                        2307   -0.42   -0.05  1.0000
  -5  -9   0     279     550                                                         755   -0.42    0.05  1.0000
  -5  -9  -1  107132    7552                                                      123746    0.95    0.00  1.0000
   5   9   1  159219    9763                                                      179342    0.95    0.00  1.0000
  -5  -9  -2   19410    3656                                                       25853   -0.83    0.02  1.0000
   5   9   2   22592    4030                                                       29507   -0.83   -0.02  1.0000
  -5  -9  -3    7422    1446                                                        4594    0.71    0.00  1.0000
   5   9   3   13187    2203                                                        9305    0.71    0.00  1.0000
  -5  -9  -4  111334    7221                                                       98720   -0.75    0.00  1.0000
   5   9   4  135702    8093                                                      121736   -0.75    0.00  1.0000
  -5  -9  -5   87083    6735                                                       83232   -0.26    0.00  1.0000
  -5  -9  -6   62487    5989                                                       65128   -0.20    0.00  1.0000
  -5  -9  -7    8568    1883                                                        6344    0.50    0.01  1.0000
  -5  -9  -7   14258    2529                                                       11340    0.50    0.01  1.0000
  -5  -9  -8   41535    4244                                                       35927   -0.55    0.00  1.0000
  -5  -9  -8   65313    5804                                                       58229   -0.55    0.00  1.0000
  -5  -9  -9       0     385                                                        -181    0.02    0.01  1.0000
  -5  -9  -9    1288     748                                                        1247    0.02    0.01  1.0000
  -5  -9 -10   80763    5641                                                       78004    0.19   -0.02  1.0000
  -5  -9 -11     185     347                                                         116   -0.11   -0.07  1.0000
   5  10   1    5902    1402                                                        5613   -0.07    0.00  1.0000
  -5 -10  -2   42396    3523                                                       37857   -0.44   -0.03  1.0000
   5  10   2   72311    5153                                                       66344   -0.44    0.03  1.0000
  -5 -10  -3     554     456                                                         302    0.24    0.00  1.0000
   5  10   3    2384     745                                                        1820    0.24    0.00  1.0000
  -5 -10  -4   30528    3757                                                       33126   -0.28   -0.03  1.0000
   5  10   4   34339    3814                                                       37091   -0.28    0.03  1.0000
  -5 -10  -5   33894    4129                                                       37851    0.40    0.00  1.0000
  -5 -10  -6   26605    3595                                                       27502    0.11   -0.01  1.0000
  -5 -10  -6   33308    4193                                                       34311    0.11   -0.01  1.0000
  -5 -10  -7     169     249                                                         -90    0.50    0.02  1.0000
  -5 -10  -7    1365     414                                                         574    0.50    0.02  1.0000
  -5 -10  -8    1932     453                                                         661   -0.71   -0.03  1.0000
  -5 -10  -8    5225    1105                                                        2921   -0.71   -0.03  1.0000
  -5 -10  -9   24108    3157                                                       27470    0.41    0.05  1.0000
  -5 -10  -9   29869    3493                                                       33600    0.41    0.05  1.0000
  -5 -10 -10    1847     545                                                        1806    0.02   -0.03  1.0000
  -5 -11  -4     297     373                                                         654    0.32    0.00  1.0000
  -5 -11  -5    7079    1563                                                        8153   -0.24    0.02  1.0000
  -5 -11  -5   11670    2138                                                       13038   -0.24    0.02  1.0000
  -5 -11  -6    6484    1497                                                        7355    0.20    0.01  1.0000
  -5 -11  -6   11884    2099                                                       13053    0.20    0.01  1.0000
  -5 -11  -7   10881    1521                                                        7739   -0.63    0.00  1.0000
  -5 -11  -7   13813    1746                                                       10239   -0.63    0.00  1.0000
  -5 -11  -8     732     439                                                         603    0.10    0.00  1.0000
  -5 -11  -8     704     301                                                         577    0.10    0.00  1.0000
   6 -10  -2    1527     585                                                        1438   -0.04   -0.01  1.0000
   6 -10  -1    6333    1158                                                        5755    0.14    0.00  1.0000
   6 -10   0    5136    1105                                                        5362    0.06    0.00  1.0000
   6 -10   1    2679     845                                                        3643    0.33    0.01  1.0000
   6 -10   1    5028    1240                                                        6322    0.33    0.01  1.0000
   6  -9  -4   13316    1673                                                       12025    0.22    0.00  1.0000
   6  -9  -3     633     222                                                         321    0.28    0.00  1.0000
   6  -9  -3     397     254                                                         161    0.28    0.00  1.0000
   6  -9  -2   33583    3756                                                       34544    0.10    0.00  1.0000
   6  -9  -2   20480    2757                                                       21231    0.10    0.00  1.0000
   6  -9  -1    1112     449                                                         971   -0.09    0.01  1.0000
   6  -9  -1    1221     531                                                        1072   -0.09    0.01  1.0000
   6  -9   0    8571    1880                                                        9106   -0.11    0.00  1.0000
   6  -9   0   14436    2398                                                       15128   -0.11    0.00  1.0000
   6  -9   1    7625    1738                                                        7716    0.02    0.00  1.0000
   6  -9   1   19196    2792                                                       19340    0.02    0.00  1.0000
   6  -9   2   14620    2101                                                       12128   -0.42   -0.01  1.0000
   6  -9   2   35469    3604                                                       31523   -0.42   -0.01  1.0000
   6  -9   3    1419     580                                                        1180    0.13    0.01  1.0000
   6  -9   3    3683    1121                                                        3292    0.13    0.01  1.0000
   6  -9   4   19019    2154                                                       15855    0.46    0.03  1.0000
   6  -8  -5   16795    1821                                                       11788   -0.81    0.01  1.0000
   6  -8  -4    9564    1744                                                        8381   -0.24   -0.02  1.0000
   6  -8  -3   49590    4603                                                       49896   -0.03    0.00  1.0000
   6  -8  -3   50908    4939                                                       51219   -0.03    0.00  1.0000
   6  -8  -2     569     716                                                        1045   -0.33    0.01  1.0000
   6  -8  -2     180     372                                                         479   -0.33    0.01  1.0000
   6  -8  -1   81333    6595                                                       79677   -0.11    0.00  1.0000
   6  -8   0    5224    1625                                                        5276    0.01    0.01  1.0000
   6  -8   0    7739    1903                                                        7803    0.01    0.01  1.0000
   6  -8   1   51365    5172                                                       48525    0.25   -0.01  1.0000
   6  -8   1   88431    6700                                                       84692    0.25   -0.01  1.0000
   6  -8   2    5966    1418                                                        4210   -0.48    0.00  1.0000
   6  -8   3   36475    4701                                                       42631    0.60   -0.01  1.0000
   6  -8   4   30397    3824                                                       31630   -0.14   -0.01  1.0000
   6  -8   5   29529    3103                                                       25124   -0.52   -0.06  1.0000
   6  -7  -6   15313    2036                                                       13898    0.23   -0.01  1.0000
   6  -7  -5   51654    4487                                                       47332    0.38    0.01  1.0000
   6  -7  -4   21037    3906                                                       29871    1.08   -0.04  1.0000
   6  -7  -3   10614    2141                                                        8874   -0.34    0.01  1.0000
   6  -7  -2    4408    1829                                                        5763   -0.37   -0.02  1.0000
   6  -7  -1    4808    1575                                                        4852   -0.01    0.00  1.0000
   6  -7   0   78741    7400                                                       84219    0.37   -0.03  1.0000
   6  -7   1     384     561                                                         707    0.27    0.02  1.0000
   6  -7   2    7680    2719                                                       12154   -0.87   -0.01  1.0000
   6  -7   3  102133    8957                                                      129118    1.54    0.02  1.0000
   6  -7   4   36313    3694                                                       23713   -1.42    0.00  1.0000
   6  -7   4   48589    4594                                                       33804   -1.42    0.00  1.0000
  -6   7  -5    2086    1200                                                        3811    0.62   -0.03  1.0000
   6  -7   5    1785    1220                                                        3399    0.62    0.03  1.0000
   6  -7   5    3862    1744                                                        6116    0.62    0.03  1.0000
   6  -7   6  109344    6838                                                      108588   -0.04    0.05  1.0000
  -6   7  -6   90393    5763                                                       89706   -0.04   -0.05  1.0000
   6  -7   7  109524    5600                                                      118514    0.52    0.00  1.0000
  -6   7  -7  133708    6311                                                      143622    0.52    0.00  1.0000
   6  -6  -6   40573    3617                                                       34779   -0.58   -0.01  1.0000
   6  -6  -5   33660    3763                                                       28663   -0.55    0.00  1.0000
   6  -6  -4   44349    4919                                                       40752    0.34    0.01  1.0000
   6  -6  -3   50587    4604                                                       33043   -1.67    0.02  1.0000
   6  -6  -2   45516    6408                                                       61346    1.33    0.02  1.0000
   6  -6  -2   69378    7019                                                       88644    1.33    0.02  1.0000
   6  -6  -1    2944    1015                                                        2470    0.18    0.01  1.0000
   6  -6  -1    1220     631                                                         923    0.18    0.01  1.0000
   6  -6   0   12244    2195                                                        7939    0.83    0.02  1.0000
   6  -6   0   10054    1803                                                        6196    0.83    0.02  1.0000
   6  -6   1   42656    4260                                                       31700   -1.10    0.00  1.0000
   6  -6   1   57293    4952                                                       44467   -1.10    0.00  1.0000
   6  -6   2    5664    1891                                                        5632   -0.01   -0.01  1.0000
   6  -6   3    5149    1300                                                        3278    0.56   -0.01  1.0000
   6  -6   4    6869    1786                                                        4067   -0.74   -0.01  1.0000
  -6   6  -5  167742    9616                                                      174834    0.33    0.01  1.0000
   6  -6   5  157906   10108                                                      164789    0.33   -0.01  1.0000
  -6   6  -6   98383    6637                                                       86081    0.78    0.01  1.0000
   6  -6   6   68963    5462                                                       58731    0.78   -0.01  1.0000
  -6   6  -7   12916    2733                                                       17775   -0.76    0.03  1.0000
   6  -6   7    9280    2413                                                       13457   -0.76   -0.03  1.0000
   6  -6   7    5310    1893                                                        8564   -0.76   -0.03  1.0000
  -6   6  -8  148430    7015                                                      151088    0.13    0.00  1.0000
   6  -6   8   85441    4697                                                       87460    0.13    0.00  1.0000
   6  -5  -7  127876    5458                                                      115800    0.67    0.00  1.0000
   6  -5  -6   12288    2156                                                       10506   -0.32   -0.01  1.0000
   6  -5  -6   14677    2244                                                       12722   -0.32   -0.01  1.0000
   6  -5  -5   35884    4949                                                       42306    0.63    0.01  1.0000
   6  -5  -4    3033     563                                                         804    1.03    0.01  1.0000
   6  -5  -3   72893    7485                                                       85555   -0.87   -0.01  1.0000
   6  -5  -3   89808    8244                                                      103807   -0.87   -0.01  1.0000
   6  -5  -2  225604   13495                                                      272597    1.82    0.00  1.0000
   6  -5  -2  229185   13079                                                      276532    1.82    0.00  1.0000
   6  -5  -1  137582    8048                                                      121166   -0.88   -0.02  1.0000
   6  -5  -1  116568    7839                                                      101499   -0.88   -0.02  1.0000
   6  -5   0  131686    9389                                                      143475   -0.62    0.01  1.0000
   6  -5   0  149834    9833                                                      162392   -0.62    0.01  1.0000
   6  -5   1   78093    7151                                                       86313   -0.55   -0.03  1.0000
   6  -5   1   77008    7323                                                       85171   -0.55   -0.03  1.0000
  -6   5  -2  470500   16232                                                      509578    1.08   -0.03  1.0000
   6  -5   2  397457   17136                                                      433437    1.08    0.03  1.0000
   6  -5   3   76918    7312                                                       79925    0.21    0.00  1.0000
  -6   5  -3   82181    7165                                                       85288    0.21    0.00  1.0000
   6  -5   4   80997    7671                                                       87946   -0.46    0.01  1.0000
  -6   5  -4   84612    7576                                                       91711   -0.46   -0.01  1.0000
   6  -5   5  112070    8558                                                      109415   -0.15    0.00  1.0000
   6  -5   6   21359    4047                                                       25654    0.54    0.02  1.0000
  -6   5  -7  473426   17478                                                      535328   -1.69    0.01  1.0000
   6  -5   7  343376   14609                                                      396377   -1.69   -0.01  1.0000
  -6   5  -8    2644     641                                                         550    1.08   -0.02  1.0000
   6  -5   8    1549     335                                                         130    1.08    0.02  1.0000
  -6   5  -9  113831    5832                                                      105525   -0.49   -0.01  1.0000
   6  -4  -7    1127     445                                                         982   -0.09    0.01  1.0000
   6  -4  -6  298531   12811                                                      332149   -1.16    0.00  1.0000
   6  -4  -6  371507   13675                                                      408906   -1.16    0.00  1.0000
   6  -4  -5  116691    9070                                                      136867    1.10    0.02  1.0000
   6  -4  -5  108664    8409                                                      128162    1.10    0.02  1.0000
   6  -4  -4  502785   17098                                                      467055   -0.99    0.00  1.0000
   6  -4  -4  443111   16309                                                      409609   -0.99    0.00  1.0000
   6  -4  -3   89585    8439                                                      110285   -1.27   -0.01  1.0000
   6  -4  -3   59020    7065                                                       76024   -1.27   -0.01  1.0000
   6  -4  -3   50808    6455                                                       66662   -1.27   -0.01  1.0000
   6  -4  -3   78597    8008                                                       98054   -1.27   -0.01  1.0000
   6  -4  -2  139095    9087                                                      131945    0.38   -0.02  1.0000
   6  -4  -2   96069    7456                                                       90142    0.38   -0.02  1.0000
   6  -4  -2  111642    8042                                                      105246    0.38   -0.02  1.0000
   6  -4  -2  150398    9449                                                      142959    0.38   -0.02  1.0000
   6  -4  -1  213877   10371                                                      192528   -0.92    0.01  1.0000
   6  -4  -1  207448   10592                                                      186431   -0.92    0.01  1.0000
   6  -4   0  349964   13413                                                      311273   -1.30   -0.02  1.0000
   6  -4   1  464570   14974                                                      393248    2.11    0.01  1.0000
  -6   4  -2   28752    4597                                                       44962   -1.64    0.00  1.0000
  -6   4  -3  491853   17322                                                      545727    1.45    0.01  1.0000
   6  -4   4   75955    8770                                                      131713   -3.38   -0.02  1.0000
  -6   4  -4   75079    8771                                                      130559   -3.38    0.02  1.0000
   6  -4   5  206784    9436                                                      137811    3.23    0.00  1.0000
   6  -4   5  224654    9454                                                      152467    3.23    0.00  1.0000
  -6   4  -5  219047    9593                                                      147854    3.23    0.00  1.0000
   6  -4   6   12230    1559                                                        3946   -1.85    0.00  1.0000
  -6   4  -6   11091    1360                                                        3312   -1.85    0.00  1.0000
   6  -4   7     736     622                                                         -71    1.05   -0.03  1.0000
   6  -4   8  226624   10837                                                      223364    0.13    0.02  1.0000
  -6   4  -9  149035    7964                                                      138941    0.51    0.01  1.0000
   6  -4   9   87500    5484                                                       79807    0.51   -0.01  1.0000
  -6   4 -10  153829    6216                                                      141497   -0.62    0.01  1.0000
   6  -3  -7  171207    7926                                                      183376    0.56    0.00  1.0000
   6  -3  -6     201      63                                                         425    0.25    0.01  1.0000
   6  -3  -6     705     366                                                        1088    0.25    0.01  1.0000
   6  -3  -6     627     752                                                         990    0.25    0.01  1.0000
   6  -3  -5  174697    9269                                                      145846    1.40   -0.02  1.0000
   6  -3  -5  173965    9087                                                      145177    1.40   -0.02  1.0000
   6  -3  -5  197431    9926                                                      166678    1.40   -0.02  1.0000
   6  -3  -4   57588    6835                                                       72857   -1.16    0.01  1.0000
   6  -3  -4   71922    7605                                                       88881   -1.16    0.01  1.0000
   6  -3  -4   75634    7731                                                       93002   -1.16    0.01  1.0000
   6  -3  -3  275031   13464                                                      269986   -0.19   -0.04  1.0000
   6  -3  -3  244172   12306                                                      239419   -0.19   -0.04  1.0000
   6  -3  -3  281827   13472                                                      276719   -0.19   -0.04  1.0000
   6  -3  -2   75337    4427                                                       32852    3.61    0.04  1.0000
   6  -3  -2   62667    3775                                                       24683    3.61    0.04  1.0000
   6  -3  -2   75087    4413                                                       32687    3.61    0.04  1.0000
   6  -3  -2   73079    4410                                                       31367    3.61    0.04  1.0000
   6  -3  -1  203081   11752                                                      243401   -1.65    0.00  1.0000
   6  -3   0   80390    7804                                                      112630    2.01    0.03  1.0000
   6  -3   1  342008   13749                                                      360122    0.59    0.00  1.0000
  -6   3  -2  126667    7588                                                      131726   -0.27    0.00  1.0000
  -6   3  -3   12422    2235                                                       10659    0.32    0.01  1.0000
  -6   3  -4  171176    9330                                                      158334   -0.61    0.00  1.0000
   6  -3   5   14394    4888                                                       39089    3.01   -0.01  1.0000
  -6   3  -5   28284    5978                                                       60474    3.01    0.01  1.0000
   6  -3   6  395008   17502                                                      470621   -2.23    0.02  1.0000
  -6   3  -6  462186   18354                                                      543706   -2.23   -0.02  1.0000
   6  -3   7  330225   15208                                                      359042    0.95    0.00  1.0000
   6  -3   8  274753   12775                                                      265086   -0.36    0.06  1.0000
   6  -3   9  250255   11192                                                      248133    0.08   -0.02  1.0000
  -6   3 -10       7     502                                                         672   -1.11   -0.02  1.0000
   6  -3  10     816     281                                                         -13   -1.11    0.02  1.0000
   6  -2  -7    7161    1402                                                        5705    0.35    0.01  1.0000
   6  -2  -6  283653   11866                                                      275275   -0.31   -0.02  1.0000
   6  -2  -6  195681    9101                                                      188733   -0.31   -0.02  1.0000
   6  -2  -5    2843     702                                                        1248   -0.70    0.00  1.0000
   6  -2  -5    9169    1897                                                        6048   -0.70    0.00  1.0000
   6  -2  -5    7722    1707                                                        4885   -0.70    0.00  1.0000
   6  -2  -4     229    1447                                                        2655   -1.41    0.00  1.0000
   6  -2  -4     125    1318                                                        2260   -1.41    0.00  1.0000
   6  -2  -4     250    1335                                                        2724   -1.41    0.00  1.0000
   6  -2  -4     223    1370                                                        2633   -1.41    0.00  1.0000
   6  -2  -3   45170    5203                                                       43332    0.17   -0.01  1.0000
   6  -2  -3   31365    4164                                                       29837    0.17   -0.01  1.0000
   6  -2  -3   49020    5438                                                       47104    0.17   -0.01  1.0000
   6  -2  -3   40014    4779                                                       38285    0.17   -0.01  1.0000
   6  -2  -2  231534   13198                                                      295860    2.43    0.02  1.0000
   6  -2  -2  253456   13699                                                      320576    2.43    0.02  1.0000
   6  -2  -2  285877   14507                                                      356917    2.43    0.02  1.0000
   6  -2  -2  287563   14595                                                      358800    2.43    0.02  1.0000
   6  -2  -1   72385   10034                                                      185967   -6.28   -0.01  1.0000
   6  -2   0  120397    6131                                                       73635    2.93   -0.01  1.0000
   6  -2   1  162777    6985                                                      102034   -3.25   -0.01  1.0000
  -6   2  -1  150962    5776                                                       92726   -3.25    0.01  1.0000
  -6   2  -2 1077041   21913                                                     1176130    1.81    0.01  1.0000
  -6   2  -3  211230   11452                                                      290458   -3.07   -0.03  1.0000
  -6   2  -4  305583   10538                                                      222773    3.13    0.02  1.0000
  -6   2  -5  291252   11129                                                      227382   -2.43   -0.03  1.0000
  -6   2  -6   29745    3983                                                       27752    0.23    0.00  1.0000
  -6   2  -6   28836    3885                                                       26874    0.23    0.00  1.0000
   6  -2   6   23515    3608                                                       21747    0.23    0.00  1.0000
   6  -2   7   20346    4728                                                       34679   -1.69    0.00  1.0000
  -6   2  -7   19505    4412                                                       33579   -1.69    0.00  1.0000
   6  -2   8  856997   25217                                                      982283    2.53   -0.05  1.0000
   6  -2   9   35306    2994                                                       15191   -2.50   -0.01  1.0000
  -6   2 -10   75779    4391                                                       50375    1.97    0.02  1.0000
   6  -2  10   79743    4973                                                       53617    1.97   -0.02  1.0000
  -6   2 -11   25204    2761                                                       28448   -0.38    0.01  1.0000
   6  -2  11   21183    2449                                                       24165   -0.38   -0.01  1.0000
   6  -1  -7  110175    5736                                                      105189    0.29    0.00  1.0000
   6  -1  -6   59239    5773                                                       66342   -0.55   -0.01  1.0000
   6  -1  -6   45565    4681                                                       51819   -0.55   -0.01  1.0000
   6  -1  -5  481414   16659                                                      506767    0.70    0.01  1.0000
   6  -1  -5  590174   19108                                                      618210    0.70    0.01  1.0000
   6  -1  -4    1131     410                                                        1148   -0.01    0.00  1.0000
   6  -1  -4     500     582                                                         512   -0.01    0.00  1.0000
   6  -1  -4    2285    1100                                                        2310   -0.01    0.00  1.0000
   6  -1  -4    1900    1184                                                        1923   -0.01    0.00  1.0000
   6  -1  -3  378858   13104                                                      291136    2.94    0.02  1.0000
   6  -1  -3  330522   11881                                                      248967    2.94    0.02  1.0000
   6  -1  -3  487649   15414                                                      387350    2.94    0.02  1.0000
   6  -1  -3  422758   14104                                                      329768    2.94    0.02  1.0000
   6  -1  -3  494761   15812                                                      393691    2.94    0.02  1.0000
   6  -1  -2   25871    3174                                                       19057   -0.88    0.00  1.0000
   6  -1  -2   28353    3459                                                       21196   -0.88    0.00  1.0000
   6  -1  -2   19928    2615                                                       14011   -0.88    0.00  1.0000
   6  -1  -2   26950    3195                                                       19985   -0.88    0.00  1.0000
   6  -1  -2   34428    3829                                                       26488   -0.88    0.00  1.0000
   6  -1  -2   31448    3731                                                       23882   -0.88    0.00  1.0000
   6  -1  -1  614980   16733                                                      547529   -1.71    0.01  1.0000
   6  -1   0    4331    3504                                                       26384    3.74   -0.01  1.0000
   6  -1   0     474    2471                                                       14018    3.74   -0.01  1.0000
  -6   1  -1  617323   13973                                                      548062    1.76    0.00  1.0000
   6  -1   1  634217   15637                                                      563987    1.76    0.00  1.0000
  -6   1  -2  695837   15336                                                      604858   -2.18   -0.01  1.0000
  -6   1  -3 1063458   22894                                                     1221110    2.86    0.01  1.0000
  -6   1  -4  145602    9104                                                      179618   -1.63    0.00  1.0000
  -6   1  -5  136076    8919                                                      158698    1.14   -0.01  1.0000
  -6   1  -6  566014   16761                                                      514991   -1.34   -0.01  1.0000
  -6   1  -7   76833    7639                                                      103053    1.70    0.01  1.0000
  -6   1  -7   65542    7615                                                       89906    1.70    0.01  1.0000
   6  -1   7   58099    7164                                                       81149    1.70   -0.01  1.0000
   6  -1   8   21478    4340                                                       29311    0.95    0.01  1.0000
  -6   1  -8   12485    3154                                                       18601    0.95   -0.01  1.0000
  -6   1  -9  233116    9994                                                      179132   -2.31   -0.07  1.0000
   6  -1   9  298834   12286                                                      237244   -2.31    0.07  1.0000
  -6   1 -10  306289   13256                                                      364098    1.93    0.02  1.0000
   6  -1  10  365207   15272                                                      428102    1.93   -0.02  1.0000
  -6   1 -11   57622    5340                                                       80906   -1.72    0.00  1.0000
  -6   1 -11   54034    5204                                                       76643   -1.72    0.00  1.0000
   6  -1  11   59776    5615                                                       83455   -1.72    0.00  1.0000
   6   0  -6  244176   10840                                                      256506   -0.48    0.03  1.0000
   6   0  -6  189909    9075                                                      200801   -0.48    0.03  1.0000
   6   0  -5   10141    1803                                                        6345    0.81   -0.01  1.0000
   6   0  -5   10951    2008                                                        6989    0.81   -0.01  1.0000
   6   0  -4  921685   24026                                                      872363   -1.01    0.03  1.0000
   6   0  -4  820075   22493                                                      773590   -1.01    0.03  1.0000
   6   0  -3  276362   12413                                                      285981    0.35   -0.01  1.0000
   6   0  -3  327223   14287                                                      337682    0.35   -0.01  1.0000
   6   0  -3  463345   17385                                                      475775    0.35   -0.01  1.0000
   6   0  -3  303973   13505                                                      314057    0.35   -0.01  1.0000
   6   0  -3  448446   17170                                                      460676    0.35   -0.01  1.0000
   6   0  -2  343980   15831                                                      440303   -2.98    0.00  1.0000
   6   0  -2  331266   15032                                                      425903   -2.98    0.00  1.0000
   6   0  -2  363895   16534                                                      462798   -2.98    0.00  1.0000
   6   0  -1  209516   10050                                                      212058    0.11   -0.01  1.0000
   6   0  -1  195367    9244                                                      197822    0.11   -0.01  1.0000
   6   0   0 1340461   25266                                                     1477730    2.24    0.01  1.0000
   6   0   0 1544586   27485                                                     1691690    2.24    0.01  1.0000
   6   0   1       5     844                                                        1294   -1.48   -0.01  1.0000
   6   0   1      94    1118                                                        2300   -1.48   -0.01  1.0000
   6   0   2 1060103   24162                                                     1360990   -5.30    0.03  1.0000
  -6   0  -2  971016   22088                                                     1259790   -5.30   -0.03  1.0000
  -6   0  -3  754682   20865                                                     1032980    5.71    0.03  1.0000
  -6   0  -4  852349   16184                                                      584862   -6.13   -0.02  1.0000
  -6   0  -5  120361    4648                                                       45509    5.17    0.03  1.0000
  -6   0  -6   53080    8041                                                      125420   -4.79    0.00  1.0000
  -6   0  -7 1618130   32446                                                     1961420    4.97    0.02  1.0000
  -6   0  -7 1521371   32633                                                     1854740    4.97    0.02  1.0000
  -6   0  -8   45998    8106                                                      102528   -4.09   -0.01  1.0000
   6   0   8   39655    7685                                                       92941   -4.09    0.01  1.0000
   6   0   9  604525   18786                                                      538978    1.68   -0.03  1.0000
   6   0  10  435669   16132                                                      427795   -0.23   -0.04  1.0000
  -6   0 -11   67261    5978                                                       80041    0.91   -0.06  1.0000
   6   0  11   83576    6687                                                       97759    0.91    0.06  1.0000
  -6   0 -12   92374    4999                                                       93035   -0.04    0.00  1.0000
   6   0  12   87930    4779                                                       88575   -0.04    0.00  1.0000
   6   1  -6   57884    4373                                                       52279   -0.46    0.00  1.0000
   6   1  -5  278881   12691                                                      286398   -0.27   -0.03  1.0000
   6   1  -5  248832   11684                                                      255936   -0.27   -0.03  1.0000
   6   1  -4    2709    1244                                                        1567    0.48    0.01  1.0000
   6   1  -4    2775     893                                                        1617    0.48    0.01  1.0000
   6   1  -3  173303   10098                                                      157160   -0.77   -0.02  1.0000
   6   1  -3  160627    9687                                                      145100   -0.77   -0.02  1.0000
   6   1  -2  350797   15748                                                      411779    1.91   -0.03  1.0000
   6   1  -2  338561   15483                                                      398512    1.91   -0.03  1.0000
   6   1  -1  330609   12781                                                      369245   -1.26    0.00  1.0000
   6   1  -1  364473   13809                                                      404986   -1.26    0.00  1.0000
   6   1   0  389968   14957                                                      572472    5.11   -0.02  1.0000
   6   1   0  531570   18593                                                      741723    5.11   -0.02  1.0000
   6   1   1  993622   14736                                                      623667   -8.01   -0.01  1.0000
   6   1   1 1427904   21025                                                      975886   -8.01   -0.01  1.0000
   6   1   2   96473    3395                                                       26892    5.67   -0.01  1.0000
   6   1   3 1513393   25486                                                     1510620    0.04    0.00  1.0000
   6   1   4 1336610   24379                                                     1400260    1.05   -0.01  1.0000
  -6  -1  -5 1772420   28831                                                     1753010   -0.28   -0.01  1.0000
  -6  -1  -6  327399   12507                                                      316375    0.38    0.02  1.0000
  -6  -1  -7   47449    5152                                                       52129    0.41    0.03  1.0000
   6   1   8  571015   17963                                                      517149   -1.41    0.02  1.0000
  -6  -1  -8  598146   17594                                                      542984   -1.41   -0.02  1.0000
  -6  -1  -9  452155   16494                                                      436943    0.44    0.11  1.0000
   6   1   9  438412   16817                                                      423435    0.44   -0.11  1.0000
   6   1  10  110370    7850                                                       99796    0.63    0.12  1.0000
   6   1  11  215460   10035                                                      192521   -0.98   -0.05  1.0000
  -6  -1 -12  169642    7471                                                      160395   -0.44    0.04  1.0000
   6   1  12  191615    7904                                                      181780   -0.44   -0.04  1.0000
   6   2  -6   90170    4952                                                       82914   -0.48    0.00  1.0000
   6   2  -5  260583   11447                                                      268412    0.29   -0.02  1.0000
   6   2  -4  306114   13619                                                      300822    0.19    0.03  1.0000
   6   2  -4  266044   12645                                                      261112    0.19    0.03  1.0000
   6   2  -3    4903    1655                                                        4433   -0.13   -0.02  1.0000
   6   2  -3    4362    1485                                                        3919   -0.13   -0.02  1.0000
   6   2  -2  681655   20829                                                      679944   -0.04    0.01  1.0000
   6   2  -2  606428   19481                                                      604815   -0.04    0.01  1.0000
   6   2  -1   53162    5007                                                       44845   -0.73    0.02  1.0000
   6   2  -1   74597    6185                                                       64680   -0.73    0.02  1.0000
   6   2  -1   69130    5499                                                       59597   -0.73    0.02  1.0000
   6   2   0  287443   11168                                                      249845    1.40    0.02  1.0000
   6   2   1   32889    1458                                                        4256   -4.49    0.00  1.0000
   6   2   2 1272220   27883                                                     1678130    6.48    0.03  1.0000
   6   2   3   13884    4026                                                       36275   -2.81   -0.02  1.0000
   6   2   4  646362   17108                                                      686531   -0.95    0.02  1.0000
   6   2   5  206820    8227                                                      163654   -1.94   -0.02  1.0000
  -6  -2  -6   20384    4039                                                       32954    1.50   -0.04  1.0000
  -6  -2  -7  152298    9758                                                      191536   -1.83   -0.02  1.0000
  -6  -2  -8   16100    1784                                                        6201    1.90   -0.24  1.0000
   6   2   8   15681    1857                                                        5940    1.90    0.24  1.0000
  -6  -2  -8   13501    1624                                                        4621    1.90   -0.24  1.0000
   6   2   9    8313    1418                                                        2796   -1.48   -0.05  1.0000
  -6  -2  -9    9792    1423                                                        3680   -1.48    0.05  1.0000
  -6  -2  -9    5648     952                                                        1358   -1.48    0.05  1.0000
  -6  -2 -10   48650    3501                                                       22483    2.74   -0.24  1.0000
   6   2  10   55731    4172                                                       27377    2.74    0.24  1.0000
  -6  -2 -10   64557    4596                                                       33665    2.74   -0.24  1.0000
   6   2  11  236490   13260                                                      312018   -2.80   -0.15  1.0000
  -6  -2 -12   76132    6464                                                      103538    1.77   -0.09  1.0000
   6   2  12   87329    6764                                                      116533    1.77    0.09  1.0000
   6   3  -5   79055    6566                                                      105903    1.71    0.01  1.0000
   6   3  -4  174497    9278                                                      154054   -0.98    0.00  1.0000
   6   3  -3  245393   11731                                                      217216    1.13   -0.01  1.0000
   6   3  -2  221769   12188                                                      268625   -1.83    0.01  1.0000
   6   3  -2  376969   16771                                                      437377   -1.83    0.01  1.0000
   6   3  -1  175540   11799                                                      237441    2.64    0.00  1.0000
   6   3  -1  145419   10637                                                      202179    2.64    0.00  1.0000
   6   3   0   53463    3914                                                       28366   -2.43   -0.03  1.0000
   6   3   1  390806   13266                                                      335719    1.77    0.02  1.0000
   6   3   2   95940    7301                                                      107026   -0.67    0.01  1.0000
   6   3   3 1055473   22833                                                     1102530    0.88    0.00  1.0000
   6   3   4    7348    1040                                                        2054   -5.07    0.01  1.0000
   6   3   5  147572    4627                                                       44430    6.71    0.00  1.0000
   6   3   5  158474    4582                                                       50499    6.71    0.00  1.0000
   6   3   6   15273     896                                                        2053   -3.03   -0.03  1.0000
   6   3   7  168749   11665                                                      237758    2.97    0.01  1.0000
  -6  -3  -7  177379   11136                                                      247982    2.97   -0.01  1.0000
  -6  -3  -8  328297   15509                                                      406516   -2.50    0.14  1.0000
  -6  -3  -8  320439   15050                                                      397767   -2.50    0.14  1.0000
   6   3   9   28732    4964                                                       38800    1.06   -0.26  1.0000
  -6  -3  -9   35866    5415                                                       47030    1.06    0.26  1.0000
  -6  -3  -9   32205    5053                                                       42821    1.06    0.26  1.0000
  -6  -3 -10  446420   14727                                                      414644   -0.94    0.17  1.0000
   6   3  10  511735   17587                                                      477673   -0.94   -0.17  1.0000
   6   3  11   98818    7774                                                      106628   -0.47   -0.07  1.0000
   6   3  12   19716    2400                                                       14753    0.73   -0.07  1.0000
   6   4  -5   53636    3812                                                       48754    0.42    0.03  1.0000
   6   4  -4  126222    7074                                                      106794   -1.10   -0.01  1.0000
   6   4  -3  105109    7555                                                       97572   -0.46    0.02  1.0000
   6   4  -2    3027     967                                                        1644    0.56    0.00  1.0000
   6   4  -1  376230   15200                                                      376608   -0.01    0.01  1.0000
   6   4  -1  281203   12907                                                      281530   -0.01    0.01  1.0000
   6   4   0  314491   12971                                                      309075   -0.19    0.00  1.0000
   6   4   0  292513   12542                                                      287290   -0.19    0.00  1.0000
   6   4   1      57     692                                                         723   -0.75    0.01  1.0000
   6   4   2  481790   15187                                                      421524    1.74    0.00  1.0000
   6   4   3   23399    2288                                                       10583   -1.94   -0.05  1.0000
   6   4   4 1454251   26563                                                     1474130    0.32    0.00  1.0000
   6   4   5   96999    4849                                                       49736    3.42   -0.01  1.0000
   6   4   5  106639    4965                                                       56703    3.42   -0.01  1.0000
   6   4   6  617083   20822                                                      795541   -4.12    0.00  1.0000
   6   4   7  137968   10241                                                      175863    1.85    0.05  1.0000
  -6  -4  -7  130441    9182                                                      167351    1.85   -0.05  1.0000
  -6  -4  -7  129895    9468                                                      166732    1.85   -0.05  1.0000
  -6  -4  -8   49093    3875                                                       24210   -2.55   -0.01  1.0000
   6   4   8   46552    3748                                                       22436   -2.55    0.01  1.0000
   6   4   8   35592    2987                                                       15051   -2.55    0.01  1.0000
  -6  -4  -8   49386    3861                                                       24416   -2.55   -0.01  1.0000
  -6  -4  -8   42833    3550                                                       19878   -2.55   -0.01  1.0000
  -6  -4  -9  198943    8924                                                      138201    2.87   -0.03  1.0000
   6   4   9  185119    8793                                                      126721    2.87    0.03  1.0000
   6   4  10  145610    8657                                                      122755   -1.22    0.43  1.0000
  -6  -4 -10  182197    9884                                                      156533   -1.22   -0.43  1.0000
   6   4  11  190087   11233                                                      223413    1.42    0.11  1.0000
  -6  -4 -11  201478   11339                                                      235749    1.42   -0.11  1.0000
   6   4  12   27731    3589                                                       31297   -0.40    0.08  1.0000
   6   5  -4  131299    6773                                                      129360    0.10   -0.04  1.0000
   6   5  -3  242954   11092                                                      244216    0.05   -0.01  1.0000
   6   5  -2   24565    4660                                                       37162    1.39   -0.02  1.0000
   6   5  -1  317459   14931                                                      367756   -1.66   -0.03  1.0000
   6   5  -1  263816   13258                                                      309831   -1.66   -0.03  1.0000
   6   5   0   29034    3390                                                       20664    1.03    0.02  1.0000
   6   5   0   26785    3381                                                       18774    1.03    0.02  1.0000
   6   5   0   30441    3624                                                       21853    1.03    0.02  1.0000
   6   5   1  594591   18242                                                      531301   -1.63   -0.05  1.0000
   6   5   1  568314   17502                                                      506478   -1.63   -0.05  1.0000
   6   5   2   16792    5223                                                       46321    3.31    0.03  1.0000
   6   5   2   15706    5123                                                       44507    3.31    0.03  1.0000
   6   5   3  466498   18936                                                      643125   -4.60   -0.03  1.0000
   6   5   4   31054    6578                                                       84185    4.41    0.06  1.0000
   6   5   5  740742   17472                                                      628287   -2.63   -0.01  1.0000
   6   5   5  831619   18210                                                      712190   -2.63   -0.01  1.0000
   6   5   6   16163    2744                                                       13721    0.39    0.00  1.0000
  -6  -5  -6   16334    2696                                                       13878    0.39    0.00  1.0000
   6   5   7   33457    4857                                                       39790   -0.64   -0.06  1.0000
   6   5   7   33487    4481                                                       39823   -0.64   -0.06  1.0000
  -6  -5  -7   40400    5197                                                       47332   -0.64    0.06  1.0000
  -6  -5  -7   26645    4202                                                       32326   -0.64    0.06  1.0000
  -6  -5  -8  251525   14072                                                      306753    2.02   -0.05  1.0000
  -6  -5  -8  231322   13146                                                      284397    2.02   -0.05  1.0000
  -6  -5  -9  142684    8288                                                      124353   -0.97    0.14  1.0000
  -6  -5  -9  171361    9744                                                      151213   -0.97    0.14  1.0000
   6   5  10    8369    1870                                                        6184    0.50    0.23  1.0000
  -6  -5 -10   11403    2300                                                        8831    0.50   -0.23  1.0000
   6   5  11   13631    1982                                                        6821   -1.39   -0.54  1.0000
  -6  -5 -11   12816    1898                                                        6239   -1.39    0.54  1.0000
   6   5  12  264746   10458                                                      275844    0.41    0.04  1.0000
  -6  -5 -12  274841   10800                                                      286146    0.41   -0.04  1.0000
   6   6  -3   56238    4255                                                       50124    0.51    0.05  1.0000
   6   6  -2  244697   10554                                                      229072   -0.62    0.01  1.0000
   6   6  -2  196840    8750                                                      182853   -0.62    0.01  1.0000
   6   6  -1  311572   13177                                                      315398    0.13    0.02  1.0000
   6   6  -1  289188   12699                                                      292874    0.13    0.02  1.0000
   6   6   0   30087    4101                                                       31752   -0.18    0.00  1.0000
   6   6   0   36163    4848                                                       37986   -0.18    0.00  1.0000
   6   6   1    1400     247                                                        -603    1.45    0.00  1.0000
   6   6   2  340904   14141                                                      319827   -0.71    0.01  1.0000
   6   6   2  428473   16134                                                      404802   -0.71    0.01  1.0000
   6   6   3  147084    8942                                                      135832   -0.58    0.02  1.0000
   6   6   3  179737   10272                                                      167275   -0.58    0.02  1.0000
   6   6   4  282299   11501                                                      244486    1.43    0.01  1.0000
   6   6   4  360134   13802                                                      317249    1.43    0.01  1.0000
   6   6   5     915     233                                                         252   -0.56    0.02  1.0000
   6   6   6  211416   10548                                                      201843   -0.41   -0.01  1.0000
  -6  -6  -6  200918   10530                                                      191588   -0.41    0.01  1.0000
   6   6   7    2068     799                                                         577    0.83    0.06  1.0000
  -6  -6  -7    2863     968                                                        1028    0.83   -0.06  1.0000
  -6  -6  -8   63213    6280                                                       61331    0.15   -0.01  1.0000
  -6  -6  -8   53293    5670                                                       51567    0.15   -0.01  1.0000
  -6  -6  -9  317155   13545                                                      280326   -1.30   -0.04  1.0000
  -6  -6  -9  312103   13009                                                      275578   -1.30   -0.04  1.0000
   6   6  10    1983    1216                                                        2545    0.23   -0.05  1.0000
  -6  -6 -10    5143    1897                                                        6028    0.23    0.05  1.0000
   6   6  11  227375   10539                                                      239160   -0.47   -0.09  1.0000
  -6  -6 -11  299606   12440                                                      313113   -0.47    0.09  1.0000
   6   6  12   15201    2691                                                       21335    0.88    0.20  1.0000
  -6  -6 -12   17127    2875                                                       23608    0.88   -0.20  1.0000
   6   7  -2   25278    3173                                                       29923   -0.54   -0.06  1.0000
   6   7  -2   18679    2675                                                       22699   -0.54   -0.06  1.0000
   6   7  -1     636     726                                                        1667    0.60    0.01  1.0000
   6   7  -1    1311    1139                                                        2684    0.60    0.01  1.0000
   6   7   0  437369   15492                                                      413384   -0.71   -0.02  1.0000
   6   7   1    6041    1319                                                        3425    0.74    0.03  1.0000
   6   7   2    1158    2296                                                        7438   -2.02    0.01  1.0000
   6   7   3  203190   12429                                                      231602    1.18   -0.02  1.0000
   6   7   4   35587    4219                                                       28996   -0.71   -0.01  1.0000
   6   7   5  253535   11979                                                      234749    0.74   -0.03  1.0000
   6   7   6   31318    2796                                                       14048   -2.26   -0.04  1.0000
  -6  -7  -6   26059    2610                                                       10606   -2.26    0.04  1.0000
  -6  -7  -7  248838   14351                                                      317547    2.50    0.01  1.0000
  -6  -7  -8    2926     848                                                        -516   -2.09    0.06  1.0000
  -6  -7  -9    6229    1138                                                        1902    1.37    0.00  1.0000
  -6  -7  -9    5241    1036                                                        1376    1.37    0.00  1.0000
  -6  -7 -10   54413    5177                                                       49406   -0.43    0.04  1.0000
   6   7  11   12374    1466                                                        6636    1.16    0.13  1.0000
  -6  -7 -11   14773    1802                                                        8423    1.16   -0.13  1.0000
   6   7  12   18975    2186                                                       19970   -0.14    0.03  1.0000
  -6  -7 -12   27473    2891                                                       28668   -0.14   -0.03  1.0000
   6   8  -1    1847    1135                                                        3353   -0.58    0.02  1.0000
   6   8   0  102515    7269                                                      113905    0.67    0.03  1.0000
   6   8   1  193081    9923                                                      178701   -0.65   -0.03  1.0000
   6   8   2   39375    4293                                                       28690    1.12    0.00  1.0000
   6   8   3    9484    2713                                                       11916   -0.46   -0.05  1.0000
   6   8   4  107375    8868                                                      129790    1.26    0.03  1.0000
   6   8   5   55625    4870                                                       42423   -1.16    0.01  1.0000
   6   8   6   89589    6423                                                       80179    0.63    0.00  1.0000
  -6  -8  -6   75645    6425                                                       67020    0.63    0.00  1.0000
  -6  -8  -7    1288     469                                                         541    0.52   -0.05  1.0000
  -6  -8  -8   31744    4133                                                       29321   -0.27   -0.03  1.0000
  -6  -8  -9     599     261                                                         797   -0.15    0.02  1.0000
  -6  -8  -9    1154     874                                                        1424   -0.15    0.02  1.0000
  -6  -8 -10   36815    4067                                                       36508    0.03   -0.03  1.0000
  -6  -8 -11      78     631                                                        -572   -0.34    0.05  1.0000
   6   9   0   57939    3950                                                       51783    0.51   -0.01  1.0000
   6   9   1   17865    2500                                                       15254   -0.39   -0.01  1.0000
   6   9   2   49263    4984                                                       53702    0.38    0.01  1.0000
   6   9   3   45021    5350                                                       56800   -1.01    0.01  1.0000
   6   9   4   41214    4130                                                       34607    0.66    0.03  1.0000
   6   9   5  136312    7389                                                      115137   -1.16   -0.01  1.0000
  -6  -9  -6   41431    5446                                                       52712    1.01    0.02  1.0000
  -6  -9  -7   23771    3896                                                       29316   -0.66   -0.02  1.0000
  -6  -9  -8      67     342                                                         399    0.46    0.03  1.0000
  -6  -9  -8    1919    1052                                                        3092    0.46    0.03  1.0000
  -6  -9  -9   52995    4606                                                       44891   -0.71    0.00  1.0000
  -6  -9  -9   44943    3938                                                       37507   -0.71    0.00  1.0000
  -6  -9 -10   23829    2476                                                       17835    0.81   -0.01  1.0000
  -6  -9 -11     878     453                                                        1434   -0.32   -0.04  1.0000
   6  10   2   12537    1626                                                        9196   -0.62    0.00  1.0000
   6  10   3   13750    2393                                                       17483    0.58    0.00  1.0000
   6  10   4   26387    2988                                                       26584   -0.02    0.01  1.0000
  -6 -10  -5      53     331                                                         -20    0.28    0.02  1.0000
  -6 -10  -6  124173    7326                                                      123309   -0.05   -0.01  1.0000
  -6 -10  -7     189     164                                                         369    0.21    0.00  1.0000
  -6 -10  -8   43272    4149                                                       46462   -0.29    0.00  1.0000
  -6 -10  -8   31825    3348                                                       34568   -0.29    0.00  1.0000
  -6 -10  -9       2     453                                                         -56    0.05    0.02  1.0000
  -6 -10  -9     121     170                                                         148    0.05    0.02  1.0000
  -6 -11  -6    1723     601                                                        1770   -0.02    0.00  1.0000
  -6 -11  -7   10133    1466                                                        9613   -0.10    0.01  1.0000
   7  -9  -2   12236    1635                                                       11714   -0.09    0.00  1.0000
   7  -9  -1   33792    3069                                                       31877   -0.20    0.01  1.0000
   7  -9  -1   24043    2515                                                       22432   -0.20    0.01  1.0000
   7  -9   0   12103    2115                                                       13695   -0.27    0.00  1.0000
   7  -9   0    7954    1690                                                        9254   -0.27    0.00  1.0000
   7  -9   1    5362    1221                                                        4809    0.15    0.01  1.0000
   7  -9   2    9023    1427                                                        7412   -0.34   -0.01  1.0000
   7  -9   2   17408    1977                                                       15140   -0.34   -0.01  1.0000
   7  -9   3     257     264                                                         584    0.32    0.01  1.0000
   7  -8  -4   44010    3228                                                       42052   -0.18    0.00  1.0000
   7  -8  -3    1248     723                                                        1447   -0.10   -0.01  1.0000
   7  -8  -2   17674    2377                                                       18053   -0.05    0.01  1.0000
   7  -8  -2   21623    2967                                                       22041   -0.05    0.01  1.0000
   7  -8  -1     103     141                                                          65   -0.08   -0.01  1.0000
   7  -8  -1       4     241                                                         -88   -0.08   -0.01  1.0000
   7  -8   0    9444    1974                                                        9174   -0.05    0.02  1.0000
   7  -8   1   13068    2351                                                       12214    0.15    0.00  1.0000
   7  -8   1   20866    2746                                                       19783    0.15    0.00  1.0000
   7  -8   2    5876    1281                                                        3893   -0.55    0.00  1.0000
   7  -8   2   13377    2047                                                       10281   -0.55    0.00  1.0000
   7  -8   3   37234    4058                                                       38495    0.13    0.00  1.0000
   7  -8   3   65540    5263                                                       67209    0.13    0.00  1.0000
   7  -8   4    8850    1813                                                        8988    0.03   -0.01  1.0000
   7  -8   5   36579    3474                                                       40560   -0.39   -0.03  1.0000
   7  -7  -5   13289    1840                                                       13565    0.05    0.03  1.0000
   7  -7  -4     285     627                                                         857    0.48   -0.02  1.0000
   7  -7  -3   40641    4269                                                       38996   -0.16    0.00  1.0000
   7  -7  -2    4586    1421                                                        4626   -0.01    0.00  1.0000
   7  -7  -1   72097    6387                                                       70805    0.09   -0.01  1.0000
   7  -7   0      35     301                                                         173    0.28   -0.01  1.0000
   7  -7   1   65157    6554                                                       71543    0.47   -0.02  1.0000
   7  -7   2   67680    6098                                                       72072   -0.32   -0.01  1.0000
   7  -7   3       6     289                                                         624    1.06    0.00  1.0000
   7  -7   4   56913    5278                                                       53799   -0.26    0.00  1.0000
   7  -7   5   18160    3015                                                       18422   -0.04    0.02  1.0000
   7  -7   6   65784    4787                                                       62931    0.22    0.03  1.0000
   7  -6  -5   15531    2272                                                       14311   -0.19   -0.01  1.0000
   7  -6  -4   19340    2930                                                       18261    0.15   -0.03  1.0000
   7  -6  -3    1696    1220                                                        3657   -0.75    0.02  1.0000
   7  -6  -2  124492    9124                                                      132135    0.41    0.01  1.0000
   7  -6  -1    1740    1019                                                        1540    0.10    0.01  1.0000
   7  -6   0   60693    6349                                                       60575    0.01    0.00  1.0000
   7  -6   1   27645    3988                                                       24502   -0.38    0.01  1.0000
   7  -6   2  135367    8019                                                      116963   -1.00    0.01  1.0000
   7  -6   3    2800     407                                                         463    1.22    0.01  1.0000
   7  -6   4     491     599                                                         512   -1.73    0.01  1.0000
   7  -6   5   13669    3420                                                       19871    0.93    0.01  1.0000
  -7   6  -6   12070    2351                                                       13075   -0.17    0.01  1.0000
   7  -6   6    6052    1864                                                        6769   -0.17   -0.01  1.0000
  -7   6  -7    2518    1066                                                        2932    0.15    0.01  1.0000
   7  -6   7     410     388                                                         587    0.15   -0.01  1.0000
   7  -6   7    3040    1145                                                        3493    0.15   -0.01  1.0000
  -7   6  -8   39985    2921                                                       35312   -0.47   -0.01  1.0000
   7  -5  -5   38159    4130                                                       42744    0.44    0.01  1.0000
   7  -5  -4   26995    4157                                                       33451    0.72    0.02  1.0000
   7  -5  -3  131248    9511                                                      148328   -0.88    0.01  1.0000
   7  -5  -2     645     546                                                         194    1.52    0.01  1.0000
   7  -5  -2    1291     316                                                          12    1.52    0.01  1.0000
   7  -5  -1  275430   12163                                                      252815   -0.85   -0.02  1.0000
   7  -5  -1  198937   10803                                                      179790   -0.85   -0.02  1.0000
   7  -5   0   27009    4268                                                       28380    0.16    0.01  1.0000
   7  -5   0   39729    4707                                                       41388    0.16    0.01  1.0000
   7  -5   1   44096    5749                                                       50121   -0.54   -0.01  1.0000
   7  -5   1   41464    5403                                                       47313   -0.54   -0.01  1.0000
   7  -5   2   47386    6224                                                       57614    0.86    0.01  1.0000
   7  -5   2   34941    5189                                                       43794    0.86    0.01  1.0000
   7  -5   3   12936    3268                                                       15848    0.47   -0.02  1.0000
   7  -5   3   25714    4374                                                       29760    0.47   -0.02  1.0000
   7  -5   4   43909    6053                                                       52477   -0.76    0.01  1.0000
   7  -5   4   70942    7273                                                       81730   -0.76    0.01  1.0000
   7  -5   5   31482    4327                                                       28324    0.35   -0.03  1.0000
   7  -5   6  197391   11261                                                      203606    0.27    0.00  1.0000
  -7   5  -7    2517    1731                                                        6427   -1.16    0.01  1.0000
   7  -5   7    1237    1421                                                        4248   -1.16   -0.01  1.0000
  -7   5  -8  103630    6190                                                       93707    0.61   -0.01  1.0000
   7  -5   8   70942    4904                                                       62775    0.61    0.01  1.0000
  -7   5  -9   51722    3618                                                       50291   -0.12    0.01  1.0000
   7  -4  -6   65274    4161                                                       71852   -0.49   -0.01  1.0000
   7  -4  -5  103589    6649                                                      100884    0.16    0.02  1.0000
   7  -4  -5  120103    6518                                                      117189    0.16    0.02  1.0000
   7  -4  -4    3638    1614                                                        4933   -0.38   -0.02  1.0000
   7  -4  -4    4923    1810                                                        6413   -0.38   -0.02  1.0000
   7  -4  -3   62703    5493                                                       47108   -1.29   -0.01  1.0000
   7  -4  -3   65957    5680                                                       49934   -1.29   -0.01  1.0000
   7  -4  -2  329110   13739                                                      294679    1.19   -0.02  1.0000
   7  -4  -2  327062   13957                                                      292741    1.19   -0.02  1.0000
   7  -4  -1    5435     712                                                        1498   -1.35    0.00  1.0000
   7  -4  -1    6429    1153                                                        2040   -1.35    0.00  1.0000
   7  -4  -1    5762    1023                                                        1672   -1.35    0.00  1.0000
   7  -4  -1    8230    1322                                                        3103   -1.35    0.00  1.0000
   7  -4   0  506105   18105                                                      514972    0.24   -0.01  1.0000
   7  -4   0  616952   20008                                                      626738    0.24   -0.01  1.0000
   7  -4   1    5394    1910                                                        7497    0.51    0.00  1.0000
   7  -4   1    6710    2322                                                        9035    0.51    0.00  1.0000
   7  -4   1    4228    1854                                                        6109    0.51    0.00  1.0000
   7  -4   2  361401   14803                                                      349832    0.38    0.00  1.0000
   7  -4   2  369775   14586                                                      358071    0.38    0.00  1.0000
   7  -4   3  306173   13499                                                      290348   -0.56    0.00  1.0000
  -7   4  -3  312088   12801                                                      296109   -0.56    0.00  1.0000
   7  -4   4  170838   10217                                                      156602   -0.68    0.00  1.0000
  -7   4  -4  188084   10202                                                      173131   -0.68    0.00  1.0000
   7  -4   5  134456    9214                                                      120396    0.76    0.01  1.0000
   7  -4   5  188715   10403                                                      171986    0.76    0.01  1.0000
   7  -4   6    4242    1912                                                        5068    0.23    0.02  1.0000
   7  -4   7  494673   17052                                                      467650   -0.75    0.01  1.0000
   7  -4   8   37045    3543                                                       23545    1.51   -0.02  1.0000
  -7   4  -9  143697    7960                                                      158032   -0.71   -0.01  1.0000
   7  -4   9   95503    6353                                                      107252   -0.71    0.01  1.0000
   7  -3  -6  111565    5611                                                      106889   -0.27    0.01  1.0000
   7  -3  -5    4537     827                                                        1782    0.97   -0.01  1.0000
   7  -3  -5    7472    1170                                                        3759    0.97   -0.01  1.0000
   7  -3  -5    4822     813                                                        1963    0.97   -0.01  1.0000
   7  -3  -4   63222    6311                                                       72800   -0.71    0.00  1.0000
   7  -3  -4   74727    7048                                                       85111   -0.71    0.00  1.0000
   7  -3  -3  132927    9655                                                      142085    0.48   -0.01  1.0000
   7  -3  -3  122244    9193                                                      131033    0.48   -0.01  1.0000
   7  -3  -2  164695   11572                                                      201390    1.66    0.01  1.0000
   7  -3  -2  154189   11125                                                      189754    1.66    0.01  1.0000
   7  -3  -1  406110   16752                                                      434194   -0.84    0.01  1.0000
   7  -3  -1  247099   12744                                                      269108   -0.84    0.01  1.0000
   7  -3  -1  324593   14907                                                      349750   -0.84    0.01  1.0000
   7  -3  -1  477136   18163                                                      507537   -0.84    0.01  1.0000
   7  -3   0    4688    1604                                                        4827    0.04    0.00  1.0000
   7  -3   0    7407    2107                                                        7582    0.04    0.00  1.0000
   7  -3   0    7998    2227                                                        8180    0.04    0.00  1.0000
   7  -3   1  399528   16232                                                      434436    1.05    0.00  1.0000
   7  -3   1  403312   15363                                                      438382    1.05    0.00  1.0000
  -7   3  -2    3516    2445                                                       13018   -2.12   -0.01  1.0000
   7  -3   2    5120    3095                                                       15967   -2.12    0.01  1.0000
   7  -3   2    1652    2097                                                        9109   -2.12    0.01  1.0000
  -7   3  -3  426226   14452                                                      388099    1.16    0.02  1.0000
   7  -3   3  444716   15511                                                      405751    1.16   -0.02  1.0000
  -7   3  -4   94934    6447                                                       69738   -1.70    0.01  1.0000
   7  -3   4  105231    6920                                                       78601   -1.70   -0.01  1.0000
  -7   3  -5   48922    7512                                                       91497    3.15    0.00  1.0000
   7  -3   5   56200    7807                                                      101357    3.15    0.00  1.0000
   7  -3   5   38054    7071                                                       76384    3.15    0.00  1.0000
   7  -3   6   49995    6880                                                       82774   -2.48    0.01  1.0000
   7  -3   6   42689    7130                                                       73290   -2.48    0.01  1.0000
  -7   3  -6   43584    6835                                                       74461   -2.48   -0.01  1.0000
   7  -3   7   40805    5999                                                       53419    1.13   -0.03  1.0000
   7  -3   8   28756    3883                                                       25140   -0.43    0.01  1.0000
   7  -3   9   15263    2829                                                       15929   -0.10    0.02  1.0000
  -7   3 -10  145756    7494                                                      158487   -0.63   -0.01  1.0000
   7  -3  10  100215    5988                                                      110817   -0.63    0.01  1.0000
   7  -2  -6    2368     576                                                        1428   -0.42    0.01  1.0000
   7  -2  -6    1685     501                                                         910   -0.42    0.01  1.0000
   7  -2  -5  438824   14103                                                      433223   -0.16   -0.02  1.0000
   7  -2  -5  368952   12896                                                      363818   -0.16   -0.02  1.0000
   7  -2  -4       9     514                                                        1037   -1.13    0.02  1.0000
   7  -2  -4       1     700                                                         784   -1.13    0.02  1.0000
   7  -2  -4      24     759                                                        1157   -1.13    0.02  1.0000
   7  -2  -3   45164    5105                                                       41800    0.31   -0.04  1.0000
   7  -2  -3   36118    4367                                                       33117    0.31   -0.04  1.0000
   7  -2  -3   50987    5166                                                       47408    0.31   -0.04  1.0000
   7  -2  -3   52452    5599                                                       48822    0.31   -0.04  1.0000
   7  -2  -2  140410    9689                                                      160943    1.02    0.03  1.0000
   7  -2  -2  162530   10757                                                      184568    1.02    0.03  1.0000
   7  -2  -1  162484    7942                                                       98507   -3.45   -0.01  1.0000
   7  -2  -1  176894    8249                                                      109795   -3.45   -0.01  1.0000
   7  -2  -1  154034    7473                                                       91953   -3.45   -0.01  1.0000
   7  -2  -1  182087    8474                                                      113894   -3.45   -0.01  1.0000
   7  -2   0   97043    6246                                                       70468    1.78    0.00  1.0000
   7  -2   0   95660    6392                                                       69289    1.78    0.00  1.0000
   7  -2   0  109833    6836                                                       81424    1.78    0.00  1.0000
   7  -2   1  128009    8705                                                      135140   -0.38   -0.01  1.0000
  -7   2  -2  180399    9347                                                      186676    0.28   -0.01  1.0000
   7  -2   2  171958    9870                                                      178088    0.28    0.01  1.0000
  -7   2  -3   23645    3863                                                       30019    0.75    0.01  1.0000
  -7   2  -4    3257    1561                                                        4161    0.29    0.00  1.0000
  -7   2  -5  153117   10076                                                      170041    0.81   -0.02  1.0000
  -7   2  -5  118811    8499                                                      133772    0.81   -0.02  1.0000
   7  -2   5  104742    8340                                                      118816    0.81    0.02  1.0000
   7  -2   5  146206    9673                                                      162753    0.81    0.02  1.0000
  -7   2  -6  186389    9369                                                      140335   -2.21    0.00  1.0000
  -7   2  -6  174197    8969                                                      129783   -2.21    0.00  1.0000
   7  -2   6  152782    8335                                                      111395   -2.21    0.00  1.0000
   7  -2   6  168037    8346                                                      124474   -2.21    0.00  1.0000
   7  -2   7   97774    7421                                                       81265    1.07   -0.02  1.0000
  -7   2  -7   89671    6712                                                       73894    1.07    0.02  1.0000
   7  -2   8   53931    5824                                                       53131   -0.07    0.04  1.0000
   7  -2   9  345915   14081                                                      347676    0.06   -0.01  1.0000
   7  -2  10   34643    3923                                                       35249   -0.06    0.00  1.0000
  -7   2 -11   14682    1579                                                        9516    0.91    0.02  1.0000
   7  -2  11   12216    1343                                                        7553    0.91   -0.02  1.0000
   7  -1  -6   18338    2149                                                       18648   -0.04   -0.01  1.0000
   7  -1  -5   78311    6170                                                       82667    0.30    0.00  1.0000
   7  -1  -5   59959    5310                                                       63777    0.30    0.00  1.0000
   7  -1  -4  551630   18108                                                      576840    0.65   -0.01  1.0000
   7  -1  -4  512011   17733                                                      536309    0.65   -0.01  1.0000
   7  -1  -3  292866   13946                                                      322253    1.03    0.01  1.0000
   7  -1  -3  312143   14874                                                      342459    1.03    0.01  1.0000
   7  -1  -2  110792    8080                                                      103793    0.41    0.02  1.0000
   7  -1  -2  128081    8801                                                      120547    0.41    0.02  1.0000
   7  -1  -2  124346    8215                                                      116924    0.41    0.02  1.0000
   7  -1  -1  329948   12473                                                      250032   -2.88    0.01  1.0000
   7  -1  -1  290806   11192                                                      216118   -2.88    0.01  1.0000
   7  -1   0  240571   14553                                                      369510    4.54   -0.03  1.0000
   7  -1   0  266179   14947                                                      401092    4.54   -0.03  1.0000
   7  -1   0  228261   13929                                                      354215    4.54   -0.03  1.0000
   7  -1   1  612109   19057                                                      691020   -1.89    0.02  1.0000
  -7   1  -2   79298    5600                                                       68887    0.74    0.01  1.0000
   7  -1   2   72381    5578                                                       62452    0.74   -0.01  1.0000
  -7   1  -3 1567715   26941                                                     1455390   -1.77   -0.02  1.0000
  -7   1  -4   67756    5357                                                       52794    1.18    0.01  1.0000
  -7   1  -5  125324    9797                                                      168573   -2.19   -0.04  1.0000
  -7   1  -6  286429   13792                                                      313505    0.96    0.02  1.0000
  -7   1  -6  260595   12988                                                      286450    0.96    0.02  1.0000
  -7   1  -7   53848    5486                                                       49669   -0.36   -0.02  1.0000
  -7   1  -7   62775    6104                                                       58256   -0.36   -0.02  1.0000
   7  -1   7   50211    5430                                                       46179   -0.36    0.02  1.0000
  -7   1  -8  422936   15792                                                      368123    1.69    0.01  1.0000
   7  -1   8  372687   14604                                                      321349    1.69   -0.01  1.0000
   7  -1   9  108091    6408                                                       67669   -2.66   -0.01  1.0000
   7  -1  10  376729   15180                                                      435472    1.78   -0.04  1.0000
   7  -1  11    9914    2616                                                       19077   -1.49    0.00  1.0000
   7   0  -5  169421    8279                                                      162146    0.35    0.00  1.0000
   7   0  -4   10831    2137                                                        7671   -0.64    0.03  1.0000
   7   0  -4    8404    1933                                                        5653   -0.64    0.03  1.0000
   7   0  -3  616914   19744                                                      620553    0.09    0.01  1.0000
   7   0  -3  594196   19693                                                      597767    0.09    0.01  1.0000
   7   0  -2   22421    4597                                                       37906   -1.74    0.00  1.0000
   7   0  -2   22784    4868                                                       38377   -1.74    0.00  1.0000
   7   0  -2   31087    5531                                                       48962   -1.74    0.00  1.0000
   7   0  -2   30531    5606                                                       48263   -1.74    0.00  1.0000
   7   0  -1  346245   14558                                                      334373    0.39   -0.02  1.0000
   7   0  -1  359738   13925                                                      347635    0.39   -0.02  1.0000
   7   0   0 1278793   27953                                                     1423390    2.41    0.01  1.0000
   7   0   0 1273561   27142                                                     1417870    2.41    0.01  1.0000
   7   0   1  184380    8306                                                      148596   -1.70    0.02  1.0000
   7   0   1  254968   10537                                                      212549   -1.70    0.02  1.0000
  -7   0  -2  425850   15485                                                      513412   -2.47   -0.02  1.0000
   7   0   2  352896   13879                                                      432972   -2.47    0.02  1.0000
  -7   0  -3    1648    2928                                                       16204    3.35    0.03  1.0000
   7   0   3    1646    2639                                                       16197    3.35   -0.03  1.0000
  -7   0  -4 2415197   34321                                                     2232830   -2.31   -0.02  1.0000
  -7   0  -5    4211    3022                                                       16301    2.43    0.04  1.0000
  -7   0  -6  116439    9062                                                      140960   -1.32    0.00  1.0000
  -7   0  -6   92460    8062                                                      114438   -1.32    0.00  1.0000
  -7   0  -7  235395   13083                                                      286559    1.94    0.02  1.0000
  -7   0  -7  245831   13856                                                      298062    1.94    0.02  1.0000
  -7   0  -8   45486    4574                                                       36755   -0.83   -0.03  1.0000
  -7   0  -8   68868    6171                                                       58017   -0.83   -0.03  1.0000
   7   0   8   60251    5586                                                       50132   -0.83    0.03  1.0000
   7   0   9    8004    2692                                                       12049   -0.79    0.00  1.0000
  -7   0  -9    9351    2918                                                       13690   -0.79    0.00  1.0000
   7   0  10    5850    3164                                                       16902    2.07    0.01  1.0000
  -7   0 -11  254159    8963                                                      232928   -0.83   -0.07  1.0000
   7   0  11  372461   12407                                                      346662   -0.83    0.07  1.0000
   7   0  12   13948    2201                                                       19643    0.85    0.03  1.0000
   7   1  -5    7140    1870                                                        9320    0.47    0.00  1.0000
   7   1  -4  559255   17682                                                      581683   -0.57    0.00  1.0000
   7   1  -3   43580    5552                                                       48123    0.41   -0.02  1.0000
   7   1  -3   38138    5111                                                       42395    0.41   -0.02  1.0000
   7   1  -2  324588   14288                                                      318878   -0.19   -0.03  1.0000
   7   1  -2  313323   14142                                                      307713   -0.19   -0.03  1.0000
   7   1  -1  121238    8293                                                      108401    0.73    0.00  1.0000
   7   1  -1  149391    9074                                                      135102    0.73    0.00  1.0000
   7   1  -1  152311    9213                                                      137879    0.73    0.00  1.0000
   7   1   0  128312    8359                                                      118213    0.56    0.01  1.0000
   7   1   0  130839    8088                                                      120639    0.56    0.01  1.0000
   7   1   0  138517    8405                                                      128016    0.56    0.01  1.0000
   7   1   0  136196    8260                                                      125785    0.56    0.01  1.0000
   7   1   1  778429   18622                                                      634038   -3.33   -0.01  1.0000
   7   1   2  973042   23122                                                      989470    0.32   -0.01  1.0000
   7   1   3  248308    8929                                                      149667    4.31   -0.01  1.0000
  -7  -1  -4    3188    3930                                                       28360   -4.33   -0.01  1.0000
  -7  -1  -5  433438   17760                                                      563307    3.57   -0.01  1.0000
  -7  -1  -6   36070    6893                                                       82756   -3.78    0.01  1.0000
  -7  -1  -7  290358   11028                                                      208632    3.18   -0.01  1.0000
  -7  -1  -7  296898   11569                                                      214182    3.18   -0.01  1.0000
  -7  -1  -8  280424   10222                                                      182660   -3.95    0.03  1.0000
   7   1   8  324830   11607                                                      218813   -3.95   -0.03  1.0000
  -7  -1  -9   32217    5969                                                       56159    2.22    0.07  1.0000
   7   1   9   24076    5368                                                       45220    2.22   -0.07  1.0000
   7   1  10  335299   14747                                                      364177   -0.94   -0.02  1.0000
   7   1  11   19378    3024                                                       19335   -0.01    0.03  1.0000
  -7  -1 -12   64727    3758                                                       55022   -0.77    0.09  1.0000
   7   1  12  101213    5291                                                       88979   -0.77   -0.09  1.0000
   7   2  -5   48707    3902                                                       50142    0.12    0.00  1.0000
   7   2  -4    1485     472                                                        1027    0.25    0.00  1.0000
   7   2  -3  266448   11500                                                      276727   -0.38   -0.01  1.0000
   7   2  -3  394235   15578                                                      406718   -0.38   -0.01  1.0000
   7   2  -2  241721   11353                                                      218625    0.93    0.00  1.0000
   7   2  -2  336592   14018                                                      309233    0.93    0.00  1.0000
   7   2  -1  237749   11412                                                      207034   -1.26    0.02  1.0000
   7   2  -1  300681   12874                                                      266007   -1.26    0.02  1.0000
   7   2   0   31161    2980                                                       14473    2.18    0.00  1.0000
   7   2   0   32627    2918                                                       15478    2.18    0.00  1.0000
   7   2   0   31781    2890                                                       14897    2.18    0.00  1.0000
   7   2   1  262940   14588                                                      374607   -3.84   -0.05  1.0000
   7   2   2 1083045   28527                                                     1453080    6.37    0.04  1.0000
   7   2   3  618606   16751                                                      513664   -2.70   -0.03  1.0000
   7   2   4  837359   21378                                                      863321   -0.54    0.01  1.0000
  -7  -2  -5  188610    9967                                                      177052   -0.52    0.00  1.0000
  -7  -2  -6  291148   13617                                                      321335    1.06    0.00  1.0000
  -7  -2  -7   52477    5486                                                       52399    0.01   -0.04  1.0000
  -7  -2  -7   50972    5916                                                       50895    0.01   -0.04  1.0000
  -7  -2  -8   18921    3152                                                       17745    0.17   -0.10  1.0000
   7   2   8   20912    3357                                                       19676    0.17    0.10  1.0000
   7   2   9  492630   18018                                                      523029    0.83   -0.03  1.0000
  -7  -2  -9  511861   17467                                                      542839    0.83    0.03  1.0000
  -7  -2 -10    7136    1577                                                        4779    0.65   -0.26  1.0000
   7   2  10    6444    1583                                                        4211    0.65    0.26  1.0000
   7   2  11  287630   12803                                                      320976   -1.17   -0.11  1.0000
  -7  -2 -12   12451    2322                                                       16806    0.70   -0.05  1.0000
   7   2  12   24141    3271                                                       30076    0.70    0.05  1.0000
   7   3  -4  113299    6621                                                      109660   -0.21    0.01  1.0000
   7   3  -3  121960    8025                                                      120791   -0.06   -0.01  1.0000
   7   3  -2  139378    8721                                                      143718   -0.22    0.01  1.0000
   7   3  -2  226811   11842                                                      232339   -0.22    0.01  1.0000
   7   3  -1    5852    1681                                                        4541    0.35    0.00  1.0000
   7   3  -1    8092    2045                                                        6536    0.35    0.00  1.0000
   7   3   0  600043   18551                                                      599633   -0.01    0.00  1.0000
   7   3   0  496626   17352                                                      496253   -0.01    0.00  1.0000
   7   3   1  269797   13406                                                      296802   -0.98    0.00  1.0000
   7   3   1  190722   10855                                                      213529   -0.98    0.00  1.0000
   7   3   2  165205    8402                                                      120380    2.30    0.09  1.0000
   7   3   2  120200    6727                                                       82485    2.30    0.09  1.0000
   7   3   3  161989    7504                                                       99736   -3.35   -0.01  1.0000
   7   3   4  174051    9696                                                      172371   -0.08    0.04  1.0000
   7   3   5  610579   16963                                                      554047    1.43   -0.01  1.0000
  -7  -3  -6   18204    2970                                                       15067    0.47   -0.02  1.0000
   7   3   6   15955    2714                                                       13027    0.47    0.02  1.0000
  -7  -3  -7   80871    5936                                                       60916   -1.45    0.06  1.0000
  -7  -3  -7   88881    6670                                                       67894   -1.45    0.06  1.0000
   7   3   7   97863    6685                                                       75771   -1.45   -0.06  1.0000
   7   3   8    3271    1008                                                        1856    0.55    0.00  1.0000
  -7  -3  -8    2553     907                                                        1326    0.55    0.00  1.0000
  -7  -3  -8    1965     765                                                         913    0.55    0.00  1.0000
   7   3   9    8046    3146                                                       17306   -1.62   -0.24  1.0000
  -7  -3  -9   10813    3563                                                       21274   -1.62    0.24  1.0000
  -7  -3  -9    8678    3259                                                       18228   -1.62    0.24  1.0000
  -7  -3 -10    5373    2427                                                       10341    1.10   -0.09  1.0000
   7   3  10    5990    2525                                                       11192    1.10    0.09  1.0000
  -7  -3 -10    7682    2694                                                       13466    1.10   -0.09  1.0000
   7   3  11    3847    1071                                                        1828   -2.03   -0.33  1.0000
   7   3  12  145347    6392                                                      111398    1.84    0.11  1.0000
   7   4  -4   18951    2781                                                       27330   -1.07   -0.01  1.0000
   7   4  -3  431475   14198                                                      457003    0.74    0.02  1.0000
   7   4  -2   37628    4137                                                       31346   -0.66   -0.01  1.0000
   7   4  -1   61286    5129                                                       47347    1.16    0.02  1.0000
   7   4  -1   94606    6669                                                       77071    1.16    0.02  1.0000
   7   4   0   41130    3726                                                       24206   -1.83   -0.03  1.0000
   7   4   1  321378   14962                                                      357083    1.19    0.03  1.0000
   7   4   1  310123   14381                                                      345214    1.19    0.03  1.0000
   7   4   2   75306    7411                                                       88933   -0.92   -0.04  1.0000
   7   4   2   74243    7206                                                       87778   -0.92   -0.04  1.0000
   7   4   3  668461   19703                                                      650415    0.43   -0.05  1.0000
   7   4   3  642970   19309                                                      625274    0.43   -0.05  1.0000
   7   4   4   40267    4058                                                       29292   -1.14   -0.05  1.0000
   7   4   4   42110    4259                                                       30867   -1.14   -0.05  1.0000
   7   4   5  241988   13630                                                      349771    3.85    0.01  1.0000
   7   4   5  289823   15458                                                      406845    3.85    0.01  1.0000
   7   4   6   63346    8678                                                      128098   -4.11   -0.03  1.0000
  -7  -4  -7    2593    2656                                                       12045    2.28   -0.05  1.0000
   7   4   7    5639    3227                                                       17936    2.28    0.05  1.0000
  -7  -4  -7    2133    2542                                                       11028    2.28   -0.05  1.0000
  -7  -4  -8  368666   14655                                                      321287   -1.56    0.03  1.0000
  -7  -4  -9   27660    2659                                                       12027    2.19   -0.09  1.0000
   7   4   9   22786    2351                                                        8893    2.19    0.09  1.0000
  -7  -4  -9   29088    2767                                                       12976    2.19   -0.09  1.0000
  -7  -4 -10   12594    2981                                                       16646   -0.65   -0.09  1.0000
   7   4  10    8701    2650                                                       12116   -0.65    0.09  1.0000
  -7  -4 -10   12029    3032                                                       15995   -0.65   -0.09  1.0000
   7   4  11  157535    9223                                                      175274    0.84    0.10  1.0000
  -7  -4 -11  157277    9229                                                      175002    0.84   -0.10  1.0000
   7   4  12   11588    1985                                                       11665    0.01    0.08  1.0000
   7   5  -3    6561    1631                                                        8415    0.42    0.00  1.0000
   7   5  -2  438194   14109                                                      445831    0.22   -0.03  1.0000
   7   5  -1  224319    9935                                                      211315   -0.54    0.00  1.0000
   7   5  -1  320749   12577                                                      305161   -0.54    0.00  1.0000
   7   5   0   76502    6165                                                       72668    0.27   -0.01  1.0000
   7   5   0   72474    6184                                                       68744    0.27   -0.01  1.0000
   7   5   1   57915    6029                                                       58818    0.07   -0.03  1.0000
   7   5   2  391515   16508                                                      430276    1.17    0.04  1.0000
   7   5   2  475940   18241                                                      518582    1.17    0.04  1.0000
   7   5   3  355058   15647                                                      397651   -1.34   -0.06  1.0000
   7   5   3  449376   17814                                                      497143   -1.34   -0.06  1.0000
   7   5   4  351272   13580                                                      314026    1.25    0.09  1.0000
   7   5   4  439126   15836                                                      397359    1.25    0.09  1.0000
   7   5   5  594820   18056                                                      604681    0.25   -0.02  1.0000
   7   5   5  829853   23053                                                      841493    0.25   -0.02  1.0000
   7   5   6     272     511                                                        1427   -2.10    0.00  1.0000
   7   5   7  141711    7682                                                      101746    2.22    0.00  1.0000
  -7  -5  -7  120980    6905                                                       84304    2.22    0.00  1.0000
   7   5   8   33834    3674                                                       25006   -1.00   -0.02  1.0000
  -7  -5  -8   29667    3636                                                       21444   -1.00    0.02  1.0000
  -7  -5  -9  213842   12042                                                      244472    1.24    0.00  1.0000
  -7  -5  -9  197308   11199                                                      226771    1.24    0.00  1.0000
  -7  -5 -10  140651    9238                                                      173952   -1.63   -0.07  1.0000
  -7  -5 -10  153702   10009                                                      188434   -1.63   -0.07  1.0000
   7   5  11    2233     657                                                        1247    0.46   -0.14  1.0000
  -7  -5 -11    3302     913                                                        2075    0.46    0.14  1.0000
   7   5  12  153513    6702                                                      137800   -0.80   -0.03  1.0000
   7   6  -2   24929    2688                                                       23734    0.15    0.01  1.0000
   7   6  -1  177137    8144                                                      162733   -0.68    0.01  1.0000
   7   6  -1  148977    7265                                                      135793   -0.68    0.01  1.0000
   7   6   0   43015    5054                                                       53865    0.96    0.01  1.0000
   7   6   0   59871    6167                                                       72562    0.96    0.01  1.0000
   7   6   1  209290   11636                                                      222906   -0.57   -0.03  1.0000
   7   6   2  357708   15722                                                      384401    0.85    0.06  1.0000
   7   6   3  336411   13463                                                      273180   -2.22   -0.04  1.0000
   7   6   4   14454    1550                                                        2810    2.61    0.08  1.0000
   7   6   5   53971    7122                                                       79742   -1.94   -0.03  1.0000
   7   6   6  652415   20569                                                      688268    0.85    0.02  1.0000
  -7  -6  -6  418621   16037                                                      447436    0.85   -0.02  1.0000
   7   6   7   91870    7157                                                       87991   -0.25    0.02  1.0000
  -7  -6  -7   76601    6476                                                       73063   -0.25   -0.02  1.0000
  -7  -6  -8   30024    4047                                                       25209    0.56   -0.05  1.0000
  -7  -6  -9    1694     682                                                        -115   -1.59    0.06  1.0000
  -7  -6  -9    5619     772                                                        1160   -1.59    0.06  1.0000
  -7  -6 -10   93340    7253                                                      105468    0.74   -0.06  1.0000
   7   6  11     180     478                                                        -260   -0.48   -0.19  1.0000
  -7  -6 -11    2665     770                                                        1629   -0.48    0.19  1.0000
   7   6  12    2212     396                                                         708    0.79    0.14  1.0000
  -7  -6 -12    1543     237                                                         353    0.79   -0.14  1.0000
   7   7  -1   13309    1749                                                       11404    0.33    0.01  1.0000
   7   7   0   34820    3669                                                       31872   -0.31   -0.02  1.0000
   7   7   1   21662    3496                                                       23150    0.19    0.04  1.0000
   7   7   2   50861    6178                                                       62683   -0.96   -0.01  1.0000
   7   7   3   56073    6174                                                       60028    0.32    0.01  1.0000
   7   7   4  598804   19839                                                      614767    0.40   -0.02  1.0000
   7   7   5  108010    7907                                                       99570   -0.51   -0.04  1.0000
  -7  -7  -5   72547    5922                                                       65660   -0.51    0.04  1.0000
   7   7   6   71419    6852                                                       80278   -0.62   -0.03  1.0000
  -7  -7  -6   51576    5793                                                       59143   -0.62    0.03  1.0000
   7   7   7   20703    3799                                                       27517    0.85   -0.01  1.0000
  -7  -7  -7   15536    3450                                                       21504    0.85    0.01  1.0000
  -7  -7  -8    9438    2045                                                        7126   -0.49    0.04  1.0000
  -7  -7  -9   44847    4655                                                       45128   -0.03    0.01  1.0000
  -7  -7  -9   47971    5289                                                       48261   -0.03    0.01  1.0000
  -7  -7  -9   37303    4237                                                       37559   -0.03    0.01  1.0000
  -7  -7 -10    5426    1746                                                        8509    0.72    0.02  1.0000
  -7  -7 -11    7064    1484                                                        6943   -0.03   -0.07  1.0000
   7   8   0  133584    6365                                                      140009   -0.34    0.00  1.0000
   7   8   1   17411    2973                                                       21903    0.62    0.00  1.0000
   7   8   2   25374    3413                                                       23547   -0.23   -0.03  1.0000
   7   8   3   58896    4946                                                       46791    1.02   -0.02  1.0000
   7   8   4   92415    7044                                                       88588   -0.25    0.00  1.0000
   7   8   5  335638   13742                                                      342544    0.23   -0.01  1.0000
  -7  -8  -5  190351    9832                                                      195560    0.23    0.01  1.0000
   7   8   6   18931    3369                                                       23052   -0.55    0.03  1.0000
  -7  -8  -6   12843    2868                                                       16274   -0.55   -0.03  1.0000
  -7  -8  -7     404    1102                                                        3441    1.49   -0.02  1.0000
  -7  -8  -8   15464    2106                                                        8767   -1.19   -0.03  1.0000
  -7  -8  -9    3800    1532                                                        6119    0.64    0.01  1.0000
  -7  -8  -9    4301    1814                                                        6751    0.64    0.01  1.0000
  -7  -8  -9    2900    1321                                                        4961    0.64    0.01  1.0000
  -7  -8 -10   11325    2136                                                       13594   -0.39   -0.04  1.0000
  -7  -8 -11   20086    2279                                                       20315    0.03    0.01  1.0000
   7   9   2   96974    5858                                                      101444    0.27    0.02  1.0000
   7   9   3   22838    3566                                                       32143   -1.09    0.02  1.0000
   7   9   4   75514    5430                                                       70034    0.39    0.03  1.0000
  -7  -9  -4   31691    3129                                                       28177    0.39   -0.03  1.0000
   7   9   5     632     224                                                         -22   -0.97    0.01  1.0000
  -7  -9  -5    2403     468                                                         571   -0.97   -0.01  1.0000
   7   9   6   51971    4769                                                       60183    0.67   -0.01  1.0000
  -7  -9  -6   43742    4691                                                       51301    0.67    0.01  1.0000
  -7  -9  -7   62942    5369                                                       67187   -0.32   -0.02  1.0000
  -7  -9  -8   20478    2881                                                       19963    0.07    0.02  1.0000
  -7  -9  -9   13495    2079                                                       11652   -0.32    0.01  1.0000
  -7  -9  -9   10048    1512                                                        8466   -0.32    0.01  1.0000
   7  10   4    6561     926                                                        4055    0.67   -0.01  1.0000
   7  10   5   98696    4828                                                       98648    0.00   -0.02  1.0000
  -7 -10  -5   71967    4170                                                       71926    0.00    0.02  1.0000
  -7 -10  -6   12093    1582                                                        9820    0.42    0.00  1.0000
  -7 -10  -7   25345    2586                                                       23534   -0.22    0.00  1.0000
  -7 -10  -8    1111     447                                                         748    0.23    0.02  1.0000
   8  -8  -2    2639     677                                                        2175    0.18    0.00  1.0000
   8  -8  -1   53771    3927                                                       51857   -0.16    0.00  1.0000
   8  -8   0  110615    5464                                                      109836   -0.05    0.00  1.0000
   8  -8   0  129178    6568                                                      128336   -0.05    0.00  1.0000
   8  -8   1     500     534                                                         857    0.27    0.01  1.0000
   8  -8   2   60309    4769                                                       66537   -0.48    0.00  1.0000
   8  -8   3     171     449                                                         433    0.30   -0.01  1.0000
   8  -8   3     198     370                                                         476    0.30   -0.01  1.0000
   8  -8   4    2876     669                                                        2012   -0.34    0.00  1.0000
   8  -7  -3     875      94                                                         290   -0.49   -0.01  1.0000
   8  -7  -2   13094    2181                                                       13263    0.03    0.01  1.0000
   8  -7  -1   16599    2625                                                       15859   -0.11   -0.02  1.0000
   8  -7   0   86244    6591                                                       91928    0.37    0.01  1.0000
   8  -7   1   70597    6107                                                       75966    0.38   -0.02  1.0000
   8  -7   2    2499     701                                                        1813   -0.29   -0.01  1.0000
   8  -7   3    9090    1576                                                        6448    0.58   -0.01  1.0000
   8  -7   3   16485    2175                                                       12849    0.58   -0.01  1.0000
   8  -7   4      15     530                                                        -116    0.15    0.00  1.0000
   8  -7   4    1713     724                                                        1405    0.15    0.00  1.0000
   8  -7   5   22081    2596                                                       20640   -0.19    0.00  1.0000
   8  -7   6   14272    1733                                                       12162    0.36    0.01  1.0000
   8  -6  -4    1385     474                                                        1306   -0.04   -0.03  1.0000
   8  -6  -3   25807    3180                                                       26918   -0.13    0.02  1.0000
   8  -6  -2    3924     890                                                        2439    0.51    0.01  1.0000
   8  -6  -1     976     462                                                        1021    0.03   -0.01  1.0000
   8  -6   0   34309    4527                                                       36164   -0.19    0.01  1.0000
   8  -6   1     102     855                                                        -232   -0.39    0.00  1.0000
   8  -6   2  185133    9961                                                      168646   -0.76    0.02  1.0000
   8  -6   3   32289    3549                                                       26702    0.63    0.03  1.0000
   8  -6   4   41744    4973                                                       49627   -0.71    0.01  1.0000
   8  -6   5   19992    3091                                                       19539   -0.06    0.03  1.0000
   8  -6   5    9115    2095                                                        8809   -0.06    0.03  1.0000
   8  -6   6   19665    2870                                                       20304    0.09   -0.01  1.0000
   8  -6   6   37761    3991                                                       38644    0.09   -0.01  1.0000
   8  -6   7   84047    5158                                                       84854   -0.05    0.02  1.0000
   8  -5  -4  126756    6681                                                      134420    0.41    0.01  1.0000
   8  -5  -3    2945    1130                                                        2905   -0.01    0.01  1.0000
   8  -5  -2  151283    8640                                                      142430    0.45    0.00  1.0000
   8  -5  -2  204699   10185                                                      194379    0.45    0.00  1.0000
   8  -5  -1   19783    2997                                                       16290   -0.50   -0.02  1.0000
   8  -5  -1   29260    3640                                                       24976   -0.50   -0.02  1.0000
   8  -5   0   66539    5962                                                       70123   -0.27    0.02  1.0000
   8  -5   0   49481    5683                                                       52578   -0.27    0.02  1.0000
   8  -5   1  345518   14434                                                      333674    0.39   -0.01  1.0000
   8  -5   1  581219   17821                                                      565827    0.39   -0.01  1.0000
   8  -5   2   14634    2897                                                       13868    0.12    0.01  1.0000
   8  -5   2   29847    4120                                                       28749    0.12    0.01  1.0000
   8  -5   3  423456   17023                                                      468609    1.31   -0.03  1.0000
   8  -5   3  705137   22051                                                      763072    1.31   -0.03  1.0000
   8  -5   4   24739    3171                                                       14894   -1.36   -0.01  1.0000
   8  -5   5   13474    2208                                                        8232    0.98   -0.02  1.0000
   8  -5   6    8574    1998                                                        7617   -0.21   -0.02  1.0000
  -8   5  -7   42312    3849                                                       41888   -0.04    0.01  1.0000
   8  -5   7   38982    4204                                                       38575   -0.04   -0.01  1.0000
  -8   5  -8    6913    1409                                                        7236   -0.07    0.01  1.0000
   8  -5   8    4481    1140                                                        4741   -0.07   -0.01  1.0000
   8  -4  -4   32157    3260                                                       29643   -0.28   -0.01  1.0000
   8  -4  -3  282527   10906                                                      252788   -1.11   -0.01  1.0000
   8  -4  -2     942     304                                                         102    0.80    0.00  1.0000
   8  -4  -2    1759     629                                                         456    0.80    0.00  1.0000
   8  -4  -1  118578    9099                                                      136261   -0.96    0.01  1.0000
   8  -4  -1   69391    6977                                                       83063   -0.96    0.01  1.0000
   8  -4   0     896    1449                                                        3045    0.98    0.01  1.0000
   8  -4   0     105     995                                                        1260    0.98    0.01  1.0000
   8  -4   1   71342    6085                                                       65745    0.41    0.00  1.0000
   8  -4   1   81444    6644                                                       75456    0.41    0.00  1.0000
   8  -4   2  168664   10156                                                      164055    0.22    0.00  1.0000
   8  -4   2  320432   14110                                                      314067    0.22    0.00  1.0000
   8  -4   3   47168    5732                                                       53189   -0.52    0.00  1.0000
   8  -4   3   77880    7368                                                       85565   -0.52    0.00  1.0000
   8  -4   4  241559   11874                                                      222403   -0.77    0.02  1.0000
   8  -4   4  381957   15270                                                      357768   -0.77    0.02  1.0000
   8  -4   5   58797    6453                                                       66403    0.59    0.00  1.0000
   8  -4   5   82030    7533                                                       90972    0.59    0.00  1.0000
   8  -4   6   98213    7796                                                       94963    0.20    0.02  1.0000
   8  -4   7   56043    5137                                                       46134   -0.85    0.00  1.0000
   8  -4   8   53943    5637                                                       66165    0.97    0.01  1.0000
  -8   4  -9   40622    3777                                                       45971   -0.50    0.01  1.0000
   8  -4   9   28707    3191                                                       33230   -0.50   -0.01  1.0000
   8  -3  -4   32829    3391                                                       31527    0.14   -0.01  1.0000
   8  -3  -4   45596    4299                                                       44059    0.14   -0.01  1.0000
   8  -3  -3    1149     685                                                         999    0.09    0.02  1.0000
   8  -3  -3     775     534                                                         652    0.09    0.02  1.0000
   8  -3  -3       6     582                                                        -109    0.09    0.02  1.0000
   8  -3  -2  189558   11730                                                      224925    1.50    0.00  1.0000
   8  -3  -2  205785   12303                                                      242572    1.50    0.00  1.0000
   8  -3  -1   74766    6134                                                       58597   -1.21    0.01  1.0000
   8  -3  -1   84505    6631                                                       67254   -1.21    0.01  1.0000
   8  -3   0    1611     746                                                        1024    0.31   -0.04  1.0000
   8  -3   0      67     588                                                         -62    0.31   -0.04  1.0000
   8  -3   0     982     185                                                         538    0.31   -0.04  1.0000
   8  -3   1  201718   10461                                                      183323   -0.81    0.01  1.0000
   8  -3   1  221299   11268                                                      202011   -0.81    0.01  1.0000
   8  -3   2   48369    4513                                                       34777   -1.29   -0.01  1.0000
   8  -3   2   57189    5090                                                       42312   -1.29   -0.01  1.0000
   8  -3   3  300693   13935                                                      310963   -0.36    0.00  1.0000
  -8   3  -3  299652   12822                                                      309905   -0.36    0.00  1.0000
   8  -3   3  316726   13658                                                      327264   -0.36    0.00  1.0000
  -8   3  -4   91090    7324                                                       91382    0.02    0.01  1.0000
   8  -3   4   85418    7322                                                       85701    0.02   -0.01  1.0000
   8  -3   5  242120   13187                                                      272868    1.17    0.01  1.0000
   8  -3   5  351987   15875                                                      388872    1.17    0.01  1.0000
   8  -3   6     273     569                                                         -76   -0.64   -0.01  1.0000
   8  -3   6      71     594                                                         622   -0.64   -0.01  1.0000
   8  -3   7   58040    6450                                                       62424   -0.35    0.00  1.0000
   8  -3   7   69323    6118                                                       74106   -0.35    0.00  1.0000
   8  -3   8  304973   13577                                                      330786    0.89   -0.01  1.0000
   8  -3   9   86760    5572                                                       72010   -1.01    0.02  1.0000
  -8   3 -10   74993    4387                                                       67481    0.54    0.00  1.0000
   8  -3  10   53856    3614                                                       47521    0.54    0.00  1.0000
   8  -2  -5   33508    2935                                                       34355    0.09   -0.02  1.0000
   8  -2  -4  141964    6913                                                      132026   -0.52    0.01  1.0000
   8  -2  -4  143643    7624                                                      133646   -0.52    0.01  1.0000
   8  -2  -3  153508    8211                                                      153335    0.01   -0.02  1.0000
   8  -2  -3  179696   10012                                                      179509    0.01   -0.02  1.0000
   8  -2  -3  155074    9056                                                      154900    0.01   -0.02  1.0000
   8  -2  -2   32871    4294                                                       30078    0.30    0.01  1.0000
   8  -2  -2   38304    4746                                                       35284    0.30    0.01  1.0000
   8  -2  -1  554061   18200                                                      491345   -1.68   -0.02  1.0000
   8  -2  -1  674927   19853                                                      605512   -1.68   -0.02  1.0000
   8  -2   0     930    1258                                                        3580    1.13    0.02  1.0000
   8  -2   0    4597    2364                                                        9435    1.13    0.02  1.0000
   8  -2   1  265928   12944                                                      289903    0.88    0.01  1.0000
   8  -2   1  293810   13923                                                      318984    0.88    0.01  1.0000
   8  -2   2 1113704   26095                                                     1119440    0.11    0.03  1.0000
   8  -2   2 1029026   23888                                                     1034540    0.11    0.03  1.0000
   8  -2   3  127591   10379                                                      179246    2.56   -0.04  1.0000
  -8   2  -3  162184   10993                                                      219864    2.56    0.04  1.0000
  -8   2  -4  437666   16531                                                      459396   -0.63   -0.01  1.0000
   8  -2   4  301498   13290                                                      319579   -0.63    0.01  1.0000
   8  -2   5    4975     156                                                         585    1.79   -0.01  1.0000
  -8   2  -5    5845     281                                                         906    1.79    0.01  1.0000
  -8   2  -6   77019    5159                                                       45181   -2.51    0.01  1.0000
   8  -2   6   66200    4792                                                       36990   -2.51   -0.01  1.0000
   8  -2   6   83401    5530                                                       50099   -2.51   -0.01  1.0000
   8  -2   7    3236    2416                                                        9578    1.59   -0.02  1.0000
   8  -2   7    3818    2355                                                       10562    1.59   -0.02  1.0000
   8  -2   8   34478    4859                                                       38094   -0.37    0.03  1.0000
   8  -2   9   56004    5511                                                       58678    0.22    0.02  1.0000
   8  -2  10   98980    6130                                                       98640   -0.02    0.00  1.0000
   8  -1  -5  148785    5850                                                      139743    0.46    0.00  1.0000
   8  -1  -4   80290    5943                                                       83313    0.20    0.00  1.0000
   8  -1  -3   25192    3657                                                       28102    0.34    0.00  1.0000
   8  -1  -3   29089    4233                                                       32210    0.34    0.00  1.0000
   8  -1  -3   21040    3284                                                       23706    0.34    0.00  1.0000
   8  -1  -2  316066   13389                                                      303724    0.43    0.02  1.0000
   8  -1  -2  357360   13391                                                      344229    0.43    0.02  1.0000
   8  -1  -1    1265    2003                                                        6801   -1.82    0.00  1.0000
   8  -1  -1    2070    2233                                                        8538   -1.82    0.00  1.0000
   8  -1  -1    1534    2057                                                        7408   -1.82    0.00  1.0000
   8  -1   0  339857   16585                                                      424743    2.66   -0.03  1.0000
   8  -1   0  356654   16692                                                      443497    2.66   -0.03  1.0000
   8  -1   1  143684    8277                                                      113697   -1.62    0.00  1.0000
   8  -1   1  103157    6584                                                       78017   -1.62    0.00  1.0000
   8  -1   1  144709    8157                                                      114609   -1.62    0.00  1.0000
   8  -1   1  119429    7098                                                       92245   -1.62    0.00  1.0000
   8  -1   2  211915   10449                                                      202314   -0.41   -0.02  1.0000
   8  -1   2  218169   10375                                                      208426   -0.41   -0.02  1.0000
   8  -1   2  239485   11587                                                      229272   -0.41   -0.02  1.0000
  -8   1  -3  306905   12432                                                      281062   -0.92    0.00  1.0000
   8  -1   3  260433   11389                                                      236672   -0.92    0.00  1.0000
  -8   1  -4  652840   18885                                                      598395   -1.33   -0.01  1.0000
   8  -1   4  730668   20506                                                      673000   -1.33    0.01  1.0000
  -8   1  -5   78738    7187                                                       84501   -0.39   -0.05  1.0000
  -8   1  -5   68112    6314                                                       73478   -0.39   -0.05  1.0000
  -8   1  -6   78705    7791                                                       96585   -1.17    0.02  1.0000
  -8   1  -6   94794    8262                                                      114327   -1.17    0.02  1.0000
   8  -1   6   98223    8450                                                      118090   -1.17   -0.02  1.0000
  -8   1  -7  277274   14270                                                      310791    1.20   -0.03  1.0000
   8  -1   7  253029   12603                                                      285090    1.20    0.03  1.0000
   8  -1   8     246     999                                                        -878   -0.61    0.00  1.0000
   8  -1   9   26212    4113                                                       30029   -0.44   -0.03  1.0000
   8  -1  10   73955    5766                                                       70707   -0.23   -0.05  1.0000
   8  -1  11  109881    5808                                                      109884    0.00   -0.01  1.0000
   8   0  -4   23731    3255                                                       27060   -0.40    0.01  1.0000
   8   0  -3  186537    9831                                                      183121   -0.15    0.01  1.0000
   8   0  -2   62958    5646                                                       60779   -0.17   -0.01  1.0000
   8   0  -2   95826    7498                                                       93132   -0.17   -0.01  1.0000
   8   0  -1  133907    9310                                                      143505   -0.50   -0.02  1.0000
   8   0  -1  166651   10758                                                      177339   -0.50   -0.02  1.0000
   8   0   0  129167    7340                                                       83244    2.74    0.00  1.0000
   8   0   0  130343    7138                                                       84189    2.74    0.00  1.0000
   8   0   1  195606    9275                                                      140237   -2.62    0.05  1.0000
   8   0   1  191480    8707                                                      136746   -2.62    0.05  1.0000
   8   0   2  216308   10529                                                      195623    0.88    0.00  1.0000
   8   0   2  216636   10583                                                      195935    0.88    0.00  1.0000
  -8   0  -3  202978   10481                                                      198375    0.20    0.00  1.0000
   8   0   3  200939   10865                                                      196359    0.20    0.00  1.0000
  -8   0  -4 1083229   25926                                                     1145930    1.15    0.01  1.0000
   8   0   4 1120893   26922                                                     1184660    1.15   -0.01  1.0000
  -8   0  -5    1469    1095                                                        1769    0.14    0.02  1.0000
  -8   0  -5    2591    1364                                                        2985    0.14    0.02  1.0000
   8   0   5    1151     511                                                        1419    0.14   -0.02  1.0000
  -8   0  -6  217639   10913                                                      189747    1.20    0.04  1.0000
  -8   0  -6  215773   10656                                                      188005    1.20    0.04  1.0000
   8   0   6  215590   10661                                                      187834    1.20   -0.04  1.0000
  -8   0  -7    9858    2532                                                        9156    0.14   -0.01  1.0000
   8   0   7    6097    1715                                                        5547    0.14    0.01  1.0000
  -8   0  -7    7323    2054                                                        6719    0.14   -0.01  1.0000
   8   0   7    9019    2154                                                        8348    0.14    0.01  1.0000
  -8   0  -8  413235   16871                                                      440835    0.82    0.00  1.0000
   8   0   8  301802   13998                                                      325454    0.82    0.00  1.0000
  -8   0  -9  104306    8709                                                      125573   -1.21    0.01  1.0000
   8   0   9   83651    7712                                                      102799   -1.21   -0.01  1.0000
   8   0  10  148265    7395                                                      108058    2.18    0.05  1.0000
   8   0  11  108784    5931                                                       93762   -0.91    0.04  1.0000
   8   1  -4   46603    4224                                                       51306   -0.41    0.02  1.0000
   8   1  -3  189361    9333                                                      176543    0.58   -0.02  1.0000
   8   1  -2  370282   14109                                                      352920   -0.56    0.00  1.0000
   8   1  -2  473347   16190                                                      453689   -0.56    0.00  1.0000
   8   1  -1  186259   11151                                                      197660    0.50    0.01  1.0000
   8   1  -1  218043   11957                                                      230365    0.50    0.01  1.0000
   8   1   0  666201   21145                                                      673131   -0.16    0.05  1.0000
   8   1   0  708443   20696                                                      715589   -0.16    0.05  1.0000
   8   1   1   10311    1385                                                        2604   -1.95    0.00  1.0000
   8   1   1   14063    1565                                                        4635   -1.95    0.00  1.0000
   8   1   1    7045     833                                                        1117   -1.95    0.00  1.0000
   8   1   2   11192    2362                                                        9673    0.29   -0.04  1.0000
  -8  -1  -2    8885    1913                                                        7537    0.29    0.04  1.0000
   8   1   2   10733    2168                                                        9246    0.29   -0.04  1.0000
   8   1   3 1143426   23563                                                     1014540    2.40    0.00  1.0000
   8   1   3 1147598   23336                                                     1018470    2.40    0.00  1.0000
  -8  -1  -4  397009   17101                                                      491170   -2.74   -0.02  1.0000
   8   1   4  343574   16095                                                      431518   -2.74    0.02  1.0000
  -8  -1  -5 1200414   28289                                                     1288660    1.53    0.00  1.0000
  -8  -1  -5 1090276   26516                                                     1174450    1.53    0.00  1.0000
  -8  -1  -6  248607   11139                                                      195917   -2.17   -0.03  1.0000
  -8  -1  -6  244521   10836                                                      192292   -2.17   -0.03  1.0000
   8   1   6  231574   10416                                                      180831   -2.17    0.03  1.0000
  -8  -1  -7   50079    4896                                                       39223    1.00    0.02  1.0000
   8   1   7   41427    4059                                                       31613    1.00   -0.02  1.0000
   8   1   7   58184    5093                                                       46431    1.00   -0.02  1.0000
  -8  -1  -8   12290    3929                                                       24060   -1.71   -0.01  1.0000
   8   1   8    5143    2726                                                       13449   -1.71    0.01  1.0000
  -8  -1  -9  412452   15965                                                      409932   -0.08    0.07  1.0000
   8   1   9  313638   13482                                                      311440   -0.08   -0.07  1.0000
   8   1  10    2013     923                                                         870    0.60    0.02  1.0000
   8   1  11  199725    9751                                                      229822   -1.26   -0.03  1.0000
   8   1  12   63816    4086                                                       65147    0.10   -0.02  1.0000
   8   2  -4  249784    8105                                                      239620   -0.40   -0.02  1.0000
   8   2  -3   11219    2013                                                        9069    0.41    0.00  1.0000
   8   2  -2   33347    4132                                                       34645   -0.14   -0.02  1.0000
   8   2  -2   42104    4760                                                       43562   -0.14   -0.02  1.0000
   8   2  -1  366342   14960                                                      370168    0.12    0.02  1.0000
   8   2  -1  453674   16423                                                      457930    0.12    0.02  1.0000
   8   2   0   66094    6887                                                       73058    0.51   -0.05  1.0000
   8   2   0   70665    6674                                                       77860    0.51   -0.05  1.0000
   8   2   1  154712   10698                                                      175117   -0.97   -0.10  1.0000
   8   2   1  144799    9361                                                      164560   -0.97   -0.10  1.0000
   8   2   2   64261    4830                                                       38045    2.26   -0.01  1.0000
   8   2   2   58769    4225                                                       33847    2.26   -0.01  1.0000
   8   2   3   97692    7581                                                       92131    0.35    0.01  1.0000
   8   2   3   85939    6755                                                       80728    0.35    0.01  1.0000
  -8  -2  -4   61235    8042                                                      105948   -3.02    0.02  1.0000
   8   2   4   68128    8365                                                      114958   -3.02   -0.02  1.0000
   8   2   4   76490    8598                                                      125747   -3.02   -0.02  1.0000
  -8  -2  -5  663852   18564                                                      554380    2.72   -0.02  1.0000
   8   2   5  702819   19198                                                      590037    2.72    0.02  1.0000
  -8  -2  -6  165550    9250                                                      135167   -1.52    0.03  1.0000
  -8  -2  -6  185679    9810                                                      153411   -1.52    0.03  1.0000
   8   2   6  199612   10191                                                      166098   -1.52   -0.03  1.0000
  -8  -2  -7  241826   13931                                                      312086    2.59   -0.06  1.0000
   8   2   7  255834   13694                                                      327972    2.59    0.06  1.0000
  -8  -2  -8  140200   10957                                                      180670   -1.96    0.00  1.0000
   8   2   8   76931    7581                                                      107574   -1.96    0.00  1.0000
  -8  -2  -9    3658    3138                                                       16203    2.58   -0.05  1.0000
   8   2   9    2749    2841                                                       14217    2.58    0.05  1.0000
  -8  -2 -10  103736    6999                                                       90172   -0.84   -0.07  1.0000
   8   2  10   79200    5928                                                       67407   -0.84    0.07  1.0000
   8   2  11    7127    1526                                                        5912    0.29    0.02  1.0000
   8   2  12  122337    5967                                                      122926   -0.03   -0.03  1.0000
   8   3  -3   81994    5201                                                       77495   -0.31    0.00  1.0000
   8   3  -2    1856     805                                                        1345    0.25    0.01  1.0000
   8   3  -2     810     414                                                         486    0.25    0.01  1.0000
   8   3  -1   60648    6002                                                       67506   -0.52    0.02  1.0000
   8   3  -1   85041    7021                                                       93128   -0.52    0.02  1.0000
   8   3   0   36424    5335                                                       46518    0.96    0.03  1.0000
   8   3   0   47072    5666                                                       58463    0.96    0.03  1.0000
   8   3   1  484358   16777                                                      421935   -1.80    0.00  1.0000
   8   3   2   12824    1234                                                        2188    2.60    0.23  1.0000
   8   3   2    5227     605                                                          24    2.60    0.23  1.0000
   8   3   3  122510    6866                                                       74383   -2.99   -0.05  1.0000
   8   3   3  126775    6827                                                       77715   -2.99   -0.05  1.0000
   8   3   4  276709   13611                                                      299814    0.83    0.10  1.0000
   8   3   4  306869   14319                                                      331176    0.83    0.10  1.0000
   8   3   5  167048    9454                                                      151644    0.75   -0.02  1.0000
   8   3   5  220805   11299                                                      203039    0.75   -0.02  1.0000
  -8  -3  -6    5999    2057                                                        6638    0.16   -0.02  1.0000
   8   3   6    8517    2540                                                        9275    0.16    0.02  1.0000
  -8  -3  -7   73679    5887                                                       56706   -1.29    0.02  1.0000
  -8  -3  -7  119332    8100                                                       97430   -1.29    0.02  1.0000
  -8  -3  -8   66749    6673                                                       63679   -0.23    0.02  1.0000
  -8  -3  -9   84526    7400                                                       88949   -0.29    0.10  1.0000
   8   3   9   48971    5140                                                       52350   -0.29   -0.10  1.0000
  -8  -3 -10   83571    6611                                                       81647   -0.13   -0.09  1.0000
   8   3  10   62833    5408                                                       61165   -0.13    0.09  1.0000
  -8  -3 -11  108366    6129                                                       92138   -0.99    0.23  1.0000
   8   3  11   98987    5835                                                       83505   -0.99   -0.23  1.0000
   8   3  12   18818    1900                                                       12728    0.94    0.08  1.0000
   8   4  -2  298736   10609                                                      304445    0.20    0.00  1.0000
   8   4  -1   49882    4532                                                       46555    0.29    0.00  1.0000
   8   4  -1   60488    5093                                                       56819    0.29    0.00  1.0000
   8   4   0  139756    9240                                                      149421   -0.49   -0.03  1.0000
   8   4   0  177396    9635                                                      188265   -0.49   -0.03  1.0000
   8   4   1  407144   14727                                                      401049   -0.19   -0.02  1.0000
   8   4   2  109074    8517                                                      119669    0.61   -0.03  1.0000
   8   4   3   60984    5387                                                       47044   -1.17   -0.18  1.0000
   8   4   4  739457   21789                                                      768677    0.65   -0.02  1.0000
   8   4   4  992099   25770                                                     1025900    0.65   -0.02  1.0000
   8   4   5  503430   17535                                                      525737    0.60   -0.04  1.0000
   8   4   5  731294   22479                                                      758130    0.60   -0.04  1.0000
  -8  -4  -6  240439   13134                                                      273091   -1.25    0.01  1.0000
   8   4   6  347396   15858                                                      386434   -1.25   -0.01  1.0000
   8   4   7  172858   10581                                                      177486   -0.21   -0.01  1.0000
  -8  -4  -8   13052    3806                                                       20987    1.18   -0.03  1.0000
  -8  -4  -9  113480    8173                                                      109675   -0.22    0.03  1.0000
  -8  -4 -10  126725    7508                                                      110086    0.94   -0.10  1.0000
   8   4  10   85757    5658                                                       72172    0.94    0.10  1.0000
  -8  -4 -11    1185     975                                                        2681   -0.67    0.12  1.0000
   8   4  11    1489     987                                                        3129   -0.67   -0.12  1.0000
   8   4  12  113495    5878                                                      132218    1.03    0.18  1.0000
   8   5  -2   13097    1564                                                       10348   -0.49   -0.03  1.0000
   8   5  -1  123186    6585                                                      125370    0.12    0.02  1.0000
   8   5   0  114942    7780                                                      127842   -0.72   -0.03  1.0000
   8   5   1   33072    3648                                                       24932    0.93    0.05  1.0000
   8   5   2  333482   13977                                                      325787   -0.26   -0.02  1.0000
   8   5   3  190904   11201                                                      195701    0.21    0.06  1.0000
   8   5   4   67642    6390                                                       61206   -0.49    0.08  1.0000
   8   5   5  104459    9266                                                      132721    1.59    0.05  1.0000
   8   5   6 1249756   27012                                                     1117930   -2.34   -0.02  1.0000
   8   5   7   19083    1320                                                        4352    2.79    0.04  1.0000
  -8  -5  -8  248681   13450                                                      281661   -1.24    0.03  1.0000
  -8  -5  -9  153799    9948                                                      174534    0.99   -0.06  1.0000
  -8  -5 -10   56086    4400                                                       41943   -1.24    0.03  1.0000
  -8  -5 -11   26510    2654                                                       21545    0.62   -0.06  1.0000
   8   6   0   96674    5808                                                      104483    0.48    0.00  1.0000
   8   6   0   87088    5627                                                       94508    0.48    0.00  1.0000
   8   6   1       2     606                                                        -466    0.05   -0.03  1.0000
   8   6   1     322     259                                                         376    0.05   -0.03  1.0000
   8   6   2  199131   10409                                                      194640    0.20    0.04  1.0000
   8   6   3   51001    5080                                                       42655   -0.75   -0.06  1.0000
   8   6   4    5496    1368                                                        2387    1.00    0.07  1.0000
   8   6   5  161381   10221                                                      162288   -0.04   -0.09  1.0000
   8   6   6  137259    8696                                                      121497   -0.85    0.03  1.0000
   8   6   7   90192    8023                                                      110380    1.23   -0.01  1.0000
   8   6   8    4814    2493                                                       11210   -1.41    0.02  1.0000
  -8  -6  -8    1932    1827                                                        6471   -1.41   -0.02  1.0000
  -8  -6  -9   15708    2802                                                       15202    0.08    0.02  1.0000
  -8  -6 -10   96608    6013                                                       89086   -0.48    0.00  1.0000
  -8  -6 -11     271     445                                                         720    0.40    0.06  1.0000
   8   7   1  121485    5827                                                      109866   -0.66    0.01  1.0000
   8   7   1  161923    7330                                                      148464   -0.66    0.01  1.0000
   8   7   2   24370    3185                                                       22924    0.18    0.03  1.0000
   8   7   3   39241    5102                                                       49830   -0.97   -0.03  1.0000
   8   7   4   16833    2279                                                        9385    1.27    0.03  1.0000
   8   7   5  232912   12585                                                      276380   -1.67   -0.04  1.0000
   8   7   6  161167    9203                                                      153309    0.38    0.00  1.0000
   8   7   7  130746    7968                                                      127475   -0.18   -0.01  1.0000
  -8  -7  -7   85723    6214                                                       83079   -0.18    0.01  1.0000
   8   7   8  104926    6874                                                      108543    0.21   -0.02  1.0000
  -8  -7  -8   87677    6509                                                       90986    0.21    0.02  1.0000
  -8  -7  -9   19261    2636                                                       15974   -0.48    0.02  1.0000
  -8  -7 -10   10109    1236                                                        5081    1.13   -0.02  1.0000
   8   8   2   43361    3338                                                       42639   -0.07   -0.03  1.0000
   8   8   2   64904    4604                                                       64021   -0.07   -0.03  1.0000
   8   8   3   18050    2440                                                       14418    0.55    0.01  1.0000
   8   8   4   70702    5470                                                       66838    0.29    0.00  1.0000
   8   8   5   23881    3282                                                       24227   -0.04   -0.02  1.0000
   8   8   6     552     686                                                         809    0.19    0.02  1.0000
   8   8   7  209524    8723                                                      190057    0.84    0.01  1.0000
  -8  -8  -7  167596    7473                                                      150235    0.84   -0.01  1.0000
  -8  -8  -8     135     419                                                        -142   -0.45   -0.02  1.0000
  -8  -8  -9   67232    4731                                                       69931    0.20    0.00  1.0000
   8   9   3  101335    4975                                                      100511   -0.05    0.01  1.0000
   8   9   4       1     355                                                          94   -0.34    0.01  1.0000
   8   9   5    2695     894                                                        1965   -0.29   -0.01  1.0000
   8   9   6   57035    4011                                                       54249   -0.23    0.03  1.0000
  -8  -9  -7     740     454                                                         989    0.16    0.01  1.0000
  -8  -9  -8   11682    1988                                                       14924   -0.54    0.00  1.0000
  -8  -9  -8    9197    1866                                                       12096   -0.54    0.00  1.0000
   9  -7   0   26789    2642                                                       25160    0.20    0.01  1.0000
   9  -7   1    1456     765                                                        1955    0.23    0.00  1.0000
   9  -7   2    4404     735                                                        2358   -0.69    0.00  1.0000
   9  -7   3   46130    3636                                                       42850    0.30   -0.01  1.0000
   9  -7   4       0     256                                                         110   -0.40    0.01  1.0000
   9  -6  -2    2869     558                                                        1449    0.60    0.01  1.0000
   9  -6  -1   13839    2135                                                       14199    0.06   -0.01  1.0000
   9  -6   0     531     752                                                        1057    0.37    0.01  1.0000
   9  -6   1    4584    1247                                                        3633   -0.29    0.00  1.0000
   9  -6   2     179     495                                                         489   -0.34    0.00  1.0000
   9  -6   3   52482    5151                                                       61837    0.76    0.01  1.0000
   9  -6   4   10154    1783                                                        9295    0.17    0.00  1.0000
   9  -6   4   19610    2402                                                       18409    0.17    0.00  1.0000
   9  -6   5   31518    3353                                                       33080   -0.17    0.01  1.0000
   9  -6   5   52068    4073                                                       54070   -0.17    0.01  1.0000
   9  -6   6   16182    2226                                                       18223    0.30    0.00  1.0000
   9  -6   6   39745    3361                                                       42909    0.30    0.00  1.0000
   9  -5  -2    1251     627                                                         997    0.15   -0.01  1.0000
   9  -5  -1   16182    2883                                                       20543   -0.62   -0.02  1.0000
   9  -5   0  107551    6781                                                      100170   -0.44    0.02  1.0000
   9  -5   0  138473    7151                                                      130080   -0.44    0.02  1.0000
   9  -5   1   54272    5171                                                       54496    0.02    0.00  1.0000
   9  -5   2    9097    2025                                                        8076    0.21    0.00  1.0000
   9  -5   3   37456    4708                                                       44906    0.71    0.00  1.0000
   9  -5   4    6613    1285                                                        3568   -0.84   -0.02  1.0000
   9  -5   5  100603    6951                                                      103290   -0.16    0.01  1.0000
   9  -5   6   77749    5627                                                       75211    0.18   -0.02  1.0000
   9  -5   7   49042    3970                                                       48595   -0.04    0.01  1.0000
   9  -5   7   65782    4495                                                       65265   -0.04    0.01  1.0000
   9  -4  -3   43138    2987                                                       37203   -0.57   -0.02  1.0000
   9  -4  -2   72469    4989                                                       70751   -0.12    0.00  1.0000
   9  -4  -1   31945    3800                                                       33872   -0.21    0.01  1.0000
   9  -4  -1   51645    5000                                                       54087   -0.21    0.01  1.0000
   9  -4   0   61691    6038                                                       71506    0.74    0.03  1.0000
   9  -4   0   41900    4939                                                       50052    0.74    0.03  1.0000
   9  -4   1  377674   14445                                                      411968    1.06   -0.02  1.0000
   9  -4   1  426712   14844                                                      463117    1.06   -0.02  1.0000
   9  -4   2     948     966                                                        1579   -0.35    0.02  1.0000
   9  -4   2     275     520                                                         651   -0.35    0.02  1.0000
   9  -4   2     855     848                                                        1458   -0.35    0.02  1.0000
   9  -4   3   26052    3619                                                       25889    0.02   -0.02  1.0000
   9  -4   3   61574    5984                                                       61323    0.02   -0.02  1.0000
   9  -4   4  222806    9968                                                      190532   -1.37    0.02  1.0000
   9  -4   4  282446   11274                                                      245949   -1.37    0.02  1.0000
   9  -4   5   80982    6974                                                       95616    0.95    0.01  1.0000
   9  -4   5  125780    8991                                                      143868    0.95    0.01  1.0000
   9  -4   6   36303    4320                                                       36730   -0.04    0.00  1.0000
   9  -4   7   89300    6566                                                       93488   -0.27   -0.01  1.0000
  -9   4  -8  122406    5841                                                      123312    0.05    0.00  1.0000
   9  -4   8  162378    7474                                                      163422    0.05    0.00  1.0000
   9  -3  -2  118958    6992                                                      138716    1.07    0.01  1.0000
   9  -3  -2  254191   11360                                                      282722    1.07    0.01  1.0000
   9  -3  -1   57877    5182                                                       49136   -0.73    0.00  1.0000
   9  -3  -1   32530    3298                                                       26066   -0.73    0.00  1.0000
   9  -3   0   36723    4333                                                       32857    0.40   -0.05  1.0000
   9  -3   0   18451    2698                                                       15741    0.40   -0.05  1.0000
   9  -3   1   13991    2050                                                        7642   -1.19    0.00  1.0000
   9  -3   1    8194    1190                                                        3559   -1.19    0.00  1.0000
   9  -3   1   11360    1682                                                        5733   -1.19    0.00  1.0000
   9  -3   2    4441     720                                                        1373   -1.14   -0.02  1.0000
   9  -3   2    7382    1298                                                        3174   -1.14   -0.02  1.0000
   9  -3   3    7034    1690                                                        6164   -0.21    0.00  1.0000
   9  -3   3   25328    3741                                                       23651   -0.21    0.00  1.0000
   9  -3   4  126891    7867                                                      120042    0.38    0.00  1.0000
   9  -3   4  172109    9326                                                      164117    0.38    0.00  1.0000
   9  -3   5   81975    7290                                                       98485    1.06    0.01  1.0000
   9  -3   5  165928   10747                                                      189098    1.06    0.01  1.0000
   9  -3   6  417881   14903                                                      411260   -0.20   -0.02  1.0000
   9  -3   6  605763   18296                                                      597786   -0.20   -0.02  1.0000
   9  -3   7   37655    4685                                                       43606   -0.57    0.01  1.0000
   9  -3   7   47555    4961                                                       54215   -0.57    0.01  1.0000
   9  -3   8   11923    1798                                                        7748    0.82    0.02  1.0000
   9  -3   9  140804    6584                                                      131907   -0.47   -0.01  1.0000
   9  -2  -3     141     418                                                         275   -0.18   -0.01  1.0000
   9  -2  -2    2178     652                                                        1031    0.56   -0.01  1.0000
   9  -2  -2    1826     473                                                         793    0.56   -0.01  1.0000
   9  -2  -1    3513     516                                                         791   -1.21   -0.02  1.0000
   9  -2  -1     971     436                                                         -49   -1.21   -0.02  1.0000
   9  -2   0  204353   11846                                                      227522    0.96    0.01  1.0000
   9  -2   0  223163   11933                                                      247347    0.96    0.01  1.0000
   9  -2   1   51640    5355                                                       51001    0.05    0.07  1.0000
   9  -2   1   44069    4650                                                       43478    0.05    0.07  1.0000
   9  -2   2   98013    6975                                                       84307    0.88    0.01  1.0000
   9  -2   3   76572    7867                                                       99010    1.47    0.00  1.0000
   9  -2   4    2523    1091                                                        2274    0.10    0.00  1.0000
   9  -2   5    1677     670                                                        1035    0.34   -0.02  1.0000
   9  -2   5    3409     950                                                        2461    0.34   -0.02  1.0000
   9  -2   6  222999   10205                                                      191319   -1.35   -0.02  1.0000
   9  -2   6  373826   14082                                                      332450   -1.35   -0.02  1.0000
   9  -2   7  312823   13238                                                      325195    0.42    0.01  1.0000
   9  -2   7  403872   14711                                                      417914    0.42    0.01  1.0000
   9  -2   8   22502    2989                                                       18414    0.55    0.00  1.0000
   9  -2   9     273     631                                                         942   -0.55    0.00  1.0000
   9  -2  10  179180    7330                                                      189070    0.45    0.00  1.0000
   9  -1  -3  109926    6264                                                      107406   -0.15    0.00  1.0000
   9  -1  -2   10657    1905                                                        9445    0.23    0.01  1.0000
   9  -1  -2   11097    2067                                                        9859    0.23    0.01  1.0000
   9  -1  -1  172417   10278                                                      196523   -1.09   -0.01  1.0000
   9  -1  -1  185304   10689                                                      210265   -1.09   -0.01  1.0000
   9  -1   0   27686    4951                                                       40821    1.38    0.01  1.0000
   9  -1   0   33809    5306                                                       48191    1.38    0.01  1.0000
   9  -1   1    1003     757                                                         158   -0.74   -0.03  1.0000
   9  -1   1     659     504                                                          43   -0.74   -0.03  1.0000
   9  -1   2  289681   13033                                                      303926   -0.51   -0.03  1.0000
   9  -1   2  255048   11919                                                      268424   -0.51   -0.03  1.0000
   9  -1   2  300476   13567                                                      314980   -0.51   -0.03  1.0000
   9  -1   3   11707    2739                                                       11408   -0.05   -0.03  1.0000
   9  -1   4  193272    9980                                                      152605   -1.90    0.04  1.0000
   9  -1   5  173403   10134                                                      157505    0.76    0.00  1.0000
  -9   1  -6   61352    6683                                                       83266   -1.58   -0.03  1.0000
   9  -1   6   84411    8236                                                      109827   -1.58    0.03  1.0000
  -9   1  -7   26117    4767                                                       40709    1.55   -0.01  1.0000
   9  -1   7   27288    4792                                                       42168    1.55    0.01  1.0000
   9  -1   8  418782   14232                                                      387683   -0.95    0.00  1.0000
   9  -1   9   98547    6847                                                      102161   -0.22    0.00  1.0000
   9  -1  10   70107    5143                                                       73884   -0.27   -0.03  1.0000
   9   0  -3    6470    1451                                                        6702    0.06    0.01  1.0000
   9   0  -2  276074   11391                                                      289117    0.47   -0.02  1.0000
   9   0  -2  199720    8820                                                      210836    0.47   -0.02  1.0000
   9   0  -1  155037    9139                                                      166860   -0.57    0.01  1.0000
   9   0  -1  190091   10230                                                      203159   -0.57    0.01  1.0000
   9   0   0  129429    7533                                                       96903    1.88    0.00  1.0000
   9   0   0  151787    8427                                                      116368    1.88    0.00  1.0000
   9   0   0  152058    8042                                                      116605    1.88    0.00  1.0000
   9   0   1  123836    7590                                                       92015   -1.88    0.04  1.0000
   9   0   1  110592    6644                                                       80651   -1.88    0.04  1.0000
   9   0   2   31413    4753                                                       38492    0.73    0.00  1.0000
   9   0   2   27998    4467                                                       34702    0.73    0.00  1.0000
   9   0   3    4317    1570                                                        4055    0.08    0.02  1.0000
   9   0   3    2535    1064                                                        2335    0.08    0.02  1.0000
   9   0   4   79684    6992                                                       76140    0.25   -0.02  1.0000
   9   0   5 1111949   27586                                                     1161790    0.90    0.00  1.0000
  -9   0  -6    5780    1997                                                        6849   -0.26    0.06  1.0000
   9   0   6    8642    2520                                                        9941   -0.26   -0.06  1.0000
  -9   0  -7  935322   22800                                                      880558    1.11   -0.02  1.0000
   9   0   7  892378   21994                                                      838905    1.11    0.02  1.0000
   9   0   8   29481    3615                                                       25928   -0.41   -0.03  1.0000
   9   0   8   35313    3802                                                       31413   -0.41   -0.03  1.0000
   9   0   9  203225   10086                                                      214719    0.49    0.01  1.0000
   9   0  10  127128    6836                                                      117116    0.55   -0.01  1.0000
   9   0  11  141864    6134                                                      137858    0.21    0.03  1.0000
   9   1  -3    4610     874                                                        3200    0.44   -0.01  1.0000
   9   1  -2    9642    1842                                                        8297   -0.27    0.00  1.0000
   9   1  -1   61432    4896                                                       57862   -0.28    0.02  1.0000
   9   1  -1   80990    6157                                                       76883   -0.28    0.02  1.0000
   9   1   0     216     244                                                         575    0.36    0.05  1.0000
   9   1   0    2432    1455                                                        3435    0.36    0.05  1.0000
   9   1   0    1269     860                                                        2017    0.36    0.05  1.0000
   9   1   1  299051   14793                                                      348928   -1.70    0.00  1.0000
   9   1   1  268156   12743                                                      315489   -1.70    0.00  1.0000
   9   1   2  186603   11585                                                      217560    1.33   -0.03  1.0000
   9   1   2  165431   10568                                                      194648    1.33   -0.03  1.0000
   9   1   3  292420   13172                                                      295476    0.11   -0.02  1.0000
   9   1   3  309872   14085                                                      313018    0.11   -0.02  1.0000
   9   1   4  114355    8765                                                      119973   -0.32    0.03  1.0000
  -9  -1  -5     123     510                                                         400   -0.35    0.00  1.0000
   9   1   5     160     244                                                         466   -0.35    0.00  1.0000
  -9  -1  -6  253186   12128                                                      248575   -0.18   -0.01  1.0000
   9   1   6  275348   13074                                                      270538   -0.18    0.01  1.0000
  -9  -1  -7  134607    9395                                                      140707   -0.32   -0.01  1.0000
   9   1   7  132953    9018                                                      139015   -0.32    0.01  1.0000
  -9  -1  -8  611384   19542                                                      618589   -0.18    0.00  1.0000
   9   1   8  481869   15466                                                      488268   -0.18    0.00  1.0000
  -9  -1  -9   49891    4592                                                       39668   -0.94    0.04  1.0000
   9   1   9   34563    3470                                                       26152   -0.94   -0.04  1.0000
   9   1  10   83994    6172                                                       93820    0.64    0.05  1.0000
   9   1  11  157475    7534                                                      185946   -1.33   -0.04  1.0000
   9   2  -2   36653    3801                                                       43315   -0.65    0.00  1.0000
   9   2  -1   10727    2358                                                       13227    0.44    0.00  1.0000
   9   2  -1    8946    2215                                                       11240    0.44    0.00  1.0000
   9   2   0  289163   12794                                                      288743   -0.02   -0.05  1.0000
   9   2   0  259927   11152                                                      259528   -0.02   -0.05  1.0000
   9   2   1    4415    1496                                                        3984   -0.14   -0.11  1.0000
   9   2   2    6615    1339                                                        3728    0.82   -0.06  1.0000
   9   2   3  413672   16142                                                      421120    0.22    0.04  1.0000
   9   2   3  390169   14967                                                      397403    0.22    0.04  1.0000
   9   2   4    5161     593                                                         578   -1.85   -0.03  1.0000
   9   2   4    8451    1052                                                        1947   -1.85   -0.03  1.0000
  -9  -2  -5   63813    4812                                                       42489    1.80   -0.01  1.0000
   9   2   5   77275    5910                                                       53592    1.80    0.01  1.0000
  -9  -2  -6  187087   10307                                                      173526   -0.62    0.03  1.0000
  -9  -2  -7  204075   12040                                                      232787    1.19   -0.02  1.0000
   9   2   7  177215   10982                                                      204035    1.19    0.02  1.0000
  -9  -2  -8    8934    1806                                                        6061   -0.64   -0.01  1.0000
   9   2   8    8763    1643                                                        5921   -0.64    0.01  1.0000
  -9  -2  -9  421443   14921                                                      395013    0.80   -0.01  1.0000
  -9  -2 -10  173298    9372                                                      182435    0.42   -0.06  1.0000
   9   2  10  112369    6839                                                      119749    0.42    0.06  1.0000
   9   2  11  155602    6829                                                      152933   -0.13   -0.04  1.0000
   9   3  -2   18816    2084                                                       18042   -0.11   -0.01  1.0000
   9   3  -1   93557    5766                                                       89766    0.24    0.03  1.0000
   9   3  -1   91658    5538                                                       87906    0.24    0.03  1.0000
   9   3   0   74895    6281                                                       79117    0.29    0.00  1.0000
   9   3   0   69087    5475                                                       73144    0.29    0.00  1.0000
   9   3   1  217545   10916                                                      201054   -0.70    0.06  1.0000
   9   3   2    2089    1577                                                        4581    0.83    0.21  1.0000
   9   3   3    1201    1099                                                        2519   -0.60    0.05  1.0000
   9   3   4    5615    2303                                                        8624   -0.69    0.02  1.0000
   9   3   5  231573   13662                                                      284299    2.01    0.04  1.0000
  -9  -3  -6  362222   16103                                                      416691   -1.69    0.03  1.0000
   9   3   6  441744   18018                                                      501697   -1.69   -0.03  1.0000
  -9  -3  -7    5553    2205                                                        7694    0.51   -0.04  1.0000
  -9  -3  -8  860910   21913                                                      785019   -1.62    0.06  1.0000
   9   3   8  648741   17129                                                      583093   -1.62   -0.06  1.0000
  -9  -3  -9   29685    4951                                                       41138    1.18   -0.03  1.0000
  -9  -3 -10  113629    7969                                                      134866   -1.17    0.04  1.0000
   9   3  11   72562    4490                                                       73451    0.06   -0.03  1.0000
   9   4  -1   16929    1953                                                       15807   -0.17   -0.01  1.0000
   9   4   0   24558    3072                                                       23101    0.18   -0.01  1.0000
   9   4   1    2285    1398                                                        4570   -0.77   -0.07  1.0000
   9   4   2  410979   16363                                                      450088    1.15    0.03  1.0000
   9   4   2  409790   14964                                                      448844    1.15    0.03  1.0000
   9   4   3    3074    1215                                                        2893   -1.06   -0.33  1.0000
   9   4   4  171974    9910                                                      159973    0.57    0.05  1.0000
   9   4   5   78804    7171                                                       79842    0.07   -0.12  1.0000
   9   4   6  233217   11754                                                      216263   -0.69    0.02  1.0000
  -9  -4  -7   62082    6318                                                       64026   -0.15    0.03  1.0000
  -9  -4  -8   61337    6758                                                       73108    0.88   -0.02  1.0000
   9   4   8   44734    5191                                                       54862    0.88    0.02  1.0000
  -9  -4  -9  590352   18190                                                      595076    0.12    0.02  1.0000
  -9  -4 -10   20494    3153                                                       22304    0.24   -0.03  1.0000
  -9  -4 -11   35655    3514                                                       38723   -0.31    0.07  1.0000
   9   5   0    7892    1403                                                        6824   -0.24   -0.01  1.0000
   9   5   1  103185    6583                                                      103169    0.00    0.04  1.0000
   9   5   2     971     628                                                         554    0.29    0.00  1.0000
   9   5   2     719     208                                                         368    0.29    0.00  1.0000
   9   5   3   80010    6124                                                       69434   -0.75    0.03  1.0000
   9   5   4  112370    7988                                                      109815    0.15    0.18  1.0000
   9   5   5    3810    1271                                                        3008    0.27    0.04  1.0000
   9   5   6  172674   10106                                                      162461   -0.48    0.01  1.0000
   9   5   7      58     589                                                         770    0.78    0.04  1.0000
  -9  -5  -8   80814    6549                                                       74477    0.44    0.01  1.0000
  -9  -5  -9   16433    3184                                                       20508   -0.58    0.00  1.0000
  -9  -5 -10  422305   13183                                                      429767    0.22   -0.01  1.0000
  -9  -5 -11    7791    1571                                                        8820   -0.22   -0.01  1.0000
   9   6   1    2973     687                                                        1650    0.54    0.01  1.0000
   9   6   1    2385     409                                                        1220    0.54    0.01  1.0000
   9   6   2   82747    5752                                                       83147   -0.03   -0.04  1.0000
   9   6   2   76161    5365                                                       76546   -0.03   -0.04  1.0000
   9   6   3    8443    1993                                                        9252    0.17    0.03  1.0000
   9   6   4   37102    4491                                                       39520    0.24   -0.04  1.0000
   9   6   5   15720    3534                                                       23256    1.05   -0.07  1.0000
   9   6   6   54166    6227                                                       72420   -1.41   -0.02  1.0000
   9   6   7  350494   14421                                                      403602    1.67    0.01  1.0000
  -9  -6  -8   16971    1812                                                        7588   -1.67    0.02  1.0000
  -9  -6  -9  264261   10480                                                      253993    0.39   -0.01  1.0000
  -9  -6 -10   17514    2676                                                       21786   -0.59    0.01  1.0000
   9   7   2   20620    2163                                                       18759   -0.26    0.03  1.0000
   9   7   2   21202    2234                                                       19313   -0.26    0.03  1.0000
   9   7   3   87081    5812                                                       93572   -0.42   -0.03  1.0000
   9   7   3   98836    6123                                                      105743   -0.42   -0.03  1.0000
   9   7   4    1489     358                                                        1124    0.20    0.03  1.0000
   9   7   5  121325    6988                                                      109307   -0.68   -0.04  1.0000
   9   7   6     166     663                                                         944   -0.69    0.06  1.0000
   9   7   7   65233    4828                                                       56726    0.67   -0.03  1.0000
  -9  -7  -8   29036    3037                                                       22186   -0.83    0.00  1.0000
  -9  -7  -9    2481     735                                                        1612    0.37    0.01  1.0000
  -9  -7 -10   67834    3920                                                       62300    0.42   -0.01  1.0000
   9   8   4    4941     842                                                        2354    0.84    0.01  1.0000
   9   8   4    3885     621                                                        1645    0.84    0.01  1.0000
   9   8   5    9447    1434                                                        6639   -0.61    0.01  1.0000
   9   8   6    6567    1791                                                       10929    0.91    0.00  1.0000
   9   8   7    2448     777                                                        2059    0.16    0.01  1.0000
  -9  -8  -8      14     303                                                        -197    0.15    0.00  1.0000
  10  -5   1   19549    2056                                                       15983   -0.52    0.01  1.0000
  10  -5   2       5     212                                                        -147    0.08   -0.01  1.0000
  10  -5   3   14996    1952                                                       12416    0.43    0.01  1.0000
  10  -5   4   87641    4851                                                       80165   -0.50   -0.01  1.0000
  10  -5   5   24763    2198                                                       19673   -0.66    0.02  1.0000
  10  -4   0   90568    4573                                                       80305    0.68    0.02  1.0000
  10  -4   0  181944    7457                                                      167269    0.68    0.02  1.0000
  10  -4   1    4766    1538                                                        7023    0.57   -0.01  1.0000
  10  -4   1    2193    1044                                                        3795    0.57   -0.01  1.0000
  10  -4   2  159103    7498                                                      163105    0.19    0.01  1.0000
  10  -4   2  110522    6288                                                      113861    0.19    0.01  1.0000
  10  -4   3    2053     876                                                        2462   -0.17   -0.01  1.0000
  10  -4   3    6356    1610                                                        7061   -0.17   -0.01  1.0000
  10  -4   4    8486    2108                                                       13233   -0.89    0.00  1.0000
  10  -4   4   38859    4647                                                       48418   -0.89    0.00  1.0000
  10  -4   5  105676    5857                                                      109032    0.20    0.00  1.0000
  10  -3  -1  103606    5717                                                       99697   -0.24    0.00  1.0000
  10  -3   0    2166     748                                                        2237    0.03   -0.01  1.0000
  10  -3   1  116977    7552                                                      128376   -0.63   -0.03  1.0000
  10  -3   2  114673    6638                                                       97699   -1.01    0.00  1.0000
  10  -3   2  138039    7091                                                      119350   -1.01    0.00  1.0000
  10  -3   3  111370    7077                                                      113884    0.14   -0.02  1.0000
  10  -3   3  209876   10171                                                      213322    0.14   -0.02  1.0000
  10  -3   4   47921    4919                                                       47258    0.06    0.02  1.0000
  10  -3   5    9172    2865                                                       17017    1.34    0.01  1.0000
  10  -3   6   52607    4469                                                       51370   -0.10   -0.01  1.0000
  10  -3   6  109565    6876                                                      107776   -0.10   -0.01  1.0000
  10  -3   7    9188    1674                                                        7969   -0.25    0.01  1.0000
  10  -3   8  102743    5367                                                       96963    0.35    0.01  1.0000
  10  -2  -1    5781    1660                                                        8625   -0.65   -0.01  1.0000
  10  -2   0   71101    5900                                                       79552    0.60   -0.01  1.0000
  10  -2   1    5974    1775                                                        6915   -0.23    0.05  1.0000
  10  -2   2   35446    3852                                                       29403    0.65   -0.01  1.0000
  10  -2   2   42263    4007                                                       35639    0.65   -0.01  1.0000
  10  -2   3     181     887                                                        1008    0.71    0.02  1.0000
  10  -2   4  220965   11153                                                      223173    0.09    0.00  1.0000
  10  -2   5  212094   10936                                                      215745   -0.15   -0.01  1.0000
  10  -2   6   85704    7222                                                      101685   -1.01   -0.04  1.0000
  10  -2   7   96087    6075                                                       94448   -0.10    0.03  1.0000
  10  -2   7  167166    8379                                                      165002   -0.10    0.03  1.0000
  10  -2   8    6543    1772                                                        8612    0.46   -0.01  1.0000
  10  -2   9   76654    4721                                                       81837   -0.36    0.00  1.0000
  10  -1  -1   71249    5268                                                       82936   -0.81   -0.01  1.0000
  10  -1  -1   79828    5565                                                       92172   -0.81   -0.01  1.0000
  10  -1   0   48709    4231                                                       41109    0.69    0.03  1.0000
  10  -1   0   41310    3752                                                       34336    0.69    0.03  1.0000
  10  -1   1  399555   14123                                                      387222   -0.38    0.00  1.0000
  10  -1   2   34919    4041                                                       35665    0.08   -0.04  1.0000
  10  -1   3  381895   14483                                                      387428   -0.17    0.01  1.0000
  10  -1   4    1722     341                                                         549   -0.70    0.02  1.0000
  10  -1   5  311390   13699                                                      322324    0.38   -0.01  1.0000
  10  -1   6  234430   11658                                                      248827   -0.57    0.04  1.0000
  10  -1   7   14161    2114                                                        9263    0.88    0.02  1.0000
  10  -1   8   94710    5771                                                       91898   -0.18    0.00  1.0000
  10  -1   8  142127    7020                                                      138678   -0.18    0.00  1.0000
  10  -1   9    9246    1472                                                        6960   -0.49    0.00  1.0000
  10   0  -1   50940    3807                                                       47294   -0.32    0.02  1.0000
  10   0  -1   46220    3492                                                       42751   -0.32    0.02  1.0000
  10   0   0  128119    6656                                                      108121    1.13    0.01  1.0000
  10   0   0  127133    6348                                                      107216    1.13    0.01  1.0000
  10   0   1   37787    4810                                                       46768   -0.85    0.00  1.0000
  10   0   1   28916    3879                                                       36832   -0.85    0.00  1.0000
  10   0   2  508069   16096                                                      514176    0.17   -0.01  1.0000
  10   0   2  492339   15211                                                      498351    0.17   -0.01  1.0000
  10   0   3   11176    2197                                                       10202    0.18    0.02  1.0000
  10   0   3   10715    2226                                                        9761    0.18    0.02  1.0000
  10   0   4  378002   15083                                                      388991   -0.34   -0.02  1.0000
  10   0   5   59156    6539                                                       71707    0.95   -0.01  1.0000
  10   0   6   69297    5579                                                       56035   -1.03   -0.01  1.0000
 -10   0  -7   49178    4255                                                       37486    1.09    0.02  1.0000
  10   0   7   64642    5086                                                       51121    1.09   -0.02  1.0000
 -10   0  -8   76995    6360                                                       85640   -0.59    0.02  1.0000
  10   0   8   76799    5862                                                       85433   -0.59   -0.02  1.0000
  10   0   9  236795    8865                                                      248225    0.45    0.01  1.0000
  10   0  10   23020    2504                                                       25631    0.32   -0.02  1.0000
  10   1  -1  164057    6336                                                      155507   -0.41    0.03  1.0000
  10   1   0   64043    4962                                                       71592    0.56    0.01  1.0000
  10   1   0   61159    4772                                                       68541    0.56    0.01  1.0000
  10   1   1   61914    6002                                                       79195   -1.26    0.00  1.0000
  10   1   1   82339    7046                                                      102104   -1.26    0.00  1.0000
  10   1   2   12029    2963                                                       17195    0.83    0.00  1.0000
  10   1   2   12571    2773                                                       17842    0.83    0.00  1.0000
  10   1   3  246148   11302                                                      245170   -0.04   -0.01  1.0000
  10   1   3  275598   12055                                                      274563   -0.04   -0.01  1.0000
  10   1   4   36076    4313                                                       32595   -0.36    0.00  1.0000
  10   1   5  240100   11924                                                      237612    0.10    0.02  1.0000
 -10  -1  -6  288738   11313                                                      273410   -0.56    0.03  1.0000
  10   1   6  368391   14352                                                      351050   -0.56   -0.03  1.0000
 -10  -1  -7  379081   14012                                                      400521    0.66   -0.04  1.0000
  10   1   7  423869   15302                                                      446523    0.66    0.04  1.0000
 -10  -1  -8  118049    8053                                                      129439   -0.63    0.01  1.0000
  10   1   8  113791    7316                                                      124979   -0.63   -0.01  1.0000
 -10  -1  -9   51347    4684                                                       51218    0.01   -0.01  1.0000
  10   1  10  179562    6416                                                      171970   -0.35   -0.01  1.0000
  10   2   0   93269    5008                                                       94076    0.05   -0.02  1.0000
  10   2   1  111511    6213                                                      105201   -0.37   -0.09  1.0000
  10   2   1  152174    8167                                                      144788   -0.37   -0.09  1.0000
  10   2   2  166171    8835                                                      150467    0.76    0.00  1.0000
  10   2   2  149489    7486                                                      134614    0.76    0.00  1.0000
  10   2   3   19354    3238                                                       20783   -0.20   -0.02  1.0000
  10   2   3   17576    3116                                                       18938   -0.20   -0.02  1.0000
  10   2   4  454388   14782                                                      440653   -0.40    0.04  1.0000
  10   2   4  523251   17037                                                      508504   -0.40    0.04  1.0000
  10   2   5   70550    6835                                                       79048    0.60   -0.02  1.0000
 -10  -2  -6  189574    9422                                                      179352    0.46   -0.01  1.0000
  10   2   6  261036   11979                                                      249017    0.46    0.01  1.0000
 -10  -2  -7  287728   12092                                                      288234    0.02   -0.03  1.0000
  10   2   7  299554   12558                                                      300070    0.02    0.03  1.0000
 -10  -2  -8   94070    6907                                                       96116    0.13    0.00  1.0000
  10   2   8   81109    6025                                                       83010    0.13    0.00  1.0000
 -10  -2  -9   74304    5821                                                       76668   -0.17    0.02  1.0000
 -10  -2 -10    9665    1537                                                        6548    0.67   -0.05  1.0000
  10   3   1   89521    5959                                                       88164   -0.09    0.06  1.0000
  10   3   2  234470   10802                                                      245436    0.43    0.10  1.0000
  10   3   2  184994    8447                                                      194748    0.43    0.10  1.0000
  10   3   3  147334    8764                                                      151505   -0.21    0.09  1.0000
  10   3   3  159717    8801                                                      164059   -0.21    0.09  1.0000
  10   3   4    3386     881                                                        1884   -0.57   -0.04  1.0000
  10   3   4    3623     807                                                        2061   -0.57   -0.04  1.0000
  10   3   5  301554   12507                                                      333747    1.11    0.04  1.0000
 -10  -3  -6   15170    1992                                                        9140   -1.07    0.05  1.0000
  10   3   6   17659    2470                                                       11094   -1.07   -0.05  1.0000
 -10  -3  -7    9846    2244                                                       10419   -0.11   -0.04  1.0000
  10   3   7   10915    2354                                                       11518   -0.11    0.04  1.0000
 -10  -3  -8   47747    4409                                                       41442   -0.58    0.07  1.0000
  10   3   8   41418    3946                                                       35560   -0.58   -0.07  1.0000
 -10  -3  -9  170989    8786                                                      175444    0.21   -0.03  1.0000
 -10  -3 -10  106993    6333                                                      110209   -0.19    0.00  1.0000
  10   4   1   85355    5394                                                       90414   -0.33   -0.01  1.0000
  10   4   2   44562    4592                                                       50344    0.51    0.00  1.0000
  10   4   3   39289    4091                                                       35268   -0.40   -0.19  1.0000
  10   4   3   34103    3423                                                       30363   -0.40   -0.19  1.0000
  10   4   4   44170    4869                                                       48210   -0.36   -0.03  1.0000
  10   4   4   57283    5391                                                       61871   -0.36   -0.03  1.0000
  10   4   5   36843    3604                                                       27903    0.96   -0.02  1.0000
 -10  -4  -5   32454    3187                                                       24102    0.96    0.02  1.0000
  10   4   6  167205    7551                                                      139986   -1.34   -0.01  1.0000
 -10  -4  -6  214123    9350                                                      183162   -1.34    0.01  1.0000
 -10  -4  -7   13300    1785                                                        8263    0.95   -0.02  1.0000
  10   4   7   15169    2126                                                        9749    0.95    0.02  1.0000
 -10  -4  -8  230485   10610                                                      238907   -0.34    0.02  1.0000
  10   4   8  195783    9182                                                      203551   -0.34   -0.02  1.0000
 -10  -4  -9   49197    5002                                                       60459    0.93   -0.06  1.0000
 -10  -4 -10  161955    7220                                                      152909   -0.44    0.05  1.0000
  10   5   2   83513    5025                                                       80099    0.23    0.05  1.0000
  10   5   3  150960    7426                                                      138914   -0.61   -0.08  1.0000
  10   5   3  150280    6815                                                      138262   -0.61   -0.08  1.0000
  10   5   4   93704    6418                                                       96565    0.18    0.22  1.0000
  10   5   4  110082    6867                                                      113184    0.18    0.22  1.0000
  10   5   5  178294    8585                                                      171340    0.32   -0.04  1.0000
 -10  -5  -5  136801    7109                                                      130718    0.32    0.04  1.0000
 -10  -5  -6   31829    3841                                                       34385   -0.27   -0.06  1.0000
  10   5   6   45357    4816                                                       48399   -0.27    0.06  1.0000
 -10  -5  -7  325529   12209                                                      335223    0.33    0.02  1.0000
 -10  -5  -8   25222    2929                                                       22319    0.36   -0.02  1.0000
  10   5   8   22597    2724                                                       19854    0.36    0.02  1.0000
 -10  -5  -9   60870    4808                                                       65074   -0.32    0.02  1.0000
 -10  -5 -10   51301    3892                                                       52582    0.11    0.01  1.0000
  10   6   3   81228    4893                                                       82571   -0.09    0.03  1.0000
  10   6   3   58229    3844                                                       59367   -0.09    0.03  1.0000
  10   6   4  102309    6207                                                      112534    0.60    0.00  1.0000
  10   6   4  118013    6517                                                      128977    0.60    0.00  1.0000
  10   6   5    9394    1885                                                        9886    0.10   -0.07  1.0000
 -10  -6  -5    6471    1352                                                        6880    0.10    0.07  1.0000
  10   6   5   11966    2140                                                       12521    0.10   -0.07  1.0000
 -10  -6  -6  110230    6494                                                      117297   -0.41    0.04  1.0000
  10   6   6  159943    8140                                                      168434   -0.41   -0.04  1.0000
 -10  -6  -7    4340     990                                                        3319    0.32   -0.02  1.0000
 -10  -6  -8   54479    4286                                                       51484   -0.25    0.03  1.0000
  10   6   8   49928    3771                                                       47062   -0.25   -0.03  1.0000
 -10  -6  -9    1611     820                                                        2561   -0.41    0.00  1.0000
  10   7   5   14537    1989                                                       14672    0.02    0.00  1.0000
  10   7   5   17109    2002                                                       17255    0.02    0.00  1.0000
  10   7   6   37085    2780                                                       28582   -0.91    0.05  1.0000
 -10  -7  -6   31117    2463                                                       23375   -0.91   -0.05  1.0000
 -10  -7  -7   10008    1105                                                        5061    1.12    0.00  1.0000
 -10  -7  -8     721     364                                                        -225   -1.04    0.00  1.0000
  11  -3   2   23944    2482                                                       25634   -0.21   -0.01  1.0000
  11  -3   3   50076    3422                                                       46941   -0.28   -0.01  1.0000
  11  -3   4   22932    2663                                                       22822   -0.01    0.01  1.0000
  11  -3   5   65737    4317                                                       58899    0.53    0.00  1.0000
  11  -2   1  143732    6313                                                      143277   -0.02    0.00  1.0000
  11  -2   2   94179    5389                                                       89629    0.29   -0.01  1.0000
  11  -2   3   33752    3202                                                       30119    0.39    0.01  1.0000
  11  -2   3   45980    3591                                                       41721    0.39    0.01  1.0000
  11  -2   4   66287    4610                                                       67421    0.08    0.01  1.0000
  11  -2   4  148864    7469                                                      150560    0.08    0.01  1.0000
  11  -2   5    3612    1099                                                        4462    0.26   -0.01  1.0000
  11  -2   5   10850    2127                                                       12290    0.26   -0.01  1.0000
  11  -2   6   18160    2730                                                       22362   -0.57   -0.02  1.0000
  11  -2   7   27685    2695                                                       26633   -0.12    0.00  1.0000
  11  -1   1   68521    4437                                                       66416   -0.16    0.01  1.0000
  11  -1   2  122430    6680                                                      122725    0.02    0.00  1.0000
  11  -1   3   34910    3737                                                       36124   -0.12    0.04  1.0000
  11  -1   3   43866    3928                                                       45227   -0.12    0.04  1.0000
  11  -1   4  132637    7405                                                      136243   -0.19    0.00  1.0000
  11  -1   5   58081    4854                                                       57611   -0.04    0.00  1.0000
  11  -1   6    1930     744                                                        1185   -0.37    0.00  1.0000
  11  -1   7  118386    6142                                                      112694    0.32    0.03  1.0000
  11   0   1  127673    6045                                                      131113   -0.19   -0.02  1.0000
  11   0   2  175784    7984                                                      175868    0.00   -0.02  1.0000
  11   0   3  236222    9999                                                      240367    0.16    0.01  1.0000
  11   0   3  273294    9900                                                      277751    0.16    0.01  1.0000
  11   0   4   57501    4889                                                       58160   -0.05   -0.03  1.0000
  11   0   5  101841    6521                                                       96833    0.31   -0.01  1.0000
  11   0   6  168845    8291                                                      160330   -0.41    0.01  1.0000
  11   0   7     461     755                                                        1266    0.55   -0.01  1.0000
  11   0   8   45424    3574                                                       46717   -0.12    0.00  1.0000
  11   1   2  215969    8318                                                      212055    0.16   -0.01  1.0000
  11   1   3  226280    8733                                                      226531    0.01    0.03  1.0000
  11   1   4  301895   10890                                                      287683   -0.51   -0.02  1.0000
  11   1   5  132554    7516                                                      127748    0.26    0.02  1.0000
  11   1   6   13361    2769                                                       17573   -0.66   -0.03  1.0000
  11   1   7  155986    8231                                                      171613    0.75    0.01  1.0000
  11   1   8     383     321                                                        1011   -0.47    0.00  1.0000
  11   2   2    5332     858                                                        3411    0.57    0.02  1.0000
  11   2   3   93297    5623                                                       91473    0.12   -0.03  1.0000
  11   2   3  111637    6063                                                      109641    0.12   -0.03  1.0000
  11   2   3  108542    5676                                                      106574    0.12   -0.03  1.0000
  11   2   4   65839    4520                                                       62051   -0.29    0.04  1.0000
  11   2   4   99047    6031                                                       94388   -0.29    0.04  1.0000
  11   2   5  335606   12415                                                      357882    0.73   -0.01  1.0000
  11   2   6    3622    1302                                                        3855   -0.07    0.02  1.0000
 -11  -2  -7     333     495                                                         907    0.46   -0.05  1.0000
  11   2   7     716     614                                                        1494    0.46    0.05  1.0000
 -11  -2  -8  171851    7229                                                      163884   -0.38    0.02  1.0000
  11   2   8  208575    7896                                                      199789   -0.38   -0.02  1.0000
 -11  -2  -9    6355    1369                                                        6777    0.10    0.00  1.0000
  11   3   3    6343    1327                                                        7339   -0.23   -0.03  1.0000
  11   3   3   12579    2057                                                       13967   -0.23   -0.03  1.0000
  11   3   3    9715    1620                                                       10939   -0.23   -0.03  1.0000
  11   3   4   96896    5726                                                      101390   -0.28    0.03  1.0000
  11   3   4  123349    6640                                                      128413   -0.28    0.03  1.0000
  11   3   5   11342    1978                                                       13525    0.38   -0.04  1.0000
  11   3   5   23247    3159                                                       26330    0.38   -0.04  1.0000
  11   3   6  217525    9203                                                      211794   -0.24    0.00  1.0000
 -11  -3  -7    2686    1146                                                        4172   -0.49    0.02  1.0000
  11   3   7    5276    1638                                                        7294   -0.49   -0.02  1.0000
 -11  -3  -8      12     376                                                        -109    0.12    0.06  1.0000
  11   3   8     435     457                                                         584    0.12   -0.06  1.0000
 -11  -3  -9   45236    3384                                                       42495   -0.25    0.00  1.0000
  11   4   3  276046    8138                                                      261731   -0.53   -0.03  1.0000
  11   4   4    9039    1638                                                        9795   -0.15   -0.04  1.0000
  11   4   4   11050    1839                                                       11884   -0.15   -0.04  1.0000
  11   4   5  123074    5646                                                      115196    0.44    0.04  1.0000
  11   4   5  188265    7761                                                      178491    0.44    0.04  1.0000
  11   4   6   53902    4017                                                       45856   -0.70   -0.03  1.0000
 -11  -4  -7   65884    4415                                                       68756    0.21   -0.05  1.0000
  11   4   7  104969    6003                                                      108588    0.21    0.05  1.0000
 -11  -4  -8   24464    2626                                                       24690   -0.03    0.03  1.0000
  11   4   8   27133    2704                                                       27371   -0.03   -0.03  1.0000
 -11  -4  -9     178      39                                                         231    0.27   -0.09  1.0000
  11   5   5   12692    1479                                                        8442    0.80   -0.01  1.0000
  11   5   6  192791    7741                                                      208288   -0.67    0.01  1.0000
  11   5   7    1773    1046                                                        4089    0.85   -0.02  1.0000

;
_shelx_hkl_checksum              1430
loop_
_space_group_symop_operation_xyz
'x, y, z'
'-x, -y, -z'
loop_
_atom_site_label
_atom_site_type_symbol
_atom_site_fract_x
_atom_site_fract_y
_atom_site_fract_z
_atom_site_U_iso_or_equiv
_atom_site_adp_type
_atom_site_occupancy
_atom_site_site_symmetry_order
_atom_site_calc_flag
_atom_site_refinement_flags_posn
_atom_site_refinement_flags_adp
_atom_site_refinement_flags_occupancy
Na1 Na 0.000000 0.000000 0.000000 0.0426(6) Uani 1 2 d S . P
Zn1 Zn 0.15757(5) 0.27845(5) -0.28205(5) 0.0344(3) Uani 1 1 d . . .
O1 O 0.3353(3) 0.2523(4) -0.2310(3) 0.0457(7) Uani 1 1 d . . .
O2 O 0.1678(3) 0.1526(4) -0.0044(4) 0.0507(8) Uani 1 1 d . . .
O3 O 0.3135(4) 0.0137(4) 0.4035(3) 0.0560(9) Uani 1 1 d . . .
O4 O 0.5512(4) 0.0443(4) 0.3665(3) 0.0474(8) Uani 1 1 d . . .
H4 H 0.632724 0.074674 0.296713 0.071 Uiso 1 1 calc R U .
O5 O -0.0559(3) 0.2218(3) -0.1365(3) 0.0388(7) Uani 1 1 d . . .
O6 O -0.1129(4) 0.2847(4) -0.3254(3) 0.0550(9) Uani 1 1 d . . .
O7 O 0.1593(4) 0.0508(3) -0.2679(4) 0.0455(7) Uani 1 1 d . . .
O8 O 0.1311(5) 0.4818(4) -0.2665(4) 0.0659(11) Uani 1 1 d . . .
H8A H 0.090673 0.505222 -0.189423 0.099 Uiso 1 1 d R U .
H8B H 0.158395 0.559282 -0.335813 0.099 Uiso 1 1 d R U .
N1 N 0.2723(4) 0.3470(4) -0.5078(3) 0.0352(7) Uani 1 1 d . . .
N2 N 0.5346(4) 0.4875(4) -0.9613(4) 0.0394(8) Uani 1 1 d . . .
C1 C 0.4212(5) 0.3708(5) -0.5653(4) 0.0456(11) Uani 1 1 d . . .
H1 H 0.468950 0.356398 -0.502842 0.055 Uiso 1 1 calc R U .
C2 C 0.5089(5) 0.4162(6) -0.7149(5) 0.0466(11) Uani 1 1 d . . .
H2 H 0.613488 0.430638 -0.752257 0.056 Uiso 1 1 calc R U .
C3 C 0.4374(5) 0.4394(4) -0.8063(4) 0.0351(8) Uani 1 1 d . . .
C4 C 0.2836(5) 0.4162(6) -0.7477(5) 0.0474(11) Uani 1 1 d . . .
H4A H 0.233373 0.431585 -0.808183 0.057 Uiso 1 1 calc R U .
C5 C 0.2043(5) 0.3702(6) -0.5990(5) 0.0481(11) Uani 1 1 d . . .
H5 H 0.099727 0.354420 -0.559797 0.058 Uiso 1 1 calc R U .
C6 C 0.2993(5) 0.1966(4) -0.0952(4) 0.0357(8) Uani 1 1 d . . .
C7 C 0.4229(4) 0.1821(4) -0.0439(4) 0.0289(7) Uani 1 1 d . . .
C8 C 0.3842(4) 0.1271(4) 0.1054(4) 0.0316(8) Uani 1 1 d . . .
H8 H 0.283770 0.098518 0.169829 0.038 Uiso 1 1 calc R U .
C9 C 0.4938(4) 0.1142(4) 0.1595(4) 0.0308(8) Uani 1 1 d . . .
C10 C 0.4466(4) 0.0525(4) 0.3204(4) 0.0329(8) Uani 1 1 d . . .
C11 C 0.6441(4) 0.1554(4) 0.0623(4) 0.0301(7) Uani 1 1 d . . .
H11 H 0.717452 0.149917 0.097896 0.036 Uiso 1 1 calc R U .
C12 C 0.6861(4) 0.2050(4) -0.0883(4) 0.0296(7) Uani 1 1 d . . .
C13 C -0.1513(5) 0.2407(4) -0.1917(4) 0.0337(8) Uani 1 1 d . . .
C14 C 0.5723(4) 0.2197(4) -0.1385(4) 0.0299(7) Uani 1 1 d . . .
H14 H 0.598402 0.255700 -0.238301 0.036 Uiso 1 1 calc R U .
loop_
_atom_site_aniso_label
_atom_site_aniso_U_11
_atom_site_aniso_U_22
_atom_site_aniso_U_33
_atom_site_aniso_U_23
_atom_site_aniso_U_13
_atom_site_aniso_U_12
Na1 0.0305(11) 0.0498(13) 0.0334(12) 0.0090(9) -0.0142(10) -0.0118(9)
Zn1 0.0228(4) 0.0539(4) 0.0163(3) 0.0025(2) -0.0070(2) -0.0077(2)
O1 0.0330(16) 0.072(2) 0.0284(15) -0.0006(13) -0.0182(13) -0.0086(14)
O2 0.0240(15) 0.083(2) 0.0400(18) -0.0079(16) -0.0148(14) -0.0106(14)
O3 0.0311(17) 0.090(3) 0.0257(16) 0.0041(15) -0.0056(13) -0.0165(16)
O4 0.0330(16) 0.081(2) 0.0192(14) -0.0042(14) -0.0102(12) 0.0005(14)
O5 0.0199(13) 0.0529(16) 0.0309(14) 0.0036(12) -0.0094(11) -0.0082(11)
O6 0.0316(16) 0.098(3) 0.0206(15) -0.0055(15) -0.0044(12) -0.0069(16)
O7 0.0419(17) 0.0494(17) 0.0386(17) -0.0081(13) -0.0145(14) 0.0020(13)
O8 0.080(3) 0.053(2) 0.045(2) -0.0133(16) -0.008(2) -0.0010(18)
N1 0.0303(17) 0.0482(18) 0.0164(14) -0.0002(12) -0.0058(13) -0.0047(13)
N2 0.0397(19) 0.0465(18) 0.0207(16) -0.0030(13) -0.0059(14) -0.0088(14)
C1 0.036(2) 0.072(3) 0.0172(19) -0.0001(18) -0.0071(17) -0.014(2)
C2 0.032(2) 0.074(3) 0.022(2) -0.0058(19) -0.0053(17) -0.011(2)
C3 0.038(2) 0.0358(18) 0.0201(17) -0.0005(14) -0.0061(15) -0.0046(15)
C4 0.037(2) 0.073(3) 0.023(2) -0.0005(19) -0.0137(18) -0.004(2)
C5 0.034(2) 0.077(3) 0.0201(19) 0.0018(19) -0.0101(18) -0.006(2)
C6 0.030(2) 0.045(2) 0.031(2) -0.0074(16) -0.0138(17) -0.0031(16)
C7 0.0217(17) 0.0373(18) 0.0245(18) -0.0039(14) -0.0104(14) -0.0022(13)
C8 0.0242(18) 0.0406(19) 0.0220(18) -0.0032(14) -0.0062(14) -0.0046(14)
C9 0.0310(19) 0.0376(18) 0.0216(18) -0.0037(14) -0.0125(15) -0.0025(14)
C10 0.0295(19) 0.044(2) 0.0196(17) -0.0038(15) -0.0097(15) 0.0004(15)
C11 0.0274(18) 0.0383(18) 0.0224(18) -0.0033(14) -0.0122(15) -0.0031(14)
C12 0.0259(18) 0.0350(17) 0.0241(18) -0.0031(14) -0.0110(15) -0.0011(13)
C13 0.032(2) 0.0384(19) 0.0242(18) -0.0024(15) -0.0106(16) -0.0037(15)
C14 0.0300(19) 0.0370(18) 0.0205(17) -0.0014(13) -0.0139(15) 0.0010(14)
loop_
_atom_type_symbol
_atom_type_description
_atom_type_scat_dispersion_real
_atom_type_scat_dispersion_imag
_atom_type_scat_source
C C 0.0181 0.0091 'International Tables Vol C Tables 4.2.6.8 and 6.1.1.4'
H H 0.0000 0.0000 'International Tables Vol C Tables 4.2.6.8 and 6.1.1.4'
N N 0.0311 0.0180 'International Tables Vol C Tables 4.2.6.8 and 6.1.1.4'
Na Na 0.1353 0.1239 'International Tables Vol C Tables 4.2.6.8 and 6.1.1.4'
O O 0.0492 0.0322 'International Tables Vol C Tables 4.2.6.8 and 6.1.1.4'
Zn Zn -1.5491 0.6778 'International Tables Vol C Tables 4.2.6.8 and 6.1.1.4'
loop_
_geom_angle_atom_site_label_1
_geom_angle_atom_site_label_2
_geom_angle_atom_site_label_3
_geom_angle
_geom_angle_site_symmetry_1
_geom_angle_site_symmetry_3
O2 Na1 O2 180.0 2 .
O2 Na1 O5 101.26(11) 2 .
O2 Na1 O5 78.74(11) . .
O2 Na1 O5 78.74(11) 2 2
O2 Na1 O5 101.26(11) . 2
O5 Na1 O5 180.0 . 2
O2 Na1 O7 93.17(11) 2 .
O2 Na1 O7 86.83(11) . .
O5 Na1 O7 69.79(10) . .
O5 Na1 O7 110.21(10) 2 .
O2 Na1 O7 86.83(11) 2 2
O2 Na1 O7 93.17(11) . 2
O5 Na1 O7 110.21(10) . 2
O5 Na1 O7 69.79(10) 2 2
O7 Na1 O7 180.0 . 2
O2 Na1 Zn1 121.03(8) 2 .
O2 Na1 Zn1 58.97(8) . .
O5 Na1 Zn1 37.50(6) . .
O5 Na1 Zn1 142.50(6) 2 .
O7 Na1 Zn1 43.55(7) . .
O7 Na1 Zn1 136.45(7) 2 .
O2 Na1 Zn1 58.97(8) 2 2
O2 Na1 Zn1 121.03(8) . 2
O5 Na1 Zn1 142.50(6) . 2
O5 Na1 Zn1 37.50(6) 2 2
O7 Na1 Zn1 136.45(7) . 2
O7 Na1 Zn1 43.55(7) 2 2
Zn1 Na1 Zn1 180.0 . 2
O5 Zn1 O1 124.01(12) . .
O5 Zn1 N1 136.57(13) . .
O1 Zn1 N1 98.92(13) . .
O5 Zn1 O8 89.72(15) . .
O1 Zn1 O8 93.69(17) . .
N1 Zn1 O8 94.12(15) . .
O5 Zn1 O7 83.01(12) . .
O1 Zn1 O7 87.84(14) . .
N1 Zn1 O7 93.30(13) . .
O8 Zn1 O7 172.10(13) . .
O5 Zn1 Na1 47.67(8) . .
O1 Zn1 Na1 85.61(9) . .
N1 Zn1 Na1 143.11(10) . .
O8 Zn1 Na1 122.26(11) . .
O7 Zn1 Na1 50.08(8) . .
C6 O1 Zn1 113.4(3) . .
C6 O2 Na1 130.3(3) . .
C10 O4 H4 109.5 . .
C13 O5 Zn1 114.3(2) . .
C13 O5 Na1 126.8(3) . .
Zn1 O5 Na1 94.83(11) . .
Zn1 O7 Na1 86.37(11) . .
Zn1 O8 H8A 127.7 . .
Zn1 O8 H8B 127.8 . .
H8A O8 H8B 104.5 . .
C1 N1 C5 118.1(4) . .
C1 N1 Zn1 118.0(3) . .
C5 N1 Zn1 123.9(3) . .
N2 N2 C3 113.5(5) 2_663 .
N1 C1 C2 122.7(4) . .
N1 C1 H1 118.7 . .
C2 C1 H1 118.7 . .
C3 C2 C1 118.3(4) . .
C3 C2 H2 120.8 . .
C1 C2 H2 120.8 . .
C4 C3 C2 119.3(4) . .
C4 C3 N2 124.9(4) . .
C2 C3 N2 115.8(4) . .
C3 C4 C5 119.3(4) . .
C3 C4 H4A 120.4 . .
C5 C4 H4A 120.4 . .
N1 C5 C4 122.3(4) . .
N1 C5 H5 118.8 . .
C4 C5 H5 118.8 . .
O2 C6 O1 123.1(4) . .
O2 C6 C7 119.1(3) . .
O1 C6 C7 117.7(3) . .
C14 C7 C8 119.1(3) . .
C14 C7 C6 122.5(3) . .
C8 C7 C6 118.4(3) . .
C9 C8 C7 120.9(3) . .
C9 C8 H8 119.6 . .
C7 C8 H8 119.6 . .
C11 C9 C8 119.2(3) . .
C11 C9 C10 122.1(3) . .
C8 C9 C10 118.7(3) . .
O3 C10 O4 122.5(4) . .
O3 C10 C9 120.7(4) . .
O4 C10 C9 116.8(3) . .
C9 C11 C12 120.8(3) . .
C9 C11 H11 119.6 . .
C12 C11 H11 119.6 . .
C11 C12 C14 118.3(3) . .
C11 C12 C13 120.2(3) . 1_655
C14 C12 C13 121.5(3) . 1_655
O6 C13 O5 122.2(4) . .
O6 C13 C12 120.7(4) . 1_455
O5 C13 C12 117.1(3) . 1_455
C7 C14 C12 121.6(3) . .
C7 C14 H14 119.2 . .
C12 C14 H14 119.2 . .
loop_
_geom_bond_atom_site_label_1
_geom_bond_atom_site_label_2
_geom_bond_distance
_geom_bond_site_symmetry_2
Na1 O2 2.292(3) 2
Na1 O2 2.292(3) .
Na1 O5 2.418(3) .
Na1 O5 2.418(3) 2
Na1 O7 2.505(3) .
Na1 O7 2.505(3) 2
Na1 Zn1 3.2595(5) .
Na1 Zn1 3.2595(5) 2
Zn1 O5 1.991(3) .
Zn1 O1 2.000(3) .
Zn1 N1 2.073(3) .
Zn1 O8 2.098(4) .
Zn1 O7 2.250(3) .
O1 C6 1.269(5) .
O2 C6 1.243(5) .
O3 C10 1.229(5) .
O4 C10 1.291(5) .
O4 H4 0.8200 .
O5 C13 1.267(5) .
O6 C13 1.239(5) .
O8 H8A 0.8500 .
O8 H8B 0.8499 .
N1 C1 1.324(6) .
N1 C5 1.342(6) .
N2 N2 1.225(7) 2_663
N2 C3 1.449(5) .
C1 C2 1.388(6) .
C1 H1 0.9300 .
C2 C3 1.371(6) .
C2 H2 0.9300 .
C3 C4 1.366(6) .
C4 C5 1.369(6) .
C4 H4A 0.9300 .
C5 H5 0.9300 .
C6 C7 1.497(5) .
C7 C14 1.374(5) .
C7 C8 1.392(5) .
C8 C9 1.391(6) .
C8 H8 0.9300 .
C9 C11 1.391(5) .
C9 C10 1.493(5) .
C11 C12 1.397(5) .
C11 H11 0.9300 .
C12 C14 1.398(5) .
C12 C13 1.492(5) 1_655
C14 H14 0.9300 .
loop_
_geom_torsion_atom_site_label_1
_geom_torsion_atom_site_label_2
_geom_torsion_atom_site_label_3
_geom_torsion_atom_site_label_4
_geom_torsion
_geom_torsion_site_symmetry_1
_geom_torsion_site_symmetry_4
C5 N1 C1 C2 -1.0(7) . .
Zn1 N1 C1 C2 179.7(4) . .
N1 C1 C2 C3 1.0(8) . .
C1 C2 C3 C4 -0.4(7) . .
C1 C2 C3 N2 179.6(4) . .
N2 N2 C3 C4 3.0(7) 2_663 .
N2 N2 C3 C2 -177.1(5) 2_663 .
C2 C3 C4 C5 -0.1(7) . .
N2 C3 C4 C5 179.8(4) . .
C1 N1 C5 C4 0.4(8) . .
Zn1 N1 C5 C4 179.6(4) . .
C3 C4 C5 N1 0.1(8) . .
Na1 O2 C6 O1 52.7(6) . .
Na1 O2 C6 C7 -126.4(3) . .
Zn1 O1 C6 O2 5.3(6) . .
Zn1 O1 C6 C7 -175.5(3) . .
O2 C6 C7 C14 175.6(4) . .
O1 C6 C7 C14 -3.6(6) . .
O2 C6 C7 C8 -3.7(6) . .
O1 C6 C7 C8 177.1(4) . .
C14 C7 C8 C9 2.1(6) . .
C6 C7 C8 C9 -178.5(3) . .
C7 C8 C9 C11 -0.9(6) . .
C7 C8 C9 C10 -179.1(3) . .
C11 C9 C10 O3 -178.1(4) . .
C8 C9 C10 O3 0.1(6) . .
C11 C9 C10 O4 2.8(6) . .
C8 C9 C10 O4 -179.0(4) . .
C8 C9 C11 C12 -2.0(6) . .
C10 C9 C11 C12 176.1(4) . .
C9 C11 C12 C14 3.6(5) . .
C9 C11 C12 C13 -176.3(3) . 1_655
Zn1 O5 C13 O6 3.1(5) . .
Na1 O5 C13 O6 -113.8(4) . .
Zn1 O5 C13 C12 -178.0(3) . 1_455
Na1 O5 C13 C12 65.1(4) . 1_455
C8 C7 C14 C12 -0.5(6) . .
C6 C7 C14 C12 -179.8(3) . .
C11 C12 C14 C7 -2.3(6) . .
C13 C12 C14 C7 177.6(3) 1_655 .
loop_
_platon_squeeze_void_nr
_platon_squeeze_void_average_x
_platon_squeeze_void_average_y
_platon_squeeze_void_average_z
_platon_squeeze_void_volume
_platon_squeeze_void_count_electrons
_platon_squeeze_void_content
1 0.000 0.037 0.463 183 44 ' '
