#------------------------------------------------------------------------------
#$Date: 2019-11-24 11:22:03 +0200 (Sun, 24 Nov 2019) $
#$Revision: 237781 $
#$URL: file:///home/coder/svn-repositories/cod/cif/7/23/75/7237574.cif $
#------------------------------------------------------------------------------
#
# This file is available in the Crystallography Open Database (COD),
# http://www.crystallography.net/
#
# All data on this site have been placed in the public domain by the
# contributors.
#
data_7237574
loop_
_publ_author_name
'Sun, Tiancheng'
'Wang, Ping'
'Fan, Ruiqing'
'Chen, Wei'
'Hao, Sue'
'Yang, Yulin'
_publ_section_title
;
 Functional microscale single-phase white emission lanthanide MOF for
 tunable fluorescent sensing and water quality monitoring
;
_journal_issue                   12
_journal_name_full               'Journal of Materials Chemistry C'
_journal_page_first              3598
_journal_paper_doi               10.1039/C8TC05968C
_journal_volume                  7
_journal_year                    2019
_chemical_formula_sum            'C14 H12 N O10 Tb'
_chemical_formula_weight         513.17
_space_group_crystal_system      triclinic
_space_group_IT_number           2
_space_group_name_Hall           '-P 1'
_space_group_name_H-M_alt        'P -1'
_atom_sites_solution_hydrogens   mixed
_audit_creation_method           SHELXL-2014/7
_audit_update_record
;
2018-10-12 deposited with the CCDC.	2019-02-19 downloaded from the CCDC.
;
_cell_angle_alpha                110.209(4)
_cell_angle_beta                 94.073(4)
_cell_angle_gamma                103.086(3)
_cell_formula_units_Z            2
_cell_length_a                   5.9619(19)
_cell_length_b                   11.757(4)
_cell_length_c                   12.566(4)
_cell_measurement_reflns_used    2763
_cell_measurement_temperature    293(2)
_cell_measurement_theta_max      24.997
_cell_measurement_theta_min      2.983
_cell_volume                     794.3(4)
_computing_structure_refinement  'SHELXL-2014/7 (Sheldrick, 2014)'
_diffrn_ambient_temperature      293(2)
_diffrn_measured_fraction_theta_full 0.993
_diffrn_measured_fraction_theta_max 0.993
_diffrn_measurement_device_type  'Bruker Smart APEX CCD area detector'
_diffrn_measurement_method       'phi and omega scans'
_diffrn_radiation_type           MoK\a
_diffrn_radiation_wavelength     0.71073
_diffrn_reflns_av_R_equivalents  0.0173
_diffrn_reflns_av_unetI/netI     0.0281
_diffrn_reflns_Laue_measured_fraction_full 0.993
_diffrn_reflns_Laue_measured_fraction_max 0.993
_diffrn_reflns_limit_h_max       7
_diffrn_reflns_limit_h_min       -7
_diffrn_reflns_limit_k_max       13
_diffrn_reflns_limit_k_min       -13
_diffrn_reflns_limit_l_max       12
_diffrn_reflns_limit_l_min       -14
_diffrn_reflns_number            5500
_diffrn_reflns_point_group_measured_fraction_full 0.993
_diffrn_reflns_point_group_measured_fraction_max 0.993
_diffrn_reflns_theta_full        24.995
_diffrn_reflns_theta_max         24.995
_diffrn_reflns_theta_min         1.750
_diffrn_source                   'fine-focus sealed tube'
_exptl_absorpt_coefficient_mu    4.510
_exptl_absorpt_correction_T_max  0.402
_exptl_absorpt_correction_T_min  0.383
_exptl_absorpt_correction_type   multi-scan
_exptl_absorpt_process_details   '(SADABS; Sheldrick, 2003)'
_exptl_crystal_colour            colorless
_exptl_crystal_density_diffrn    2.146
_exptl_crystal_description       flake
_exptl_crystal_F_000             496
_exptl_crystal_size_max          0.280
_exptl_crystal_size_mid          0.260
_exptl_crystal_size_min          0.240
_refine_diff_density_max         0.812
_refine_diff_density_min         -0.991
_refine_diff_density_rms         0.315
_refine_ls_extinction_method     none
_refine_ls_goodness_of_fit_ref   1.268
_refine_ls_hydrogen_treatment    constr
_refine_ls_matrix_type           full
_refine_ls_number_parameters     277
_refine_ls_number_reflns         2763
_refine_ls_number_restraints     12
_refine_ls_restrained_S_all      1.283
_refine_ls_R_factor_all          0.0310
_refine_ls_R_factor_gt           0.0253
_refine_ls_shift/su_max          0.090
_refine_ls_shift/su_mean         0.002
_refine_ls_structure_factor_coef Fsqd
_refine_ls_weighting_details
'w=1/[\s^2^(Fo^2^)+(0.0532P)^2^] where P=(Fo^2^+2Fc^2^)/3'
_refine_ls_weighting_scheme      calc
_refine_ls_wR_factor_gt          0.0675
_refine_ls_wR_factor_ref         0.0888
_reflns_Friedel_coverage         0.000
_reflns_number_gt                2548
_reflns_number_total             2763
_reflns_threshold_expression     'I > 2\s(I)'
_cod_data_source_file            c8tc05968c2.cif
_cod_data_source_block           S_CCDC2
_cod_database_code               7237574
_shelx_shelxl_version_number     2014/7
_shelx_space_group_comment
;
The symmetry employed for this shelxl refinement is uniquely defined
by the following loop, which should always be used as a source of
symmetry information in preference to the above space-group names.
They are only intended as comments.
;
_shelx_estimated_absorpt_t_min   0.365
_shelx_estimated_absorpt_t_max   0.411
_shelx_res_file
;

    S.res created by SHELXL-2014/7


TITL S in P-1
CELL 0.71073 5.9619 11.757 12.566 110.209 94.073 103.086
ZERR 2 0.0019 0.004 0.004 0.004 0.004 0.003
LATT 1
SFAC C H N O Tb
UNIT 28 24 2 20 2
ISOR 0.01 0.002 O3W

L.S. 5
PLAN  -20
SIZE 0.28 0.26 0.24
BOND $H
CONF
fmap 2
acta
OMIT 0 50
isor 0.01 N1

WGHT    0.053200
FVAR       0.13786   0.38054
TB1   5    0.876886    0.386321    0.596544    11.00000    0.02367    0.02584 =
         0.02573    0.01038    0.00802    0.00235
O1W   4    1.251458    0.511821    0.690977    11.00000    0.02552    0.04831 =
         0.03922    0.02109    0.00850    0.00060
AFIX   7
H1WA  2    1.338168    0.533511    0.642443    11.00000   -1.50000
H1WB  2    1.327173    0.471626    0.723340    11.00000   -1.50000
AFIX   0
O2    4    0.891982    0.406318    0.800809    11.00000    0.02877    0.06112 =
         0.03815    0.02405    0.00547   -0.00476
O2W   4    1.085510    0.236550    0.601010    11.00000    0.04012    0.04110 =
         0.07878    0.02255   -0.00004    0.00823
AFIX   7
H2WA  2    1.010879    0.185863    0.630356    11.00000   -1.50000
H2WB  2    1.221699    0.274963    0.642260    11.00000   -1.50000
AFIX   0
O3    4    0.565659    0.295411    0.681943    11.00000    0.03408    0.05265 =
         0.03380    0.01831    0.00387   -0.00741
O4    4   -0.646916   -0.183994    0.552189    11.00000    0.04356    0.03057 =
         0.06457    0.01001    0.00110    0.01442
O5    4   -0.541892   -0.353451    0.539995    11.00000    0.03116    0.02031 =
         0.04032    0.00806    0.00297    0.00285
O6    4   -0.065412   -0.395574    0.559737    11.00000    0.03061    0.03696 =
         0.02814    0.00514    0.01133    0.00608
O7    4   -0.244722   -0.427591    0.696815    11.00000    0.04081    0.03154 =
         0.03378    0.01443    0.01299    0.00692
N1    3    0.583631    0.368000    1.078984    11.00000    0.10738    0.06479 =
         0.03881   -0.00103    0.03031   -0.03387
PART 1
O1    4   -0.020017    0.155003    0.908399    21.00000    0.04206    0.02156 =
         0.04585   -0.00304    0.02036   -0.00359
C1    1    0.307829    0.302924    1.043085    21.00000    0.04418    0.02684 =
         0.03516   -0.00321    0.01521   -0.00845
AFIX  43
H1    2    0.213409    0.314615    1.099623    21.00000   -1.20000
AFIX   0
C2    1    0.205910    0.229040    0.928843    21.00000    0.02862    0.02172 =
         0.03735    0.00833    0.00268   -0.00813
C3    1    0.328293    0.238899    0.841534    21.00000    0.04619    0.02992 =
         0.02987    0.01215    0.01066   -0.00660
AFIX  43
H3    2    0.258793    0.200841    0.764697    21.00000   -1.20000
AFIX   0
PART 0
PART 2
O1A   4    0.231569    0.052760    0.941650   -21.00000    0.04804    0.03605 =
         0.02574    0.01408   -0.01078   -0.01843
C1A   1    0.456833    0.250885    1.061285   -21.00000    0.03592    0.04711 =
         0.02069    0.00932    0.00567   -0.01442
AFIX  43
H1A   2    0.431176    0.226162    1.123141   -21.00000   -1.20000
AFIX   0
C2A   1    0.365987    0.168501    0.951264   -21.00000    0.02340    0.02539 =
         0.02361    0.00150   -0.00273   -0.00919
C3A   1    0.433075    0.199762    0.859809   -21.00000    0.03242    0.03020 =
         0.01528    0.00560   -0.00071    0.00114
AFIX  43
H3A   2    0.376804    0.142145    0.785149   -21.00000   -1.20000
AFIX   0
PART 0
C4    1    0.582254    0.315169    0.877722    11.00000    0.05161    0.03556 =
         0.03489    0.00869    0.01643   -0.00946
C5    1    0.672223    0.388937    0.991857    11.00000    0.06132    0.03874 =
         0.03654    0.00699    0.01531   -0.01812
AFIX  43
H5    2    0.802100    0.456942    1.008111    11.00000   -1.20000
AFIX   0
C6    1   -0.085161    0.037782    0.824383    11.00000    0.07067    0.02637 =
         0.05738   -0.01243    0.03289   -0.01505
PART 2
AFIX  43
H6    2   -0.067974    0.122783    0.865343   -21.00000   -1.20000
AFIX   0
PART 0
C7    1   -0.272025   -0.032583    0.735494    11.00000    0.04462    0.02668 =
         0.07786    0.00490    0.02225    0.00253
AFIX  43
H7    2   -0.377860    0.006696    0.715414    11.00000   -1.20000
AFIX   0
C8    1   -0.302940   -0.160689    0.676247    11.00000    0.03356    0.01718 =
         0.03504    0.00187    0.01162   -0.00033
C9    1   -0.137149   -0.218123    0.704506    11.00000    0.02840    0.02865 =
         0.02166    0.00371    0.01371   -0.00137
C10   1    0.047111   -0.145426    0.792160    11.00000    0.03956    0.03769 =
         0.03396    0.01041    0.00385   -0.00841
AFIX  43
H10   2    0.156932   -0.182592    0.812167    11.00000   -1.20000
AFIX   0
C11   1    0.072033   -0.020928    0.849935    11.00000    0.06602    0.04384 =
         0.03011   -0.00342    0.01568   -0.02891
PART 1
AFIX  43
H11   2    0.199044    0.025335    0.908200    21.00000   -1.20000
AFIX   0
PART 0
C12   1    0.688225    0.342056    0.782581    11.00000    0.03309    0.03287 =
         0.03376    0.01654    0.01090    0.00296
C13   1   -0.508732   -0.236531    0.584921    11.00000    0.02889    0.02882 =
         0.03652    0.01237    0.01407    0.00558
C14   1   -0.154997   -0.354443    0.648440    11.00000    0.02020    0.02866 =
         0.02901    0.00991    0.00545    0.00555

AFIX   6
O3W   4    0.238728    0.017248    0.538073    11.00000    0.18471    0.18135 =
         0.18463    0.06888    0.02955    0.04962
H3WA  2    0.168887   -0.005968    0.586799    11.00000   -1.50000
H3WB  2    0.326512   -0.029904    0.511186    11.00000   -1.50000
AFIX   0
HKLF 4

REM  S in P-1
REM R1 =  0.0253 for    2548 Fo > 4sig(Fo)  and  0.0310 for all    2763 data
REM    277 parameters refined using     12 restraints

END

WGHT      0.0538      0.0000

REM Highest difference peak  0.812,  deepest hole -0.991,  1-sigma level  0.315
Q1    1   0.3200 -0.0353  0.9607  11.00000  0.05    0.81
Q2    1  -0.0116  0.0058  0.8484  11.00000  0.05    0.80
Q3    1   0.2426  0.0289  0.9805  11.00000  0.05    0.77
Q4    1   0.4893  0.0396  0.9840  11.00000  0.05    0.76
Q5    1   0.1336  0.0608  0.9396  11.00000  0.05    0.75
Q6    1   0.9537  0.3437  0.6192  11.00000  0.05    0.75
Q7    1   0.1378 -0.0630  0.9886  11.00000  0.05    0.74
Q8    1  -0.2028  0.0307  0.8392  11.00000  0.05    0.73
Q9    1   0.1478  0.0027  1.0593  11.00000  0.05    0.71
Q10   1  -0.1352 -0.0057  0.7750  11.00000  0.05    0.70
Q11   1   0.2815  0.0173  1.0518  11.00000  0.05    0.70
Q12   1   0.3206  0.0826  0.9425  11.00000  0.05    0.70
Q13   1   0.3273  0.2225  1.0153  11.00000  0.05    0.69
Q14   1   0.0268  0.0229  1.0308  11.00000  0.05    0.68
Q15   1   0.4740  0.3922  1.0673  11.00000  0.05    0.66
Q16   1   0.4583  0.1800  1.0048  11.00000  0.05    0.66
Q17   1  -0.0779  0.0563  0.7777  11.00000  0.05    0.65
Q18   1   0.2160  0.1336  1.0219  11.00000  0.05    0.63
Q19   1  -0.0026  0.1022  0.9193  11.00000  0.05    0.63
Q20   1   0.2792 -0.1116  0.9924  11.00000  0.05    0.63
;
_shelx_res_checksum              28227
_shelx_hkl_file
;
  -1   0   0  109.98    1.71
  -1   0   0  104.02    1.78
   1   0   0  110.79    1.83
  -2   0   0   -0.10    0.08
  -2   0   0    0.11    0.13
   2   0   0    0.11    0.19
  -3   0   0   60.24    1.35
  -3   0   0   62.52    1.08
   3   0   0   61.63    1.44
  -4   0   0   89.73    1.95
   4   0   0   88.75    2.05
  -5   0   0   54.15    1.52
   5   0   0   51.06    1.61
  -6   0   0    2.01    0.55
   6   0   0    1.72    0.62
  -7   0   0    6.20    0.89
   7   0   0    7.77    1.05
   7  -1   0    0.18    0.61
  -7   1   0   -0.80    0.50
   6  -1   0   23.04    1.23
  -6   1   0   20.96    1.15
   5  -1   0   57.01    1.68
  -5   1   0   58.17    1.60
   4  -1   0   57.77    1.54
  -4   1   0   60.96    1.47
   3  -1   0    0.22    0.24
  -3   1   0    0.15    0.10
  -3   1   0    0.04    0.17
   2  -1   0   15.70    0.54
  -2   1   0   16.32    0.38
  -2   1   0   16.48    0.49
   1  -1   0  138.74    2.24
  -1   1   0  132.97    2.17
  -1   1   0  136.15    2.22
   0   1   0    0.00    0.01
   0   1   0    0.00    0.02
   0   1   0    0.00    0.02
  -1  -1   0   -0.07    0.09
   1   1   0   -0.04    0.08
   1   1   0   -0.14    0.10
  -2  -1   0   17.36    0.46
  -2  -1   0   17.10    0.52
   2   1   0   17.80    0.58
  -3  -1   0  242.53    4.18
  -3  -1   0  244.59    3.89
   3   1   0  240.90    4.26
  -4  -1   0   43.03    1.23
   4   1   0   45.45    1.33
  -5  -1   0    2.53    0.47
   5   1   0    2.70    0.58
  -6  -1   0    9.42    0.89
   6   1   0    8.51    0.95
  -7  -1   0   15.72    1.21
   7   1   0   16.11    1.77
   7  -2   0   10.76    1.11
  -7   2   0    9.55    1.02
   6  -2   0   69.22    2.08
  -6   2   0   74.79    2.06
   5  -2   0   32.42    1.25
  -5   2   0   34.16    1.20
   4  -2   0   -0.05    0.32
  -4   2   0    0.24    0.29
   3  -2   0   81.76    1.75
  -3   2   0   85.09    1.70
  -3   2   0   82.41    1.50
   2  -2   0    4.42    0.33
  -2   2   0    5.47    0.33
  -2   2   0    4.40    0.25
   1  -2   0  569.57    9.16
  -1   2   0  573.29    9.19
  -1   2   0  560.28    9.18
   0  -2   0    1.29    0.14
   0   2   0    1.43    0.15
   0   2   0    1.57    0.09
   0   2   0    1.64    0.15
  -1  -2   0   46.95    0.94
   1   2   0   44.96    0.92
   1   2   0   48.57    0.96
  -2  -2   0  177.09    3.08
   2   2   0  182.05    3.12
   2   2   0  180.15    3.13
  -3  -2   0   86.53    1.83
  -3  -2   0   88.61    1.67
   3   2   0   89.39    1.90
  -4  -2   0    2.11    0.39
   4   2   0    1.80    0.45
  -5  -2   0   15.28    0.89
   5   2   0   15.02    0.96
  -6  -2   0   28.48    1.31
   6   2   0   29.30    1.42
   7  -3   0   26.07    1.41
  -7   3   0   22.53    1.39
   6  -3   0   27.32    1.35
  -6   3   0   25.26    1.28
   5  -3   0    2.14    0.53
  -5   3   0    3.29    0.56
   4  -3   0   44.14    1.30
  -4   3   0   44.71    1.26
  -4   3   0   42.55    1.00
   3  -3   0  293.33    5.01
  -3   3   0  296.53    4.84
  -3   3   0  297.03    5.00
   2  -3   0  132.93    2.34
  -2   3   0  135.02    2.33
  -2   3   0  131.03    2.40
   1  -3   0   37.14    0.72
   1  -3   0   36.57    0.82
  -1   3   0   37.81    0.84
  -1   3   0   35.93    0.90
   0  -3   0  155.24    2.68
   0   3   0  160.02    2.67
   0   3   0  154.96    2.67
   0   3   0  156.11    2.50
  -1  -3   0  172.78    2.94
   1   3   0  168.60    2.85
   1   3   0  171.60    2.94
  -2  -3   0  193.16    3.36
   2   3   0  191.17    3.36
   2   3   0  194.52    3.39
  -3  -3   0   12.30    0.64
  -3  -3   0   12.94    0.62
   3   3   0   13.89    0.66
  -4  -3   0   14.26    0.75
   4   3   0   14.27    0.81
  -5  -3   0   52.62    1.62
   5   3   0   55.20    1.74
  -6  -3   0   28.78    1.37
   6   3   0   29.54    1.42
   7  -4   0   17.31    1.23
  -7   4   0   12.25    1.18
   6  -4   0    3.16    0.68
  -6   4   0    0.51    0.60
   5  -4   0    7.15    0.75
  -5   4   0    7.25    0.73
   4  -4   0  118.21    2.46
  -4   4   0  118.38    2.27
  -4   4   0  120.32    2.50
   3  -4   0   29.49    0.88
  -3   4   0   31.89    0.97
  -3   4   0   29.03    0.83
   2  -4   0    6.87    0.35
  -2   4   0    6.90    0.40
  -2   4   0    7.49    0.48
   1  -4   0   65.69    1.12
   1  -4   0   60.30    1.31
  -1   4   0   63.48    1.39
  -1   4   0   63.19    1.33
   0  -4   0  187.20    3.26
   0   4   0  187.55    3.02
   0   4   0  189.09    3.25
   0   4   0  186.57    3.23
  -1  -4   0  110.41    2.08
   1   4   0  104.93    1.91
   1   4   0  109.22    2.06
  -2  -4   0   36.12    0.99
   2   4   0   35.98    0.99
   2   4   0   35.43    0.94
  -3  -4   0   25.57    0.97
   3   4   0   26.34    0.93
   3   4   0   26.98    0.93
  -4  -4   0   61.81    1.65
   4   4   0   60.29    1.68
  -5  -4   0   38.94    1.43
   5   4   0   38.52    1.47
  -6  -4   0    0.75    0.53
   6   4   0    0.71    0.54
   7  -5   0   -0.08    0.61
  -7   5   0   -1.19    0.67
   6  -5   0    7.98    0.87
  -6   5   0    7.14    0.88
   5  -5   0   46.27    1.50
  -5   5   0   45.55    1.55
   4  -5   0   75.52    1.70
   4  -5   0   78.26    1.84
  -4   5   0   82.50    1.77
  -4   5   0   85.27    2.01
   3  -5   0    7.04    0.49
   3  -5   0    7.16    0.43
  -3   5   0    7.61    0.62
  -3   5   0    6.68    0.47
   2  -5   0   15.33    0.60
   2  -5   0   16.97    0.53
  -2   5   0   16.26    0.65
  -2   5   0   15.56    0.73
   1  -5   0  353.71    5.93
  -1   5   0  361.48    5.93
  -1   5   0  353.51    5.97
   0  -5   0  370.55    6.17
   0   5   0  364.88    5.84
   0   5   0  373.52    6.16
   0   5   0  374.48    6.14
  -1  -5   0   12.78    0.59
   1   5   0   12.87    0.56
   1   5   0   12.37    0.44
  -2  -5   0    6.10    0.52
   2   5   0    5.12    0.44
   2   5   0    6.51    0.44
  -3  -5   0   64.30    1.77
   3   5   0   64.20    1.60
   3   5   0   63.38    1.62
  -4  -5   0   54.99    1.60
   4   5   0   54.40    1.61
  -5  -5   0   18.18    1.06
   5   5   0   19.38    1.11
   6   5   0    3.12    0.73
   7  -6   0    5.52    0.88
  -7   6   0    3.32    0.92
   6  -6   0   32.31    1.36
  -6   6   0   30.60    1.50
   5  -6   0   60.39    1.71
  -5   6   0   57.26    1.82
   4  -6   0    5.28    0.49
   4  -6   0    6.83    0.61
  -4   6   0    5.59    0.56
  -4   6   0    5.90    0.69
   3  -6   0    2.78    0.37
   3  -6   0    2.20    0.34
  -3   6   0    2.43    0.39
  -3   6   0    2.81    0.50
   2  -6   0   81.01    1.79
   2  -6   0   82.14    1.53
  -2   6   0   80.86    1.91
  -2   6   0   82.83    1.81
   1  -6   0  138.02    2.69
  -1   6   0  137.79    2.68
  -1   6   0  137.51    2.70
   0  -6   0    5.87    0.46
   0   6   0    6.28    0.27
   0   6   0    5.20    0.43
  -1  -6   0    0.86    0.28
   1   6   0    0.63    0.25
   1   6   0    0.83    0.20
  -2  -6   0   44.06    1.29
   2   6   0   43.12    1.25
   2   6   0   41.80    1.10
   3   6   0   85.73    2.05
   3   6   0   82.52    1.93
  -4  -6   0   12.61    0.86
   4   6   0   15.41    0.89
  -5  -6   0    3.29    0.63
   7  -7   0   14.59    1.14
  -7   7   0   12.85    1.32
   6  -7   0   34.33    1.42
  -6   7   0   34.34    1.61
   5  -7   0    7.32    0.74
  -5   7   0    5.93    0.81
   4  -7   0    5.22    0.55
   4  -7   0    5.24    0.55
  -4   7   0    5.90    0.62
  -4   7   0    5.73    0.74
   3  -7   0   49.56    1.19
   3  -7   0   46.02    1.34
  -3   7   0   49.06    1.39
  -3   7   0   47.86    1.54
   2  -7   0   65.65    1.63
   2  -7   0   66.36    1.28
  -2   7   0   66.38    1.64
  -2   7   0   64.93    1.72
   1  -7   0   30.73    1.03
  -1   7   0   31.62    1.07
  -1   7   0   31.14    1.05
   0  -7   0   13.22    0.70
   0   7   0   14.18    0.69
  -1  -7   0   42.97    1.31
   1   7   0   43.00    1.26
  -2  -7   0   45.48    1.43
   2   7   0   48.60    1.41
   3   7   0    0.19    0.33
  -5  -7   0   20.39    1.20
  -7   8   0    9.12    1.18
  -6   8   0    4.66    0.89
  -5   8   0    1.13    0.66
   4  -8   0   25.02    1.07
  -4   8   0   26.04    1.30
  -4   8   0   28.13    1.16
   3  -8   0  109.44    2.46
  -3   8   0  110.52    2.48
  -3   8   0  105.18    2.56
   2  -8   0   29.11    1.09
  -2   8   0   29.86    1.12
  -2   8   0   27.70    1.16
   1  -8   0   16.02    0.83
  -1   8   0   16.32    0.85
  -1   8   0   15.86    0.85
   0  -8   0   66.42    1.78
   0   8   0   65.93    1.71
  -1  -8   0   72.13    1.91
   1   8   0   69.79    1.82
  -2  -8   0   55.46    1.69
   2   8   0   53.17    1.59
   3   8   0    0.42    0.39
   4   8   0   14.67    1.03
  -7   9   0    3.61    0.98
  -6   9   0    2.07    0.82
  -5   9   0   10.69    1.15
  -5   9   0   10.68    0.96
   4  -9   0   36.92    1.37
  -4   9   0   39.24    1.44
  -4   9   0   36.89    1.55
   3  -9   0    7.37    0.74
  -3   9   0    6.65    0.75
  -3   9   0    6.08    0.73
   2  -9   0    1.89    0.44
  -2   9   0    1.94    0.46
  -2   9   0    2.03    0.51
   1  -9   0   37.43    1.32
  -1   9   0   37.22    1.31
   0  -9   0   69.40    1.97
   0   9   0   73.40    1.93
  -1  -9   0   23.64    1.16
   1   9   0   23.14    1.06
  -2  -9   0    1.57    0.53
   2   9   0    2.72    0.54
   3   9   0   12.25    0.94
   4   9   0   24.39    1.34
  -6  10   0   10.74    1.24
   5 -10   0   15.60    1.06
  -5  10   0   15.26    1.28
   4 -10   0   17.45    1.07
  -4  10   0   17.74    1.22
  -4  10   0   15.89    1.10
   3 -10   0   -0.22    0.39
  -3  10   0    0.63    0.51
  -3  10   0   -0.03    0.46
   2 -10   0   22.80    1.15
  -2  10   0   23.67    1.19
   1 -10   0   62.74    1.90
  -1  10   0   64.19    1.87
   0 -10   0   11.33    0.93
   0  10   0   13.34    0.93
  -1 -10   0    2.33    0.58
   1  10   0    2.07    0.53
  -2 -10   0   13.82    1.15
   2  10   0   16.06    1.02
   3  10   0   15.83    1.10
  -6  11   0   18.86    1.58
   5 -11   0    9.80    1.00
  -5  11   0   11.02    1.18
   4 -11   0    0.90    0.54
  -4  11   0    1.26    0.61
   3 -11   0   13.84    1.06
  -3  11   0   10.05    1.01
   2 -11   0   29.59    1.37
  -2  11   0   31.54    1.41
   1 -11   0   31.65    1.43
  -1  11   0   32.85    1.41
   0 -11   0    2.18    0.61
   0  11   0    1.28    0.51
  -1 -11   0   12.00    1.09
   1  11   0   13.03    1.00
  -2 -11   0   21.79    1.55
   2  11   0   20.41    1.20
   5 -12   0   -0.73    0.52
  -5  12   0    1.23    0.71
   4 -12   0    5.26    0.85
  -4  12   0    5.91    0.91
   3 -12   0   16.89    1.22
  -3  12   0   19.56    1.29
   2 -12   0   12.40    1.12
  -2  12   0   14.93    1.12
   1 -12   0    0.07    0.51
  -1  12   0   -0.32    0.43
   0 -12   0    7.84    1.02
   0  12   0    8.84    0.99
  -1 -12   0   20.75    1.40
   1  12   0   19.94    1.25
   5 -13   0    0.52    0.69
  -5  13   0    2.78    0.92
   4 -13   0   10.63    1.19
  -4  13   0    9.42    1.07
   3 -13   0    8.47    1.09
  -3  13   0    9.45    1.09
   2 -13   0   -0.93    0.49
  -2  13   0    0.09    0.52
   1 -13   0    6.55    0.97
  -1  13   0    7.48    0.97
   0 -13   0   14.67    1.34
   0  13   0   15.33    1.23
  -1 -13   0   12.10    1.31
  -3  14   0    0.74    0.78
  -2  14   0    4.11    0.92
  -1  14  -1    9.37    1.04
  -2  14  -1   10.81    1.10
   2 -14   1   10.58    1.63
  -3  14  -1    3.96    0.80
  -4  14  -1    2.24    0.72
   1  13  -1    4.37    0.87
  -1 -13   1    4.25    0.87
   0  13  -1   12.95    1.08
   0 -13   1   13.44    1.19
  -1  13  -1   22.90    1.32
   1 -13   1   22.66    1.42
  -2  13  -1    5.22    0.83
   2 -13   1    3.99    0.79
  -3  13  -1    1.77    0.63
   3 -13   1    2.00    0.65
  -4  13  -1   14.75    1.26
   4 -13   1   13.37    1.22
  -5  13  -1    8.91    1.09
   5 -13   1    8.77    1.06
   2  12  -1    0.79    0.50
   1  12  -1   17.75    1.14
  -1 -12   1   15.03    1.19
   0  12  -1   24.91    1.27
   0 -12   1   25.37    1.40
   1 -12   1    7.67    0.93
  -2  12  -1    1.68    0.56
   2 -12   1    1.69    0.58
  -3  12  -1    8.12    0.95
  -3  12  -1    7.41    0.94
   3 -12   1    8.20    0.95
  -4  12  -1   17.85    1.28
  -4  12  -1   19.28    1.28
   4 -12   1   17.27    1.22
  -5  12  -1    1.90    0.74
  -5  12  -1    1.26    0.73
   5 -12   1    2.08    0.69
   2  11  -1   16.83    1.09
  -2 -11   1   18.30    2.01
   1  11  -1   23.95    1.20
  -1 -11   1   22.80    1.27
   0  11  -1   17.78    1.05
   0 -11   1   16.71    1.11
  -1  11  -1    5.50    0.70
   1 -11   1    4.98    0.71
  -2  11  -1   25.18    1.27
  -2  11  -1   23.07    1.19
   2 -11   1   23.54    1.19
  -3  11  -1   33.14    1.47
  -3  11  -1   34.90    1.48
   3 -11   1   34.92    1.47
  -4  11  -1    9.58    0.98
  -4  11  -1    8.43    1.00
   4 -11   1    9.29    0.93
  -5  11  -1    0.80    0.60
  -5  11  -1    0.62    0.62
   5 -11   1    1.39    0.56
  -6  11  -1    9.29    1.57
   3  10  -1   21.99    1.20
   2  10  -1   41.89    1.50
  -2 -10   1   38.85    1.54
   1  10  -1   15.18    0.91
  -1 -10   1   12.59    0.95
   0  10  -1    0.11    0.37
   0 -10   1    1.46    0.46
  -1  10  -1   42.17    1.42
  -1  10  -1   39.64    1.45
   1 -10   1   42.02    1.47
  -2  10  -1   44.12    1.52
  -2  10  -1   45.97    1.55
   2 -10   1   44.18    1.51
  -3  10  -1   42.31    1.54
  -3  10  -1   43.33    1.57
   3 -10   1   42.00    1.51
  -4  10  -1    0.20    0.48
  -4  10  -1    1.44    0.58
   4 -10   1    2.12    0.52
  -5  10  -1    6.58    0.95
  -5  10  -1    8.10    0.92
   5 -10   1    9.06    0.85
  -6  10  -1   11.33    1.23
   3   9  -1   37.81    1.43
   2   9  -1   16.24    0.91
  -2  -9   1   15.24    0.94
   1   9  -1    1.35    0.40
  -1  -9   1    1.03    0.42
   0   9  -1   39.45    1.31
   0  -9   1   39.79    1.35
  -1   9  -1   39.42    1.29
  -1   9  -1   39.53    1.34
   1  -9   1   38.74    1.33
  -2   9  -1   36.24    1.29
  -2   9  -1   35.60    1.29
   2  -9   1   35.54    1.26
  -3   9  -1    1.18    0.48
  -3   9  -1    0.47    0.42
   3  -9   1    0.33    0.32
  -4   9  -1   22.35    1.25
  -4   9  -1   21.33    1.12
   4  -9   1   22.35    1.05
  -5   9  -1   17.27    1.06
  -5   9  -1   18.10    1.35
   5  -9   1   17.05    1.04
  -6   9  -1   11.17    1.19
  -4  -8   1   40.47    1.49
   3   8  -1   49.26    1.57
   2   8  -1    0.38    0.30
  -2  -8   1    0.30    0.35
   1   8  -1   52.64    1.46
  -1  -8   1   52.28    1.52
   0   8  -1  101.48    2.31
   0   8  -1  104.47    2.26
   0  -8   1  103.42    2.33
  -1   8  -1   46.59    1.36
  -1   8  -1   47.83    1.36
   1  -8   1   44.44    1.34
  -2   8  -1    5.13    0.56
  -2   8  -1    5.72    0.60
   2  -8   1    4.79    0.51
  -3   8  -1   53.79    1.67
  -3   8  -1   55.56    1.56
   3  -8   1   53.38    1.43
   3  -8   1   55.45    1.53
  -4   8  -1   48.56    1.49
  -4   8  -1   45.59    1.63
   4  -8   1   48.50    1.37
   4  -8   1   44.13    1.38
  -5   8  -1   19.12    1.25
  -5   8  -1   16.01    1.15
   5  -8   1   18.83    1.02
  -6   8  -1    0.11    0.65
   6  -8   1    1.96    0.64
  -7   8  -1    5.42    1.15
   7  -8   1    9.14    1.00
  -5  -7   1   21.22    1.19
  -4  -7   1   33.46    1.31
   3   7  -1    2.60    0.48
   2   7  -1   22.82    0.92
   2   7  -1   21.77    0.80
  -2  -7   1   21.91    0.92
   1   7  -1  126.44    2.39
   1   7  -1  129.60    2.60
  -1  -7   1  129.54    2.64
   0   7  -1   96.03    2.03
   0   7  -1   97.92    2.10
   0   7  -1   94.49    1.78
   0  -7   1   92.39    2.08
  -1   7  -1    7.20    0.55
  -1   7  -1    7.45    0.55
   1  -7   1    5.82    0.49
  -2   7  -1   24.18    0.95
  -2   7  -1   21.99    0.88
   2  -7   1   22.87    0.85
   2  -7   1   22.63    0.68
  -3   7  -1   47.02    1.36
  -3   7  -1   47.30    1.51
   3  -7   1   50.62    1.24
  -4   7  -1   24.70    1.02
  -4   7  -1   25.72    1.22
   4  -7   1   25.21    1.00
  -5   7  -1   11.02    0.99
   5  -7   1   10.23    0.84
  -6   7  -1   12.39    1.17
   6  -7   1   12.79    1.02
  -7   7  -1   14.01    1.38
   7  -7   1   19.38    1.33
   6   6  -1   16.34    1.53
   5   6  -1   15.94    1.03
  -5  -6   1   14.20    0.99
   4   6  -1    1.47    0.44
  -4  -6   1    1.57    0.41
   3   6  -1   22.30    0.89
   3   6  -1   21.27    0.91
   2   6  -1   56.30    1.43
   2   6  -1   54.47    1.33
  -2  -6   1   55.52    1.41
   1   6  -1   74.98    1.52
   1   6  -1   76.85    1.66
  -1  -6   1   72.76    1.67
   0   6  -1    3.56    0.37
   0   6  -1    3.33    0.28
   0   6  -1    3.23    0.37
   0  -6   1    3.29    0.36
  -1   6  -1   57.63    1.36
  -1   6  -1   56.18    1.37
   1  -6   1   55.34    1.33
  -2   6  -1  167.50    3.26
  -2   6  -1  171.61    3.20
   2  -6   1  177.96    3.00
  -3   6  -1   45.20    1.25
  -3   6  -1   48.57    1.41
   3  -6   1   47.59    1.22
  -4   6  -1   -0.07    0.28
  -4   6  -1   -0.09    0.40
   4  -6   1    0.39    0.38
  -5   6  -1    6.25    0.77
   5  -6   1    8.19    0.81
  -6   6  -1   22.55    1.32
   6  -6   1   22.41    1.22
  -7   6  -1   12.35    1.22
   7  -6   1   16.40    1.22
   6   5  -1   18.01    1.23
  -6  -5   1   20.00    1.31
   5   5  -1    1.04    0.49
  -5  -5   1    0.58    0.40
   4   5  -1   35.72    1.28
  -4  -5   1   37.52    1.26
   3   5  -1   67.31    1.64
   3   5  -1   68.55    1.67
   2   5  -1  121.51    2.33
   2   5  -1  122.71    2.40
  -2  -5   1  119.53    2.34
   1   5  -1    3.91    0.35
   1   5  -1    4.26    0.34
   1   5  -1    4.07    0.30
  -1  -5   1    3.56    0.33
   0   5  -1   78.77    1.62
   0   5  -1   75.07    1.46
   0   5  -1   77.53    1.57
   0  -5   1   80.34    1.62
  -1   5  -1  305.89    5.12
  -1   5  -1  304.56    5.12
  -2   5  -1  229.96    3.98
  -2   5  -1  229.90    4.07
   2  -5   1  228.27    3.85
  -3   5  -1    7.69    0.62
  -3   5  -1    6.64    0.48
   3  -5   1    7.47    0.53
  -4   5  -1   16.84    0.91
  -4   5  -1   17.90    0.73
   4  -5   1   17.38    0.85
  -5   5  -1   45.22    1.53
   5  -5   1   47.75    1.55
  -6   5  -1   28.18    1.39
   6  -5   1   27.53    1.33
  -7   5  -1    4.08    0.88
   7  -5   1    5.43    0.89
   6   4  -1    3.83    0.72
  -6  -4   1    2.77    0.64
   5   4  -1   15.07    0.97
  -5  -4   1   15.51    0.93
   4   4  -1   86.83    2.10
  -4  -4   1   84.06    2.02
   3   4  -1   71.39    1.68
  -3  -4   1   70.66    1.59
  -3  -4   1   72.00    1.66
   2   4  -1   26.44    0.79
   2   4  -1   26.87    0.81
  -2  -4   1   27.06    0.76
   1   4  -1   25.61    0.70
   1   4  -1   25.83    0.66
   1   4  -1   25.95    0.71
  -1  -4   1   26.68    0.71
   0   4  -1   63.88    1.31
   0   4  -1   64.28    1.28
   0   4  -1   63.75    1.21
  -1   4  -1  349.34    5.69
  -1   4  -1  345.98    5.66
  -2   4  -1  117.99    2.17
  -2   4  -1  115.57    2.22
   2  -4   1  118.76    2.15
  -3   4  -1   51.42    1.24
  -3   4  -1   48.43    1.12
   3  -4   1   46.46    1.20
  -4   4  -1   59.84    1.37
  -4   4  -1   61.78    1.57
   4  -4   1   61.85    1.61
  -5   4  -1   26.54    1.12
   5  -4   1   25.96    1.15
  -6   4  -1    6.92    0.83
   6  -4   1    7.81    0.92
  -7   4  -1    1.39    0.72
   7  -4   1    2.85    0.79
   6   3  -1    2.30    0.63
  -6  -3   1    2.37    0.60
   5   3  -1   54.50    1.72
  -5  -3   1   55.71    1.66
   4   3  -1   78.58    1.94
  -4  -3   1   78.22    1.86
   3   3  -1   69.41    1.60
  -3  -3   1   66.64    1.41
  -3  -3   1   64.30    1.52
   2   3  -1  104.02    1.99
   2   3  -1  103.29    1.98
  -2  -3   1  103.58    1.87
   1   3  -1   73.46    1.41
   1   3  -1   77.79    1.41
   1   3  -1   75.50    1.44
  -1  -3   1   77.04    1.42
   0   3  -1   98.30    1.72
   0   3  -1   98.77    1.71
   0   3  -1   98.77    1.76
  -1   3  -1  249.80    4.18
  -1   3  -1  259.77    4.16
  -2   3  -1   15.46    0.50
  -2   3  -1   16.28    0.54
   2  -3   1   15.92    0.55
  -3   3  -1  134.12    2.45
  -3   3  -1  131.18    2.34
   3  -3   1  127.91    2.50
  -4   3  -1   79.23    1.76
  -4   3  -1   76.15    1.54
   4  -3   1   74.58    1.83
  -5   3  -1    7.36    0.69
   5  -3   1    6.60    0.73
  -6   3  -1    6.38    0.80
   6  -3   1    6.08    0.84
  -7   3  -1   18.60    1.29
   7  -3   1   20.04    1.32
   6   2  -1   27.45    1.35
  -6  -2   1   28.47    1.28
   5   2  -1   61.30    1.81
  -5  -2   1   59.90    1.70
   4   2  -1   22.59    0.94
  -4  -2   1   21.67    0.86
   3   2  -1   14.95    0.66
  -3  -2   1   15.72    0.44
  -3  -2   1   15.22    0.61
   2   2  -1  292.47    4.89
  -2  -2   1  295.74    4.69
  -2  -2   1  295.00    4.85
   1   2  -1  135.76    2.20
   1   2  -1  133.91    2.27
   1   2  -1  131.49    2.27
  -1  -2   1  134.13    2.20
   0   2  -1  136.67    2.21
   0   2  -1  137.03    2.25
   0   2  -1  135.82    2.25
  -1   2  -1    2.56    0.20
  -1   2  -1    2.88    0.19
  -2   2  -1  150.24    2.58
  -2   2  -1  152.84    2.56
   2  -2   1  152.40    2.68
  -3   2  -1  117.14    2.19
  -3   2  -1  116.11    2.07
   3  -2   1  118.10    2.31
  -4   2  -1   43.80    1.18
  -4   2  -1   41.71    0.98
   4  -2   1   42.32    1.30
  -5   2  -1    0.22    0.36
   5  -2   1   -0.04    0.45
  -6   2  -1   30.58    1.29
   6  -2   1   29.78    1.39
  -7   2  -1   13.97    1.22
   7  -2   1   15.67    1.23
   7   1  -1   11.54    1.22
  -7  -1   1    8.36    0.95
   6   1  -1   32.68    1.45
  -6  -1   1   32.36    1.36
   5   1  -1   10.51    0.88
  -5  -1   1   10.32    0.76
   4   1  -1    0.75    0.33
  -4  -1   1    0.82    0.28
   3   1  -1  190.20    3.43
  -3  -1   1  187.25    3.35
   2   1  -1  124.72    2.25
  -2  -1   1  121.80    2.19
   1   1  -1   16.52    0.43
   1   1  -1   17.08    0.32
  -1  -1   1   16.76    0.41
  -1   1  -1  383.69    6.30
  -1   1  -1  387.56    6.28
   1  -1   1  405.55    6.63
  -2   1  -1  119.30    2.14
  -2   1  -1  128.30    2.09
   2  -1   1  123.66    2.26
  -3   1  -1   37.22    0.79
  -3   1  -1   36.22    0.93
   3  -1   1   36.43    1.04
  -4   1  -1    3.61    0.41
   4  -1   1    3.56    0.51
  -5   1  -1   38.89    1.27
   5  -1   1   37.26    1.38
  -6   1  -1   27.59    1.27
   6  -1   1   31.69    1.42
  -7   1  -1    3.95    0.76
   7  -1   1    5.32    0.94
   7   0  -1   17.23    1.26
  -7   0   1   17.06    1.21
   6   0  -1   17.64    1.19
  -6   0   1   16.78    1.05
   5   0  -1    4.69    0.61
  -5   0   1    5.85    0.62
   4   0  -1   53.61    1.46
  -4   0   1   55.43    1.39
   3   0  -1  198.98    3.58
  -3   0   1  203.08    3.52
   2   0  -1   68.03    1.38
  -2   0   1   70.70    1.35
   1   0  -1    0.49    0.07
   1   0  -1    0.46    0.11
  -1   0   1    0.48    0.09
   0   0  -1   -0.05    0.02
   0   0  -1   -0.05    0.02
   0   0   1   -0.04    0.02
  -1   0  -1  460.03    7.48
   1   0   1  457.26    7.37
   1   0   1  457.46    7.75
  -2   0  -1  101.28    1.84
  -2   0  -1  105.58    1.78
   2   0   1  101.34    1.94
  -3   0  -1    5.50    0.38
  -3   0  -1    5.15    0.28
   3   0   1    5.10    0.47
  -4   0  -1   50.75    1.32
   4   0   1   48.85    1.44
  -5   0  -1   75.95    1.92
   5   0   1   78.29    2.09
  -6   0  -1   23.51    1.20
   6   0   1   24.95    1.34
  -7   0  -1   -0.76    0.53
   7   0   1    0.16    0.67
   7  -1  -1    8.85    1.07
  -7   1   1    6.27    0.91
   6  -1  -1    7.36    0.89
  -6   1   1    6.67    0.78
   5  -1  -1   29.34    1.18
  -5   1   1   31.46    1.15
   4  -1  -1  127.68    2.64
  -4   1   1  132.85    2.60
   3  -1  -1  110.39    2.17
  -3   1   1  106.64    1.80
  -3   1   1  114.36    2.13
   2  -1  -1    3.87    0.18
   2  -1  -1    4.05    0.31
  -2   1   1    3.93    0.19
  -2   1   1    4.05    0.29
   1  -1  -1  170.82    2.76
   1  -1  -1  172.76    2.76
  -1   1   1  170.34    2.80
   0  -1  -1  357.04    6.18
   0   1   1  362.44    6.01
  -1  -1  -1  188.49    3.22
   1   1   1  196.61    3.15
   1   1   1  190.69    3.13
  -2  -1  -1   67.03    1.33
   2   1   1   67.20    1.40
  -3  -1  -1   38.81    1.02
  -3  -1  -1   39.68    0.91
   3   1   1   39.90    1.12
  -4  -1  -1   47.57    1.29
   4   1   1   45.67    1.40
  -5  -1  -1   22.09    1.03
   5   1   1   20.31    1.07
  -6  -1  -1    0.11    0.46
   6   1   1    0.64    0.57
  -7  -1  -1    4.90    0.85
   7  -2  -1   -0.71    0.58
  -7   2   1   -1.34    0.50
   6  -2  -1   35.84    1.51
  -6   2   1   38.99    1.49
   5  -2  -1   49.39    1.52
  -5   2   1   49.25    1.48
   4  -2  -1   67.79    1.66
  -4   2   1   69.15    1.64
   3  -2  -1    2.62    0.35
   3  -2  -1    2.33    0.20
  -3   2   1    2.66    0.23
  -3   2   1    2.58    0.33
   2  -2  -1   75.46    1.39
   2  -2  -1   77.80    1.47
  -2   2   1   75.97    1.50
  -2   2   1   75.34    1.39
   1  -2  -1  107.98    1.78
   1  -2  -1  108.97    1.89
   0  -2  -1  114.95    2.06
   0   2   1  118.88    2.04
   0   2   1  117.24    1.83
  -1  -2  -1    2.18    0.26
   1   2   1    1.71    0.20
   1   2   1    1.79    0.20
  -2  -2  -1  110.21    2.13
   2   2   1  107.62    2.05
   2   2   1  110.81    2.08
  -3  -2  -1   64.71    1.48
  -3  -2  -1   64.37    1.43
   3   2   1   65.68    1.55
  -4  -2  -1   25.09    0.93
   4   2   1   22.80    0.98
  -5  -2  -1    1.24    0.42
   5   2   1    1.85    0.53
  -6  -2  -1   18.18    1.12
   6   2   1   18.49    1.25
   7  -3  -1   16.29    1.21
  -7   3   1   16.08    1.32
   6  -3  -1   29.31    1.32
  -6   3   1   28.35    1.35
   5  -3  -1   35.90    1.30
  -5   3   1   34.92    1.28
   4  -3  -1    5.05    0.53
  -4   3   1    5.56    0.54
  -4   3   1    5.09    0.38
   3  -3  -1   80.65    1.69
   3  -3  -1   77.98    1.56
  -3   3   1   83.10    1.58
  -3   3   1   84.89    1.76
   2  -3  -1  149.41    2.65
   2  -3  -1  154.47    2.62
  -2   3   1  150.30    2.76
  -2   3   1  154.70    2.66
   1  -3  -1  159.03    2.73
   1  -3  -1  157.53    2.49
  -1   3   1  152.46    2.80
   0  -3  -1    1.83    0.25
   0   3   1    1.82    0.24
  -1  -3  -1   96.20    1.90
   1   3   1   99.37    1.84
   1   3   1   95.88    1.72
  -2  -3  -1  172.40    3.23
   2   3   1  179.18    3.16
   2   3   1  176.99    3.11
  -3  -3  -1   42.37    1.24
   3   3   1   44.22    1.23
   3   3   1   44.11    1.19
  -4  -3  -1    2.25    0.40
   4   3   1    2.30    0.49
  -5  -3  -1    6.59    0.70
   5   3   1    6.70    0.80
  -6  -3  -1   28.11    1.38
   6   3   1   30.01    1.51
   7  -4  -1   27.23    1.40
  -7   4   1   21.74    1.45
   6  -4  -1   14.17    1.02
  -6   4   1   13.25    1.10
   5  -4  -1    2.24    0.54
  -5   4   1    2.63    0.57
   4  -4  -1   38.22    1.00
   4  -4  -1   39.74    1.19
  -4   4   1   37.63    1.03
  -4   4   1   40.79    1.27
   3  -4  -1  112.49    2.16
   3  -4  -1  109.74    2.13
  -3   4   1  114.84    2.32
  -3   4   1  112.31    2.15
   2  -4  -1   92.65    1.67
   2  -4  -1   91.09    1.82
  -2   4   1   92.12    1.82
  -2   4   1   91.92    1.94
   1  -4  -1   27.17    0.77
   1  -4  -1   26.36    0.49
  -1   4   1   25.64    0.83
   0  -4  -1  140.85    2.62
   0   4   1  141.17    2.59
  -1  -4  -1  192.38    3.46
   1   4   1  188.86    3.19
   1   4   1  194.69    3.39
  -2  -4  -1   61.95    1.53
   2   4   1   60.19    1.36
   2   4   1   63.67    1.46
  -3  -4  -1    0.36    0.40
   3   4   1    0.85    0.31
   3   4   1    0.18    0.28
  -4  -4  -1    9.72    0.69
   4   4   1    8.37    0.70
  -5  -4  -1   42.46    1.50
   5   4   1   40.61    1.56
  -6  -4  -1   14.70    1.13
   6   4   1   13.38    1.15
   7  -5  -1   11.50    1.13
  -7   5   1    7.29    1.03
   6  -5  -1    0.28    0.54
  -6   5   1    0.09    0.61
   5  -5  -1   20.80    0.99
  -5   5   1   22.12    1.17
   4  -5  -1   66.45    1.60
   4  -5  -1   63.45    1.52
  -4   5   1   65.47    1.77
  -4   5   1   67.65    1.56
   3  -5  -1   25.04    0.78
   3  -5  -1   24.98    0.83
  -3   5   1   26.91    1.02
  -3   5   1   24.18    0.83
   2  -5  -1   30.67    0.72
   2  -5  -1   32.04    0.93
  -2   5   1   30.74    1.04
  -2   5   1   31.27    0.93
   1  -5  -1   22.07    0.77
  -1   5   1   21.47    0.80
   0  -5  -1  167.79    3.11
   0   5   1  163.72    3.06
  -1  -5  -1  109.93    2.27
   1   5   1  107.88    1.94
  -2  -5  -1    9.01    0.68
   2   5   1    7.61    0.54
   2   5   1    7.54    0.46
  -3  -5  -1   41.43    1.42
   3   5   1   41.56    1.23
   3   5   1   41.36    1.28
  -4  -5  -1   27.90    1.15
   4   5   1   29.29    1.15
  -5  -5  -1   23.72    1.20
   5   5   1   22.57    1.19
   7  -6  -1    0.95    0.66
  -7   6   1   -0.66    0.69
   6  -6  -1   18.26    1.12
  -6   6   1   17.65    1.29
   5  -6  -1   52.24    1.56
  -5   6   1   57.33    1.82
   4  -6  -1   46.73    1.30
   4  -6  -1   46.85    1.28
  -4   6   1   46.21    1.33
  -4   6   1   46.84    1.54
   3  -6  -1    2.04    0.32
   3  -6  -1    3.31    0.41
  -3   6   1    2.38    0.40
  -3   6   1    2.61    0.52
   2  -6  -1   14.15    0.67
   2  -6  -1   14.11    0.43
  -2   6   1   14.74    0.69
  -2   6   1   14.37    0.79
  -1   6   1  153.58    3.02
   0  -6  -1   72.16    1.73
  -1  -6  -1   38.83    1.23
   1   6   1   39.89    1.17
  -2  -6  -1    4.47    0.58
   2   6   1    4.20    0.50
   3   6   1   24.77    1.04
  -5  -6  -1    2.65    0.59
   7  -7  -1    2.91    0.72
  -7   7   1    1.84    0.88
   6  -7  -1   31.19    1.35
  -6   7   1   31.05    1.61
   5  -7  -1   41.35    1.33
  -5   7   1   39.88    1.63
   4  -7  -1    6.31    0.62
   4  -7  -1    6.30    0.54
  -4   7   1    6.59    0.66
  -4   7   1    7.28    0.82
   3  -7  -1   20.91    0.91
  -3   7   1   20.42    1.06
  -3   7   1   22.99    0.98
   2  -7  -1   55.19    1.49
  -2   7   1   51.66    1.54
   1  -7  -1   46.69    1.37
  -1   7   1   44.51    1.37
   0  -7  -1    5.45    0.57
   0   7   1    5.21    0.52
  -1  -7  -1    1.95    0.45
   1   7   1    1.26    0.35
  -2  -7  -1  124.60    2.86
   2   7   1  129.60    2.77
   3   7   1   29.59    1.21
   4   7   1    2.86    0.59
  -6   8   1   10.04    1.17
  -5   8   1    9.40    1.05
   4  -8  -1    1.17    0.42
  -4   8   1    1.31    0.59
   3  -8  -1   43.99    1.41
  -3   8   1   41.72    1.52
   2  -8  -1   58.45    1.63
  -2   8   1   52.24    1.64
   1  -8  -1    1.63    0.42
  -1   8   1    1.82    0.44
   0  -8  -1   15.02    0.90
   0   8   1   16.25    0.85
  -1  -8  -1   34.46    1.34
   1   8   1   36.34    1.28
  -2  -8  -1   36.08    1.44
   2   8   1   34.10    1.30
   3   8   1    8.08    0.86
   4   8   1    1.52    0.55
  -6   9   1    2.78    0.85
  -5   9   1    1.47    0.72
   4  -9  -1   41.34    1.50
  -4   9   1   43.00    1.71
   3  -9  -1   34.02    1.32
  -3   9   1   33.92    1.42
   2  -9  -1   16.92    0.99
  -2   9   1   18.67    1.06
   1  -9  -1    9.86    0.82
  -1   9   1   10.26    0.82
   0  -9  -1   24.65    1.19
   0   9   1   23.91    1.11
  -1  -9  -1   52.28    1.77
   1   9   1   53.55    1.69
  -2  -9  -1    7.10    0.90
   2   9   1    5.82    0.70
   3   9   1   -0.12    0.40
  -6  10   1    2.60    0.89
  -5  10   1   14.51    1.33
   4 -10  -1   19.07    1.19
  -4  10   1   17.75    1.26
   3 -10  -1    8.61    0.90
  -3  10   1    8.32    0.93
   2 -10  -1    0.39    0.44
  -2  10   1    1.16    0.51
   1 -10  -1   53.02    1.81
  -1  10   1   53.58    1.75
   0 -10  -1   33.57    1.48
   0  10   1   34.38    1.42
  -1 -10  -1   10.54    1.06
   1  10   1    9.37    0.91
  -2 -10  -1    0.94    0.62
   2  10   1    1.57    0.52
   3  10   1   12.59    1.08
  -6  11   1   11.26    1.31
   5 -11  -1   15.79    1.23
  -5  11   1   16.78    1.36
   4 -11  -1    3.94    0.75
  -4  11   1    3.60    0.77
   3 -11  -1   -0.24    0.49
  -3  11   1    0.83    0.58
   2 -11  -1   27.82    1.43
  -2  11   1   27.53    1.38
   1 -11  -1   23.17    1.31
  -1  11   1   23.14    1.26
   0 -11  -1    6.80    0.87
   0  11   1    6.31    0.83
  -1 -11  -1    0.29    0.59
   1  11   1    0.40    0.47
  -2 -11  -1    8.33    1.13
   2  11   1    9.67    0.98
   5 -12  -1    4.55    0.91
  -5  12   1    5.72    0.98
   4 -12  -1   -0.33    0.55
  -4  12   1    0.47    0.66
   3 -12  -1    6.52    0.97
  -3  12   1    5.86    0.88
   2 -12  -1   25.40    1.47
  -2  12   1   26.70    1.41
   1 -12  -1    6.02    0.90
  -1  12   1    7.60    0.94
   0 -12  -1   -0.34    0.56
   0  12   1    0.53    0.52
  -1 -12  -1    9.64    1.22
   1  12   1   12.10    1.16
   4 -13  -1    3.28    0.88
  -4  13   1    4.57    0.92
   3 -13  -1   13.14    1.32
  -3  13   1   12.68    1.27
   2 -13  -1    2.30    0.76
  -2  13   1    3.42    0.75
   1 -13  -1    0.85    0.69
  -1  13   1   -0.01    0.50
   0 -13  -1    4.98    1.00
   0  14  -2    0.08    0.47
   0 -14   2   -0.50    0.57
  -1  14  -2    4.51    0.79
   1 -14   2    2.81    0.78
  -2  14  -2   10.64    1.04
   2 -14   2   12.17    1.17
  -3  14  -2    8.86    1.02
   3 -14   2    7.76    1.02
   1  13  -2    0.94    0.50
  -1 -13   2    0.48    0.61
   0  13  -2    7.60    0.89
   0 -13   2    7.08    0.97
  -1  13  -2   29.50    1.40
   1 -13   2   30.57    1.52
  -2  13  -2   14.48    1.07
  -2  13  -2   11.02    1.08
   2 -13   2   13.31    1.12
  -3  13  -2    0.76    0.54
  -3  13  -2    0.33    0.60
   3 -13   2    0.77    0.56
  -4  13  -2    2.68    0.71
  -4  13  -2    1.30    0.71
   4 -13   2    2.23    0.69
  -5  13  -2    8.26    1.09
   5 -13   2    8.92    1.06
   2  12  -2    5.07    0.74
   1  12  -2    1.91    0.54
  -1 -12   2    3.08    0.69
   0  12  -2   23.22    1.17
   0 -12   2   23.45    1.29
  -1  12  -2   32.05    1.47
  -1  12  -2   33.02    1.38
   1 -12   2   34.85    1.50
  -2  12  -2    1.79    0.52
  -2  12  -2    1.86    0.60
   2 -12   2    2.95    0.67
  -3  12  -2    0.76    0.50
  -3  12  -2    0.11    0.52
   3 -12   2    1.54    0.54
  -4  12  -2   21.11    1.32
  -4  12  -2   20.98    1.31
   4 -12   2   22.13    1.26
  -5  12  -2    7.97    1.01
   5 -12   2    8.20    0.95
   3  11  -2    4.33    0.70
   2  11  -2    2.24    0.52
   1  11  -2   20.00    1.07
  -1 -11   2   20.52    1.17
   0  11  -2   56.47    1.71
   0 -11   2   55.56    1.81
  -1  11  -2    5.44    0.66
  -1  11  -2    3.71    0.65
   1 -11   2    4.71    0.68
  -2  11  -2    3.67    0.66
  -2  11  -2    4.99    0.69
   2 -11   2    4.39    0.66
  -3  11  -2   20.62    1.15
  -3  11  -2   19.54    1.15
   3 -11   2   20.49    1.12
  -4  11  -2   24.71    1.30
  -4  11  -2   22.54    1.29
   4 -11   2   22.01    1.18
  -5  11  -2    1.72    1.06
  -5  11  -2    1.66    0.67
   5 -11   2    2.45    0.58
   3  10  -2    1.50    0.50
   2  10  -2   39.31    1.42
  -2 -10   2   39.46    1.48
   1  10  -2   22.07    1.03
  -1 -10   2   22.37    1.10
   0  10  -2   12.10    0.86
   0  10  -2   12.73    0.80
   0 -10   2   10.69    0.82
  -1  10  -2    8.17    0.73
  -1  10  -2    6.99    0.71
   1 -10   2    7.22    0.72
  -2  10  -2   24.33    1.08
  -2  10  -2   24.54    1.13
   2 -10   2   22.60    1.05
  -3  10  -2   91.35    2.37
  -3  10  -2   96.72    2.41
   3 -10   2   93.83    2.35
  -4  10  -2    4.97    0.71
  -4  10  -2    6.89    0.86
   4 -10   2    5.33    0.66
  -5  10  -2    1.17    0.62
  -5  10  -2   -0.32    0.50
   5 -10   2    1.41    0.43
  -4  -9   2    0.95    0.43
   3   9  -2   31.45    1.27
   2   9  -2   46.15    1.46
  -2  -9   2   45.19    1.48
   1   9  -2   19.17    0.90
  -1  -9   2   17.47    0.92
   0   9  -2    4.07    0.54
   0   9  -2    4.47    0.52
   0  -9   2    5.58    0.61
  -1   9  -2   36.28    1.25
  -1   9  -2   37.27    1.20
   1  -9   2   36.25    1.23
  -2   9  -2   42.67    1.35
  -2   9  -2   41.71    1.38
   2  -9   2   41.95    1.33
  -3   9  -2   30.46    1.19
  -3   9  -2   27.48    1.19
   3  -9   2   27.10    1.07
  -4   9  -2    1.57    0.55
  -4   9  -2    0.65    0.47
   4  -9   2    1.81    0.41
  -5   9  -2   12.80    0.95
  -5   9  -2   11.25    1.08
   5  -9   2   13.34    0.80
  -4  -8   2   19.53    1.05
   3   8  -2  122.28    2.74
   2   8  -2   23.40    0.96
  -2  -8   2   22.23    0.97
   1   8  -2    0.25    0.25
   1   8  -2    0.28    0.30
  -1  -8   2   -0.01    0.27
   0   8  -2   80.02    1.89
   0   8  -2   78.39    1.81
   0  -8   2   78.30    1.88
  -1   8  -2   46.95    1.36
  -1   8  -2   46.01    1.26
   1  -8   2   45.27    1.31
  -2   8  -2   59.20    1.56
  -2   8  -2   57.92    1.57
  -3   8  -2    0.04    0.34
  -3   8  -2    0.16    0.40
   3  -8   2    0.34    0.35
  -4   8  -2   23.40    1.03
  -4   8  -2   21.62    1.17
   4  -8   2   21.91    0.99
  -5   8  -2   40.16    1.63
  -5   8  -2   40.28    1.43
   5  -8   2   40.61    1.46
  -6   8  -2    4.65    0.91
   6  -8   2    6.55    0.87
   7  -8   2    1.40    0.74
  -5  -7   2    9.07    0.90
   4   7  -2   26.12    1.15
  -4  -7   2   28.87    1.18
   3   7  -2   27.05    1.06
   3   7  -2   26.96    1.03
   2   7  -2   -0.03    0.23
   2   7  -2    0.05    0.25
  -2  -7   2    0.11    0.26
   1   7  -2   39.59    1.13
   1   7  -2   40.73    1.07
   1   7  -2   40.88    1.17
  -1  -7   2   42.23    1.19
   0   7  -2  209.35    3.77
   0   7  -2  207.97    3.68
   0   7  -2  199.15    3.55
   0  -7   2  204.07    3.76
  -1   7  -2   17.20    0.74
  -1   7  -2   17.64    0.70
  -2   7  -2    3.35    0.43
  -2   7  -2    3.64    0.47
  -3   7  -2   23.88    1.06
  -3   7  -2   24.19    0.94
   3  -7   2   26.03    0.91
  -4   7  -2   58.14    1.57
  -4   7  -2   53.22    1.66
   4  -7   2   56.59    1.56
  -5   7  -2   24.39    1.26
   5  -7   2   24.71    1.15
  -6   7  -2   -0.26    0.60
   6  -7   2    0.50    0.60
   7  -7   2    7.08    0.97
   6   6  -2   18.74    1.25
   5   6  -2   24.17    1.18
  -5  -6   2   20.56    1.12
   4   6  -2   38.71    1.35
  -4  -6   2   39.72    1.34
   3   6  -2    0.32    0.28
   3   6  -2    0.21    0.29
   2   6  -2   15.63    0.70
   2   6  -2   16.24    0.68
  -2  -6   2   15.30    0.66
   1   6  -2  163.23    2.96
   1   6  -2  164.71    3.02
   1   6  -2  165.97    3.04
  -1  -6   2  164.59    3.04
   0   6  -2   30.37    0.82
   0   6  -2   30.94    0.92
   0   6  -2   30.99    0.84
  -1   6  -2    3.22    0.35
  -1   6  -2    3.65    0.37
  -2   6  -2   21.42    0.77
  -2   6  -2   21.21    0.80
  -3   6  -2   66.28    1.57
  -3   6  -2   66.12    1.66
   3  -6   2   66.10    1.56
  -4   6  -2   27.94    0.99
  -4   6  -2   29.30    1.16
   4  -6   2   29.11    1.12
  -5   6  -2   -0.64    0.44
   5  -6   2    0.40    0.50
  -6   6  -2    8.73    0.98
   6  -6   2   10.09    0.99
   7  -6   2   14.08    1.22
   6   5  -2   28.75    1.41
  -6  -5   2   26.11    1.36
   5   5  -2   15.18    1.01
  -5  -5   2   15.32    0.95
   4   5  -2    0.60    0.35
  -4  -5   2    0.43    0.30
   3   5  -2   27.70    0.97
  -3  -5   2   26.79    0.94
   2   5  -2   82.60    1.74
   2   5  -2   81.30    1.74
  -2  -5   2   79.12    1.65
   1   5  -2  206.84    3.54
   1   5  -2  205.32    3.56
   1   5  -2  204.92    3.55
  -1  -5   2  205.61    3.56
   0   5  -2    9.27    0.42
   0   5  -2    9.03    0.44
   0   5  -2    8.56    0.39
  -1   5  -2   80.23    1.57
  -1   5  -2   78.37    1.62
  -2   5  -2  175.17    3.06
  -2   5  -2  161.96    3.07
  -3   5  -2  100.47    2.04
  -3   5  -2  102.79    2.11
   3  -5   2  100.11    2.08
  -4   5  -2    0.84    0.28
  -4   5  -2    0.47    0.38
   4  -5   2    0.55    0.40
  -5   5  -2   12.18    0.92
   5  -5   2    9.56    0.88
  -6   5  -2   26.83    1.35
   6  -5   2   31.12    1.46
   7  -5   2   12.91    1.21
   6   4  -2   12.10    1.01
  -6  -4   2   11.77    1.06
   5   4  -2    0.25    0.43
  -5  -4   2    0.42    0.39
   4   4  -2   32.64    1.18
  -4  -4   2   34.20    1.15
   3   4  -2  130.13    2.61
  -3  -4   2  128.93    2.56
   2   4  -2  126.97    2.36
   2   4  -2  124.09    2.36
  -2  -4   2  122.67    2.22
   1   4  -2    2.62    0.26
   1   4  -2    2.40    0.24
   1   4  -2    2.81    0.28
   0   4  -2   50.03    1.08
   0   4  -2   50.20    1.08
   0   4  -2   50.12    1.01
  -1   4  -2  167.37    2.84
  -1   4  -2  164.92    2.89
  -2   4  -2  231.22    3.88
  -2   4  -2  225.18    3.87
  -3   4  -2    7.25    0.43
  -3   4  -2    7.94    0.51
   3  -4   2    7.35    0.54
  -4   4  -2   18.34    0.83
  -4   4  -2   16.76    0.67
   4  -4   2   16.73    0.87
  -5   4  -2   32.00    1.21
   5  -4   2   34.63    1.33
  -6   4  -2   18.40    1.12
   6  -4   2   20.15    1.25
  -7   4  -2    0.60    0.65
   7  -4   2    1.88    0.77
   6   3  -2    0.81    0.53
  -6  -3   2    0.57    0.48
   5   3  -2   13.59    0.91
  -5  -3   2   12.54    0.83
   4   3  -2   70.39    1.81
  -4  -3   2   72.96    1.75
   3   3  -2  126.78    2.49
  -3  -3   2  120.16    2.19
  -3  -3   2  125.13    2.43
   2   3  -2   54.45    1.04
   2   3  -2   55.01    1.24
  -2  -3   2   53.40    1.19
  -2  -3   2   53.51    1.04
   1   3  -2   17.62    0.54
   1   3  -2   19.34    0.50
   1   3  -2   19.17    0.53
   0   3  -2  160.55    2.79
   0   3  -2  166.28    2.76
   0   3  -2  164.04    2.67
  -1   3  -2   95.92    1.78
  -1   3  -2   99.77    1.73
  -2   3  -2   60.04    1.19
  -2   3  -2   59.46    1.23
   2  -3   2   58.53    1.29
  -3   3  -2   27.68    0.76
  -3   3  -2   27.83    0.80
   3  -3   2   26.71    0.90
  -4   3  -2   34.95    1.06
  -4   3  -2   34.76    0.93
   4  -3   2   35.59    1.19
  -5   3  -2   40.46    1.31
   5  -3   2   41.40    1.48
  -6   3  -2   -0.52    0.44
   6  -3   2    0.16    0.59
  -7   3  -2    0.83    0.67
   7  -3   2    3.21    0.86
   6   2  -2    6.29    0.82
  -6  -2   2    6.31    0.76
   5   2  -2   41.66    1.45
  -5  -2   2   41.89    1.37
   4   2  -2   59.23    1.59
  -4  -2   2   59.75    1.52
   3   2  -2    1.09    0.29
  -3  -2   2    0.87    0.23
   2   2  -2   34.44    0.64
   2   2  -2   34.03    0.87
  -2  -2   2   33.21    0.64
  -2  -2   2   33.54    0.83
   1   2  -2   91.27    1.67
   1   2  -2   94.44    1.56
  -1  -2   2   89.97    1.61
   0   2  -2  288.76    4.71
   0   2  -2  295.22    4.78
  -1   2  -2    0.59    0.11
  -1   2  -2    0.23    0.13
  -2   2  -2   51.15    1.07
  -2   2  -2   51.86    1.03
   2  -2   2   51.81    1.18
  -3   2  -2   89.14    1.73
  -3   2  -2   87.92    1.68
   3  -2   2   85.88    1.88
  -4   2  -2   50.05    1.28
  -4   2  -2   47.73    1.10
   4  -2   2   46.18    1.40
  -5   2  -2   10.84    0.77
  -6   2  -2    2.80    0.61
   6  -2   2    2.57    0.74
  -7   2  -2    9.14    0.99
   7  -2   2   12.18    1.23
   7   1  -2    4.30    0.84
  -7  -1   2    4.20    0.80
   6   1  -2   45.77    1.68
  -6  -1   2   45.62    1.60
   5   1  -2   49.77    1.58
  -5  -1   2   50.33    1.48
   4   1  -2   10.15    0.68
  -4  -1   2   11.60    0.65
   3   1  -2   15.82    0.66
  -3  -1   2   16.88    0.62
   2   1  -2   88.85    1.73
  -2  -1   2   89.76    1.68
   1   1  -2  255.46    4.10
   1   1  -2  252.12    4.11
  -1  -1   2  252.51    4.14
   0   1  -2    0.20    0.07
   0   1  -2    0.42    0.11
   0  -1   2    0.33    0.04
  -1   1  -2   18.27    0.48
  -1   1  -2   19.35    0.39
  -2   1  -2  193.10    3.23
  -2   1  -2  193.16    3.21
   2  -1   2  195.27    3.38
  -3   1  -2  105.49    2.03
  -3   1  -2  110.12    1.96
   3  -1   2  105.33    2.19
  -4   1  -2    5.85    0.52
   4  -1   2    6.04    0.66
  -5   1  -2   16.68    0.85
   5  -1   2   15.38    1.01
  -6   1  -2   16.21    1.05
   6  -1   2   16.32    1.16
  -7   1  -2    9.41    0.98
   7  -1   2   10.66    1.20
   7   0  -2    9.02    1.03
   6   0  -2   36.95    1.53
  -6   0   2   37.59    1.45
   5   0  -2   12.68    0.85
  -5   0   2   13.40    0.82
   4   0  -2    9.67    0.66
  -4   0   2   10.26    0.63
   3   0  -2  108.99    2.17
  -3   0   2  107.91    2.11
   2   0  -2  109.09    1.99
  -2   0   2  106.08    1.95
   1   0  -2  195.61    3.17
   1   0  -2  192.96    3.15
  -1   0   2  192.72    3.14
   0   0  -2   22.63    0.56
   0   0  -2   22.84    0.52
   0   0   2   22.86    0.48
  -1   0  -2  125.81    2.22
   1   0   2  127.52    2.10
  -2   0  -2  253.42    4.30
  -2   0  -2  272.56    4.36
   2   0   2  264.72    4.45
  -3   0  -2   21.84    0.69
  -3   0  -2   21.95    0.65
   3   0   2   22.33    0.83
  -4   0  -2   12.01    0.64
   4   0   2    9.91    0.77
  -5   0  -2   34.44    1.21
   5   0   2   32.65    1.36
  -6   0  -2   16.34    1.02
   6   0   2   17.65    1.18
  -7   0  -2    6.62    0.93
   7  -1  -2   16.45    1.21
  -7   1   2   15.49    1.23
   6  -1  -2    1.73    0.61
  -6   1   2    0.65    0.50
   5  -1  -2   11.27    0.81
  -5   1   2   11.45    0.78
   4  -1  -2  101.15    2.20
  -4   1   2  100.15    2.14
   3  -1  -2  165.92    3.04
  -3   1   2  168.20    3.02
   2  -1  -2   15.50    0.52
   2  -1  -2   16.54    0.45
  -2   1   2   16.03    0.54
   1  -1  -2   69.47    1.33
   1  -1  -2   69.27    1.25
  -1   1   2   72.67    1.34
   0  -1  -2   59.37    1.25
   0   1   2   60.36    1.13
  -1  -1  -2  198.09    3.53
   1   1   2  210.39    3.39
   1   1   2  204.47    3.36
  -2  -1  -2  183.42    3.27
   2   1   2  186.12    3.20
   2   1   2  189.46    3.28
  -3  -1  -2    0.41    0.23
  -3  -1  -2    0.12    0.18
   3   1   2   -0.05    0.27
  -4  -1  -2   50.45    1.35
   4   1   2   49.03    1.48
  -5  -1  -2   44.50    1.43
   5   1   2   41.96    1.53
  -6  -1  -2    6.35    0.80
   6   1   2    8.73    1.03
  -7  -1  -2    0.37    0.66
   7  -2  -2    6.84    0.96
  -7   2   2    6.46    0.93
   6  -2  -2   -0.07    0.52
  -6   2   2    0.34    0.52
   5  -2  -2   35.22    1.27
  -5   2   2   36.69    1.28
   4  -2  -2  159.82    3.10
  -4   2   2  159.90    3.10
   3  -2  -2   41.88    1.07
   3  -2  -2   40.33    0.89
  -3   2   2   42.91    1.10
   2  -2  -2    4.81    0.30
   2  -2  -2    5.27    0.30
  -2   2   2    5.78    0.37
   1  -2  -2  101.53    1.87
   1  -2  -2   99.41    1.69
  -1   2   2  102.15    1.92
   0  -2  -2  117.87    2.20
   0   2   2  118.80    2.12
  -1  -2  -2   25.77    0.82
   1   2   2   24.97    0.66
   1   2   2   24.98    0.64
  -2  -2  -2    2.51    0.38
   2   2   2    3.19    0.32
   2   2   2    3.12    0.35
  -3  -2  -2   40.58    1.16
   3   2   2   44.20    1.22
  -4  -2  -2   44.79    1.31
   4   2   2   45.56    1.43
  -5  -2  -2   10.44    0.81
   5   2   2   10.30    0.98
  -6  -2  -2    1.73    0.58
   6   2   2    0.29    0.57
   7  -3  -2    2.01    0.71
  -7   3   2    1.25    0.70
   6  -3  -2   13.02    0.98
  -6   3   2   11.50    1.00
   5  -3  -2   40.89    1.36
  -5   3   2   41.37    1.40
   4  -3  -2   61.47    1.53
  -4   3   2   60.31    1.59
   3  -3  -2    3.44    0.37
   3  -3  -2    2.89    0.30
  -3   3   2    3.02    0.39
   2  -3  -2   89.03    1.63
   2  -3  -2   87.82    1.73
  -2   3   2   89.17    1.83
   1  -3  -2  114.05    2.18
   1  -3  -2  116.69    1.88
  -1   3   2  116.19    2.24
   0  -3  -2    6.99    0.45
   0   3   2    6.94    0.21
   0   3   2    6.99    0.40
  -1  -3  -2   31.47    0.96
   1   3   2   31.34    0.73
   1   3   2   29.91    0.82
  -2  -3  -2   43.36    1.28
   2   3   2   42.64    1.10
   2   3   2   44.41    1.09
  -3  -3  -2   55.18    1.52
   3   3   2   56.90    1.45
   3   3   2   54.43    1.41
  -4  -3  -2   25.62    1.02
   4   3   2   25.05    1.08
  -5  -3  -2    0.54    0.41
   5   3   2    0.23    0.45
  -6  -3  -2   17.30    1.17
   6   3   2   19.43    1.27
   7  -4  -2   13.66    1.12
  -7   4   2   13.65    1.26
   6  -4  -2   28.84    1.32
  -6   4   2   28.35    1.40
   5  -4  -2   19.80    1.00
  -5   4   2   19.86    1.08
   4  -4  -2    3.31    0.39
   4  -4  -2    3.63    0.48
  -4   4   2    3.54    0.52
   3  -4  -2   34.25    0.96
   3  -4  -2   35.41    0.93
  -3   4   2   37.04    1.14
   2  -4  -2  128.52    2.20
   2  -4  -2  129.04    2.45
  -2   4   2  126.09    2.55
   1  -4  -2  230.36    4.04
  -1   4   2  228.96    4.07
   0  -4  -2   38.57    1.08
   0   4   2   38.59    1.03
  -1  -4  -2  113.54    2.35
   1   4   2  112.75    2.21
   1   4   2  110.01    1.98
  -2  -4  -2   97.54    2.23
   2   4   2   95.93    2.04
   2   4   2   96.04    1.93
  -3  -4  -2   36.02    1.32
   3   4   2   37.74    1.15
   3   4   2   35.35    1.15
  -4  -4  -2    0.40    0.33
   4   4   2    0.25    0.35
  -5  -4  -2   14.47    0.98
   5   4   2   16.60    1.07
  -6  -4  -2   20.64    1.32
   6   4   2   23.18    1.40
   7  -5  -2   15.27    1.15
  -7   5   2   13.91    1.30
   6  -5  -2    9.89    0.93
  -6   5   2   10.89    1.07
   5  -5  -2    0.37    0.42
  -5   5   2    0.14    0.48
   4  -5  -2   32.38    1.03
   4  -5  -2   33.00    1.04
  -4   5   2   33.14    1.26
   3  -5  -2   59.09    1.30
   3  -5  -2   60.22    1.47
  -3   5   2   58.93    1.62
   2  -5  -2   68.58    1.30
   2  -5  -2   74.72    1.68
  -2   5   2   72.45    1.76
   1  -5  -2    7.77    0.54
  -1   5   2    7.81    0.57
   0  -5  -2   74.14    1.76
   0   5   2   74.40    1.69
  -1  -5  -2   89.60    2.08
   1   5   2   86.59    1.64
   1   5   2   92.94    1.97
  -2  -5  -2   43.84    1.44
   2   5   2   41.97    1.23
   2   5   2   40.24    1.07
  -3  -5  -2   -0.20    0.46
   3   5   2    0.08    0.29
   3   5   2    0.36    0.28
   4   5   2    7.14    0.78
  -5  -5  -2   23.24    1.20
   7  -6  -2    9.53    1.02
  -7   6   2    7.42    1.09
   6  -6  -2    1.68    0.57
  -6   6   2    2.79    0.75
   5  -6  -2   30.92    1.16
  -5   6   2   29.34    1.39
   4  -6  -2   50.42    1.42
   4  -6  -2   50.52    1.32
  -4   6   2   51.64    1.66
   3  -6  -2   13.48    0.55
   3  -6  -2   15.21    0.76
  -3   6   2   13.05    0.90
   2  -6  -2    4.65    0.52
  -2   6   2    2.80    0.46
   1  -6  -2   59.24    1.58
  -1   6   2   63.70    1.62
   0  -6  -2   75.49    1.86
   0   6   2   73.67    1.79
  -1  -6  -2   55.82    1.62
   1   6   2   54.64    1.48
  -2  -6  -2    1.17    0.49
   2   6   2    1.03    0.35
  -3  -6  -2   23.92    1.36
   3   6   2   22.04    1.04
   4   6   2   22.39    1.13
  -5  -6  -2   13.68    1.05
  -7   7   2    0.87    0.83
  -6   7   2    9.06    1.10
  -5   7   2   46.42    1.79
   4  -7  -2   55.76    1.61
  -4   7   2   54.97    1.82
   3  -7  -2    0.27    0.33
  -3   7   2    0.60    0.44
   2  -7  -2   18.80    0.91
  -2   7   2   19.43    0.97
   1  -7  -2   80.13    1.98
  -1   7   2   72.35    1.91
   0  -7  -2   49.22    1.53
   0   7   2   47.08    1.43
  -1  -7  -2    2.22    0.52
   1   7   2    1.31    0.38
  -2  -7  -2   30.01    1.36
   2   7   2   29.84    1.18
   3   7   2   27.85    1.22
   4   7   2   15.49    1.05
  -7   8   2    3.37    1.30
  -6   8   2   11.39    1.22
  -5   8   2   24.15    1.46
   4  -8  -2    0.43    0.40
  -4   8   2    0.54    0.55
   3  -8  -2    4.15    0.61
  -3   8   2    4.11    0.68
   2  -8  -2   32.57    1.28
  -2   8   2   33.05    1.31
   1  -8  -2   33.93    1.29
  -1   8   2   30.22    1.23
   0  -8  -2    1.50    0.48
   0   8   2    0.73    0.35
  -1  -8  -2   17.79    1.11
   1   8   2   17.56    0.95
  -2  -8  -2   29.24    1.47
   2   8   2   30.81    1.28
   3   8   2   15.28    1.03
   4   8   2    3.11    0.69
  -6   9   2    7.04    1.10
  -5   9   2    1.60    0.72
   4  -9  -2   21.79    1.19
  -4   9   2   22.27    1.32
   3  -9  -2   26.29    1.24
  -3   9   2   24.89    1.27
   2  -9  -2   34.60    1.41
  -2   9   2   31.72    1.36
   1  -9  -2    3.81    0.64
  -1   9   2    5.21    0.70
   0  -9  -2   16.61    1.10
   0   9   2   17.28    1.01
  -1  -9  -2   42.52    1.70
   1   9   2   42.83    1.56
  -2  -9  -2   22.83    1.42
   2   9   2   24.53    1.24
   3   9   2    4.88    0.75
  -6  10   2    1.66    0.81
  -5  10   2   10.43    1.16
   4 -10  -2   21.75    1.26
  -4  10   2   19.79    1.32
   3 -10  -2   24.47    1.29
  -3  10   2   23.19    1.31
   2 -10  -2    8.98    0.92
  -2  10   2    6.87    0.84
   1 -10  -2    9.09    0.95
  -1  10   2    9.29    0.90
   0 -10  -2   31.35    1.50
   0  10   2   32.26    1.43
  -1 -10  -2   22.20    1.42
   1  10   2   23.65    1.25
  -2 -10  -2    2.64    0.83
   2  10   2    2.48    0.62
   5 -11  -2   18.55    2.14
  -5  11   2   17.11    1.41
   4 -11  -2   12.30    1.17
  -4  11   2   11.33    1.15
   3 -11  -2    2.58    0.70
  -3  11   2    2.03    0.66
   2 -11  -2    2.25    0.69
  -2  11   2    3.37    0.70
   1 -11  -2   21.23    1.37
  -1  11   2   18.46    1.22
   0 -11  -2   19.40    1.39
   0  11   2   20.20    1.27
  -1 -11  -2    1.56    0.77
   1  11   2    2.85    0.66
  -2 -11  -2    0.80    0.79
   5 -12  -2   10.19    1.22
   4 -12  -2    5.42    0.95
  -4  12   2    4.60    0.88
   3 -12  -2    0.53    0.66
  -3  12   2    1.54    0.67
   2 -12  -2   16.80    1.38
  -2  12   2   18.13    1.28
   1 -12  -2   14.09    1.33
  -1  12   2   13.36    1.16
   0 -12  -2    5.18    1.01
   0  12   2    3.81    0.80
  -1 -12  -2   -0.13    0.73
  -3  13   2    4.00    1.14
  -2  13   2   12.04    1.36
  -1 -14   3   14.47    1.31
   0  14  -3    7.98    0.89
   0 -14   3    7.33    1.04
  -1  14  -3    0.09    0.42
   1 -14   3    0.01    0.53
  -2  14  -3    6.17    0.82
  -2  14  -3    4.64    0.86
   2 -14   3    6.74    0.95
  -3  14  -3   10.71    1.19
   3 -14   3   12.69    1.19
  -4  14  -3    6.61    1.53
   1  13  -3   16.31    1.05
  -1 -13   3   14.34    1.20
   0  13  -3    1.23    0.51
   0 -13   3    0.80    0.53
  -1  13  -3   15.02    1.02
  -1  13  -3   13.52    1.12
   1 -13   3   15.06    1.16
  -2  13  -3   17.41    1.07
  -2  13  -3   15.15    1.16
   2 -13   3   17.48    1.16
  -3  13  -3    7.44    0.95
   3 -13   3    7.77    0.90
  -4  13  -3   -0.11    0.58
   4 -13   3    1.00    0.54
  -5  13  -3    1.02    0.68
   5 -13   3    3.10    0.70
   2  12  -3   15.48    1.05
   1  12  -3    2.04    0.52
  -1 -12   3    1.03    0.54
   0  12  -3   16.34    1.12
   0  12  -3   16.50    0.98
   0 -12   3   17.00    1.11
  -1  12  -3   37.57    1.39
  -1  12  -3   38.23    1.56
   1 -12   3   39.23    1.56
  -2  12  -3   14.95    0.93
  -2  12  -3   15.26    1.10
   2 -12   3   15.62    1.06
  -3  12  -3    2.56    0.56
  -3  12  -3    1.67    0.63
   3 -12   3    2.38    0.56
  -4  12  -3    4.97    0.80
   4 -12   3    6.13    0.78
  -5  12  -3   12.69    1.16
   5 -12   3   16.40    1.11
   3  11  -3   13.44    1.00
   2  11  -3    4.78    0.63
   1  11  -3    0.31    0.36
  -1 -11   3    0.67    0.42
   0  11  -3   39.86    1.49
   0  11  -3   40.40    1.37
   0 -11   3   41.17    1.51
  -1  11  -3   28.36    1.13
  -1  11  -3   27.32    1.22
   1 -11   3   27.46    1.21
  -2  11  -3    1.24    0.52
  -2  11  -3    3.11    0.54
   2 -11   3    2.07    0.47
  -3  11  -3   13.42    1.01
  -3  11  -3   13.83    0.94
   3 -11   3   14.83    0.94
  -4  11  -3   17.88    1.17
   4 -11   3   19.08    1.06
  -5  11  -3    9.58    1.02
   5 -11   3   12.59    0.94
  -4 -10   3   13.46    1.10
   3  10  -3    3.46    0.58
   2  10  -3    6.61    0.68
  -2 -10   3    7.00    0.75
   1  10  -3   38.01    1.29
   1  10  -3   37.39    1.37
  -1 -10   3   38.11    1.37
   0  10  -3   29.52    1.19
   0  10  -3   28.83    1.07
   0 -10   3   29.77    1.19
  -1  10  -3    2.39    0.43
  -1  10  -3    2.09    0.49
   1 -10   3    2.22    0.45
  -2  10  -3    2.44    0.47
  -2  10  -3    1.74    0.48
   2 -10   3    2.40    0.45
  -3  10  -3   32.90    1.34
  -3  10  -3   36.04    1.31
  -4  10  -3   21.79    1.19
  -4  10  -3   20.62    1.16
  -5  10  -3    1.96    0.63
  -4  -9   3    1.05    0.40
   3   9  -3   31.74    1.24
   2   9  -3   44.07    1.39
  -2  -9   3   43.82    1.40
   1   9  -3   56.90    1.55
   1   9  -3   60.03    1.65
  -1  -9   3   61.41    1.67
   0   9  -3   18.33    0.79
   0   9  -3   18.13    0.89
   0  -9   3   18.04    0.87
  -1   9  -3   10.66    0.74
  -1   9  -3   10.41    0.65
  -2   9  -3   98.72    2.21
  -2   9  -3  100.00    2.33
  -3   9  -3   43.99    1.41
  -3   9  -3   43.15    1.44
   3  -9   3   43.50    1.27
  -4   9  -3    5.26    0.72
  -4   9  -3    5.18    0.69
   4  -9   3    5.83    0.66
  -5   9  -3    0.38    0.42
   5  -9   3    0.79    0.54
   6  -9   3   15.26    1.19
   7  -9   3    7.25    1.00
  -5  -8   3    6.17    0.82
  -4  -8   3    0.59    0.38
   3   8  -3   28.61    1.13
   3   8  -3   29.21    1.16
   2   8  -3   56.17    1.50
   2   8  -3   57.85    1.55
  -2  -8   3   57.37    1.53
   1   8  -3   30.39    1.00
   1   8  -3   30.38    1.00
   1   8  -3   30.75    1.06
  -1  -8   3   32.46    1.08
   0   8  -3   15.24    0.66
   0   8  -3   15.79    0.78
   0   8  -3   16.06    0.68
   0  -8   3   15.04    0.73
  -1   8  -3   53.49    1.45
  -1   8  -3   53.34    1.32
  -2   8  -3   49.64    1.34
  -2   8  -3   51.96    1.46
  -3   8  -3   15.31    0.84
  -3   8  -3   14.76    0.87
   3  -8   3   17.77    0.84
  -4   8  -3    0.64    0.37
  -4   8  -3    0.62    0.47
   4  -8   3    0.46    0.44
  -5   8  -3   25.73    1.80
  -5   8  -3   26.05    1.15
   5  -8   3   26.84    1.23
   6  -8   3   17.37    1.17
   7  -8   3    2.21    0.78
   5   7  -3    1.97    0.56
  -5  -7   3    1.66    0.50
   4   7  -3   53.79    1.67
  -4  -7   3   52.93    1.63
   3   7  -3   32.67    1.14
   3   7  -3   32.43    1.13
   2   7  -3   20.86    0.83
   2   7  -3   19.59    0.78
   2   7  -3   20.25    0.81
  -2  -7   3   17.94    0.76
   1   7  -3    1.15    0.29
   1   7  -3    1.01    0.28
   1   7  -3    0.98    0.26
  -1  -7   3    1.14    0.28
   0   7  -3   55.72    1.39
   0   7  -3   54.66    1.32
   0   7  -3   53.28    1.26
  -1   7  -3   64.14    1.56
  -1   7  -3   66.83    1.44
  -2   7  -3   15.35    0.69
  -2   7  -3   15.36    0.72
  -3   7  -3    3.41    0.51
  -3   7  -3    2.75    0.42
   3  -7   3    3.05    0.47
  -4   7  -3   33.39    1.14
  -4   7  -3   31.60    1.27
   4  -7   3   33.16    1.21
  -5   7  -3   37.52    1.71
  -5   7  -3   40.43    1.50
   5  -7   3   41.27    1.48
   6  -7   3    5.09    0.84
   7  -7   3    1.94    0.81
   6   6  -3    2.82    0.68
   5   6  -3   22.55    1.16
  -5  -6   3   23.44    1.15
   4   6  -3   50.38    1.57
  -4  -6   3   48.92    1.50
   3   6  -3   14.19    0.76
  -3  -6   3   12.96    0.70
   2   6  -3   -0.08    0.20
   2   6  -3    0.35    0.25
   2   6  -3    0.27    0.20
  -2  -6   3    0.27    0.19
   1   6  -3  112.26    2.24
   1   6  -3  112.65    2.18
   1   6  -3  116.13    2.24
   0   6  -3  139.81    2.63
   0   6  -3  142.29    2.66
   0   6  -3  138.90    2.52
  -1   6  -3   30.37    0.90
  -1   6  -3   30.82    0.80
  -2   6  -3    1.49    0.30
  -2   6  -3    1.60    0.30
  -3   6  -3   86.82    1.89
  -3   6  -3   83.53    1.92
   3  -6   3   84.30    1.90
  -4   6  -3   46.61    1.42
  -4   6  -3   46.33    1.31
   4  -6   3   46.90    1.47
  -5   6  -3    7.92    0.79
   5  -6   3    7.90    0.84
   6  -6   3    1.48    0.68
   7  -6   3    8.22    1.10
   6   5  -3    8.47    0.93
  -6  -5   3    7.88    0.87
   5   5  -3   43.21    1.54
  -5  -5   3   41.30    1.48
   4   5  -3   22.37    1.00
  -4  -5   3   23.00    0.97
   3   5  -3    3.65    0.49
  -3  -5   3    3.08    0.39
   2   5  -3   81.07    1.64
   2   5  -3   84.44    1.80
   2   5  -3   82.96    1.74
  -2  -5   3   81.86    1.64
   1   5  -3   96.39    1.86
   1   5  -3   95.83    1.84
   1   5  -3   95.18    1.91
   0   5  -3    2.87    0.32
   0   5  -3    2.97    0.30
   0   5  -3    2.60    0.22
  -1   5  -3    2.12    0.26
  -1   5  -3    2.17    0.23
  -2   5  -3   28.32    0.84
  -2   5  -3   27.26    0.82
  -3   5  -3   97.58    2.03
  -3   5  -3  102.71    2.05
   3  -5   3   94.57    2.09
  -4   5  -3   27.62    0.94
  -4   5  -3   29.02    1.04
   4  -5   3   30.18    1.15
  -5   5  -3   -0.08    0.44
   5  -5   3    0.54    0.54
   6  -5   3   23.40    1.34
   7  -5   3    9.09    1.11
   6   4  -3   18.09    1.14
  -6  -4   3   18.49    1.14
   5   4  -3   13.83    0.93
  -5  -4   3   16.46    0.92
   4   4  -3    1.58    0.43
  -4  -4   3    1.15    0.34
   3   4  -3   87.33    1.97
  -3  -4   3   90.16    1.93
   2   4  -3  196.13    3.50
   2   4  -3  199.72    3.30
  -2  -4   3  196.12    3.43
  -2  -4   3  190.55    3.27
   1   4  -3   78.10    1.51
   1   4  -3   77.29    1.60
   1   4  -3   81.15    1.52
   0   4  -3   14.04    0.40
   0   4  -3   14.10    0.49
   0   4  -3   13.63    0.54
  -1   4  -3  115.59    2.15
  -1   4  -3  115.98    1.98
  -2   4  -3  320.61    5.31
  -2   4  -3  332.68    5.44
  -3   4  -3   55.65    1.31
  -3   4  -3   57.80    1.29
   3  -4   3   54.88    1.43
  -4   4  -3    3.00    0.37
  -4   4  -3    3.75    0.47
   4  -4   3    2.83    0.55
  -5   4  -3   16.68    0.95
   5  -4   3   19.51    1.10
  -6   4  -3   27.90    1.31
   6  -4   3   30.48    1.47
   7  -4   3    7.54    1.06
   6   3  -3   10.40    0.95
  -6  -3   3   10.94    0.94
   5   3  -3    1.32    0.48
  -5  -3   3    1.04    0.40
   4   3  -3   15.18    0.81
  -4  -3   3   15.20    0.76
   3   3  -3  121.26    2.47
  -3  -3   3  124.22    2.41
   2   3  -3  152.44    2.78
   2   3  -3  150.33    2.51
  -2  -3   3  150.41    2.69
   1   3  -3    0.11    0.11
   1   3  -3    0.23    0.16
   0   3  -3  171.09    2.89
   0   3  -3  172.92    2.74
   0   3  -3  167.57    2.98
  -1   3  -3   65.98    1.34
  -1   3  -3   67.65    1.18
  -2   3  -3   30.31    0.70
  -2   3  -3   29.53    0.79
  -3   3  -3    4.33    0.37
  -3   3  -3    3.70    0.36
   3  -3   3    3.84    0.47
  -4   3  -3    4.52    0.43
  -4   3  -3    5.32    0.51
   4  -3   3    3.29    0.52
  -5   3  -3   76.39    1.86
   5  -3   3   73.87    2.08
  -6   3  -3   11.61    0.96
   6  -3   3   12.10    1.11
   7  -3   3    0.88    0.78
   6   2  -3    0.19    0.46
  -6  -2   3    0.20    0.42
   5   2  -3   20.25    1.03
  -5  -2   3   19.65    0.96
   4   2  -3   83.30    1.99
  -4  -2   3   84.34    1.92
   3   2  -3   44.79    1.21
  -3  -2   3   45.81    1.15
   2   2  -3   35.27    0.68
   2   2  -3   35.22    0.91
  -2  -2   3   34.27    0.85
   1   2  -3   12.98    0.37
  -1  -2   3   12.99    0.38
   0   2  -3   40.33    0.85
   0   2  -3   40.13    0.93
   0  -2   3   38.89    0.68
  -1   2  -3   45.22    0.98
  -1   2  -3   45.69    0.77
  -2   2  -3   19.71    0.61
  -2   2  -3   19.75    0.51
  -3   2  -3   45.17    1.07
  -3   2  -3   44.48    1.04
   3  -2   3   44.89    1.25
  -4   2  -3   37.80    1.09
  -4   2  -3   36.31    0.99
   4  -2   3   36.46    1.26
  -5   2  -3   16.35    0.88
   5  -2   3   18.59    1.10
  -6   2  -3    0.10    0.46
   6  -2   3    0.32    0.63
   7  -2   3    3.71    1.12
   7   1  -3    0.34    0.58
  -7  -1   3   -0.23    0.54
   6   1  -3   25.32    1.26
  -6  -1   3   25.06    1.22
   5   1  -3   45.29    1.48
  -5  -1   3   44.09    1.40
   4   1  -3   30.03    1.07
  -4  -1   3   32.58    1.04
   3   1  -3    2.48    0.35
  -3  -1   3    2.40    0.31
   2   1  -3   47.38    0.86
   2   1  -3   49.42    1.11
  -2  -1   3   49.87    1.06
   1   1  -3  980.29   16.17
   1   1  -3 1000.00   16.08
  -1  -1   3  981.88   15.98
   0   1  -3  287.85    4.71
   0  -1   3  294.62    4.70
  -1   1  -3    2.83    0.27
   1  -1   3    3.17    0.16
  -2   1  -3  164.41    2.84
  -2   1  -3  170.47    2.97
   2  -1   3  175.30    3.08
  -3   1  -3   86.48    1.71
  -3   1  -3   83.65    1.69
   3  -1   3   84.02    1.91
  -4   1  -3   63.17    1.50
  -4   1  -3   61.97    1.39
   4  -1   3   59.81    1.69
  -5   1  -3   -0.33    0.30
   5  -1   3    0.29    0.52
  -6   1  -3    3.65    0.65
   6  -1   3    3.75    0.84
   7   0  -3    3.33    0.75
  -7   0   3    2.38    0.72
   6   0  -3   25.69    1.27
  -6   0   3   25.26    1.23
   5   0  -3   32.47    1.23
  -5   0   3   31.11    1.16
   4   0  -3   -0.27    0.29
  -4   0   3    0.11    0.26
   3   0  -3   31.33    0.92
  -3   0   3   30.72    0.88
   2   0  -3   83.16    1.64
   2   0  -3   85.32    1.51
  -2   0   3   83.12    1.61
   1   0  -3   10.19    0.42
   1   0  -3   10.09    0.37
  -1   0   3   10.35    0.36
   0   0  -3   23.13    0.68
   0   0  -3   22.71    0.60
   0   0   3   23.98    0.55
  -1   0  -3    9.88    0.48
   1   0   3   10.23    0.33
  -2   0  -3  371.37    6.01
   2   0   3  357.91    5.85
   2   0   3  361.30    6.04
  -3   0  -3   90.84    1.83
  -3   0  -3   92.40    1.85
   3   0   3   90.02    2.01
  -4   0  -3    3.03    0.41
   4   0   3    3.20    0.59
  -5   0  -3    9.02    0.77
   5   0   3    8.69    0.90
  -6   0  -3   17.40    1.05
   6   0   3   18.12    1.25
  -7   0  -3   11.15    1.31
   7  -1  -3   27.56    1.42
  -7   1   3   25.10    1.44
   6  -1  -3   18.66    1.11
  -6   1   3   18.82    1.13
   5  -1  -3    2.17    0.50
  -5   1   3    2.76    0.50
   4  -1  -3   33.11    1.09
  -4   1   3   32.45    1.06
   3  -1  -3  100.08    2.02
   3  -1  -3   98.59    1.84
  -3   1   3  102.26    2.03
   2  -1  -3  112.95    2.05
   2  -1  -3  110.09    2.02
  -2   1   3  107.86    2.05
   1  -1  -3    0.65    0.15
   1  -1  -3    0.66    0.23
  -1   1   3    0.91    0.20
   0  -1  -3    1.05    0.28
   0   1   3    0.73    0.17
  -1  -1  -3  235.19    4.12
   1   1   3  234.93    3.86
  -2  -1  -3   91.59    1.93
   2   1   3   88.84    1.76
   2   1   3   94.56    1.89
  -3  -1  -3    6.76    0.55
  -3  -1  -3    5.49    0.44
   3   1   3    5.63    0.57
  -4  -1  -3   16.81    0.78
   4   1   3   14.81    0.92
  -5  -1  -3   22.82    1.05
   5   1   3   21.72    1.23
  -6  -1  -3   19.38    1.17
   6   1   3   20.63    1.29
   7  -2  -3   16.73    1.19
  -7   2   3   12.27    1.15
   6  -2  -3    2.04    0.59
  -6   2   3    2.17    0.62
   5  -2  -3    8.99    0.75
  -5   2   3    8.53    0.79
   4  -2  -3  157.93    3.07
  -4   2   3  157.18    3.09
   3  -2  -3  186.91    3.32
   3  -2  -3  179.35    3.21
  -3   2   3  191.79    3.40
   2  -2  -3    9.93    0.40
   2  -2  -3   10.61    0.48
  -2   2   3    9.76    0.49
   1  -2  -3   38.68    0.80
   1  -2  -3   37.68    1.01
  -1   2   3   40.56    1.01
   0  -2  -3   55.33    1.35
   0   2   3   55.52    1.20
  -1  -2  -3  190.95    3.62
   1   2   3  199.43    3.33
   1   2   3  196.99    3.37
  -2  -2  -3   17.46    0.81
   2   2   3   18.87    0.65
   2   2   3   19.90    0.71
  -3  -2  -3    7.76    0.67
   3   2   3    6.76    0.51
   3   2   3    7.91    0.62
  -4  -2  -3   40.27    1.25
   4   2   3   38.49    1.36
  -5  -2  -3   37.93    1.36
   5   2   3   35.53    1.47
  -6  -2  -3    2.53    0.66
   6   2   3    1.75    0.69
   7  -3  -3    3.40    0.75
  -7   3   3    1.44    0.76
   6  -3  -3    1.47    0.58
  -6   3   3    0.85    0.59
   5  -3  -3   38.97    1.35
  -5   3   3   39.51    1.40
   4  -3  -3   62.56    1.55
  -4   3   3   62.63    1.66
   3  -3  -3    9.80    0.50
   3  -3  -3    9.00    0.48
  -3   3   3    9.51    0.62
   2  -3  -3   12.99    0.57
   2  -3  -3   13.37    0.44
  -2   3   3   12.93    0.63
   1  -3  -3   64.85    1.51
   1  -3  -3   67.22    1.20
  -1   3   3   68.15    1.53
   0  -3  -3   75.71    1.72
   0   3   3   74.97    1.60
  -1  -3  -3    3.38    0.46
   1   3   3    3.97    0.35
   1   3   3    4.03    0.32
  -2  -3  -3   20.40    0.96
   2   3   3   20.09    0.74
   2   3   3   19.27    0.72
  -3  -3  -3   71.05    1.86
   3   3   3   73.54    1.73
   3   3   3   70.08    1.74
  -4  -3  -3   29.22    1.12
   4   3   3   27.43    1.17
  -5  -3  -3    2.08    0.53
   5   3   3    2.46    0.62
  -6  -3  -3    1.82    0.66
   6   3   3    2.86    0.76
   7  -4  -3    1.57    0.65
  -7   4   3    0.25    0.73
   6  -4  -3   15.27    0.99
  -6   4   3   15.29    1.19
   5  -4  -3   41.29    1.36
  -5   4   3   39.89    1.45
   4  -4  -3   10.17    0.62
   4  -4  -3   10.29    0.64
  -4   4   3   10.41    0.81
   3  -4  -3   14.32    0.57
   3  -4  -3   14.15    0.66
  -3   4   3   14.32    0.79
   2  -4  -3  138.25    2.72
   2  -4  -3  138.78    2.40
  -2   4   3  143.83    2.82
   1  -4  -3  184.19    3.07
   1  -4  -3  198.93    3.60
  -1   4   3  198.17    3.59
   0  -4  -3   27.91    0.99
   0   4   3   27.20    0.55
   0   4   3   27.14    0.88
  -1  -4  -3   11.87    0.74
   1   4   3   11.68    0.45
   1   4   3   12.05    0.59
  -2  -4  -3  117.18    2.70
   2   4   3  117.06    2.31
   2   4   3  118.67    2.43
  -3  -4  -3   52.78    1.69
   3   4   3   50.26    1.46
   3   4   3   53.40    1.45
  -4  -4  -3   25.18    1.08
   4   4   3   23.73    1.09
  -5  -4  -3    1.11    0.48
   5   4   3    0.77    0.53
   7  -5  -3   15.90    1.12
  -7   5   3   13.32    1.29
   6  -5  -3   22.19    1.15
  -6   5   3   20.28    1.34
   5  -5  -3    9.75    0.76
  -5   5   3    9.84    0.90
   4  -5  -3    5.19    0.51
   4  -5  -3    4.22    0.50
  -4   5   3    4.63    0.64
   3  -5  -3   61.05    1.57
   3  -5  -3   61.19    1.32
  -3   5   3   61.88    1.69
   2  -5  -3   83.06    1.53
   2  -5  -3   90.22    2.00
  -2   5   3   86.72    2.04
   1  -5  -3    5.52    0.54
  -1   5   3    4.41    0.50
   0  -5  -3    2.58    0.45
   0   5   3    2.94    0.41
  -1  -5  -3   34.39    1.28
   1   5   3   35.44    1.12
  -2  -5  -3  174.51    3.70
   2   5   3  174.75    3.42
  -3  -5  -3   17.92    1.15
   3   5   3   16.63    0.90
   4   5   3    0.15    0.39
  -5  -5  -3   12.46    1.03
   7  -6  -3   19.30    1.34
  -7   6   3   18.46    1.59
   6  -6  -3    5.22    0.70
  -6   6   3    5.40    0.90
   5  -6  -3    1.34    0.42
  -5   6   3    1.38    0.62
   4  -6  -3   50.53    1.48
  -4   6   3   50.72    1.69
   3  -6  -3   65.82    1.73
  -3   6   3   63.67    1.84
   2  -6  -3   27.89    1.07
  -2   6   3   26.20    1.09
   1  -6  -3    9.26    0.72
  -1   6   3    9.57    0.70
   0  -6  -3   26.43    1.14
   0   6   3   26.19    1.02
  -1  -6  -3   69.07    1.97
   1   6   3   72.36    1.82
  -2  -6  -3    0.42    0.51
   2   6   3    1.21    0.39
  -3  -6  -3    1.11    0.60
   3   6   3    1.06    0.42
   4   6   3   10.99    0.92
  -5  -6  -3   22.03    1.30
  -7   7   3    2.24    1.03
  -6   7   3    0.23    0.70
  -5   7   3   18.89    1.30
   4  -7  -3   87.39    2.21
  -4   7   3   89.58    2.43
   3  -7  -3   44.46    1.47
  -3   7   3   41.03    1.50
   2  -7  -3    0.87    0.43
  -2   7   3    0.63    0.40
   1  -7  -3   53.41    1.65
  -1   7   3   53.21    1.61
   0  -7  -3   47.74    1.61
   0   7   3   48.79    1.50
  -1  -7  -3   88.67    2.39
   1   7   3   87.80    2.20
  -2  -7  -3    2.29    0.66
   2   7   3    2.44    0.51
   3   7   3   10.01    0.87
   4   7   3   21.88    1.22
  -6   8   3    4.49    0.94
  -5   8   3   21.90    1.44
   4  -8  -3    8.01    0.82
  -4   8   3    6.92    0.90
   3  -8  -3   -0.06    0.44
  -3   8   3    0.17    0.47
   2  -8  -3   22.37    1.16
  -2   8   3   21.93    1.12
   1  -8  -3   52.99    1.74
  -1   8   3   49.56    1.64
   0  -8  -3   35.03    1.47
   0   8   3   32.10    1.29
  -1  -8  -3    4.10    0.77
   1   8   3    3.69    0.60
  -2  -8  -3   20.08    1.40
   2   8   3   19.89    1.11
   3   8   3   17.91    1.13
  -6   9   3   10.64    1.26
  -5   9   3   10.20    1.14
   4  -9  -3    0.34    0.51
  -4   9   3    0.72    0.57
   3  -9  -3    7.12    0.85
  -3   9   3    8.10    0.87
   2  -9  -3   47.86    1.73
  -2   9   3   47.32    1.68
   1  -9  -3    8.80    0.94
  -1   9   3    7.94    0.84
   0  -9  -3    1.14    0.58
   0   9   3    1.30    0.48
  -1  -9  -3   36.42    1.72
   1   9   3   36.16    1.49
  -2  -9  -3   25.57    1.63
   2   9   3   26.25    1.34
   3   9   3    7.39    0.89
  -5  10   3    1.45    0.70
   4 -10  -3    9.72    1.05
  -4  10   3   11.75    1.14
   3 -10  -3   27.76    1.47
  -3  10   3   26.29    1.40
   2 -10  -3   23.94    1.40
  -2  10   3   23.27    1.30
   1 -10  -3    3.90    0.79
  -1  10   3    3.14    0.65
   0 -10  -3    3.00    0.76
  -1 -10  -3   40.55    1.92
   1  10   3   40.77    1.67
  -2 -10  -3   12.57    1.34
   2  10   3   16.15    1.19
  -5  11   3    7.37    1.05
   4 -11  -3   15.68    1.34
  -4  11   3   17.65    1.34
   3 -11  -3   19.76    1.41
  -3  11   3   20.39    1.33
   2 -11  -3   -0.03    0.61
  -2  11   3   -0.04    0.51
   1 -11  -3    1.26    0.69
  -1  11   3    2.21    0.64
   0 -11  -3   18.02    1.42
   0  11   3   15.70    1.22
  -1 -11  -3   17.19    1.55
   1  11   3   15.36    1.20
  -2 -11  -3   -0.37    0.78
   4 -12  -3   12.34    1.30
  -4  12   3   11.59    1.43
   3 -12  -3    1.21    0.75
  -3  12   3    1.11    0.66
   2 -12  -3    4.46    0.95
  -2  12   3    5.51    0.88
   1 -12  -3    8.71    1.15
  -1  12   3   10.46    1.09
   1  14  -4   10.80    0.95
  -1 -14   4   11.56    1.21
   0  14  -4   16.50    1.08
   0 -14   4   16.35    1.24
  -1  14  -4    5.45    0.90
  -1  14  -4    5.06    0.72
   1 -14   4    4.57    0.82
  -2  14  -4    0.89    0.66
   2 -14   4    2.58    0.68
  -3  14  -4    8.97    1.07
   3 -14   4   13.06    1.13
  -4  14  -4    9.47    1.35
   4 -14   4   11.98    1.73
   2  13  -4    9.12    0.91
   1  13  -4   17.87    1.07
  -1 -13   4   18.73    1.24
   0  13  -4   11.97    0.90
   0  13  -4   11.08    1.09
   0 -13   4   12.73    1.09
  -1  13  -4   -0.46    0.48
  -1  13  -4    0.42    0.39
   1 -13   4    0.36    0.44
  -2  13  -4    9.99    1.08
   2 -13   4   10.21    0.93
  -3  13  -4   16.82    1.25
   3 -13   4   18.14    1.17
  -4  13  -4    3.22    0.77
   4 -13   4    4.51    0.72
  -5  13  -4   -1.00    0.57
   5 -13   4    1.20    0.52
   2  12  -4   21.66    1.14
   1  12  -4   14.68    0.92
   0  12  -4    0.20    0.33
   0  12  -4   -0.11    0.41
   0 -12   4    0.16    0.40
  -1  12  -4   13.28    1.03
  -1  12  -4   13.45    0.84
   1 -12   4   15.90    1.03
  -2  12  -4   27.22    1.31
  -2  12  -4   26.50    1.13
   2 -12   4   28.12    1.26
  -3  12  -4   14.29    1.13
   3 -12   4   16.14    1.01
  -4  12  -4    0.12    0.56
   4 -12   4    1.01    0.45
  -5  12  -4    8.79    1.03
   5 -12   4   12.01    0.96
   3  11  -4   28.91    1.31
   2  11  -4   12.76    0.87
   1  11  -4    0.56    0.34
   1  11  -4    0.35    0.42
  -1 -11   4    0.61    0.40
   0  11  -4   19.13    1.06
   0  11  -4   18.26    0.88
   0 -11   4   19.22    1.02
  -1  11  -4   32.90    1.17
  -1  11  -4   33.97    1.35
   1 -11   4   34.41    1.30
  -2  11  -4   35.26    1.21
  -2  11  -4   34.39    1.41
  -3  11  -4   -0.61    0.40
  -4  11  -4    5.20    0.78
  -5  11  -4   15.66    1.18
  -4 -10   4   13.27    0.95
   3  10  -4   19.25    1.03
   2  10  -4    0.51    0.36
  -2 -10   4    0.58    0.38
   1  10  -4   16.50    0.91
   1  10  -4   16.08    0.83
  -1 -10   4   18.66    0.94
   0  10  -4   32.92    1.11
   0  10  -4   36.03    1.30
   0 -10   4   33.89    1.24
  -1  10  -4   15.32    0.74
  -1  10  -4   15.74    0.90
  -2  10  -4    1.47    0.48
  -2  10  -4    1.69    0.38
  -3  10  -4   17.68    1.02
  -3  10  -4   17.65    1.16
  -4  10  -4   22.79    1.19
  -5  10  -4   16.35    1.11
   5 -10   4   17.85    1.89
  -4  -9   4   26.63    1.20
   3   9  -4    0.39    0.36
   2   9  -4   22.25    0.95
   2   9  -4   22.19    0.97
  -2  -9   4   23.93    0.99
   1   9  -4   77.30    1.93
   1   9  -4   76.98    1.82
  -1  -9   4   77.96    1.92
   0   9  -4   51.92    1.48
   0   9  -4   48.05    1.28
   0   9  -4   48.37    1.36
  -1   9  -4    0.09    0.30
  -1   9  -4    0.20    0.24
  -2   9  -4   47.92    1.30
  -2   9  -4   49.31    1.49
  -3   9  -4   45.65    1.37
  -3   9  -4   45.71    1.48
  -4   9  -4   26.95    1.24
   4  -9   4   25.84    1.17
  -5   9  -4    3.24    0.61
   5  -9   4    3.42    0.73
   6  -9   4    5.36    0.89
   5   8  -4    9.99    1.20
  -5  -8   4   10.35    0.93
   4   8  -4    5.14    0.69
  -4  -8   4    4.47    0.61
   3   8  -4   13.68    0.82
  -3  -8   4   13.71    0.77
   2   8  -4   52.72    1.45
   2   8  -4   54.87    1.45
   2   8  -4   54.06    1.51
  -2  -8   4   55.44    1.47
   1   8  -4  137.32    2.84
   1   8  -4  141.63    2.84
   1   8  -4  140.60    2.73
  -1  -8   4  139.77    2.81
   0   8  -4   14.66    0.71
   0   8  -4   15.36    0.75
   0   8  -4   15.30    0.63
  -1   8  -4   22.90    0.91
  -1   8  -4   22.25    0.74
  -2   8  -4   53.57    1.47
  -2   8  -4   51.20    1.29
  -3   8  -4   31.79    1.11
  -3   8  -4   31.61    1.16
  -4   8  -4    8.93    0.74
   4  -8   4    9.54    0.85
  -5   8  -4    2.64    0.53
   5  -8   4    3.37    0.73
   6  -8   4   18.76    1.32
   7  -8   4    8.50    1.11
   5   7  -4    1.13    0.51
  -5  -7   4    0.52    0.41
   4   7  -4   14.45    0.91
  -4  -7   4   12.77    0.83
   3   7  -4   30.66    1.12
  -3  -7   4   31.44    1.10
   2   7  -4   39.82    1.15
   2   7  -4   40.06    1.12
   2   7  -4   38.93    1.20
  -2  -7   4   38.81    1.10
   1   7  -4   30.82    0.91
   1   7  -4   29.33    0.99
   1   7  -4   29.70    0.95
   0   7  -4   19.33    0.79
   0   7  -4   20.26    0.78
   0   7  -4   20.24    0.65
  -1   7  -4   82.60    1.62
  -1   7  -4   80.66    1.83
  -2   7  -4   66.30    1.63
  -2   7  -4   68.49    1.49
  -3   7  -4    1.48    0.37
  -3   7  -4    1.42    0.39
  -4   7  -4   11.69    1.00
  -4   7  -4   13.09    0.77
   4  -7   4   12.59    0.90
  -5   7  -4   18.46    0.96
   5  -7   4   19.24    1.17
   6  -7   4   15.33    1.21
   7  -7   4    1.45    0.81
   6   6  -4    3.36    0.73
   5   6  -4   10.20    0.88
  -5  -6   4    9.79    0.92
   4   6  -4   56.42    1.71
  -4  -6   4   57.09    1.63
   3   6  -4   39.88    1.27
  -3  -6   4   40.41    1.21
   2   6  -4    7.42    0.46
   2   6  -4    8.78    0.58
   2   6  -4    7.48    0.50
  -2  -6   4    7.97    0.44
   1   6  -4   22.51    0.80
   1   6  -4   21.38    0.68
   1   6  -4   22.20    0.74
   0   6  -4  127.97    2.52
   0   6  -4  130.34    2.46
   0   6  -4  124.85    2.28
  -1   6  -4   96.18    1.76
  -2   6  -4   33.77    1.01
  -2   6  -4   34.20    0.90
  -3   6  -4   33.52    1.06
  -3   6  -4   33.38    1.06
  -4   6  -4   51.71    1.43
  -4   6  -4   52.29    1.48
   4  -6   4   50.14    1.56
   5  -6   4   35.35    1.46
   6  -6   4    5.45    0.91
   7  -6   4    0.78    0.79
   6   5  -4    3.07    0.66
  -6  -5   4    2.38    0.61
   5   5  -4   33.30    1.39
  -5  -5   4   32.88    1.32
   4   5  -4   50.87    1.58
  -4  -5   4   51.26    1.48
   3   5  -4    7.59    0.61
  -3  -5   4    7.77    0.54
   2   5  -4   14.52    0.53
   2   5  -4   14.51    0.67
  -2  -5   4   14.31    0.58
   1   5  -4  104.06    1.93
   1   5  -4  101.72    2.09
   1   5  -4  103.55    1.98
   0   5  -4   67.83    1.44
   0   5  -4   65.16    1.51
   0   5  -4   67.60    1.27
  -1   5  -4   41.79    0.85
  -1   5  -4   44.05    1.09
  -2   5  -4   15.11    0.63
  -2   5  -4   14.06    0.55
  -3   5  -4  108.18    2.14
  -3   5  -4  109.04    2.23
   3  -5   4  107.07    2.32
  -4   5  -4   48.31    1.34
  -4   5  -4   48.10    1.33
   4  -5   4   46.05    1.49
   5  -5   4   12.69    1.03
   6  -5   4    4.66    0.88
   7  -5   4    7.26    1.16
   6   4  -4   18.06    1.19
  -6  -4   4   15.50    1.07
   5   4  -4   46.22    1.58
  -5  -4   4   45.79    1.52
   4   4  -4   22.65    1.00
  -4  -4   4   22.52    0.94
   3   4  -4   34.73    1.12
  -3  -4   4   36.16    1.05
   2   4  -4  114.18    2.07
   2   4  -4  116.51    2.31
  -2  -4   4  117.20    2.20
   1   4  -4  164.98    2.85
   1   4  -4  162.49    2.99
   0   4  -4    9.97    0.30
   0   4  -4    9.60    0.43
   0   4  -4    9.47    0.49
  -1   4  -4    0.70    0.10
  -1   4  -4    0.83    0.20
  -2   4  -4  157.16    2.83
  -2   4  -4  148.55    2.61
  -3   4  -4   93.89    1.96
  -3   4  -4   97.74    1.85
   3  -4   4   90.45    2.09
  -4   4  -4   35.91    1.09
  -4   4  -4   35.81    1.08
   4  -4   4   34.97    1.30
  -5   4  -4    5.32    0.63
   5  -4   4    5.96    0.81
   6  -4   4   28.80    1.49
   6   3  -4   25.93    1.29
  -6  -3   4   23.68    1.22
   5   3  -4   10.47    0.84
  -5  -3   4   11.74    0.81
   4   3  -4    6.90    0.66
  -4  -3   4    7.32    0.59
   3   3  -4   96.26    2.09
  -3  -3   4   95.81    2.00
   2   3  -4  269.49    4.36
   2   3  -4  270.49    4.65
  -2  -3   4  270.11    4.51
   1   3  -4  179.66    3.17
   1   3  -4  179.52    3.02
  -1  -3   4  176.25    2.97
   0   3  -4   19.99    0.59
   0  -3   4   19.03    0.40
  -1   3  -4   75.33    1.53
  -2   3  -4  125.98    2.15
  -2   3  -4  128.68    2.40
  -3   3  -4   48.02    1.21
  -3   3  -4   49.18    1.10
   3  -3   4   48.42    1.37
  -4   3  -4    7.54    0.54
  -4   3  -4    7.03    0.57
   4  -3   4    5.07    0.62
  -5   3  -4   30.17    1.11
   5  -3   4   31.49    1.38
   6  -3   4   20.97    1.35
   6   2  -4    9.89    0.98
  -6  -2   4    8.37    0.86
   5   2  -4    0.85    0.41
  -5  -2   4    0.06    0.33
   4   2  -4   62.51    1.67
  -4  -2   4   65.94    1.62
   3   2  -4   70.58    1.66
  -3  -2   4   72.46    1.59
   2   2  -4   92.31    1.85
   2   2  -4   89.05    1.59
  -2  -2   4   92.04    1.75
   1   2  -4   90.09    1.63
   1   2  -4   90.80    1.77
  -1  -2   4   88.12    1.58
   0  -2   4  110.66    1.77
  -2   2  -4   24.09    0.58
  -2   2  -4   25.00    0.76
  -3   2  -4    0.96    0.27
  -3   2  -4    0.95    0.23
   3  -2   4    1.06    0.36
  -4   2  -4   42.47    1.17
  -4   2  -4   43.71    1.18
   4  -2   4   41.26    1.43
  -5   2  -4   36.43    1.22
   5  -2   4   36.99    1.49
   6  -2   4    4.27    0.85
   7   1  -4   18.75    1.25
  -7  -1   4   16.80    1.26
   6   1  -4    0.59    0.53
  -6  -1   4    1.66    0.53
   5   1  -4   39.27    1.39
  -5  -1   4   37.39    1.30
   4   1  -4   59.64    1.58
  -4  -1   4   59.56    1.53
   3   1  -4   54.12    1.35
  -3  -1   4   54.86    1.30
   2   1  -4    6.73    0.40
   2   1  -4    6.98    0.28
  -2  -1   4    6.84    0.36
   1   1  -4  285.35    4.81
   1   1  -4  296.28    4.76
  -1  -1   4  291.37    4.67
   0   1  -4  183.96    3.25
   0   1  -4  184.68    3.23
   0  -1   4  191.94    3.03
  -1   1  -4   59.18    1.30
   1  -1   4   57.78    1.03
  -2   1  -4   24.22    0.77
  -2   1  -4   23.28    0.59
  -3   1  -4   77.23    1.59
  -3   1  -4   80.29    1.72
   3  -1   4   78.83    1.88
  -4   1  -4  121.53    2.42
  -4   1  -4  121.16    2.42
   4  -1   4  118.82    2.71
  -5   1  -4   26.66    1.07
   5  -1   4   26.56    1.34
   6  -1   4    0.29    0.65
   7   0  -4    0.82    0.59
  -7   0   4    0.26    0.60
   6   0  -4   13.72    1.00
  -6   0   4   10.88    0.97
   5   0  -4   53.76    1.62
  -5   0   4   54.37    1.59
   4   0  -4   42.11    1.26
  -4   0   4   40.42    1.22
   3   0  -4    7.32    0.30
   3   0  -4    6.23    0.45
  -3   0   4    7.43    0.48
   2   0  -4  254.44    4.32
   2   0  -4  250.26    4.25
  -2   0   4  262.11    4.30
   1   0  -4  172.27    3.10
   1   0  -4  176.79    3.04
  -1   0   4  179.17    2.98
   0   0  -4  129.12    2.34
   0   0  -4  131.36    2.46
   0   0   4  130.80    2.25
  -1   0  -4   15.87    0.64
   1   0   4   16.24    0.45
  -2   0  -4   49.32    1.27
   2   0   4   51.70    1.29
   2   0   4   50.88    1.09
  -3   0  -4   84.79    1.88
  -3   0  -4   86.44    1.77
   3   0   4   88.24    2.03
  -4   0  -4   55.80    1.54
  -4   0  -4   55.49    1.43
   4   0   4   56.76    1.71
  -5   0  -4    0.13    0.37
   5   0   4   -0.10    0.54
  -6   0  -4    1.94    0.60
   6   0   4    2.22    0.78
   7  -1  -4   20.06    1.27
  -7   1   4   17.40    1.33
   6  -1  -4   36.78    1.46
  -6   1   4   33.61    1.45
   5  -1  -4   14.11    0.90
  -5   1   4   14.18    0.89
   4  -1  -4    1.61    0.39
  -4   1   4    1.33    0.38
   3  -1  -4   60.68    1.40
   3  -1  -4   58.27    1.32
  -3   1   4   61.11    1.42
   2  -1  -4  246.85    4.22
   2  -1  -4  256.51    4.35
  -2   1   4  251.37    4.27
   1  -1  -4   76.92    1.70
   1  -1  -4   77.44    1.49
  -1   1   4   77.94    1.57
   0  -1  -4    1.79    0.36
   0   1   4    1.58    0.23
  -1  -1  -4  114.77    2.36
   1   1   4  114.71    2.08
  -2  -1  -4   84.22    1.94
   2   1   4   90.27    1.89
   2   1   4   87.18    1.73
  -3  -1  -4   62.25    1.60
   3   1   4   63.94    1.65
  -4  -1  -4    4.37    0.50
   4   1   4    4.17    0.64
  -5  -1  -4   18.68    0.99
   5   1   4   15.89    1.13
  -6  -1  -4   16.07    1.13
   6   1   4   16.56    1.27
   7  -2  -4   22.27    1.30
  -7   2   4   21.11    1.42
   6  -2  -4   24.69    1.22
  -6   2   4   25.63    1.32
   5  -2  -4    0.28    0.39
  -5   2   4    0.26    0.42
   4  -2  -4   23.61    0.91
  -4   2   4   24.91    1.01
   3  -2  -4  177.20    3.20
   3  -2  -4  175.96    3.23
  -3   2   4  177.52    3.30
   2  -2  -4  157.49    2.96
   2  -2  -4  158.62    2.76
  -2   2   4  155.25    2.91
   1  -2  -4   28.23    0.70
   1  -2  -4   28.79    0.96
  -1   2   4   28.94    0.87
   0  -2  -4  162.92    3.16
   0   2   4  159.62    2.89
  -1  -2  -4  177.74    3.49
   1   2   4  180.62    3.15
   1   2   4  179.93    3.18
  -2  -2  -4   40.73    1.31
   2   2   4   40.54    1.14
   2   2   4   42.68    1.09
  -3  -2  -4   16.46    0.93
   3   2   4   17.48    0.76
   3   2   4   17.00    0.88
  -4  -2  -4   14.98    0.80
   4   2   4   14.78    0.94
  -5  -2  -4   17.10    1.00
   5   2   4   17.28    1.14
  -6  -2  -4   17.29    1.17
   6   2   4   16.89    1.26
   7  -3  -4   20.28    1.30
  -7   3   4   15.25    1.37
   6  -3  -4    2.22    0.59
  -6   3   4    0.91    0.63
   5  -3  -4   19.94    0.95
  -5   3   4   20.79    1.11
   4  -3  -4   58.66    1.49
  -4   3   4   57.84    1.62
   3  -3  -4   85.33    1.75
   3  -3  -4   85.81    1.88
  -3   3   4   83.76    1.95
   2  -3  -4   13.39    0.68
   2  -3  -4   12.44    0.46
  -2   3   4   13.23    0.68
   1  -3  -4   33.83    1.09
   1  -3  -4   33.64    0.76
  -1   3   4   33.37    1.01
   0  -3  -4  157.35    3.16
   0   3   4  157.72    2.94
  -1  -3  -4   75.15    1.96
   1   3   4   77.26    1.56
   1   3   4   78.16    1.69
  -2  -3  -4    5.03    0.64
   2   3   4    4.92    0.49
   2   3   4    5.29    0.47
  -3  -3  -4   24.46    1.15
   3   3   4   22.86    0.99
   3   3   4   22.52    0.92
  -4  -3  -4   61.91    1.72
   4   3   4   58.73    1.78
  -5  -3  -4   12.12    0.92
   5   3   4   13.24    1.02
  -6  -3  -4    2.24    0.70
   6   3   4    4.48    0.87
   7  -4  -4    5.14    0.83
  -7   4   4    3.17    0.90
   6  -4  -4   12.81    0.94
  -6   4   4   12.41    1.14
   5  -4  -4   31.34    1.18
  -5   4   4   33.44    1.38
   4  -4  -4   32.05    1.02
  -4   4   4   31.37    1.23
   3  -4  -4    5.37    0.40
   3  -4  -4    5.90    0.57
  -3   4   4    5.30    0.61
   2  -4  -4    5.16    0.53
   2  -4  -4    5.42    0.31
  -2   4   4    5.53    0.55
   1  -4  -4  134.09    2.77
  -1   4   4  130.97    2.67
   0  -4  -4   84.20    2.05
   0   4   4   80.00    1.84
   0   4   4   82.75    1.48
  -1  -4  -4    4.84    0.63
   1   4   4    5.44    0.49
   1   4   4    5.18    0.39
  -2  -4  -4   23.37    1.20
   2   4   4   21.51    0.83
   2   4   4   23.22    0.92
  -3  -4  -4  113.90    2.76
   3   4   4  112.94    2.53
   3   4   4  115.24    2.54
   4   4   4   27.67    1.20
  -5  -4  -4    2.26    0.55
   7  -5  -4    5.96    0.87
  -7   5   4    3.81    0.95
   6  -5  -4   23.65    1.14
  -6   5   4   24.74    1.46
   5  -5  -4   29.86    1.12
  -5   5   4   32.65    1.43
   4  -5  -4    5.93    0.61
   4  -5  -4    5.94    0.52
  -4   5   4    6.35    0.77
   3  -5  -4   37.11    0.96
   3  -5  -4   37.17    1.26
  -3   5   4   39.11    1.37
   2  -5  -4  125.08    2.70
  -2   5   4  122.89    2.68
   1  -5  -4   63.37    1.74
  -1   5   4   63.95    1.67
   0  -5  -4   27.75    1.16
   0   5   4   25.94    0.97
  -1  -5  -4    0.24    0.47
   1   5   4    0.64    0.31
  -2  -5  -4   31.44    1.44
   2   5   4   31.66    1.16
  -3  -5  -4   60.96    2.00
   3   5   4   62.08    1.77
   4   5   4    4.55    0.66
  -5  -5  -4    1.31    0.53
  -7   6   4   17.18    2.22
  -6   6   4   21.18    1.49
  -5   6   4    8.64    1.00
   4  -6  -4   20.60    1.03
  -4   6   4   20.30    1.18
   3  -6  -4   67.14    1.86
  -3   6   4   70.69    1.95
   2  -6  -4   78.08    2.06
  -2   6   4   78.84    2.03
   1  -6  -4    9.17    0.83
  -1   6   4    8.97    0.73
   0  -6  -4    7.50    0.77
   0   6   4    6.67    0.66
  -1  -6  -4   59.67    1.95
   1   6   4   58.80    1.68
  -2  -6  -4   80.89    2.43
   2   6   4   79.45    2.09
  -3  -6  -4    9.61    1.04
   3   6   4    9.74    0.84
   4   6   4    1.67    0.56
  -6   7   4    6.39    1.06
  -5   7   4    1.42    0.67
   4  -7  -4   30.85    1.32
  -4   7   4   32.97    1.46
   3  -7  -4   74.38    2.05
  -3   7   4   71.30    2.06
   2  -7  -4   18.63    1.08
  -2   7   4   18.71    1.03
   1  -7  -4   12.23    0.96
  -1   7   4   13.38    0.89
   0  -7  -4   45.12    1.69
   0   7   4   43.78    1.47
  -1  -7  -4   20.73    1.30
   1   7   4   21.62    1.06
  -2  -7  -4   17.27    1.33
   2   7   4   17.07    1.02
   3   7   4    0.02    0.41
   4   7   4   22.42    1.31
  -6   8   4    0.79    0.75
  -5   8   4   24.81    1.52
   4  -8  -4   20.85    1.20
  -4   8   4   22.86    1.32
   3  -8  -4   22.66    1.24
  -3   8   4   23.55    1.24
   2  -8  -4    0.22    0.48
  -2   8   4   -0.06    0.39
   1  -8  -4   28.12    1.38
  -1   8   4   28.62    1.27
   0  -8  -4   38.22    1.67
   0   8   4   40.08    1.49
  -1  -8  -4   14.80    1.28
   1   8   4   13.65    0.99
  -2  -8  -4    0.27    0.68
   2   8   4    0.28    0.44
   3   8   4   13.15    1.06
  -6   9   4    7.57    1.32
  -5   9   4   14.44    1.30
   4  -9  -4    5.75    0.87
  -4   9   4    5.29    0.86
   3  -9  -4    0.42    0.56
  -3   9   4    0.48    0.53
   2  -9  -4   32.24    1.53
  -2   9   4   32.31    1.44
   1  -9  -4   43.78    1.82
  -1   9   4   41.53    1.60
   0  -9  -4    8.94    1.06
   0   9   4    7.99    0.87
  -1  -9  -4    0.39    0.65
   1   9   4    0.66    0.49
  -2  -9  -4   15.26    1.47
   2   9   4   15.81    1.17
  -5  10   4    3.87    0.87
   4 -10  -4   -0.11    0.60
  -4  10   4    0.85    0.61
   3 -10  -4   16.73    1.34
  -3  10   4   17.78    1.25
   2 -10  -4   28.97    1.57
  -2  10   4   28.37    1.42
   1 -10  -4    8.34    1.06
  -1  10   4    8.32    0.97
   0 -10  -4   -0.87    0.61
   0  10   4    0.51    0.51
  -1 -10  -4    8.77    1.23
   1  10   4    6.22    0.86
  -2 -10  -4   16.89    1.62
   4 -11  -4    5.84    1.04
  -4  11   4    8.11    1.01
   3 -11  -4   22.09    1.58
  -3  11   4   24.83    1.45
   2 -11  -4   14.30    1.41
  -2  11   4   13.90    1.28
   1 -11  -4   -0.36    0.68
  -1  11   4    0.57    0.53
   0 -11  -4    6.09    1.07
   0  11   4    7.65    1.02
  -1 -11  -4   23.21    1.86
   3 -12  -4    7.08    1.62
  -2  12   4    0.40    0.96
   1  14  -5    3.11    0.61
  -1 -14   5    3.17    0.76
   0  14  -5   23.12    1.43
   0 -14   5   24.10    1.40
  -1  14  -5   14.33    1.20
   1 -14   5   16.50    1.19
  -2  14  -5    1.62    0.67
   2 -14   5    1.42    0.54
  -3  14  -5    2.11    0.74
   3 -14   5    3.35    0.70
  -4  14  -5    8.24    1.59
   2  13  -5    0.01    0.38
   1  13  -5   15.92    0.98
   1  13  -5   19.07    1.23
  -1 -13   5   18.62    1.18
   0  13  -5   24.07    1.33
   0  13  -5   24.76    1.12
   0 -13   5   26.10    1.34
  -1  13  -5    7.75    0.93
   1 -13   5    8.10    0.88
  -2  13  -5    0.61    0.54
   2 -13   5    1.24    0.47
  -3  13  -5   18.08    1.29
   3 -13   5   20.15    1.16
  -4  13  -5   11.53    1.18
   4 -13   5   14.82    1.02
  -5  13  -5    2.18    0.83
   2  12  -5   14.14    0.93
   1  12  -5   34.69    1.30
   1  12  -5   35.99    1.48
  -1 -12   5   35.69    1.46
   0  12  -5    8.84    0.72
   0  12  -5   10.02    0.96
   0 -12   5    9.80    0.86
  -1  12  -5   -0.16    0.44
   1 -12   5    0.29    0.35
  -2  12  -5   20.74    1.20
  -3  12  -5   25.72    1.35
  -4  12  -5    3.14    0.73
  -5  12  -5    1.15    0.63
   2  11  -5   25.34    1.10
   1  11  -5    5.85    0.61
   1  11  -5    6.70    0.75
  -1 -11   5    7.88    0.73
   0  11  -5   -0.18    0.37
   0  11  -5    0.16    0.29
   0 -11   5    0.04    0.31
  -1  11  -5   16.44    0.97
  -1  11  -5   15.15    0.77
  -2  11  -5   65.45    1.94
  -3  11  -5   10.41    0.92
  -4  11  -5   -0.53    0.44
  -5  11  -5   12.51    1.09
  -4 -10   5   14.49    0.99
  -3 -10   5   26.03    1.12
   2  10  -5   14.07    0.81
   1  10  -5    5.11    0.56
   1  10  -5    4.43    0.57
  -1 -10   5    5.06    0.58
   0  10  -5   24.30    0.90
   0  10  -5   24.62    1.08
  -1  10  -5   33.78    1.03
  -1  10  -5   31.65    1.24
  -2  10  -5   10.75    0.84
  -3  10  -5   -0.14    0.38
  -4  10  -5   10.71    0.95
   4 -10   5   10.84    0.97
  -5  10  -5   27.00    1.36
   5 -10   5   25.32    1.39
   6 -10   5    3.96    0.85
  -4  -9   5   53.30    1.72
   3   9  -5   22.21    1.08
  -3  -9   5   24.23    1.03
   2   9  -5    0.43    0.34
   2   9  -5    0.76    0.33
   2   9  -5    0.33    0.38
  -2  -9   5    0.66    0.28
   1   9  -5   45.85    1.43
   1   9  -5   46.52    1.39
   1   9  -5   45.10    1.27
   0   9  -5   85.40    2.03
   0   9  -5   82.99    2.00
   0   9  -5   81.97    1.80
  -1   9  -5   48.69    1.22
  -1   9  -5   49.00    1.47
  -2   9  -5    4.05    0.55
  -3   9  -5   20.13    1.00
  -4   9  -5   46.50    1.57
   4  -9   5   44.54    1.54
  -5   9  -5   13.29    0.96
   5  -9   5   13.70    1.10
   6  -9   5    0.19    0.69
   5   8  -5   22.28    1.26
  -5  -8   5   20.25    1.16
   4   8  -5    9.99    0.88
  -4  -8   5   11.66    0.83
   3   8  -5    0.58    0.38
  -3  -8   5    0.14    0.27
   2   8  -5   28.09    1.09
   2   8  -5   29.09    0.99
   2   8  -5   27.88    0.98
  -2  -8   5   28.65    0.97
   1   8  -5  155.16    2.94
   1   8  -5  156.02    3.18
   1   8  -5  155.50    3.06
   0   8  -5   76.54    1.81
   0   8  -5   73.59    1.82
   0   8  -5   75.06    1.60
  -1   8  -5    0.32    0.19
  -1   8  -5   -0.11    0.25
  -2   8  -5   23.09    0.93
  -2   8  -5   21.92    0.72
  -3   8  -5   54.07    1.55
  -4   8  -5   42.69    1.42
   4  -8   5   43.17    1.51
  -5   8  -5    1.56    0.46
   5  -8   5    1.93    0.71
   6  -8   5    3.71    0.85
   5   7  -5   24.93    1.25
  -5  -7   5   24.92    1.23
   4   7  -5    0.13    0.37
  -4  -7   5    0.54    0.35
   3   7  -5   25.05    1.05
  -3  -7   5   26.55    1.00
   2   7  -5   61.30    1.47
   2   7  -5   59.69    1.61
   2   7  -5   61.17    1.49
   1   7  -5   66.17    1.47
   1   7  -5   65.46    1.68
   1   7  -5   67.73    1.57
   0   7  -5   10.20    0.63
   0   7  -5   10.18    0.45
   0   7  -5   10.54    0.58
  -1   7  -5   26.80    0.70
  -1   7  -5   27.71    0.93
  -2   7  -5   58.62    1.26
  -2   7  -5   61.78    1.56
  -3   7  -5   37.43    1.20
  -4   7  -5    0.02    0.30
   4  -7   5   -0.15    0.50
  -5   7  -5    4.20    0.60
   5  -7   5    4.58    0.81
   6  -7   5   16.79    1.30
   6   6  -5   18.44    1.21
   5   6  -5    1.63    0.51
  -5  -6   5    1.50    0.49
   4   6  -5   18.06    0.97
  -4  -6   5   19.61    0.93
   3   6  -5   62.88    1.71
  -3  -6   5   65.92    1.63
   2   6  -5   89.34    1.86
   2   6  -5   92.47    2.09
  -2  -6   5   92.38    1.92
   1   6  -5    5.41    0.40
   1   6  -5    5.23    0.36
   1   6  -5    5.41    0.49
   0   6  -5   59.28    1.38
   0   6  -5   56.13    1.48
   0   6  -5   56.35    1.16
  -1   6  -5  122.14    2.09
  -1   6  -5  121.48    2.43
  -2   6  -5   80.37    1.53
  -2   6  -5   80.25    1.83
  -3   6  -5    0.05    0.27
  -4   6  -5   17.37    0.88
   4  -6   5   17.78    1.11
   5  -6   5   30.97    1.45
   6  -6   5   23.89    1.46
   6   5  -5    2.31    0.63
  -6  -5   5    1.55    0.56
   5   5  -5   11.79    0.91
  -5  -5   5   10.16    0.84
   4   5  -5   98.25    2.38
  -4  -5   5   98.42    2.28
   3   5  -5   37.35    1.21
  -3  -5   5   37.21    1.11
   2   5  -5    2.48    0.39
   2   5  -5    2.84    0.29
  -2  -5   5    3.68    0.37
   1   5  -5   35.61    0.92
   1   5  -5   34.71    1.05
  -1  -5   5   35.06    0.84
   0   5  -5  207.26    3.65
   0   5  -5  207.18    3.38
   0   5  -5  204.89    3.79
  -1   5  -5  126.68    2.46
  -1   5  -5  126.98    2.08
  -2   5  -5    9.36    0.39
  -2   5  -5    9.00    0.53
  -3   5  -5   23.55    0.88
  -3   5  -5   19.72    0.75
  -4   5  -5   40.80    1.27
   4  -5   5   39.97    1.46
   5  -5   5   50.04    1.79
   6  -5   5    2.80    0.86
   6   4  -5    7.66    0.93
  -6  -4   5    5.07    0.75
   5   4  -5   43.59    1.56
  -5  -4   5   44.04    1.48
   4   4  -5   75.56    1.97
  -4  -4   5   75.25    1.86
   3   4  -5    7.63    0.59
  -3  -4   5    8.29    0.53
   2   4  -5    8.46    0.53
   2   4  -5    8.07    0.37
  -2  -4   5    8.71    0.42
   1   4  -5  249.44    4.44
   1   4  -5  255.38    4.26
  -1  -4   5  254.85    4.15
   0   4  -5  205.42    3.85
   0   4  -5  221.53    3.72
   0  -4   5  214.07    3.40
  -1   4  -5   43.67    1.10
  -2   4  -5   44.55    1.17
  -2   4  -5   44.55    0.92
  -3   4  -5   69.59    1.63
  -3   4  -5   69.24    1.44
  -4   4  -5   55.00    1.46
   4  -4   5   53.45    1.68
   5  -4   5    8.50    0.96
   6  -4   5    1.98    0.79
   6   3  -5   26.30    1.33
  -6  -3   5   26.98    1.31
   5   3  -5   64.65    1.89
  -5  -3   5   61.23    1.77
   4   3  -5    1.02    0.38
  -4  -3   5    0.56    0.31
  -3  -3   5   19.62    0.74
   2   3  -5   83.04    1.81
   2   3  -5   83.65    1.57
  -2  -3   5   84.09    1.66
   1   3  -5  443.01    7.24
   1   3  -5  432.45    7.05
  -1  -3   5  440.54    6.94
   0   3  -5   21.94    0.67
   0   3  -5   20.51    0.75
   0  -3   5   21.24    0.42
  -1   3  -5   10.52    0.50
  -2   3  -5  136.03    2.28
  -2   3  -5  138.56    2.63
  -3   3  -5   65.68    1.55
  -3   3  -5   64.08    1.34
   3  -3   5   64.37    1.72
  -4   3  -5   44.07    1.26
  -4   3  -5   41.41    1.21
   4  -3   5   42.57    1.53
   5  -3   5    0.82    0.61
   6  -3   5   13.45    1.32
   6   2  -5   43.32    1.65
  -6  -2   5   43.81    1.61
   5   2  -5   21.81    1.07
  -5  -2   5   21.05    1.02
   4   2  -5   36.62    1.23
  -4  -2   5   35.54    1.15
   3   2  -5   53.04    1.40
  -3  -2   5   56.27    1.34
   2   2  -5  186.78    3.18
   2   2  -5  191.47    3.44
  -2  -2   5  192.19    3.29
   1   2  -5   34.25    0.93
   1   2  -5   32.92    0.82
  -1  -2   5   32.91    0.73
   0   2  -5    0.69    0.23
   0   2  -5    0.24    0.18
   0  -2   5    0.25    0.11
  -1   2  -5  125.86    2.40
  -2   2  -5  158.41    2.67
  -2   2  -5  163.80    3.01
  -3   2  -5    7.50    0.43
  -3   2  -5    7.00    0.54
   3  -2   5    8.21    0.72
  -4   2  -5    9.39    0.60
  -4   2  -5    8.31    0.65
   4  -2   5   11.32    0.98
   5  -2   5   24.35    1.34
   6  -2   5   16.47    1.32
   7   1  -5   22.12    1.72
  -7  -1   5   22.87    2.22
   6   1  -5   29.57    1.38
  -6  -1   5   28.72    1.33
   5   1  -5    2.77    0.56
  -5  -1   5    2.83    0.52
   4   1  -5   78.80    1.93
  -4  -1   5   80.26    1.87
   3   1  -5   74.66    1.71
   3   1  -5   70.47    1.35
  -3  -1   5   76.17    1.64
   2   1  -5  144.71    2.71
   2   1  -5  143.18    2.55
  -2  -1   5  147.12    2.60
   1   1  -5   49.41    1.18
   1   1  -5   51.48    1.17
  -1  -1   5   49.90    1.03
   0   1  -5   33.85    0.94
   0   1  -5   34.40    0.95
   0  -1   5   35.29    0.75
  -1   1  -5  308.69    5.22
   1  -1   5  302.17    4.84
  -2   1  -5   17.48    0.72
  -3   1  -5    2.38    0.42
  -3   1  -5    1.95    0.29
   3  -1   5    2.16    0.50
  -4   1  -5   54.49    1.48
  -4   1  -5   53.08    1.37
   4  -1   5   53.64    1.72
   5  -1   5   41.81    1.67
   6  -1   5    6.75    1.04
   7   0  -5    2.32    0.70
  -7   0   5    2.34    0.76
   6   0  -5    0.48    0.48
  -6   0   5    0.15    0.48
   5   0  -5   53.43    1.61
  -5   0   5   52.68    1.60
   4   0  -5   80.62    1.93
  -4   0   5   79.31    1.89
   3   0  -5   37.44    1.08
   3   0  -5   37.75    0.91
  -3   0   5   38.06    1.08
   2   0  -5   41.14    1.05
   2   0  -5   41.28    1.06
  -2   0   5   42.74    1.04
   1   0  -5  166.95    3.10
   1   0  -5  171.41    3.02
  -1   0   5  166.34    2.92
   0   0  -5  125.25    2.37
   0   0  -5  131.10    2.54
   0   0   5  127.04    2.26
  -1   0  -5  191.93    3.60
   1   0   5  199.18    3.27
  -2   0  -5    0.07    0.28
   2   0   5    0.25    0.16
  -3   0  -5   32.61    0.93
  -3   0  -5   31.36    1.10
   3   0   5   31.34    1.18
  -4   0  -5   95.74    2.18
  -4   0  -5   93.14    2.07
   4   0   5   95.11    2.41
  -5   0  -5   28.93    1.24
   5   0   5   30.84    1.47
   6   0   5    0.46    0.70
   7  -1  -5    1.12    0.63
  -7   1   5   -0.41    0.59
   6  -1  -5   18.32    1.10
  -6   1   5   18.78    1.18
   5  -1  -5   82.60    2.09
  -5   1   5   81.64    2.12
   4  -1  -5   20.93    0.88
  -4   1   5   22.05    0.95
   3  -1  -5    1.91    0.33
   3  -1  -5    2.01    0.35
  -3   1   5    1.78    0.36
   2  -1  -5  201.66    3.53
   2  -1  -5  203.81    3.70
  -2   1   5  201.27    3.59
   1  -1  -5  204.35    3.56
   1  -1  -5  207.01    3.81
  -1   1   5  206.86    3.62
   0  -1  -5  137.00    2.75
   0   1   5  132.48    2.44
  -1  -1  -5   22.75    0.93
   1   1   5   24.06    0.69
  -2  -1  -5   32.41    1.15
   2   1   5   31.68    1.05
   2   1   5   30.14    0.86
  -3  -1  -5   40.11    1.35
   3   1   5   39.91    1.13
   3   1   5   41.32    1.37
  -4  -1  -5   49.65    1.41
   4   1   5   48.79    1.64
  -5  -1  -5    0.29    0.40
   5   1   5    0.11    0.54
   6   1   5    7.31    1.03
   7  -2  -5   12.92    1.14
  -7   2   5   13.08    1.25
   6  -2  -5   36.39    1.44
  -6   2   5   38.64    1.59
   5  -2  -5   25.69    1.10
  -5   2   5   24.43    1.17
   4  -2  -5   -0.13    0.28
  -4   2   5   -0.08    0.34
   3  -2  -5   37.76    1.18
   3  -2  -5   36.06    1.03
  -3   2   5   35.65    1.14
   2  -2  -5  246.65    4.42
   2  -2  -5  237.66    4.09
  -2   2   5  237.69    4.27
   1  -2  -5   75.84    1.55
   1  -2  -5   77.12    1.89
  -1   2   5   79.61    1.72
   0  -2  -5    5.22    0.59
   0   2   5    4.55    0.38
  -1  -2  -5   84.26    2.10
   1   2   5   87.33    1.79
  -2  -2  -5   44.68    1.46
   2   2   5   42.78    1.15
   2   2   5   45.84    1.28
  -3  -2  -5   36.43    1.34
   3   2   5   36.94    1.14
   3   2   5   36.00    1.27
  -4  -2  -5    5.29    0.61
   4   2   5    4.92    0.72
  -5  -2  -5   16.20    1.01
   5   2   5   15.87    1.16
   6   2   5   12.03    1.24
   7  -3  -5   31.29    1.51
  -7   3   5   26.43    1.62
   6  -3  -5   27.17    1.25
  -6   3   5   28.45    1.45
   5  -3  -5    2.03    0.49
  -5   3   5    2.11    0.58
   4  -3  -5   14.60    0.73
  -4   3   5   14.70    0.91
   3  -3  -5   99.22    2.24
   3  -3  -5   98.05    2.01
  -3   3   5  100.18    2.25
   2  -3  -5  153.27    3.07
   2  -3  -5  146.62    2.65
  -2   3   5  145.93    2.95
   1  -3  -5    7.15    0.66
   1  -3  -5    7.15    0.38
  -1   3   5    6.87    0.54
   0  -3  -5   69.10    1.88
   0   3   5   70.17    1.62
  -1  -3  -5  124.44    2.87
   1   3   5  128.07    2.42
   1   3   5  127.16    2.53
  -2  -3  -5   27.84    1.26
   2   3   5   27.58    0.99
   2   3   5   27.60    0.96
  -3  -3  -5    3.93    0.66
   3   3   5    3.37    0.56
   3   3   5    4.42    0.53
  -4  -3  -5   18.49    0.97
   4   3   5   18.19    1.08
  -5  -3  -5   17.59    1.08
   5   3   5   20.88    1.95
   7  -4  -5   16.30    1.14
  -7   4   5   13.07    1.33
   6  -4  -5    1.19    0.53
  -6   4   5    1.06    0.68
   5  -4  -5   16.69    0.87
  -5   4   5   16.54    1.11
   4  -4  -5   35.89    1.09
  -4   4   5   36.41    1.37
   3  -4  -5   56.11    1.31
   3  -4  -5   57.21    1.64
  -3   4   5   58.63    1.67
   2  -4  -5    2.53    0.28
   2  -4  -5    2.21    0.49
  -2   4   5    2.77    0.46
   1  -4  -5    8.47    0.76
  -1   4   5    8.72    0.65
   0  -4  -5  108.86    2.64
   0   4   5  112.15    2.37
  -1  -4  -5   88.59    2.35
   1   4   5   83.13    1.98
  -2  -4  -5    0.87    0.55
   2   4   5    0.03    0.27
  -3  -4  -5    3.97    0.70
   3   4   5    5.42    0.63
   4   4   5   37.38    1.41
  -5  -4  -5   14.09    1.03
   6  -5  -5   17.96    1.47
  -6   5   5   15.78    1.32
  -5   5   5   27.76    1.41
   4  -5  -5   20.84    1.05
  -4   5   5   22.25    1.19
   3  -5  -5    1.22    0.47
  -3   5   5    1.20    0.47
   2  -5  -5   48.73    1.58
  -2   5   5   48.22    1.50
   1  -5  -5   58.32    1.78
  -1   5   5   57.39    1.60
   0  -5  -5   78.87    2.20
   0   5   5   74.57    1.89
  -1  -5  -5    5.30    0.79
   1   5   5    5.95    0.63
  -2  -5  -5    8.98    0.99
   2   5   5    9.02    0.72
  -3  -5  -5   40.77    1.72
   3   5   5   42.23    1.46
   4   5   5   23.35    1.21
  -5  -5  -5    1.77    0.59
  -6   6   5   27.35    1.61
  -5   6   5   36.35    1.66
   4  -6  -5    2.83    0.60
  -4   6   5    3.02    0.65
   3  -6  -5   25.40    1.22
  -3   6   5   27.57    1.23
   2  -6  -5   72.42    2.08
  -2   6   5   70.73    1.94
   1  -6  -5   70.37    2.06
  -1   6   5   67.01    1.86
   0  -6  -5   20.03    1.23
   0   6   5   19.68    0.97
  -1  -6  -5   32.28    1.55
   1   6   5   30.14    1.22
  -2  -6  -5   15.54    1.28
   2   6   5   15.32    0.95
  -3  -6  -5   29.06    1.60
   3   6   5   28.79    1.30
   4   6   5    0.58    0.50
  -6   7   5   16.17    1.45
  -5   7   5    4.30    0.87
  -4   7   5    1.81    0.65
   3  -7  -5   37.04    1.54
  -3   7   5   38.00    1.49
   2  -7  -5   48.55    1.78
  -2   7   5   47.92    1.62
   1  -7  -5   12.82    1.07
  -1   7   5   13.79    0.94
   0  -7  -5    6.70    0.91
   0   7   5    5.76    0.70
  -1  -7  -5   28.32    1.58
   1   7   5   25.60    1.20
  -2  -7  -5   24.81    1.58
   2   7   5   25.80    1.26
   3   7   5    6.50    0.82
   4   7   5    1.82    0.96
  -6   8   5    2.56    0.88
  -5   8   5    6.87    1.01
   4  -8  -5   19.57    1.31
  -4   8   5   21.63    1.33
   3  -8  -5   28.54    1.49
  -3   8   5   26.80    1.34
   2  -8  -5    7.05    0.92
  -2   8   5    7.33    0.85
   1  -8  -5    1.25    0.63
  -1   8   5    1.64    0.51
   0  -8  -5   39.52    1.82
   0   8   5   38.90    1.52
  -1  -8  -5   19.33    1.49
   1   8   5   20.61    1.17
  -2  -8  -5    7.33    1.11
   2   8   5    9.23    0.97
   3   8   5    1.24    0.59
  -5   9   5    9.79    1.11
   4  -9  -5   21.28    1.43
  -4   9   5   21.84    1.38
   3  -9  -5    8.30    1.06
  -3   9   5    7.85    0.96
   2  -9  -5    3.66    0.82
  -2   9   5    3.91    0.68
   1  -9  -5   20.79    1.44
  -1   9   5   17.22    1.15
   0  -9  -5   23.74    1.61
   0   9   5   22.06    1.26
  -1  -9  -5   10.50    1.32
   1   9   5   10.60    1.05
  -2  -9  -5   -0.15    0.77
   2   9   5    0.51    0.53
   4 -10  -5    4.69    0.99
  -4  10   5    3.99    0.80
   3 -10  -5    2.74    0.86
  -3  10   5    3.84    0.75
   2 -10  -5   16.26    1.46
  -2  10   5   16.32    1.20
   1 -10  -5   20.42    1.60
  -1  10   5   22.39    1.32
   0 -10  -5    3.86    0.98
   0  10   5    3.32    0.74
  -1 -10  -5   -0.07    0.81
   1  10   5   -0.09    0.48
   4 -11  -5   -1.36    0.67
   3 -11  -5   16.91    1.58
  -3  11   5   16.94    1.32
   2 -11  -5   16.66    1.59
  -2  11   5   19.27    1.33
   1 -11  -5    6.53    1.17
  -1  11   5    8.70    1.10
   1  14  -6    1.07    1.18
  -1 -14   6    0.92    0.57
   0  14  -6   10.58    1.08
   0 -14   6   11.25    1.03
  -1  14  -6   16.78    1.25
   1 -14   6   17.90    1.18
  -2  14  -6   11.79    1.22
   2 -14   6   13.03    1.03
  -3  14  -6   -0.63    0.57
   3 -14   6    0.66    0.41
   2  13  -6    0.95    0.44
   1  13  -6    7.49    0.88
  -1 -13   6   10.99    0.96
   0  13  -6   25.72    1.36
   0 -13   6   27.45    1.34
  -1  13  -6   22.78    1.31
   1 -13   6   24.05    1.21
  -2  13  -6    7.25    0.91
  -3  13  -6    5.35    0.82
  -4  13  -6   13.32    1.21
  -5  13  -6    6.71    1.01
  -3 -12   6    3.51    0.57
   2  12  -6    0.70    0.39
   1  12  -6   29.83    1.36
   1  12  -6   30.03    1.18
  -1 -12   6   33.48    1.37
   0  12  -6   23.24    1.22
   0 -12   6   25.08    1.16
  -1  12  -6   13.15    1.02
  -2  12  -6    8.24    0.91
  -3  12  -6   18.85    1.20
  -4  12  -6   15.02    1.19
  -5  12  -6    2.09    0.69
  -3 -11   6    2.34    0.48
   2  11  -6   30.07    1.18
   1  11  -6   23.77    1.00
   1  11  -6   23.63    1.13
  -1 -11   6   25.40    1.10
  -1  11  -6    0.47    0.40
  -2  11  -6   30.81    1.33
  -3  11  -6   19.47    1.16
  -4  11  -6    7.12    0.89
  -5  11  -6    2.38    0.64
   5 -11   6    2.61    1.22
  -4 -10   6    6.81    0.76
  -3 -10   6   29.02    1.18
   2  10  -6   54.15    1.54
   1  10  -6    8.17    0.61
   1  10  -6    8.43    0.78
   1  10  -6    7.97    0.75
   0  10  -6    0.73    0.35
   0  10  -6    1.09    0.29
   0  10  -6    0.71    0.41
  -1  10  -6   70.13    1.91
  -2  10  -6   42.13    1.44
  -3  10  -6    7.56    0.78
  -4  10  -6    0.24    0.44
   4 -10   6   -0.29    0.52
  -5  10  -6   15.69    1.14
   5 -10   6   13.95    1.24
   6 -10   6    6.83    1.05
   5   9  -6    0.96    0.67
   4   9  -6   16.98    1.08
  -4  -9   6   18.37    1.02
   3   9  -6   43.71    1.55
  -3  -9   6   44.56    1.42
   2   9  -6   21.92    1.06
   2   9  -6   21.39    0.90
  -2  -9   6   20.11    0.86
   1   9  -6   11.16    0.61
   1   9  -6   10.74    0.70
   1   9  -6   10.45    0.76
   0   9  -6   36.94    1.29
   0   9  -6   36.71    1.22
   0   9  -6   35.20    1.00
  -1   9  -6   89.07    2.14
  -2   9  -6   19.00    0.95
  -3   9  -6    0.19    0.36
  -4   9  -6   24.98    1.19
   4  -9   6   25.11    1.31
  -5   9  -6   20.58    1.15
   5  -9   6   22.02    1.34
   6  -9   6    3.57    0.91
   5   8  -6   23.31    1.32
  -5  -8   6   22.31    1.22
   4   8  -6   30.02    1.32
  -4  -8   6   31.40    1.24
   3   8  -6   31.45    1.27
  -3  -8   6   33.17    1.16
   2   8  -6    3.60    0.43
   2   8  -6    4.59    0.59
  -2  -8   6    4.89    0.48
   1   8  -6   24.32    1.04
   1   8  -6   24.11    0.91
   1   8  -6   23.93    0.81
   0   8  -6   89.84    1.79
   0   8  -6   88.96    2.16
   0   8  -6   91.70    2.07
  -1   8  -6   61.93    1.62
  -2   8  -6    0.12    0.28
  -3   8  -6   32.95    1.21
  -4   8  -6   55.06    1.67
   4  -8   6   51.99    1.74
  -5   8  -6   10.24    0.89
   5  -8   6    9.64    1.05
   6  -8   6    1.18    0.80
   5   7  -6   37.63    1.55
  -5  -7   6   37.92    1.49
   4   7  -6   27.13    1.25
  -4  -7   6   26.62    1.11
   3   7  -6    0.74    0.38
  -3  -7   6    0.23    0.26
   2   7  -6   96.46    2.27
   2   7  -6   94.74    2.02
  -2  -7   6   96.09    2.04
   1   7  -6   75.31    1.73
   1   7  -6   77.02    1.61
   1   7  -6   76.81    1.93
   0   7  -6   74.51    1.74
   0   7  -6   75.60    1.88
   0   7  -6   74.57    1.48
  -1   7  -6    5.99    0.51
  -1   7  -6    5.44    0.41
  -2   7  -6   39.27    1.22
  -3   7  -6   56.75    1.60
  -4   7  -6   20.50    0.99
   4  -7   6   20.62    1.23
  -5   7  -6   -0.31    0.36
   5  -7   6    0.77    0.70
   6  -7   6    3.04    0.87
   5   6  -6   24.08    1.23
  -5  -6   6   23.99    1.17
   4   6  -6    8.74    0.76
  -4  -6   6    9.28    0.73
   3   6  -6   81.07    2.06
  -3  -6   6   81.89    1.89
   2   6  -6   71.70    1.60
   2   6  -6   74.73    1.85
  -2  -6   6   75.55    1.64
   1   6  -6   28.12    0.87
   1   6  -6   29.65    1.05
  -1  -6   6   27.86    0.76
   0   6  -6   10.09    0.65
   0   6  -6    8.58    0.35
   0   6  -6    9.30    0.54
  -1   6  -6   14.31    0.39
  -1   6  -6   15.57    0.70
  -2   6  -6   55.16    1.46
  -3   6  -6   40.16    1.26
  -4   6  -6    0.66    0.37
   4  -6   6    1.42    0.61
  -5   6  -6   16.52    1.08
   5  -6   6   15.15    1.23
   6  -6   6   20.27    1.44
   6   5  -6   10.02    1.05
  -6  -5   6    8.44    0.94
   5   5  -6    1.81    0.53
  -5  -5   6    0.36    0.41
   4   5  -6   14.99    0.89
  -4  -5   6   14.04    0.80
   3   5  -6  166.29    3.39
  -3  -5   6  170.37    3.22
   2   5  -6   60.30    1.35
   2   5  -6   61.92    1.60
  -2  -5   6   62.38    1.38
   1   5  -6    0.78    0.21
   1   5  -6    0.97    0.30
  -1  -5   6    0.82    0.17
   0   5  -6   91.55    1.89
   0   5  -6   88.38    2.03
   0  -5   6   90.20    1.56
  -1   5  -6  251.64    4.45
  -2   5  -6   51.48    1.36
  -3   5  -6    6.20    0.59
  -4   5  -6   12.55    0.79
   4  -5   6   13.96    1.05
   5  -5   6   29.38    1.52
   6  -5   6   21.74    1.49
   6   4  -6   -0.10    0.47
  -6  -4   6    0.28    0.47
   5   4  -6    2.82    0.59
  -5  -4   6    2.35    0.50
   4   4  -6   77.29    2.03
  -4  -4   6   76.74    1.89
   3   4  -6   61.17    1.65
  -3  -4   6   63.95    1.51
   2   4  -6   10.09    0.44
   2   4  -6   10.80    0.62
  -2  -4   6   10.63    0.48
   1   4  -6   63.73    1.40
   1   4  -6   65.71    1.60
  -1  -4   6   65.38    1.27
   0   4  -6  247.76    4.23
   0   4  -6  241.70    4.39
   0  -4   6  239.32    3.83
  -1   4  -6   84.16    1.82
  -2   4  -6   11.00    0.62
  -3   4  -6    5.01    0.52
  -4   4  -6   66.16    1.71
   4  -4   6   62.48    1.94
   5  -4   6   29.33    1.51
   6  -4   6    4.76    0.95
   6   3  -6   17.89    1.16
  -6  -3   6   15.42    1.09
   5   3  -6   47.66    1.62
  -5  -3   6   46.50    1.53
   4   3  -6   66.94    1.81
  -4  -3   6   66.42    1.70
   3   3  -6    8.04    0.60
  -3  -3   6    8.04    0.52
   2   3  -6    2.44    0.37
   2   3  -6    1.83    0.24
  -2  -3   6    2.03    0.26
   1   3  -6   73.33    1.68
   1   3  -6   69.69    1.49
  -1  -3   6   71.89    1.35
   0   3  -6  226.35    4.13
   0   3  -6  229.41    4.00
   0  -3   6  229.19    3.61
  -1   3  -6   10.96    0.58
  -2   3  -6   26.51    0.92
  -2   3  -6   25.29    0.57
  -3   3  -6   58.47    1.53
  -4   3  -6   14.25    0.80
   4  -3   6   15.25    1.09
   5  -3   6    9.91    1.11
   6  -3   6    0.95    0.78
   6   2  -6   36.34    1.54
  -6  -2   6   37.15    1.50
   5   2  -6   59.86    1.82
  -5  -2   6   59.55    1.72
   4   2  -6    4.62    0.57
  -4  -2   6    5.13    0.55
   3   2  -6   27.26    0.97
  -3  -2   6   26.50    0.87
   2   2  -6  257.38    4.53
   2   2  -6  255.91    4.30
  -2  -2   6  256.38    4.33
   1   2  -6  254.12    4.54
   1   2  -6  263.67    4.43
  -1  -2   6  256.90    4.22
   0   2  -6   79.25    1.70
   0   2  -6   74.87    1.73
   0  -2   6   76.82    1.37
  -1   2  -6    7.28    0.52
   1  -2   6    7.53    0.22
  -2   2  -6   99.26    1.76
  -2   2  -6  102.82    2.18
  -3   2  -6   73.95    1.79
  -3   2  -6   69.67    1.75
   3  -2   6   70.72    1.92
  -4   2  -6    1.61    0.41
   4  -2   6    1.23    0.59
   5  -2   6    1.69    0.70
   6  -2   6   11.62    1.25
   6   1  -6   37.30    1.52
  -6  -1   6   33.53    1.47
   5   1  -6   19.51    1.03
  -5  -1   6   19.59    1.02
   4   1  -6   14.31    0.80
  -4  -1   6   16.44    0.81
   3   1  -6   67.74    1.65
   3   1  -6   67.15    1.39
  -3  -1   6   69.77    1.58
   2   1  -6   32.84    0.90
   2   1  -6   32.38    0.96
  -2  -1   6   31.13    0.86
   1   1  -6   51.58    1.29
   1   1  -6   52.20    1.29
  -1  -1   6   50.75    1.11
   0   1  -6    0.04    0.22
   0   1  -6    0.30    0.25
   0  -1   6    0.39    0.15
  -1   1  -6  132.62    2.67
   1  -1   6  133.60    2.26
  -2   1  -6  137.20    2.83
   2  -1   6  142.06    2.45
  -3   1  -6    5.93    0.43
  -3   1  -6    5.34    0.59
   3  -1   6    6.29    0.71
  -4   1  -6    3.76    0.55
   4  -1   6    3.73    0.75
   5  -1   6   22.27    1.40
   6  -1   6   20.20    1.56
   7   0  -6   11.86    1.20
   6   0  -6   14.75    1.04
  -6   0   6   11.87    1.04
   5   0  -6    3.57    0.59
  -5   0   6    2.84    0.57
   4   0  -6   53.90    1.52
  -4   0   6   54.07    1.51
   3   0  -6   87.97    1.94
   3   0  -6   86.58    1.81
  -3   0   6   88.73    1.92
   2   0  -6    5.39    0.48
   2   0  -6    5.05    0.40
  -2   0   6    5.31    0.42
   1   0  -6    9.92    0.52
   1   0  -6   10.14    0.62
  -1   0   6   10.18    0.49
   0   0  -6   99.73    2.19
   0   0   6   99.39    1.87
  -1   0  -6  105.49    2.31
   1   0   6  104.43    1.93
  -2   0  -6   23.79    1.02
   2   0   6   24.70    0.73
  -3   0  -6    3.70    0.55
  -3   0  -6    3.92    0.42
   3   0   6    4.41    0.65
  -4   0  -6   27.56    1.16
   4   0   6   27.88    1.37
   5   0   6   28.38    1.51
   6   0   6    6.12    1.01
   7  -1  -6    2.27    0.71
  -7   1   6    1.65    0.84
   6  -1  -6    1.60    0.58
  -6   1   6    1.69    0.65
   5  -1  -6   64.88    1.84
  -5   1   6   67.15    1.90
   4  -1  -6   96.10    2.20
  -4   1   6   97.95    2.25
   3  -1  -6   23.77    0.86
   3  -1  -6   24.40    0.92
  -3   1   6   24.31    0.92
   2  -1  -6    6.23    0.43
   2  -1  -6    6.27    0.61
  -2   1   6    5.97    0.49
   1  -1  -6  121.16    2.60
   1  -1  -6  123.53    2.36
  -1   1   6  121.24    2.38
   0  -1  -6  159.38    3.19
   0   1   6  154.88    2.84
  -1  -1  -6   71.04    1.86
   1   1   6   69.74    1.49
  -2  -1  -6    0.23    0.39
   2   1   6    0.16    0.20
   2   1   6    0.76    0.40
  -3  -1  -6   29.70    1.23
   3   1   6   28.01    1.18
   3   1   6   28.64    0.97
  -4  -1  -6   46.74    1.89
  -4  -1  -6   46.92    1.40
   4   1   6   45.29    1.66
   5   1   6    9.83    1.08
   6   1   6    0.91    0.74
   7  -2  -6    0.84    0.60
  -7   2   6   -0.45    0.72
   6  -2  -6   26.93    1.29
  -6   2   6   27.14    1.43
   5  -2  -6   57.76    1.69
  -5   2   6   55.24    1.77
   4  -2  -6   23.03    0.93
  -4   2   6   22.60    1.06
   3  -2  -6    0.73    0.29
   3  -2  -6    0.39    0.38
  -3   2   6    0.58    0.37
   2  -2  -6   62.32    1.41
   2  -2  -6   63.08    1.72
  -2   2   6   61.62    1.56
   1  -2  -6  113.88    2.24
   1  -2  -6  122.33    2.67
  -1   2   6  118.17    2.40
   0  -2  -6   35.19    1.31
   0   2   6   34.76    1.01
  -1  -2  -6    0.27    0.42
   1   2   6    0.88    0.26
  -2  -2  -6   30.24    1.30
   2   2   6   31.90    0.99
   2   2   6   29.80    1.11
  -3  -2  -6   31.19    1.36
   3   2   6   32.29    1.27
   3   2   6   34.00    1.12
  -4  -2  -6    7.00    0.70
   4   2   6    5.62    0.81
   5   2   6    0.00    0.57
   7  -3  -6   14.56    1.17
   6  -3  -6   37.35    1.45
  -6   3   6   38.78    1.69
   5  -3  -6   20.89    1.01
  -5   3   6   20.41    1.18
   4  -3  -6    0.55    0.31
  -4   3   6    0.76    0.46
   3  -3  -6   44.52    1.49
   3  -3  -6   46.08    1.21
  -3   3   6   47.89    1.46
   2  -3  -6  167.02    3.43
   2  -3  -6  157.40    2.94
  -2   3   6  162.45    3.24
   1  -3  -6   46.40    1.10
   1  -3  -6   49.98    1.59
  -1   3   6   47.60    1.34
   0  -3  -6    3.92    0.63
   0   3   6    3.76    0.44
  -1  -3  -6   45.17    1.62
   1   3   6   41.52    1.17
   1   3   6   42.88    1.24
  -2  -3  -6   52.37    1.76
   2   3   6   49.87    1.46
   2   3   6   51.37    1.42
  -3  -3  -6   30.85    1.40
   3   3   6   29.52    1.13
   7  -4  -6   17.72    1.21
   6  -4  -6   16.38    1.03
  -6   4   6   16.78    1.32
   5  -4  -6    0.29    0.34
  -5   4   6   -0.05    0.52
   4  -4  -6   17.51    0.77
  -4   4   6   16.83    1.05
   3  -4  -6   59.56    1.45
   3  -4  -6   59.15    1.79
  -3   4   6   56.38    1.72
   2  -4  -6   18.05    1.07
  -2   4   6   16.43    0.90
   1  -4  -6    0.26    0.45
  -1   4   6   -0.13    0.29
   0  -4  -6   21.65    1.19
   0   4   6   19.87    0.88
  -1  -4  -6   93.12    2.54
   1   4   6   91.32    2.15
  -2  -4  -6   36.68    1.59
   2   4   6   34.96    1.22
  -3  -4  -6    0.58    0.60
   3   4   6    0.80    0.39
   4   4   6    9.73    0.91
  -6   5   6   -0.32    0.63
  -5   5   6   12.74    1.14
   4  -5  -6   24.79    1.56
  -4   5   6   27.40    1.32
   3  -5  -6   33.72    1.41
  -3   5   6   31.78    1.34
   2  -5  -6    3.69    0.67
  -2   5   6    3.71    0.58
   1  -5  -6   21.67    1.22
  -1   5   6   22.53    1.02
   0  -5  -6   57.99    1.98
   0   5   6   55.45    1.61
  -1  -5  -6    2.08    0.69
   1   5   6    2.19    0.47
  -2  -5  -6   -0.42    0.54
   2   5   6    0.14    0.35
  -3  -5  -6    6.28    0.93
   3   5   6    6.26    0.76
   4   5   6   19.69    1.19
  -6   6   6   10.92    1.21
  -5   6   6   41.04    1.78
   4  -6  -6   32.74    1.48
  -4   6   6   32.06    1.49
   3  -6  -6    3.40    0.70
  -3   6   6    2.76    0.59
   2  -6  -6   28.25    1.39
  -2   6   6   30.67    1.26
   1  -6  -6   71.98    2.26
  -1   6   6   74.91    2.02
   0  -6  -6   75.95    2.39
   0   6   6   70.23    1.96
  -1  -6  -6    0.31    0.63
   1   6   6    1.33    0.47
  -2  -6  -6    4.79    0.90
   2   6   6    4.46    0.66
  -3  -6  -6   26.09    1.53
   3   6   6   23.69    1.23
   4   6   6    2.62    0.65
  -6   7   6   19.84    1.55
  -5   7   6    6.79    1.00
   4  -7  -6    2.15    0.70
  -4   7   6    3.44    0.75
   3  -7  -6    7.87    0.97
  -3   7   6    8.57    0.92
   2  -7  -6   39.46    1.75
  -2   7   6   39.76    1.50
   1  -7  -6   52.77    2.03
  -1   7   6   51.76    1.71
   0  -7  -6    0.60    0.64
   0   7   6    0.33    0.41
  -1  -7  -6    6.15    1.01
   1   7   6    7.62    0.83
  -2  -7  -6   12.42    1.30
   2   7   6   14.42    1.08
   3   7   6   16.15    1.18
  -5   8   6   -0.18    0.61
   4  -8  -6    1.41    0.70
  -4   8   6    2.36    0.68
   3  -8  -6   22.90    1.49
  -3   8   6   21.09    1.25
   2  -8  -6   12.55    1.27
  -2   8   6   11.83    1.01
   1  -8  -6    3.98    0.92
  -1   8   6    4.24    0.70
   0  -8  -6    8.48    1.14
   0   8   6   10.09    0.99
  -1  -8  -6   14.64    1.42
   1   8   6   16.52    1.11
  -2  -8  -6   20.60    1.69
   2   8   6   21.45    1.31
  -5   9   6    4.65    0.98
   4  -9  -6   12.67    1.31
  -4   9   6   15.47    1.26
   3  -9  -6   15.35    1.42
  -3   9   6   13.91    1.18
   2  -9  -6    2.60    0.88
  -2   9   6    3.80    0.73
   1  -9  -6    2.30    0.87
  -1   9   6    3.12    0.65
   0  -9  -6   17.42    1.63
   0   9   6   19.17    1.25
  -1  -9  -6   12.83    1.45
   1   9   6   14.61    1.16
  -2  -9  -6    3.46    0.99
   4 -10  -6   13.19    1.43
  -4  10   6   15.38    1.33
   3 -10  -6    0.12    0.80
  -3  10   6    0.28    0.57
   2 -10  -6    3.20    0.99
  -2  10   6    5.91    0.92
   1 -10  -6   14.56    1.53
  -1  10   6   15.88    1.21
   0 -10  -6    9.82    1.42
   0  10   6   10.10    1.12
  -1 -14   7   15.29    1.27
   0  14  -7   -0.54    0.47
   0 -14   7    0.93    0.46
  -1  14  -7    4.90    0.80
   1 -14   7    6.08    0.78
  -2  14  -7   12.37    1.19
  -3  14  -7    6.32    0.96
   1  13  -7   -0.31    0.46
  -1 -13   7    0.19    0.39
   0  13  -7   10.24    1.02
   0 -13   7   11.74    0.89
  -1  13  -7   18.63    1.20
  -2  13  -7   21.30    1.28
  -3  13  -7   -0.53    0.50
  -4  13  -7    5.76    0.90
  -5  13  -7    8.51    1.69
  -3 -12   7   13.75    0.93
   1  12  -7   12.81    0.98
  -1 -12   7   15.13    0.94
   0  12  -7   29.91    1.34
  -1  12  -7   30.12    1.37
  -2  12  -7    4.99    0.77
  -3  12  -7    2.59    0.62
  -4  12  -7   15.47    1.20
  -5  12  -7    9.51    1.08
  -3 -11   7    5.02    0.66
   1  11  -7   41.25    1.46
   0  11  -7   16.03    0.97
  -1  11  -7    6.26    0.74
  -2  11  -7    4.33    0.66
  -3  11  -7   10.44    0.99
  -4  11  -7   21.93    1.26
   4 -11   7   18.32    1.27
  -5  11  -7    1.32    0.58
   5 -11   7    0.29    0.73
  -4 -10   7    0.47    0.41
   3  10  -7    1.11    0.48
  -3 -10   7    1.11    0.40
   2  10  -7   33.53    1.41
  -2 -10   7   36.55    1.19
   1  10  -7   47.77    1.50
   1  10  -7   49.00    1.64
   0  10  -7    1.57    0.49
   0  10  -7    1.12    0.39
  -1  10  -7   16.38    0.91
  -2  10  -7   36.36    1.36
  -3  10  -7   23.85    1.20
  -4  10  -7    4.72    0.71
  -5  10  -7    2.15    0.61
   5 -10   7    1.46    0.80
   6 -10   7    8.82    1.19
   5   9  -7    3.17    0.69
   4   9  -7    2.07    0.58
  -4  -9   7    2.51    0.53
   3   9  -7   17.75    1.04
  -3  -9   7   17.78    0.91
   2   9  -7   96.53    2.47
  -2  -9   7   95.71    2.15
   1   9  -7   16.48    0.98
   1   9  -7   16.66    0.70
   1   9  -7   16.88    0.84
   0   9  -7    3.81    0.59
   0   9  -7    3.63    0.49
  -1   9  -7   54.77    1.60
  -3   9  -7   15.57    0.96
  -4   9  -7    4.46    0.69
  -5   9  -7   11.12    0.98
   5  -9   7   11.76    1.19
   6  -9   7    9.51    1.25
   5   8  -7   12.37    1.09
  -5  -8   7   12.11    1.00
   4   8  -7   19.69    1.12
  -4  -8   7   20.01    1.02
   3   8  -7   24.29    1.17
  -3  -8   7   25.61    1.02
   2   8  -7   31.37    1.09
   2   8  -7   31.14    1.26
  -2  -8   7   31.31    1.01
   1   8  -7    7.66    0.57
   1   8  -7    8.38    0.73
   0   8  -7   30.96    1.07
   0   8  -7   32.33    1.25
  -1   8  -7   84.90    2.04
  -2   8  -7   23.85    1.03
  -3   8  -7    1.49    0.43
  -4   8  -7   20.99    1.11
   4  -8   7   20.96    1.27
  -5   8  -7   15.22    1.01
   5  -8   7   13.34    1.26
   6  -8   7    5.56    1.08
   5   7  -7   33.50    1.51
  -5  -7   7   33.26    1.41
   4   7  -7   42.58    1.58
  -4  -7   7   44.51    1.47
   3   7  -7   24.70    1.14
  -3  -7   7   26.15    0.98
   2   7  -7    9.83    0.56
   2   7  -7    9.70    0.73
  -2  -7   7   10.63    0.56
   1   7  -7   47.78    1.49
   1   7  -7   44.16    1.25
  -1  -7   7   47.38    1.11
   0   7  -7   80.02    2.04
   0   7  -7   80.80    1.88
  -1   7  -7   71.97    1.78
  -2   7  -7    0.19    0.29
  -3   7  -7   31.86    1.21
  -4   7  -7   37.40    1.36
   4  -7   7   36.90    1.62
  -5   7  -7    5.88    0.71
   5  -7   7    6.65    1.00
   6  -7   7    0.54    0.85
   5   6  -7   40.25    1.62
  -5  -6   7   38.43    1.47
   4   6  -7   21.53    1.10
  -4  -6   7   19.31    0.94
   3   6  -7    4.42    0.62
  -3  -6   7    3.42    0.44
   2   6  -7   83.40    1.79
   2   6  -7   82.54    2.07
  -2  -6   7   85.78    1.78
   1   6  -7   49.45    1.27
   1   6  -7   47.48    1.46
  -1  -6   7   48.58    1.08
   0   6  -7   27.83    0.94
   0   6  -7   27.69    1.08
   0  -6   7   27.47    0.62
  -1   6  -7    0.06    0.24
  -2   6  -7   23.35    0.95
  -3   6  -7   46.59    1.44
  -4   6  -7   20.74    1.02
   4  -6   7   19.95    1.27
  -5   6  -7    1.46    0.49
   5  -6   7    1.49    0.79
   6  -6   7    5.57    1.08
   6   5  -7   29.80    1.47
  -6  -5   7   27.33    1.39
   5   5  -7   26.13    1.28
  -5  -5   7   26.07    1.18
   4   5  -7    0.39    0.39
  -4  -5   7    0.03    0.30
   3   5  -7   33.09    1.22
  -3  -5   7   34.24    1.06
   2   5  -7   79.84    1.71
   2   5  -7   82.51    2.01
  -2  -5   7   83.96    1.72
   1   5  -7   25.20    0.83
   1   5  -7   27.00    1.02
  -1  -5   7   25.87    0.68
   0   5  -7    0.71    0.37
   0   5  -7   -0.08    0.19
   0  -5   7    0.11    0.09
  -1   5  -7   66.07    1.62
  -2   5  -7   50.90    1.42
  -3   5  -7   44.59    1.38
  -4   5  -7    0.58    0.38
   4  -5   7    1.03    0.67
   5  -5   7   18.12    1.45
   6  -5   7   20.05    1.54
   6   4  -7   11.86    1.15
  -6  -4   7    9.69    0.98
   5   4  -7   -0.16    0.40
  -5  -4   7   -0.01    0.37
   4   4  -7   10.25    0.79
  -4  -4   7   10.34    0.70
   3   4  -7  141.37    2.99
  -3  -4   7  139.91    2.74
   2   4  -7  123.53    2.63
   2   4  -7  123.08    2.34
  -2  -4   7  123.82    2.32
   1   4  -7    0.15    0.26
   1   4  -7    0.23    0.19
  -1  -4   7    0.06    0.13
   0   4  -7   52.83    1.48
   0   4  -7   54.81    1.36
  -1   4  -7  109.87    2.31
  -2   4  -7   55.30    1.50
  -3   4  -7   12.87    0.78
  -4   4  -7   20.61    0.98
   4  -4   7   19.66    1.26
   5  -4   7   14.77    1.33
   6  -4   7   14.03    1.40
   6   3  -7    0.37    0.50
  -6  -3   7    0.33    0.48
   5   3  -7   27.77    1.27
  -5  -3   7   28.76    1.20
   4   3  -7   44.94    1.47
  -4  -3   7   46.59    1.38
   3   3  -7   43.11    1.34
  -3  -3   7   43.98    1.20
   2   3  -7    1.89    0.27
   2   3  -7    1.79    0.37
  -2  -3   7    1.87    0.28
   1   3  -7   51.12    1.40
   1   3  -7   50.76    1.26
  -1  -3   7   51.52    1.07
   0   3  -7  107.45    2.21
   0   3  -7  104.91    2.31
  -1   3  -7   65.32    1.60
  -2   3  -7   12.58    0.74
  -3   3  -7   16.77    0.90
  -4   3  -7   27.42    1.14
   4  -3   7   27.42    1.41
   5  -3   7    7.97    1.08
   6  -3   7    2.28    0.91
   6   2  -7   18.34    1.15
  -6  -2   7   16.36    1.14
   5   2  -7   42.05    1.52
  -5  -2   7   42.11    1.46
   4   2  -7   65.76    1.80
  -4  -2   7   66.39    1.71
   3   2  -7   15.43    0.78
  -3  -2   7   16.15    0.72
   2   2  -7   58.33    1.50
   2   2  -7   58.14    1.36
  -2  -2   7   58.94    1.32
   1   2  -7   98.02    2.16
   1   2  -7  100.19    2.09
  -1  -2   7  100.02    1.85
   0   2  -7   95.31    2.05
   0   2  -7   93.49    2.06
   0  -2   7   91.10    1.66
  -1   2  -7    0.11    0.26
   1  -2   7    0.16    0.10
  -2   2  -7   23.53    0.99
  -3   2  -7   77.89    1.98
  -4   2  -7   20.70    1.04
   4  -2   7   21.60    1.29
   5  -2   7    2.88    0.85
   6  -2   7    4.22    1.00
   6   1  -7   32.43    1.48
  -6  -1   7   28.43    1.43
   5   1  -7   49.77    1.64
  -5  -1   7   49.50    1.61
   4   1  -7   18.98    0.94
  -4  -1   7   20.14    0.94
   3   1  -7   19.26    0.84
   3   1  -7   19.77    0.79
  -3  -1   7   19.49    0.80
   2   1  -7   90.41    1.95
   2   1  -7   92.05    2.02
  -2  -1   7   91.12    1.87
   1   1  -7   83.23    1.90
   1   1  -7   83.89    1.88
  -1  -1   7   81.70    1.66
   0   1  -7   19.66    0.88
   0   1  -7   22.68    0.84
   0  -1   7   22.57    0.63
  -1   1  -7   11.06    0.71
   1  -1   7    9.95    0.38
  -2   1  -7   42.41    1.36
   2  -1   7   42.16    0.97
  -3   1  -7   36.03    1.31
   3  -1   7   36.09    1.40
  -4   1  -7    1.88    0.49
   4  -1   7    1.89    0.71
   5  -1   7    1.47    0.78
   6  -1   7   17.61    1.58
   6   0  -7   14.21    1.04
  -6   0   7   14.64    1.19
   5   0  -7    1.44    0.49
  -5   0   7    1.24    0.48
   4   0  -7    9.93    0.73
  -4   0   7    9.11    0.74
   3   0  -7   54.90    1.41
   3   0  -7   55.51    1.48
  -3   0   7   56.91    1.48
   2   0  -7   52.22    1.35
   2   0  -7   53.11    1.43
  -2   0   7   52.09    1.32
   1   0  -7   12.85    0.65
   1   0  -7   13.30    0.76
  -1   0   7   13.43    0.61
   0   0  -7   42.98    1.33
   0   0   7   41.81    1.01
  -1   0  -7   71.20    1.86
   1   0   7   71.27    1.46
  -2   0  -7   43.88    1.48
   2   0   7   43.61    1.08
  -3   0  -7    2.50    0.55
   3   0   7    3.52    0.66
  -4   0  -7    5.98    0.72
   4   0   7    5.97    0.90
   5   0   7   18.08    1.35
   7  -1  -7   13.64    1.26
   6  -1  -7    3.51    0.68
  -6   1   7    1.85    0.66
   5  -1  -7   13.42    0.91
  -5   1   7   10.83    0.95
   4  -1  -7   52.32    1.50
  -4   1   7   50.55    1.55
   3  -1  -7   64.87    1.69
   3  -1  -7   65.68    1.62
  -3   1   7   67.06    1.70
   2  -1  -7   29.32    1.12
   2  -1  -7   29.95    0.96
  -2   1   7   28.82    0.99
   1  -1  -7   36.26    1.26
   1  -1  -7   34.63    1.04
  -1   1   7   36.14    1.06
   0  -1  -7  131.29    2.88
   0   1   7  131.87    2.51
  -1  -1  -7   78.63    2.06
   1   1   7   75.77    1.65
  -2  -1  -7   12.37    0.93
   2   1   7   11.34    0.59
   2   1   7   11.14    0.83
  -3  -1  -7    2.33    0.58
   3   1   7    2.60    0.62
   3   1   7    1.95    0.38
  -4  -1  -7   13.44    1.05
   4   1   7   11.09    1.07
   5   1   7   12.18    1.22
   7  -2  -7    2.77    0.73
   6  -2  -7    8.21    0.89
  -6   2   7    6.03    0.88
   5  -2  -7   46.58    1.51
  -5   2   7   42.58    1.61
   4  -2  -7   41.11    1.29
  -4   2   7   41.26    1.44
   3  -2  -7    8.49    0.57
   3  -2  -7    8.72    0.78
  -3   2   7    9.63    0.79
   2  -2  -7    6.89    0.75
   2  -2  -7    6.39    0.49
  -2   2   7    5.97    0.59
   1  -2  -7   57.05    1.38
   1  -2  -7   60.82    1.78
  -1   2   7   55.53    1.46
   0  -2  -7   97.84    2.43
   0   2   7   95.31    2.05
  -1  -2  -7   36.58    1.45
   1   2   7   36.56    1.09
  -2  -2  -7    6.95    0.82
   2   2   7    8.17    0.75
   2   2   7    7.52    0.58
  -3  -2  -7   38.08    1.55
   3   2   7   33.97    1.40
   3   2   7   36.18    1.21
   4   2   7   14.48    1.16
   7  -3  -7    0.26    0.57
   6  -3  -7   24.92    1.21
  -6   3   7   24.39    1.47
   5  -3  -7   40.88    1.40
  -5   3   7   42.75    1.65
   4  -3  -7   11.30    0.69
  -4   3   7   11.72    0.93
   3  -3  -7    1.08    0.48
   3  -3  -7    0.62    0.28
  -3   3   7    0.63    0.42
   2  -3  -7   45.05    1.59
   2  -3  -7   41.81    1.15
  -2   3   7   45.36    1.40
   1  -3  -7   41.27    1.55
  -1   3   7   39.82    1.24
   0  -3  -7   22.88    1.21
   0   3   7   21.95    0.88
  -1  -3  -7    9.46    0.96
   1   3   7    9.44    0.64
  -2  -3  -7   44.36    1.68
   2   3   7   43.75    1.33
  -3  -3  -7   34.15    1.52
   3   3   7   31.52    1.21
  -6   4   7   21.69    1.45
  -5   4   7   16.73    1.23
  -4   4   7    2.71    0.64
   3  -4  -7   45.69    1.68
  -3   4   7   48.47    1.61
   2  -4  -7   32.82    1.47
  -2   4   7   34.96    1.26
   1  -4  -7   15.07    1.14
  -1   4   7   15.77    0.84
   0  -4  -7    4.02    0.72
   0   4   7    3.67    0.51
  -1  -4  -7   13.86    1.17
   1   4   7   14.74    0.82
  -2  -4  -7   29.57    1.49
   2   4   7   28.61    1.14
  -3  -4  -7   11.87    1.16
   3   4   7   11.46    0.88
  -6   5   7    7.20    1.05
  -5   5   7    4.86    0.90
  -4   5   7   19.23    1.23
   3  -5  -7   39.78    1.65
  -3   5   7   41.15    1.51
   2  -5  -7   10.08    1.07
  -2   5   7    8.08    0.80
   1  -5  -7    2.82    0.73
  -1   5   7    3.70    0.57
   0  -5  -7   65.24    2.21
   0   5   7   64.42    1.80
  -1  -5  -7   32.88    1.66
   1   5   7   32.31    1.27
  -2  -5  -7   11.20    1.17
   2   5   7   11.11    0.87
  -3  -5  -7    0.44    0.63
   3   5   7   -0.25    0.39
  -6   6   7    0.95    0.78
  -5   6   7   13.38    1.26
   4  -6  -7   33.30    1.62
  -4   6   7   36.08    1.59
   3  -6  -7   15.70    1.27
  -3   6   7   18.12    1.13
   2  -6  -7    1.58    0.68
  -2   6   7    2.30    0.55
   1  -6  -7   33.62    1.68
  -1   6   7   36.16    1.38
   0  -6  -7   44.26    1.93
   0   6   7   42.19    1.50
  -1  -6  -7    9.37    1.16
   1   6   7    9.76    0.84
  -2  -6  -7    0.83    0.71
   2   6   7   -0.19    0.40
  -3  -6  -7    8.31    1.11
   3   6   7    9.59    0.94
  -5   7   7   11.75    1.18
   4  -7  -7   13.47    1.29
  -4   7   7   16.20    1.25
   3  -7  -7    1.05    0.70
  -3   7   7    2.22    0.63
   2  -7  -7    7.83    1.09
  -2   7   7    8.41    0.88
   1  -7  -7   44.39    2.04
  -1   7   7   49.05    1.68
   0  -7  -7   15.17    1.41
   0   7   7   17.27    1.11
  -1  -7  -7    1.17    0.78
   1   7   7    0.90    0.45
  -2  -7  -7    3.96    0.93
   2   7   7    3.94    0.70
   3   7   7    7.86    0.93
  -5   8   7    4.73    0.91
   4  -8  -7   -0.61    0.65
  -4   8   7    0.43    0.58
   3  -8  -7   10.32    1.21
  -3   8   7   10.75    1.07
   2  -8  -7   20.89    1.57
  -2   8   7   21.07    1.24
   1  -8  -7   14.94    1.47
  -1   8   7   16.52    1.11
   0  -8  -7   -0.12    0.77
   0   8   7   -0.06    0.44
  -1  -8  -7    8.49    1.22
   1   8   7    9.38    0.96
  -2  -8  -7    8.48    1.21
   2   8   7    9.70    1.03
   4  -9  -7    5.41    1.06
  -4   9   7    7.06    0.97
   3  -9  -7    9.77    1.27
  -3   9   7   12.49    1.13
   2  -9  -7    8.59    1.25
  -2   9   7    9.59    1.04
   1  -9  -7   -1.02    0.76
  -1   9   7    0.39    0.50
   0  -9  -7    3.56    1.09
   0   9   7    3.68    0.74
  -1  -9  -7   13.82    1.76
   1   9   7   13.53    1.16
   4 -10  -7    9.15    1.36
   3 -10  -7    6.77    1.23
   2 -10  -7    0.43    0.99
  -2  10   7    0.74    0.56
  -1  10   7    8.75    1.22
   0  14  -8    4.86    0.84
  -1  14  -8   -0.57    0.46
  -2  14  -8   12.07    1.22
  -3  14  -8    9.35    1.87
   1  13  -8    9.25    0.99
  -1 -13   8   10.74    0.88
   0  13  -8   -0.21    0.44
  -1  13  -8    9.40    0.96
  -2  13  -8   18.07    1.21
  -3  13  -8    9.50    1.03
  -4  13  -8    0.52    0.57
   1  12  -8   -0.07    0.39
   0  12  -8    7.40    0.80
  -1  12  -8   49.27    1.73
  -2  12  -8   11.24    0.95
  -3  12  -8    1.04    0.53
  -4  12  -8    4.01    0.75
  -5  12  -8   13.93    1.24
  -3 -11   8   15.68    1.07
   1  11  -8   10.13    0.81
   1  11  -8    9.97    0.98
   0  11  -8   23.77    1.21
   0  11  -8   24.13    1.15
  -1  11  -8    6.58    0.73
  -2  11  -8    1.88    0.52
  -3  11  -8    1.96    0.61
  -4  11  -8   15.81    1.16
  -5  11  -8    6.63    0.90
   5 -11   8    5.47    1.01
   4  10  -8   16.39    1.15
  -4 -10   8   15.87    1.01
   3  10  -8    2.65    0.63
  -3 -10   8    2.40    0.47
   2  10  -8    9.27    0.86
   1  10  -8   38.46    1.50
   1  10  -8   39.06    1.34
   0  10  -8   49.32    1.55
   0  10  -8   48.36    1.66
  -1  10  -8    1.14    0.43
  -2  10  -8   13.17    0.93
  -3  10  -8   20.93    1.18
  -4  10  -8   13.74    1.07
  -5  10  -8    0.90    0.54
   5 -10   8   -0.02    0.78
   4   9  -8    0.99    0.54
  -4  -9   8    0.98    0.45
   3   9  -8    6.36    0.79
  -3  -9   8    6.55    0.66
   2   9  -8   45.10    1.62
  -2  -9   8   45.28    1.30
   1   9  -8   49.33    1.68
   1   9  -8   49.21    1.46
   0   9  -8    0.95    0.50
   0   9  -8    2.48    0.45
  -1   9  -8   12.03    0.80
  -2   9  -8   43.45    1.49
  -3   9  -8   35.16    1.40
  -4   9  -8    5.14    0.74
  -5   9  -8    2.53    0.64
   5  -9   8    2.39    0.88
   5   8  -8    1.28    0.58
  -5  -8   8    0.67    0.48
   4   8  -8    5.29    0.78
  -4  -8   8    6.72    0.72
   3   8  -8   37.63    1.48
  -3  -8   8   39.64    1.27
   2   8  -8   23.08    1.15
  -2  -8   8   24.85    0.87
   1   8  -8   12.10    0.87
   1   8  -8   12.16    0.69
   0   8  -8    7.33    0.78
   0   8  -8    6.51    0.59
  -1   8  -8   54.84    1.58
  -2   8  -8   37.81    1.32
  -3   8  -8    5.46    0.68
  -4   8  -8    2.85    0.61
  -5   8  -8   13.51    1.05
   5  -8   8   10.72    1.24
   6  -8   8    8.95    1.46
   5   7  -8    8.08    0.98
   4   7  -8   32.73    1.43
  -4  -7   8   32.40    1.25
   3   7  -8   55.74    1.77
  -3  -7   8   57.86    1.54
   2   7  -8   13.33    0.88
   2   7  -8   13.41    0.65
  -2  -7   8   14.34    0.64
   1   7  -8   11.48    0.83
   1   7  -8   11.29    0.64
  -1  -7   8   11.61    0.73
   0   7  -8   58.27    1.56
   0   7  -8   58.12    1.75
  -1   7  -8   66.40    1.73
  -2   7  -8    3.25    0.49
  -3   7  -8    1.20    0.44
  -4   7  -8   25.53    1.22
  -5   7  -8   17.92    1.07
   5  -7   8   16.72    1.43
   6  -7   8    3.42    1.09
   5   6  -8   27.34    1.36
  -5  -6   8   26.20    1.24
   4   6  -8   45.98    1.64
  -4  -6   8   45.67    1.45
   3   6  -8    9.00    0.84
  -3  -6   8    7.52    0.57
   2   6  -8    2.26    0.33
   2   6  -8    1.66    0.44
  -2  -6   8    2.76    0.35
   1   6  -8   44.58    1.47
   1   6  -8   46.03    1.26
  -1  -6   8   44.65    1.01
   0   6  -8   90.16    2.24
   0   6  -8   89.89    2.04
  -1   6  -8    6.17    0.56
  -2   6  -8    2.51    0.45
  -3   6  -8   19.74    0.99
  -4   6  -8   33.95    1.34
   4  -6   8   34.39    1.63
  -5   6  -8    1.90    0.53
   5  -6   8    1.72    0.84
   6  -6   8    0.32    0.93
  -6  -5   8   18.75    1.22
   5   5  -8   28.76    1.38
  -5  -5   8   30.66    1.29
   4   5  -8   15.39    0.98
  -4  -5   8   16.96    0.87
   3   5  -8    0.07    0.35
  -3  -5   8    0.08    0.25
   2   5  -8   56.82    1.63
   2   5  -8   54.84    1.35
  -2  -5   8   55.83    1.29
   1   5  -8   74.68    1.70
   1   5  -8   70.47    1.90
  -1  -5   8   73.51    1.43
   0   5  -8   42.29    1.23
   0   5  -8   42.49    1.39
  -1   5  -8   24.17    0.97
  -2   5  -8   41.91    1.34
  -3   5  -8   49.13    1.55
  -4   5  -8    3.79    0.60
   4  -5   8    3.64    0.86
   5  -5   8    0.68    0.79
   6  -5   8    9.45    1.33
   6   4  -8   19.66    1.25
  -6  -4   8   18.36    1.19
   5   4  -8    5.57    0.81
  -5  -4   8    4.32    0.65
   4   4  -8    4.50    0.64
  -4  -4   8    4.95    0.58
   3   4  -8   33.77    1.24
  -3  -4   8   32.84    1.04
   2   4  -8   63.12    1.72
   2   4  -8   63.82    1.49
  -2  -4   8   65.88    1.42
   1   4  -8   35.95    1.24
   1   4  -8   37.12    1.09
  -1  -4   8   36.82    0.86
   0   4  -8    4.45    0.55
   0   4  -8    5.18    0.51
  -1   4  -8   61.75    1.62
  -2   4  -8   75.33    1.92
  -3   4  -8   50.55    1.55
  -4   4  -8    1.69    0.50
   4  -4   8    2.03    0.75
   5  -4   8    8.76    1.21
   6  -4   8   14.41    1.81
   6   3  -8   10.82    1.01
  -6  -3   8   10.04    0.99
   5   3  -8    3.80    0.67
  -5  -3   8    3.13    0.58
   4   3  -8   39.37    1.40
  -4  -3   8   39.58    1.28
   3   3  -8  100.37    2.34
  -3  -3   8   98.42    2.11
   2   3  -8    2.95    0.47
   2   3  -8    2.32    0.33
  -2  -3   8    2.16    0.32
   1   3  -8    1.32    0.32
   1   3  -8    1.82    0.42
  -1  -3   8    1.29    0.24
   0   3  -8   45.86    1.38
   0   3  -8   46.83    1.33
  -1   3  -8   80.31    1.95
  -2   3  -8   35.63    1.26
  -3   3  -8    3.29    0.58
  -4   3  -8   17.38    1.02
   4  -3   8   15.05    1.28
   5  -3   8   10.56    1.26
   6   2  -8    1.04    0.58
  -6  -2   8   -0.06    0.51
   5   2  -8   24.02    1.23
  -5  -2   8   24.84    1.17
   4   2  -8   85.59    2.19
  -4  -2   8   85.77    2.07
   3   2  -8   58.43    1.64
  -3  -2   8   58.51    1.49
   2   2  -8    3.25    0.42
   2   2  -8    2.60    0.44
  -2  -2   8    3.63    0.40
   1   2  -8   36.90    1.15
   1   2  -8   34.05    1.16
  -1  -2   8   36.05    0.92
   0   2  -8  101.84    2.23
   0   2  -8   97.48    2.23
   0  -2   8   96.53    1.77
  -1   2  -8   19.36    0.92
  -2   2  -8    5.12    0.62
  -3   2  -8   31.24    1.28
  -4   2  -8   28.57    1.27
   4  -2   8   29.89    1.60
   5  -2   8    9.35    1.21
   6   1  -8   10.72    1.03
  -6  -1   8    9.60    0.99
   5   1  -8   32.64    1.35
  -5  -1   8   32.90    1.34
   4   1  -8   65.10    1.81
  -4  -1   8   63.15    1.72
   3   1  -8    3.61    0.51
  -3  -1   8    3.23    0.46
   2   1  -8   34.06    1.15
   2   1  -8   33.83    1.12
  -2  -1   8   33.62    1.01
   1   1  -8   77.18    1.90
   1   1  -8   77.74    1.86
  -1  -1   8   74.73    1.63
   0   1  -8   49.03    1.51
   0  -1   8   51.69    1.12
  -1   1  -8    1.03    0.41
  -2   1  -8   15.57    0.95
  -3   1  -8   49.63    1.65
   3  -1   8   50.26    1.78
  -4   1  -8   22.09    1.20
   4  -1   8   21.14    1.39
   5  -1   8    0.95    0.80
   6   0  -8   20.82    1.20
  -6   0   8   18.70    1.26
   5   0  -8   16.71    0.99
  -5   0   8   15.04    1.03
   4   0  -8    4.01    0.56
  -4   0   8    4.14    0.58
   3   0  -8   29.35    1.07
   3   0  -8   28.28    1.05
  -3   0   8   29.58    1.07
   2   0  -8   79.75    1.98
   2   0  -8   79.46    1.89
  -2   0   8   79.31    1.82
   1   0  -8   58.15    1.52
   1   0  -8   59.02    1.67
  -1   0   8   55.70    1.39
   0   0  -8   16.79    0.96
   0   0   8   16.89    0.63
  -1   0  -8   23.13    1.10
   1   0   8   23.72    0.73
  -2   0  -8   45.85    1.60
  -3   0  -8   22.22    1.19
   3   0   8   19.83    1.21
  -4   0  -8    1.77    0.58
   4   0   8    0.65    0.70
   5   0   8    4.14    0.93
   6  -1  -8    8.54    0.92
  -6   1   8    7.02    0.93
   5  -1  -8    0.99    0.46
  -5   1   8    0.90    0.53
   4  -1  -8   19.84    0.96
  -4   1   8   19.11    1.04
   3  -1  -8   61.30    1.61
   3  -1  -8   60.46    1.70
  -3   1   8   59.91    1.66
   2  -1  -8   43.09    1.27
   2  -1  -8   43.71    1.46
  -2   1   8   43.31    1.31
   1  -1  -8    4.46    0.50
   1  -1  -8    5.09    0.67
  -1   1   8    4.56    0.49
   0  -1  -8   44.09    1.53
   0   1   8   44.33    1.17
  -1  -1  -8   67.98    1.96
   1   1   8   65.30    1.53
  -2  -1  -8   38.97    1.54
  -3  -1  -8    0.85    0.55
   3   1   8    0.81    0.55
  -4  -1  -8    6.56    0.84
   4   1   8    4.10    0.82
   5   1   8   12.11    1.28
   6  -2  -8    0.43    0.48
  -6   2   8   -0.23    0.57
   5  -2  -8   13.52    0.88
  -5   2   8   13.37    1.09
   4  -2  -8   58.94    1.64
  -4   2   8   55.67    1.77
   3  -2  -8   61.40    1.61
   3  -2  -8   63.41    1.83
  -3   2   8   61.76    1.76
   2  -2  -8    2.61    0.41
   2  -2  -8    2.92    0.60
  -2   2   8    3.01    0.52
   1  -2  -8   21.07    1.14
   1  -2  -8   21.20    0.82
  -1   2   8   23.16    0.90
   0  -2  -8   66.82    2.00
   0   2   8   64.25    1.60
  -1  -2  -8   62.55    1.95
   1   2   8   57.51    1.51
  -2  -2  -8    2.17    0.62
   2   2   8    2.07    0.79
   2   2   8    1.93    0.39
  -3  -2  -8    9.08    0.95
   6  -3  -8    5.77    0.75
  -6   3   8    4.75    0.87
   5  -3  -8   30.82    1.24
  -5   3   8   33.70    1.52
   4  -3  -8   41.99    1.34
  -4   3   8   42.61    1.59
   3  -3  -8    4.63    0.72
  -3   3   8    5.14    0.70
   2  -3  -8    5.35    0.78
  -2   3   8    5.30    0.65
   1  -3  -8   42.05    1.66
  -1   3   8   41.30    1.31
   0  -3  -8   69.23    2.13
   0   3   8   65.21    1.69
  -1  -3  -8    7.89    0.89
   1   3   8    5.98    0.60
  -2  -3  -8    6.44    0.86
   2   3   8    5.63    0.62
  -3  -3  -8   23.81    1.40
  -6   4   8   15.52    1.39
  -5   4   8   21.62    1.37
  -4   4   8    8.76    0.94
   3  -4  -8   17.50    1.21
  -3   4   8   18.20    1.08
   2  -4  -8   24.07    1.37
  -2   4   8   25.47    1.14
   1  -4  -8   25.79    1.43
  -1   4   8   25.06    1.07
   0  -4  -8    9.35    1.02
   0   4   8   10.76    0.75
  -1  -4  -8    7.48    0.95
   1   4   8    6.29    0.67
  -2  -4  -8   26.11    1.49
   2   4   8   25.35    1.13
  -3  -4  -8   21.90    1.42
  -6   5   8   17.54    1.58
  -5   5   8    3.62    0.81
  -4   5   8    9.39    0.98
   3  -5  -8   39.07    1.74
  -3   5   8   41.75    1.57
   2  -5  -8   27.32    1.49
  -2   5   8   25.80    1.20
   1  -5  -8   11.67    1.19
  -1   5   8    9.22    0.82
   0  -5  -8   13.26    1.31
   0   5   8   16.29    0.92
  -1  -5  -8   25.64    1.58
   1   5   8   24.92    1.15
  -2  -5  -8   25.25    1.55
   2   5   8   22.74    1.17
  -3  -5  -8    1.02    0.71
  -5   6   8    1.05    0.69
  -4   6   8   21.04    1.34
   3  -6  -8   33.04    1.77
  -3   6   8   34.33    1.50
   2  -6  -8    7.06    1.03
  -2   6   8    8.80    0.89
   1  -6  -8    0.84    0.72
  -1   6   8    1.18    0.47
   0  -6  -8   30.88    1.77
   0   6   8   29.32    1.29
  -1  -6  -8   26.76    1.69
   1   6   8   25.42    1.24
  -2  -6  -8   10.72    1.23
   2   6   8   11.94    0.98
  -3  -6  -8    2.42    0.86
  -5   7   8   16.95    1.40
   4  -7  -8   23.24    1.65
  -4   7   8   24.11    1.43
   3  -7  -8    4.22    1.00
  -3   7   8    3.96    0.74
   2  -7  -8   -0.03    0.76
  -2   7   8   -0.09    0.45
   1  -7  -8   15.59    1.49
  -1   7   8   18.32    1.13
   0  -7  -8   26.81    1.77
   0   7   8   25.99    1.29
  -1  -7  -8   11.54    1.33
   1   7   8   11.95    1.01
  -2  -7  -8   -0.58    0.69
   2   7   8    0.12    0.48
   4  -8  -8   10.17    1.31
  -4   8   8    9.54    1.06
   3  -8  -8    1.96    0.91
  -3   8   8    1.88    0.62
   2  -8  -8    4.98    1.09
  -2   8   8    5.57    0.78
   1  -8  -8   15.57    1.56
  -1   8   8   21.60    1.24
   0  -8  -8    6.96    1.19
   0   8   8    6.60    0.88
  -1  -8  -8    0.73    0.86
   1   8   8    0.82    0.55
   4  -9  -8   -1.46    0.81
   3  -9  -8    7.06    1.28
  -3   9   8   10.23    1.10
   2  -9  -8    9.74    1.38
  -2   9   8   11.85    1.13
   1  -9  -8    4.36    1.25
  -1   9   8    4.23    0.79
   0   9   8    2.14    0.72
   0  14  -9   13.93    1.16
  -1  14  -9    4.29    0.79
  -2  14  -9    1.32    0.73
   1  13  -9   12.29    1.58
   0  13  -9    9.02    0.97
  -1  13  -9    2.81    0.64
  -2  13  -9   16.71    1.20
  -3  13  -9   12.03    1.16
   1  12  -9    6.52    0.78
   0  12  -9    0.32    0.39
  -1  12  -9   12.67    0.99
  -2  12  -9   17.49    1.14
  -3  12  -9   10.83    1.05
  -4  12  -9    0.73    0.54
  -5  12  -9    3.59    1.18
   5 -12   9    2.77    1.02
   3  11  -9   26.93    1.46
   2  11  -9   13.34    1.10
   1  11  -9    0.46    0.51
   1  11  -9    0.11    0.33
   0  11  -9   23.38    1.13
   0  11  -9   23.10    1.24
  -1  11  -9   30.58    1.33
  -2  11  -9    6.03    0.77
  -3  11  -9   -0.24    0.45
  -4  11  -9    4.72    0.79
  -5  11  -9    7.71    0.98
   5 -11   9    9.25    1.24
   4  10  -9   19.97    1.31
   3  10  -9   12.23    1.05
   2  10  -9    0.20    0.46
   1  10  -9   18.09    1.16
   1  10  -9   15.43    0.88
   0  10  -9   36.85    1.35
   0  10  -9   35.45    1.47
  -1  10  -9   18.36    0.99
  -2  10  -9    0.12    0.40
  -3  10  -9   20.45    1.20
  -4  10  -9   12.91    1.09
  -5  10  -9    5.61    0.83
   5 -10   9    5.57    1.11
   4   9  -9   12.69    1.05
  -4  -9   9   12.64    0.94
   3   9  -9   -0.19    0.44
   2   9  -9   15.03    1.05
   1   9  -9   36.02    1.45
   1   9  -9   31.86    1.17
   0   9  -9   26.06    1.09
   0   9  -9   25.89    1.27
  -1   9  -9    0.59    0.36
  -2   9  -9   22.26    1.11
  -3   9  -9   41.81    1.56
  -4   9  -9   15.46    1.09
  -5   9  -9    0.21    0.47
   5  -9   9   -1.34    0.81
  -5  -8   9   11.76    0.98
   4   8  -9    0.26    0.49
  -4  -8   9   -0.28    0.33
   3   8  -9   24.67    1.24
  -3  -8   9   22.08    0.97
   2   8  -9   58.02    1.87
   1   8  -9   21.31    1.15
   1   8  -9   21.94    0.92
   0   8  -9    1.27    0.36
   0   8  -9    0.72    0.48
  -1   8  -9   17.25    0.91
  -2   8  -9   45.25    1.52
  -3   8  -9   24.17    1.21
  -4   8  -9    3.79    0.67
  -5   8  -9    3.43    0.68
   5  -8   9    3.35    1.02
   5   7  -9    2.00    0.62
  -5  -7   9    0.79    0.49
   4   7  -9   12.48    0.99
  -4  -7   9   13.21    0.85
   3   7  -9   54.68    1.79
  -3  -7   9   53.32    1.47
   2   7  -9   42.38    1.52
   2   7  -9   39.73    1.19
   1   7  -9    0.78    0.44
   1   7  -9    1.12    0.31
   0   7  -9   12.72    0.90
   0   7  -9   11.26    0.72
  -1   7  -9   43.23    1.40
  -2   7  -9   19.18    0.97
  -3   7  -9    6.51    0.75
  -4   7  -9    7.68    0.86
  -5   7  -9   16.68    1.13
   5  -7   9   16.09    1.53
   5   6  -9   14.45    1.15
  -5  -6   9   12.85    0.97
   4   6  -9   35.25    1.47
  -4  -6   9   31.27    1.20
   3   6  -9   68.06    2.01
  -3  -6   9   70.44    1.70
   2   6  -9    9.72    0.58
   2   6  -9   11.61    0.84
  -2  -6   9    9.99    0.55
   1   6  -9   35.29    1.35
   1   6  -9   35.27    1.14
   0   6  -9  110.72    2.63
   0   6  -9  109.29    2.43
  -1   6  -9   34.52    1.21
  -2   6  -9    1.08    0.39
  -3   6  -9    2.90    0.57
  -4   6  -9   23.65    1.25
  -5   6  -9   16.52    1.14
   5  -6   9   14.30    1.44
  -6  -5   9    3.17    0.89
   5   5  -9   23.86    1.33
  -5  -5   9   21.49    1.14
   4   5  -9   19.02    1.09
  -4  -5   9   19.18    0.94
   3   5  -9   14.17    0.91
  -3  -5   9   14.12    0.71
   2   5  -9   15.44    0.70
  -2  -5   9   16.14    0.64
   1   5  -9   71.41    1.96
   1   5  -9   71.16    1.75
   0   5  -9   80.58    1.97
   0   5  -9   84.40    2.15
  -1   5  -9    1.25    0.37
  -2   5  -9    7.66    0.76
  -3   5  -9   58.89    1.80
  -4   5  -9   24.27    1.24
   4  -5   9   25.13    1.55
   5  -5   9    2.57    1.02
  -6  -4   9   28.81    1.45
   5   4  -9   12.36    1.00
   4   4  -9    5.03    0.72
  -4  -4   9    5.65    0.63
   3   4  -9    0.49    0.39
  -3  -4   9    0.31    0.28
   2   4  -9   38.43    1.36
   2   4  -9   38.87    1.15
  -2  -4   9   40.24    1.06
   1   4  -9   60.73    1.74
   1   4  -9   60.65    1.58
   0   4  -9    9.68    0.69
   0   4  -9   12.39    0.81
  -1   4  -9   22.08    0.99
  -2   4  -9   48.82    1.56
  -3   4  -9   35.13    1.40
  -4   4  -9    4.56    0.71
   4  -4   9    3.46    0.91
   5  -4   9    0.47    0.90
   6   3  -9   28.97    1.48
  -6  -3   9   25.95    1.40
   5   3  -9    1.11    0.52
  -5  -3   9    0.74    0.46
   4   3  -9   15.30    0.99
  -4  -3   9   16.25    0.87
   3   3  -9  115.77    2.69
  -3  -3   9  115.62    2.42
   2   3  -9   72.17    1.73
   2   3  -9   70.25    1.90
  -2  -3   9   70.96    1.58
   1   3  -9   31.75    1.11
   1   3  -9   31.07    1.18
   0   3  -9   10.03    0.74
   0   3  -9    9.53    0.73
  -1   3  -9   44.98    1.45
  -2   3  -9   82.21    2.15
  -3   3  -9    9.04    0.88
  -4   3  -9    3.31    0.66
   4  -3   9    0.39    0.75
   5  -3   9    9.08    1.26
   6   2  -9    5.69    0.86
  -6  -2   9    5.38    0.85
   5   2  -9    3.64    0.68
  -5  -2   9    3.86    0.65
   4   2  -9   41.30    1.47
  -4  -2   9   40.73    1.36
   3   2  -9   74.70    1.98
  -3  -2   9   75.68    1.80
   2   2  -9   20.98    0.89
   2   2  -9   20.91    0.96
  -2  -2   9   21.85    0.82
   1   2  -9    1.90    0.45
   1   2  -9    1.70    0.41
  -1  -2   9    2.04    0.33
   0   2  -9   75.29    1.97
  -1   2  -9   64.00    1.82
  -2   2  -9   24.89    1.19
  -3   2  -9    1.64    0.53
  -4   2  -9   21.87    1.23
   4  -2   9   16.43    1.39
   5  -2   9   14.97    1.51
   6   1  -9    2.50    0.67
  -6  -1   9    0.42    0.57
   5   1  -9   20.27    1.15
  -5  -1   9   18.24    1.09
   4   1  -9   59.11    1.77
  -4  -1   9   57.49    1.69
   3   1  -9   18.08    0.94
  -3  -1   9   18.57    0.89
   2   1  -9   -0.11    0.28
   2   1  -9    0.15    0.34
  -2  -1   9    0.08    0.28
   1   1  -9   87.35    2.06
   1   1  -9   82.35    2.12
  -1  -1   9   83.23    1.81
   0   1  -9   36.77    1.36
  -1   1  -9   15.75    0.98
  -2   1  -9    0.54    0.46
  -3   1  -9   28.30    1.35
   3  -1   9   28.49    1.48
  -4   1  -9   23.56    1.30
   4  -1   9   27.20    1.63
   5  -1   9    8.92    1.21
   6   0  -9   22.08    1.26
  -6   0   9   17.96    1.29
   5   0  -9   32.71    1.36
  -5   0   9   32.43    1.40
   4   0  -9   19.27    1.01
  -4   0   9   19.46    1.06
   3   0  -9    0.63    0.37
   3   0  -9    0.42    0.35
  -3   0   9    0.52    0.39
   2   0  -9   40.31    1.40
   2   0  -9   41.45    1.33
  -2   0   9   41.48    1.27
   1   0  -9  104.82    2.30
   1   0  -9   97.09    2.43
  -1   0   9   98.86    2.11
   0   0  -9   20.60    1.08
   0   0   9   19.01    0.74
  -1   0  -9   -0.03    0.43
  -2   0  -9   26.49    1.31
  -3   0  -9   48.02    1.77
   3   0   9   47.71    1.80
  -4   0  -9   10.00    1.05
   4   0   9    9.92    1.16
   5   0   9   -0.20    0.76
   6  -1  -9   19.56    1.22
  -6   1   9   19.72    1.36
   5  -1  -9   12.41    0.89
  -5   1   9   11.79    1.05
   4  -1  -9    1.17    0.44
  -4   1   9    1.30    0.51
   3  -1  -9   21.76    1.07
   3  -1  -9   22.20    0.96
  -3   1   9   21.65    1.05
   2  -1  -9   96.88    2.45
   2  -1  -9   97.55    2.24
  -2   1   9   97.64    2.25
   1  -1  -9    9.63    0.91
   1  -1  -9   11.14    0.71
  -1   1   9   10.08    0.64
   0  -1  -9    1.37    0.52
   0   1   9    1.58    0.32
  -1  -1  -9   19.55    1.18
  -2  -1  -9   56.15    1.94
  -3  -1  -9   11.30    1.09
   3   1   9    9.74    1.00
  -4  -1  -9    0.71    0.58
   6  -2  -9    9.55    0.95
  -6   2   9    7.81    1.00
   5  -2  -9    0.63    0.44
  -5   2   9    0.50    0.54
   4  -2  -9   33.62    1.25
  -4   2   9   33.94    1.42
   3  -2  -9   85.93    2.29
   3  -2  -9   84.67    2.06
  -3   2   9   84.14    2.20
   2  -2  -9   58.70    1.86
   2  -2  -9   55.97    1.53
  -2   2   9   53.81    1.59
   1  -2  -9    0.24    0.47
  -1   2   9    0.44    0.32
   0  -2  -9   21.74    1.26
   0   2   9   19.86    0.85
  -1  -2  -9   45.84    1.75
  -2  -2  -9   46.54    1.79
  -3  -2  -9    0.49    0.59
  -6   3   9    0.34    0.68
  -5   3   9   13.25    1.18
  -4   3   9   33.95    1.49
   3  -3  -9   42.58    1.64
  -3   3   9   42.99    1.57
   2  -3  -9    0.96    0.57
  -2   3   9    1.05    0.43
   1  -3  -9   18.53    1.24
  -1   3   9   20.11    0.93
   0  -3  -9   47.20    1.80
   0   3   9   48.72    1.42
  -1  -3  -9   39.93    1.72
   1   3   9   38.74    1.29
  -2  -3  -9    2.01    0.70
  -3  -3  -9    4.76    0.87
  -6   4   9    3.38    1.12
  -5   4   9   14.01    1.25
  -4   4   9   20.99    1.30
   3  -4  -9    3.98    0.79
  -3   4   9    4.45    0.71
   2  -4  -9   15.41    1.27
  -2   4   9   16.93    1.00
   1  -4  -9   34.13    1.66
  -1   4   9   37.21    1.32
   0  -4  -9    2.86    0.76
   0   4   9    3.12    0.53
  -1  -4  -9    2.32    0.75
   1   4   9    1.27    0.41
  -2  -4  -9    6.82    1.00
  -3  -4  -9   13.86    1.36
  -5   5   9   12.66    1.25
  -4   5   9    3.65    0.74
   3  -5  -9    5.72    0.93
  -3   5   9    6.45    0.80
   2  -5  -9   45.57    1.95
  -2   5   9   46.19    1.62
   1  -5  -9   43.23    1.95
  -1   5   9   42.33    1.49
   0  -5  -9    3.33    0.84
   0   5   9    2.71    0.53
  -1  -5  -9    7.89    1.08
   1   5   9    9.75    0.83
  -2  -5  -9   21.62    1.53
  -3  -5  -9    6.26    0.98
  -5   6   9    0.31    0.67
  -4   6   9    3.63    0.77
   3  -6  -9   22.32    1.56
  -3   6   9   24.81    1.31
   2  -6  -9   31.60    1.78
  -2   6   9   35.68    1.46
   1  -6  -9    1.78    0.82
  -1   6   9    1.58    0.51
   0  -6  -9    1.18    0.79
   0   6   9    2.11    0.54
  -1  -6  -9   26.44    1.73
   1   6   9   26.49    1.27
  -2  -6  -9   16.33    1.51
  -4   7   9   17.96    1.33
   3  -7  -9   12.15    1.33
  -3   7   9   17.38    1.21
   2  -7  -9    3.49    0.97
  -2   7   9    2.56    0.64
   1  -7  -9    1.44    0.85
  -1   7   9    1.48    0.52
   0  -7  -9   15.42    1.59
   0   7   9   13.10    1.04
  -1  -7  -9   23.50    1.71
   1   7   9   22.89    1.30
   4  -8  -9   15.57    1.66
   3  -8  -9    3.76    1.07
  -3   8   9    3.78    0.75
   2  -8  -9   -0.17    0.81
  -2   8   9    2.16    0.60
   1  -8  -9    4.80    1.13
  -1   8   9    6.34    0.86
   0   8   9   14.94    1.16
   0  14 -10    7.73    0.97
  -1  14 -10    7.67    1.16
   0  13 -10   23.60    1.30
  -1  13 -10    0.19    0.47
  -2  13 -10   -0.25    0.46
  -3  13 -10   13.59    1.38
   1  12 -10   21.54    1.37
   1  12 -10   20.75    1.16
   0  12 -10    6.02    0.77
  -1  12 -10    2.32    0.60
  -2  12 -10   10.81    1.05
  -3  12 -10   16.32    1.24
  -4  12 -10    1.94    0.66
   3  11 -10   17.05    1.28
   2  11 -10   18.19    1.27
   1  11 -10   10.07    0.80
   1  11 -10   11.37    1.13
   0  11 -10    6.33    0.88
   0  11 -10    9.11    0.88
  -1  11 -10   19.46    1.14
  -2  11 -10   25.07    1.31
  -3  11 -10    3.64    0.70
  -4  11 -10    1.49    0.62
  -5  11 -10    3.92    0.88
   3  10 -10   31.62    1.56
   2  10 -10   13.53    1.09
   1  10 -10    0.56    0.52
   1  10 -10    0.08    0.32
   0  10 -10   28.25    1.22
   0  10 -10   29.17    1.44
  -1  10 -10   37.87    1.45
  -2  10 -10   11.68    0.96
  -3  10 -10    4.52    0.75
  -4  10 -10    7.70    0.92
  -5  10 -10    8.97    1.03
   5 -10  10    7.21    1.37
   4   9 -10   22.24    1.35
   3   9 -10    5.79    0.85
   2   9 -10    0.54    0.50
   1   9 -10   17.45    0.91
   1   9 -10   19.07    1.17
   0   9 -10   32.86    1.27
   0   9 -10   33.63    1.46
  -1   9 -10   24.53    1.16
  -2   9 -10    0.15    0.37
  -3   9 -10   22.97    1.27
  -4   9 -10   17.92    1.22
  -5   9 -10    6.47    0.87
   5  -9  10    4.89    1.19
   4   8 -10   10.71    1.07
   3   8 -10    5.37    0.81
   2   8 -10   28.99    1.37
   1   8 -10   55.11    1.60
   1   8 -10   56.79    1.89
   0   8 -10   36.14    1.29
   0   8 -10   36.63    1.48
  -1   8 -10    0.02    0.31
  -2   8 -10   27.16    1.25
  -3   8 -10   32.84    1.43
  -4   8 -10   17.65    1.18
  -5   8 -10    0.78    0.53
   5  -8  10   -0.58    0.95
  -5  -7  10   15.27    1.07
   4   7 -10    1.07    0.55
  -4  -7  10   -0.40    0.38
   3   7 -10   30.76    1.40
   2   7 -10   54.35    2.04
   2   7 -10   63.78    1.96
   1   7 -10   24.46    1.00
   1   7 -10   28.26    1.28
   0   7 -10    0.18    0.29
   0   7 -10   -0.12    0.41
  -1   7 -10   21.04    1.05
  -2   7 -10   39.27    1.47
  -3   7 -10   22.18    1.17
  -4   7 -10    1.56    0.58
   5  -7  10    4.05    1.15
   5   6 -10    0.30    0.55
  -5  -6  10   -0.56    0.39
   4   6 -10   19.46    1.19
  -4  -6  10   18.77    0.97
   3   6 -10   47.66    1.70
   2   6 -10   33.67    1.37
   2   6 -10   32.26    1.08
   1   6 -10    3.14    0.59
   1   6 -10    2.61    0.43
   0   6 -10   37.09    1.29
   0   6 -10   36.54    1.42
  -1   6 -10   59.00    1.75
  -2   6 -10   20.91    1.09
  -3   6 -10    0.55    0.45
  -4   6 -10   12.51    1.04
  -5   6 -10   18.37    1.23
   5  -6  10   16.23    1.59
   5   5 -10   12.98    1.13
  -5  -5  10   12.23    1.02
   4   5 -10   48.00    1.76
  -4  -5  10   45.84    1.46
   3   5 -10   67.45    2.00
  -3  -5  10   64.80    1.77
   2   5 -10    6.17    0.54
   2   5 -10    4.77    0.64
   1   5 -10   16.12    0.97
   1   5 -10   15.37    0.82
   0   5 -10   77.99    2.00
   0   5 -10   76.60    2.11
  -1   5 -10   45.74    1.50
  -2   5 -10    2.23    0.53
  -3   5 -10    9.18    0.90
  -4   5 -10   23.05    1.29
   4  -5  10   25.32    1.65
  -5   5 -10   14.77    1.76
   5  -5  10   16.45    1.60
  -6  -4  10    9.23    1.04
   5   4 -10   27.07    1.37
  -5  -4  10   24.85    1.22
   4   4 -10   22.17    1.17
  -4  -4  10   20.52    1.01
   3   4 -10    1.81    0.48
  -3  -4  10    0.74    0.34
   2   4 -10   16.50    0.97
   2   4 -10   15.80    0.78
   1   4 -10   55.75    1.58
   1   4 -10   54.10    1.70
   0   4 -10   78.34    2.09
   0   4 -10   77.35    2.04
  -1   4 -10    2.85    0.56
  -2   4 -10    8.71    0.83
  -3   4 -10   28.20    1.35
  -4   4 -10   19.86    1.21
   4  -4  10   18.39    1.60
   5  -4  10    2.29    1.07
  -6  -3  10   27.10    1.45
   5   3 -10   24.08    1.29
  -5  -3  10   20.53    1.15
   4   3 -10    9.45    0.85
  -4  -3  10    7.99    0.74
   3   3 -10   34.80    1.35
  -3  -3  10   33.28    1.12
   2   3 -10   77.51    2.07
   2   3 -10   74.57    1.89
   1   3 -10   73.09    1.93
   1   3 -10   73.36    1.99
   0   3 -10    4.17    0.60
  -1   3 -10   32.15    1.31
  -2   3 -10   42.85    1.57
  -3   3 -10   31.94    1.45
  -4   3 -10    9.05    0.98
   4  -3  10    6.95    1.10
   5  -3  10    2.28    1.04
   6   2 -10   24.73    1.50
  -6  -2  10   24.24    1.41
   5   2 -10    8.14    0.90
  -5  -2  10    8.19    0.85
   4   2 -10   10.26    0.90
  -4  -2  10   11.52    0.86
   3   2 -10   54.44    1.71
  -3  -2  10   55.94    1.53
   2   2 -10   69.11    1.87
   2   2 -10   72.32    1.98
  -2  -2  10   72.22    1.71
   1   2 -10   59.02    1.70
   1   2 -10   53.81    1.66
   0   2 -10   21.11    1.08
  -1   2 -10   36.12    1.42
  -2   2 -10   33.29    1.43
  -3   2 -10   10.33    1.02
  -4   2 -10    0.07    0.52
   4  -2  10    0.11    0.76
   5  -2  10   15.50    1.63
   6   1 -10    1.39    0.61
  -6  -1  10   -0.19    0.60
   5   1 -10    3.06    0.63
  -5  -1  10    3.70    0.69
   4   1 -10   40.14    1.47
  -4  -1  10   38.38    1.40
   3   1 -10   45.15    1.51
  -3  -1  10   43.78    1.40
   2   1 -10   20.07    1.01
   2   1 -10   21.31    1.01
  -2  -1  10   19.24    0.89
   1   1 -10    1.16    0.43
   1   1 -10    0.54    0.40
   0   1 -10   80.30    2.20
  -1   1 -10   34.66    1.44
  -2   1 -10    5.74    0.79
  -3   1 -10    2.75    0.66
   3  -1  10    2.88    0.80
  -4   1 -10   14.05    1.21
   4  -1  10   15.17    1.41
   5  -1  10    8.26    1.28
   6   0 -10    4.79    0.82
  -6   0  10    2.12    0.78
   5   0 -10   27.32    1.31
  -5   0  10   24.07    1.33
   4   0 -10   38.43    1.46
  -4   0  10   39.53    1.49
   3   0 -10   12.52    0.85
   3   0 -10   11.35    0.87
  -3   0  10   12.99    0.87
   2   0 -10    0.22    0.39
   2   0 -10    0.17    0.35
  -2   0  10    0.30    0.34
   1   0 -10   70.76    2.07
   1   0 -10   70.64    1.85
   0   0 -10   54.87    1.83
  -1   0 -10   13.18    1.02
  -2   0 -10    0.92    0.53
  -3   0 -10   18.53    1.27
   3   0  10   17.95    1.32
  -4   0 -10   16.13    1.29
   4   0  10   13.27    1.33
   6  -1 -10   15.68    1.13
  -6   1  10   15.47    1.36
   5  -1 -10   28.27    1.32
  -5   1  10   28.97    1.44
   4  -1 -10    4.94    0.68
  -4   1  10    4.12    0.68
   3  -1 -10   12.76    0.95
   3  -1 -10   13.15    0.85
  -3   1  10   13.04    0.93
   2  -1 -10   11.78    0.94
   2  -1 -10   11.83    0.79
  -2   1  10   13.40    0.82
   1  -1 -10   91.03    2.44
  -1   1  10   85.27    2.00
   0  -1 -10   26.01    1.33
  -1  -1 -10    0.61    0.52
  -2  -1 -10   26.50    1.45
  -3  -1 -10   29.07    1.53
  -4  -1 -10    4.90    0.87
  -6   2  10   24.39    1.59
  -5   2  10   14.12    1.23
  -4   2  10    1.58    0.60
   3  -2 -10   34.56    1.47
  -3   2  10   35.32    1.42
   2  -2 -10   45.48    1.74
  -2   2  10   48.05    1.50
   1  -2 -10   19.61    1.23
  -1   2  10   19.22    0.88
   0  -2 -10    4.11    0.75
  -1  -2 -10   18.96    1.25
  -2  -2 -10   43.16    1.80
  -3  -2 -10   10.65    1.15
  -5   3  10    0.79    0.64
  -4   3  10   35.42    1.58
   3  -3 -10   26.57    1.41
  -3   3  10   28.61    1.33
   2  -3 -10   42.79    1.74
  -2   3  10   41.98    1.45
   1  -3 -10    3.46    0.73
  -1   3  10    4.37    0.56
   0  -3 -10    8.26    1.02
  -1  -3 -10   16.05    1.26
  -2  -3 -10   23.98    1.49
  -3  -3 -10   -0.19    0.56
  -5   4  10    9.41    1.12
  -4   4  10   28.47    1.48
   3  -4 -10   14.33    1.23
  -3   4  10   15.81    1.09
   2  -4 -10    0.84    0.66
  -2   4  10    0.95    0.46
   1  -4 -10   34.30    1.69
  -1   4  10   33.84    1.29
   0  -4 -10   20.11    1.44
   0   4  10   18.67    1.01
  -1  -4 -10   11.93    1.27
  -2  -4 -10    0.59    0.66
  -3  -4 -10    2.40    0.84
  -5   5  10   23.46    1.58
  -4   5  10    8.30    0.97
   3  -5 -10    0.19    0.66
  -3   5  10    0.69    0.52
   2  -5 -10   14.22    1.40
  -2   5  10   13.96    1.00
   1  -5 -10   36.63    1.86
  -1   5  10   37.32    1.44
   0  -5 -10    8.88    1.19
   0   5  10    8.66    0.82
  -1  -5 -10    0.14    0.68
  -2  -5 -10   10.68    1.29
  -4   6  10    0.30    0.58
   3  -6 -10    1.43    0.82
  -3   6  10    2.96    0.69
   2  -6 -10   25.85    1.73
  -2   6  10   27.69    1.34
   1  -6 -10   16.87    1.51
  -1   6  10   18.46    1.12
   0  -6 -10    1.07    0.81
   0   6  10    2.21    0.57
  -1  -6 -10    3.70    1.03
   3  -7 -10   15.80    1.58
  -3   7  10   15.04    1.18
   2  -7 -10   14.97    1.51
   1  -7 -10    0.69    0.88
  -1   7  10    0.63    0.50
   0   7  10    2.00    0.58
  -2   8  10    3.10    0.94
  -1   8  10    0.20    0.54
   0  13 -11   26.16    1.35
  -1  13 -11    9.49    1.04
  -2  13 -11    2.17    0.68
   2  12 -11    5.87    0.97
   1  12 -11   17.00    1.33
   1  12 -11   17.70    1.19
   0  12 -11   11.98    0.99
  -1  12 -11    1.58    0.54
  -2  12 -11    0.76    0.53
  -3  12 -11   16.54    1.28
   3  11 -11    7.67    1.02
   2  11 -11   22.24    1.44
   1  11 -11   40.00    1.50
   1  11 -11   37.82    1.74
   0  11 -11    2.07    0.51
  -1  11 -11    4.72    0.71
  -2  11 -11   20.69    1.27
  -3  11 -11   10.53    1.04
  -4  11 -11    0.90    0.59
   3  10 -11   30.58    1.58
   2  10 -11   26.99    1.46
   1  10 -11    7.36    0.71
   1  10 -11    7.31    0.92
   0  10 -11    2.83    0.56
   0  10 -11    2.73    0.73
  -1  10 -11   18.55    1.11
  -2  10 -11   38.80    1.61
  -3  10 -11    3.08    0.70
  -4  10 -11    1.79    0.63
   3   9 -11   16.98    1.22
   2   9 -11    9.34    1.06
   1   9 -11    2.76    0.50
   1   9 -11    4.31    0.79
   0   9 -11   26.28    1.40
   0   9 -11   26.44    1.19
  -1   9 -11   30.29    1.31
  -2   9 -11    7.05    0.82
  -3   9 -11    1.58    0.58
  -4   9 -11   11.29    1.10
  -5   9 -11    8.01    1.00
   4   8 -11   38.88    1.76
   3   8 -11    9.60    1.06
   2   8 -11    4.00    0.76
   1   8 -11   39.98    1.38
   1   8 -11   41.88    1.66
   0   8 -11   38.13    1.58
   0   8 -11   37.96    1.39
  -1   8 -11   15.57    0.99
  -2   8 -11    0.40    0.44
  -3   8 -11   22.52    1.29
  -4   8 -11   15.58    1.20
  -5   8 -11    9.42    1.07
   4   7 -11    8.57    0.99
   3   7 -11   -0.35    0.42
   2   7 -11   35.20    1.52
   1   7 -11   62.01    1.99
   1   7 -11   60.33    1.72
   0   7 -11   19.30    1.01
   0   7 -11   19.96    1.17
  -1   7 -11    0.12    0.36
  -2   7 -11   18.61    1.10
  -3   7 -11   28.79    1.41
  -4   7 -11    5.46    0.82
  -5   7 -11    0.56    0.57
   4   6 -11    1.13    0.57
   3   6 -11   23.34    1.27
   2   6 -11   63.82    2.03
   2   6 -11   61.44    1.68
   1   6 -11   33.07    1.24
   1   6 -11   36.73    1.47
   0   6 -11    0.43    0.45
   0   6 -11    0.67    0.37
  -1   6 -11   21.21    1.12
  -2   6 -11   61.95    1.97
  -3   6 -11    3.08    0.69
  -4   6 -11    0.19    0.51
  -5   6 -11    5.01    0.84
   5   5 -11   -0.04    0.52
  -5  -5  11   -0.28    0.47
   4   5 -11   17.32    1.18
   3   5 -11   47.26    1.73
   2   5 -11   27.25    1.31
   2   5 -11   24.03    1.00
   1   5 -11    0.51    0.33
   1   5 -11    0.64    0.45
   0   5 -11    8.00    0.75
   0   5 -11    9.11    0.91
  -1   5 -11   61.23    1.89
  -2   5 -11   50.31    1.77
  -3   5 -11   -0.11    0.45
  -4   5 -11    5.56    0.84
  -5   5 -11   14.78    1.94
   5   4 -11   16.36    1.23
  -5  -4  11   15.92    1.09
   4   4 -11   39.01    1.59
   3   4 -11   19.37    1.13
   2   4 -11    0.82    0.50
   2   4 -11    1.04    0.35
   1   4 -11   17.97    0.98
   1   4 -11   17.07    1.05
   0   4 -11   23.61    1.16
  -1   4 -11   43.38    1.61
  -2   4 -11    0.65    0.50
  -3   4 -11    4.27    0.76
  -4   4 -11   18.19    1.26
   4  -4  11   18.13    1.60
   5   3 -11   37.89    1.63
  -5  -3  11   35.78    1.47
   4   3 -11   41.93    1.61
  -4  -3  11   36.63    1.36
   3   3 -11    0.28    0.43
   2   3 -11   34.11    1.27
   2   3 -11   33.60    1.38
   1   3 -11   60.22    1.85
   1   3 -11   59.62    1.80
   0   3 -11   31.47    1.35
  -1   3 -11    7.20    0.84
  -2   3 -11   11.27    1.01
  -3   3 -11   24.31    1.38
  -4   3 -11   18.11    1.28
   4  -3  11   15.17    1.50
  -6  -2  11   15.98    1.36
   5   2 -11   25.24    1.33
  -5  -2  11   21.30    1.25
   4   2 -11    4.60    0.71
  -4  -2  11    4.31    0.64
   3   2 -11   15.33    0.99
   2   2 -11   84.34    2.24
   2   2 -11   81.18    2.17
   1   2 -11   40.36    1.51
   1   2 -11   44.93    1.52
   0   2 -11   19.14    1.10
  -1   2 -11   13.21    1.02
  -2   2 -11   19.43    1.22
  -3   2 -11   22.45    1.36
  -4   2 -11    3.83    0.81
   4  -2  11    3.49    1.02
  -6  -1  11   12.40    1.17
   5   1 -11    3.68    0.71
  -5  -1  11    2.42    0.68
   4   1 -11    3.83    0.67
  -4  -1  11    4.09    0.67
   3   1 -11   40.02    1.51
  -3  -1  11   39.77    1.41
   2   1 -11   60.99    1.81
   2   1 -11   59.45    1.86
   1   1 -11    1.53    0.48
   1   1 -11    1.98    0.54
   0   1 -11    5.06    0.76
  -1   1 -11   30.29    1.41
  -2   1 -11   17.79    1.23
  -3   1 -11    2.84    0.73
   3  -1  11    3.34    0.86
  -4   1 -11    1.05    0.66
   4  -1  11    1.21    0.89
   6   0 -11    2.78    0.73
  -6   0  11    0.28    0.96
   5   0 -11    4.35    0.75
  -5   0  11    2.83    0.71
   4   0 -11   22.12    1.19
  -4   0  11   22.16    1.22
   3   0 -11   36.63    1.40
  -3   0  11   33.02    1.32
   2   0 -11    7.50    0.85
   2   0 -11    4.83    0.65
   1   0 -11    0.55    0.46
   1   0 -11    0.64    0.42
   0   0 -11   47.71    1.76
  -1   0 -11   30.66    1.49
  -2   0 -11    1.74    0.65
  -3   0 -11    2.10    0.71
  -4   0 -11    7.88    1.04
   6  -1 -11    3.49    0.77
   5  -1 -11   20.74    1.22
  -5   1  11   23.48    1.41
   4  -1 -11   26.78    1.27
  -4   1  11   29.45    1.41
   3  -1 -11    5.83    0.76
   3  -1 -11    4.36    0.63
  -3   1  11    4.40    0.68
   2  -1 -11    9.30    0.83
   2  -1 -11    9.45    0.94
   1  -1 -11   19.91    1.20
   0  -1 -11   37.99    1.65
  -1  -1 -11    7.17    0.93
  -2  -1 -11    4.98    0.87
  -3  -1 -11    8.86    1.05
  -5   2  11   20.85    1.44
  -4   2  11    9.28    0.99
   3  -2 -11    3.03    0.64
  -3   2  11    4.45    0.68
   2  -2 -11   24.43    1.35
  -2   2  11   24.51    1.13
   1  -2 -11   62.56    2.11
   0  -2 -11   13.09    1.13
  -1  -2 -11    0.79    0.61
  -2  -2 -11   14.98    1.33
  -3  -2 -11   14.69    1.36
  -5   3  11    7.71    1.04
  -4   3  11    2.18    0.67
   3  -3 -11   20.46    1.30
  -3   3  11   20.07    1.19
   2  -3 -11   25.88    1.46
  -2   3  11   27.24    1.20
   1  -3 -11   12.53    1.23
   0  -3 -11   -0.09    0.58
  -1  -3 -11   13.56    1.28
  -2  -3 -11   19.81    1.49
  -5   4  11    0.14    0.67
  -4   4  11   14.13    1.22
   3  -4 -11   14.75    1.30
  -3   4  11   17.64    1.18
   2  -4 -11   17.33    1.38
  -2   4  11   17.25    1.05
   1  -4 -11    1.58    0.71
   0  -4 -11    9.40    1.18
  -1  -4 -11   14.24    1.38
  -2  -4 -11    3.10    1.01
  -4   5  11   19.63    1.38
   3  -5 -11    8.84    1.12
  -3   5  11   10.05    0.97
   2  -5 -11   -0.50    0.67
  -2   5  11    0.48    0.43
   1  -5 -11    7.49    1.10
   0  -5 -11   15.51    1.46
  -4   6  11    2.71    1.18
   3  -6 -11    0.73    0.80
  -3   6  11    1.32    0.59
   2  -6 -11   11.51    1.37
  -2   6  11   14.85    1.13
   1  -6 -11   10.60    1.35
  -1   6  11   14.06    1.58
  -2   7  11   15.54    1.18
   0  13 -12    7.83    0.92
   1  12 -12    8.13    1.07
   0  12 -12   17.99    1.18
  -1  12 -12   10.77    1.00
  -2  12 -12    0.63    0.54
   2  11 -12    7.99    1.10
   1  11 -12   23.37    1.19
   1  11 -12   22.40    1.48
   0  11 -12   16.80    1.09
  -1  11 -12    1.15    0.51
  -3  11 -12   15.18    1.25
   3  10 -12    5.62    1.07
   2  10 -12   22.53    1.45
   1  10 -12   22.46    1.13
   1  10 -12   21.07    1.38
   0  10 -12    2.81    0.57
  -1  10 -12    4.27    0.70
  -2  10 -12   19.87    1.27
  -3  10 -12   15.83    1.19
  -4  10 -12    0.76    0.77
   3   9 -12   27.36    1.57
   2   9 -12   17.89    1.26
   1   9 -12    3.38    0.80
   0   9 -12    8.88    0.90
  -1   9 -12   12.47    0.96
  -2   9 -12   20.98    1.23
  -3   9 -12    5.39    0.81
  -4   9 -12    2.06    0.69
   3   8 -12   27.12    1.48
   2   8 -12    7.73    0.94
   1   8 -12    5.29    0.82
   1   8 -12    5.95    0.69
   0   8 -12   34.37    1.39
  -1   8 -12   14.01    1.02
  -2   8 -12    5.98    0.82
  -3   8 -12    1.56    0.59
  -4   8 -12   13.52    1.24
   4   7 -12   30.92    1.59
   3   7 -12    8.77    1.05
   2   7 -12    1.11    0.61
   1   7 -12   65.30    2.11
   1   7 -12   61.78    1.84
   0   7 -12   30.52    1.31
  -1   7 -12    8.59    0.88
  -2   7 -12    0.99    0.51
  -3   7 -12   11.27    1.10
  -4   7 -12   12.94    1.23
   4   6 -12   13.10    1.26
   3   6 -12    2.68    0.68
   2   6 -12   21.59    1.25
   1   6 -12   67.47    2.12
   1   6 -12   66.16    1.93
   0   6 -12   14.05    0.94
  -1   6 -12    0.01    0.40
  -2   6 -12   30.00    1.46
  -3   6 -12   21.69    1.33
  -4   6 -12    2.70    0.74
   4   5 -12    0.16    0.51
   3   5 -12    8.90    1.00
   2   5 -12   38.95    1.57
   2   5 -12   34.61    1.30
   1   5 -12   14.08    0.92
   1   5 -12   13.12    1.02
   0   5 -12    0.18    0.37
  -1   5 -12   14.40    1.04
  -2   5 -12   25.15    1.38
  -3   5 -12    4.40    0.79
  -4   5 -12   -0.17    0.51
   5   4 -12    0.36    0.70
   4   4 -12   38.90    1.67
   3   4 -12   22.90    1.28
   2   4 -12   19.43    1.14
   2   4 -12   17.00    0.94
   1   4 -12    0.62    0.41
   1   4 -12    0.38    0.47
   0   4 -12   11.08    0.94
  -1   4 -12   35.62    1.53
  -2   4 -12   13.76    1.10
  -3   4 -12    0.54    0.54
  -4   4 -12    5.94    0.93
   4  -4  12    5.33    1.22
   5   3 -12   15.37    1.24
   4   3 -12   31.11    1.48
   3   3 -12   19.40    1.15
   2   3 -12    0.55    0.49
   2   3 -12    0.35    0.36
   1   3 -12   36.10    1.46
   1   3 -12   36.80    1.46
   0   3 -12   36.53    1.51
  -1   3 -12   18.70    1.21
  -2   3 -12    0.09    0.49
  -3   3 -12    5.39    0.86
  -4   3 -12   17.36    1.36
   4  -3  12   11.76    1.41
   5   2 -12   30.18    1.51
   4   2 -12   11.41    1.04
   3   2 -12    0.98    0.54
   2   2 -12   18.34    1.11
   2   2 -12   17.64    1.04
   1   2 -12   39.64    1.58
   1   2 -12   40.92    1.52
   0   2 -12   19.45    1.19
  -1   2 -12    2.18    0.62
  -2   2 -12    6.84    0.91
  -3   2 -12   17.22    1.32
  -4   2 -12    6.68    1.01
   4  -2  12    7.25    1.25
   5   1 -12   15.89    1.19
  -5  -1  12   14.18    1.23
   4   1 -12    0.20    0.48
   3   1 -12   13.15    1.02
   2   1 -12   36.31    1.45
   2   1 -12   35.55    1.49
   1   1 -12   26.81    1.37
   1   1 -12   27.52    1.24
   0   1 -12    3.81    0.74
  -1   1 -12    7.88    0.96
  -2   1 -12   21.18    1.36
  -3   1 -12   10.49    1.14
   3  -1  12    9.85    1.21
  -4   1 -12    0.24    0.64
   5   0 -12    1.26    0.59
  -5   0  12    0.63    0.61
   4   0 -12    7.63    0.91
   3   0 -12   22.81    1.22
   2   0 -12   14.58    1.07
   2   0 -12   15.17    0.99
   1   0 -12    0.07    0.47
   0   0 -12    4.93    0.80
  -1   0 -12   15.74    1.24
  -2   0 -12    9.20    1.08
  -3   0 -12    1.96    0.71
  -5   1  12    6.19    0.96
  -4   1  12   35.34    1.76
   2  -1 -12    1.07    0.55
   1  -1 -12    8.60    1.00
   0  -1 -12   28.42    1.54
  -1  -1 -12   17.16    1.32
  -2  -1 -12    1.17    0.66
  -3  -1 -12    1.67    0.74
  -5   2  12   15.50    1.40
  -4   2  12   15.86    1.23
   3  -2 -12    3.15    0.69
   2  -2 -12    5.13    0.79
   1  -2 -12   38.64    1.74
   0  -2 -12   22.78    1.45
  -1  -2 -12    2.99    0.78
  -2  -2 -12    2.22    0.76
  -5   3  12   12.38    1.31
  -4   3  12    1.41    0.65
   3  -3 -12    2.62    0.69
   2  -3 -12   12.63    1.19
   1  -3 -12   18.39    1.39
   0  -3 -12    1.61    0.70
  -1  -3 -12    2.00    0.79
  -4   4  12    1.21    0.65
   3  -4 -12    9.94    1.13
  -3   4  12   11.49    1.28
   2  -4 -12   24.44    1.57
   1  -4 -12    5.78    0.96
   0  -4 -12    0.75    0.70
   3  -5 -12    8.14    1.15
  -3   5  12   11.66    1.13
   2  -5 -12    4.19    0.98
   0  12 -13    9.10    0.96
  -1  12 -13   17.54    1.39
   1  11 -13    8.71    1.00
   1  11 -13    6.66    1.04
   0  11 -13   22.87    1.27
  -1  11 -13   14.39    1.13
  -2  11 -13    0.78    0.55
   2  10 -13    6.51    1.01
   1  10 -13   13.14    0.96
   1  10 -13   15.40    1.25
   0  10 -13   12.77    1.01
  -1  10 -13    1.14    0.50
  -2  10 -13    3.19    0.70
  -3  10 -13   11.37    1.70
   2   9 -13   24.46    1.48
   1   9 -13   16.94    1.28
   1   9 -13   17.81    1.06
   0   9 -13    0.63    0.43
  -1   9 -13    9.47    0.98
  -2   9 -13   11.40    1.11
  -3   9 -13   14.10    1.25
   3   8 -13   25.62    1.52
   2   8 -13   14.07    1.22
   1   8 -13    0.67    0.59
   1   8 -13    1.17    0.42
   0   8 -13    9.14    0.89
  -2   8 -13   18.59    1.28
  -3   8 -13    0.91    0.62
   3   7 -13   16.99    1.26
   2   7 -13    1.98    0.69
   1   7 -13   12.34    0.93
   1   7 -13   10.31    1.07
   0   7 -13   29.76    1.38
  -1   7 -13   17.24    1.19
  -2   7 -13    1.19    0.60
  -3   7 -13    2.76    0.74
  -4   7 -13    8.17    1.51
   4   6 -13   28.55    1.98
   3   6 -13    8.70    1.04
   2   6 -13    3.58    0.75
   1   6 -13   29.40    1.33
   1   6 -13   30.95    1.48
   0   6 -13   26.20    1.32
  -1   6 -13    8.87    0.96
  -2   6 -13    3.78    0.74
  -3   6 -13    8.71    1.04
  -4   6 -13    9.47    1.39
   4   5 -13    1.78    0.67
   3   5 -13    2.58    0.70
   2   5 -13   21.07    1.15
   2   5 -13   22.10    1.29
   1   5 -13   26.71    1.36
   1   5 -13   24.84    1.25
   0   5 -13    6.57    0.82
  -1   5 -13    0.15    0.46
  -2   5 -13   12.17    1.13
  -3   5 -13   11.37    1.21
  -4   5 -13    2.26    0.91
   4   4 -13    1.96    0.69
   3   4 -13   20.44    1.31
   2   4 -13   30.57    1.34
   2   4 -13   30.62    1.45
   1   4 -13    0.75    0.46
   1   4 -13    0.52    0.52
   0   4 -13    5.05    0.77
  -1   4 -13   25.79    1.43
  -2   4 -13   12.88    1.19
  -3   4 -13    4.57    0.86
   4   3 -13   11.77    1.09
   3   3 -13   30.48    1.50
   2   3 -13   13.28    0.99
   2   3 -13   16.82    1.15
   1   3 -13    3.94    0.69
   1   3 -13    3.53    0.68
   0   3 -13   20.06    1.28
  -1   3 -13   27.89    1.48
  -2   3 -13    5.55    0.90
  -3   3 -13    0.77    0.65
   4   2 -13   16.45    1.18
   3   2 -13   12.88    1.10
   2   2 -13    1.38    0.50
   2   2 -13    1.06    0.54
   1   2 -13   16.55    1.16
   1   2 -13   17.17    1.07
   0   2 -13   34.30    1.60
  -1   2 -13   10.39    1.11
  -2   2 -13    1.45    0.64
  -3   2 -13    6.53    0.97
   5   1 -13   22.07    1.41
   4   1 -13   11.33    1.11
   3   1 -13    0.05    0.48
   2   1 -13   16.91    1.15
   2   1 -13   18.91    1.16
   1   1 -13   21.09    1.29
   0   1 -13   18.41    1.25
  -1   1 -13    1.28    0.60
  -2   1 -13    9.11    1.10
  -3   1 -13   11.13    1.82
   2   0 -13   16.55    1.16
   1   0 -13   11.80    1.09
   0   0 -13    1.58    0.65
  -1   0 -13   12.09    1.16
  -2   0 -13   14.46    1.31
   2  -1 -13    5.26    0.82
   1  -1 -13    3.87    0.78
   0  -1 -13    8.91    1.07
  -1  -1 -13   22.32    1.45
   2  -2 -13    0.79    0.59
   1  -2 -13    3.26    0.81
   0  -2 -13   18.77    1.42
  -1  -2 -13   11.51    1.86
   3  -3 -13    0.97    0.61
   2  -3 -13   16.53    1.30
   1  -3 -13    8.44    1.06
   3  -4 -13    3.66    0.80
   2  -4 -13   12.00    1.82
   0  11 -14    9.48    1.02
   1  10 -14   10.34    0.95
   1  10 -14    7.99    1.10
   0  10 -14   20.65    1.25
  -1  10 -14    3.10    0.70
   2   9 -14    7.65    1.31
   1   9 -14   22.57    1.44
   1   9 -14   19.47    1.16
   0   9 -14    8.58    0.96
  -1   9 -14    0.21    0.48
  -2   9 -14    7.50    0.98
   2   8 -14   16.34    1.29
   1   8 -14   13.47    1.17
   1   8 -14   13.07    0.97
  -1   8 -14    9.45    1.04
  -2   8 -14   16.21    1.25
   3   7 -14   17.90    2.29
   2   7 -14   16.83    1.27
   1   7 -14    0.31    0.60
   1   7 -14    0.75    0.41
   0   7 -14   11.53    1.01
  -1   7 -14   26.53    1.49
  -2   7 -14    9.63    1.14
   3   6 -14   11.93    1.23
   2   6 -14    1.55    0.64
   1   6 -14   10.32    0.95
   1   6 -14    8.96    1.02
   0   6 -14   22.42    1.29
  -1   6 -14   27.13    1.49
  -2   6 -14    1.36    0.65
   3   5 -14    0.57    0.59
   2   5 -14    8.27    1.02
   1   5 -14   20.83    1.28
   1   5 -14   18.16    1.17
   0   5 -14   10.26    1.07
  -1   5 -14    0.52    0.55
  -2   5 -14    1.22    0.63
   3   4 -14    3.66    0.79
   2   4 -14   35.46    1.53
   2   4 -14   36.20    1.65
   1   4 -14   14.17    1.11
   1   4 -14   13.27    1.06
   0   4 -14    0.61    0.51
  -1   4 -14    4.88    0.87
  -2   4 -14   13.88    1.27
   4   3 -14    2.16    0.73
   3   3 -14   23.04    1.36
   2   3 -14   36.42    1.60
   2   3 -14   32.72    1.52
   1   3 -14    2.60    0.65
   0   3 -14    6.62    0.90
  -1   3 -14   16.24    1.28
  -2   3 -14   14.64    1.32
   4   2 -14    9.52    1.07
   3   2 -14   27.42    1.47
   2   2 -14    2.73    0.65
   2   2 -14    4.18    0.76
   1   2 -14    3.42    0.71
   0   2 -14   21.87    1.38
  -1   2 -14   20.74    1.40
  -2   2 -14    5.25    0.99
   4   1 -14   14.66    1.24
   3   1 -14    8.77    1.02
   2   1 -14    1.64    0.59
   2   1 -14    1.40    0.58
   1   1 -14   19.81    1.33
   0   1 -14   22.00    1.40
  -1   1 -14    4.97    0.88
   2   0 -14    8.85    1.02
   1   0 -14   18.37    1.35
   0   0 -14    3.35    0.79
  -1   0 -14    0.14    0.73
   2  -1 -14   24.59    1.47
   1  -1 -14    7.82    1.04
   0  -1 -14    1.51    0.79
   2  -2 -14    8.72    1.06
   1   9 -15   12.39    1.03
   0   9 -15   18.96    1.27
   1   8 -15   18.89    1.20
   1   8 -15   17.08    1.42
   0   8 -15    8.95    1.04
  -1   8 -15    1.29    0.61
   1   7 -15   15.13    1.13
   1   7 -15   13.75    1.28
   0   7 -15    0.11    0.45
  -1   7 -15   20.97    1.42
   2   6 -15    9.20    1.12
   1   6 -15    0.35    0.62
   1   6 -15    1.25    0.58
   0   6 -15   10.22    1.12
  -1   6 -15   17.74    1.36
   2   5 -15    0.93    0.69
   1   5 -15    6.01    0.88
   0   5 -15   19.89    1.35
  -1   5 -15    7.16    1.01
   3   4 -15   -0.09    0.58
   2   4 -15    7.52    1.02
   1   4 -15   28.30    1.52
   0   4 -15    9.30    1.07
  -1   4 -15   -0.17    0.53
   3   3 -15    2.56    0.76
   2   3 -15   20.60    1.30
   2   3 -15   20.47    1.30
   1   3 -15   15.62    1.24
   0   3 -15    1.99    0.68
  -1   3 -15    4.17    1.32
   3   2 -15   15.61    1.23
   2   2 -15   22.50    1.42
   2   2 -15   20.99    1.36
   1   2 -15    1.63    0.66
   0   2 -15    3.55    0.79
   2   1 -15    2.38    0.66
   1   1 -15    1.87    0.67
   2   0 -15    3.62    0.80
   1   7 -16   14.25    1.18
   1   6 -16   10.33    1.17
   1   5 -16    0.62    0.54
   1   4 -16    7.31    0.99
   0   0   0    0.00    0.00
;
_shelx_hkl_checksum              17132
loop_
_space_group_symop_operation_xyz
'x, y, z'
'-x, -y, -z'
loop_
_atom_site_label
_atom_site_type_symbol
_atom_site_fract_x
_atom_site_fract_y
_atom_site_fract_z
_atom_site_U_iso_or_equiv
_atom_site_adp_type
_atom_site_occupancy
_atom_site_site_symmetry_order
_atom_site_calc_flag
_atom_site_refinement_flags_posn
_atom_site_refinement_flags_adp
_atom_site_refinement_flags_occupancy
_atom_site_disorder_assembly
_atom_site_disorder_group
Tb1 Tb 0.87689(4) 0.38632(2) 0.59654(2) 0.02540(13) Uani 1 1 d . . . . .
O1W O 1.2515(7) 0.5118(4) 0.6910(4) 0.0378(10) Uani 1 1 d . . . . .
H1WA H 1.3382 0.5335 0.6424 0.057 Uiso 1 1 d R U . . .
H1WB H 1.3272 0.4716 0.7233 0.057 Uiso 1 1 d R U . . .
O2 O 0.8920(7) 0.4063(5) 0.8008(4) 0.0441(11) Uani 1 1 d . . . . .
O2W O 1.0855(9) 0.2365(5) 0.6010(5) 0.0542(14) Uani 1 1 d . . . . .
H2WA H 1.0109 0.1859 0.6304 0.081 Uiso 1 1 d R U . . .
H2WB H 1.2217 0.2750 0.6423 0.081 Uiso 1 1 d R U . . .
O3 O 0.5657(8) 0.2954(4) 0.6819(4) 0.0430(11) Uani 1 1 d . . . . .
O4 O -0.6469(8) -0.1840(4) 0.5522(5) 0.0480(12) Uani 1 1 d . . . . .
O5 O -0.5419(7) -0.3535(3) 0.5400(4) 0.0323(9) Uani 1 1 d . . . . .
O6 O -0.0654(7) -0.3956(4) 0.5597(4) 0.0340(10) Uani 1 1 d . . . . .
O7 O -0.2447(8) -0.4276(4) 0.6968(4) 0.0349(10) Uani 1 1 d . . . . .
N1 N 0.5836(15) 0.3680(7) 1.0790(6) 0.085(3) Uani 1 1 d . U . . .
O1 O -0.020(2) 0.1550(10) 0.9084(11) 0.042(4) Uani 0.381(7) 1 d . . P A 1
C1 C 0.308(3) 0.3029(15) 1.0431(16) 0.042(5) Uani 0.381(7) 1 d . . P A 1
H1 H 0.2134 0.3146 1.0996 0.051 Uiso 0.381(7) 1 calc R U P A 1
C2 C 0.206(3) 0.2290(14) 0.9288(15) 0.033(4) Uani 0.381(7) 1 d . . P A 1
C3 C 0.328(4) 0.2389(16) 0.8415(16) 0.038(4) Uani 0.381(7) 1 d . . P A 1
H3 H 0.2588 0.2008 0.7647 0.045 Uiso 0.381(7) 1 calc R U P A 1
O1A O 0.2316(13) 0.0528(7) 0.9417(6) 0.042(2) Uani 0.619(7) 1 d . . P A 2
C1A C 0.4568(19) 0.2509(11) 1.0613(9) 0.040(3) Uani 0.619(7) 1 d . . P A 2
H1A H 0.4312 0.2262 1.1231 0.048 Uiso 0.619(7) 1 calc R U P A 2
C2A C 0.3660(16) 0.1685(9) 0.9513(8) 0.029(2) Uani 0.619(7) 1 d . . P A 2
C3A C 0.4331(19) 0.1998(10) 0.8598(8) 0.028(2) Uani 0.619(7) 1 d . . P A 2
H3A H 0.3768 0.1421 0.7851 0.034 Uiso 0.619(7) 1 calc R U P A 2
C4 C 0.5823(13) 0.3152(6) 0.8777(6) 0.0451(18) Uani 1 1 d . . . . .
C5 C 0.6722(13) 0.3889(6) 0.9919(6) 0.053(2) Uani 1 1 d . . . . .
H5 H 0.8021 0.4569 1.0081 0.063 Uiso 1 1 calc R U . . .
C6 C -0.0852(17) 0.0378(7) 0.8244(8) 0.063(3) Uani 1 1 d . . . . .
H6 H -0.0680 0.1228 0.8653 0.075 Uiso 0.619(7) 1 calc R U P A 2
C7 C -0.2720(13) -0.0326(6) 0.7355(8) 0.054(2) Uani 1 1 d . . . . .
H7 H -0.3779 0.0067 0.7154 0.065 Uiso 1 1 calc R U . . .
C8 C -0.3029(10) -0.1607(5) 0.6762(5) 0.0317(14) Uani 1 1 d . . . . .
C9 C -0.1371(10) -0.2181(5) 0.7045(5) 0.0288(13) Uani 1 1 d . . . . .
C10 C 0.0471(12) -0.1454(6) 0.7922(6) 0.0412(16) Uani 1 1 d . . . . .
H10 H 0.1569 -0.1826 0.8122 0.049 Uiso 1 1 calc R U . . .
C11 C 0.0720(16) -0.0209(7) 0.8499(6) 0.059(2) Uani 1 1 d . . . . .
H11 H 0.1990 0.0253 0.9082 0.070 Uiso 0.381(7) 1 calc R U P A 1
C12 C 0.6882(11) 0.3421(6) 0.7826(6) 0.0328(14) Uani 1 1 d . . . . .
C13 C -0.5087(10) -0.2365(5) 0.5849(6) 0.0313(14) Uani 1 1 d . . . . .
C14 C -0.1550(9) -0.3544(5) 0.6484(5) 0.0263(12) Uani 1 1 d . . . . .
O3W O 0.239(3) 0.0172(15) 0.5381(15) 0.183(5) Uani 1 1 d G U . . .
H3WA H 0.1689 -0.0060 0.5868 0.275 Uiso 1 1 d G U . . .
H3WB H 0.3265 -0.0299 0.5112 0.275 Uiso 1 1 d G U . . .
loop_
_atom_site_aniso_label
_atom_site_aniso_U_11
_atom_site_aniso_U_22
_atom_site_aniso_U_33
_atom_site_aniso_U_23
_atom_site_aniso_U_13
_atom_site_aniso_U_12
Tb1 0.02367(18) 0.02584(18) 0.02573(19) 0.01038(13) 0.00802(12) 0.00235(12)
O1W 0.026(2) 0.048(3) 0.039(3) 0.021(2) 0.0085(19) 0.0006(19)
O2 0.029(2) 0.061(3) 0.038(3) 0.024(2) 0.005(2) -0.005(2)
O2W 0.040(3) 0.041(3) 0.079(4) 0.023(3) 0.000(3) 0.008(2)
O3 0.034(2) 0.053(3) 0.034(3) 0.018(2) 0.004(2) -0.007(2)
O4 0.044(3) 0.031(2) 0.065(3) 0.010(2) 0.001(2) 0.014(2)
O5 0.031(2) 0.020(2) 0.040(3) 0.0081(18) 0.0030(18) 0.0028(17)
O6 0.031(2) 0.037(2) 0.028(2) 0.0051(19) 0.0113(19) 0.0061(19)
O7 0.041(2) 0.032(2) 0.034(2) 0.0144(19) 0.013(2) 0.0069(19)
N1 0.107(5) 0.065(4) 0.039(4) -0.001(3) 0.030(4) -0.034(4)
O1 0.042(7) 0.022(6) 0.046(8) -0.003(5) 0.020(6) -0.004(5)
C1 0.044(11) 0.027(9) 0.035(10) -0.003(7) 0.015(8) -0.008(8)
C2 0.029(8) 0.022(8) 0.037(10) 0.008(7) 0.003(7) -0.008(6)
C3 0.046(12) 0.030(9) 0.030(10) 0.012(8) 0.011(9) -0.007(8)
O1A 0.048(5) 0.036(4) 0.026(4) 0.014(3) -0.011(3) -0.018(3)
C1A 0.036(6) 0.047(7) 0.021(5) 0.009(5) 0.006(4) -0.014(5)
C2A 0.023(5) 0.025(5) 0.024(5) 0.001(4) -0.003(4) -0.009(4)
C3A 0.032(6) 0.030(5) 0.015(5) 0.006(4) -0.001(4) 0.001(5)
C4 0.052(4) 0.036(4) 0.035(4) 0.009(3) 0.016(3) -0.009(3)
C5 0.061(5) 0.039(4) 0.037(4) 0.007(3) 0.015(3) -0.018(3)
C6 0.071(6) 0.026(4) 0.057(5) -0.012(4) 0.033(5) -0.015(4)
C7 0.045(4) 0.027(3) 0.078(6) 0.005(4) 0.022(4) 0.003(3)
C8 0.034(3) 0.017(3) 0.035(3) 0.002(3) 0.012(3) 0.000(2)
C9 0.028(3) 0.029(3) 0.022(3) 0.004(2) 0.014(2) -0.001(2)
C10 0.040(4) 0.038(4) 0.034(4) 0.010(3) 0.004(3) -0.008(3)
C11 0.066(5) 0.044(4) 0.030(4) -0.003(3) 0.016(4) -0.029(4)
C12 0.033(3) 0.033(3) 0.034(4) 0.017(3) 0.011(3) 0.003(3)
C13 0.029(3) 0.029(3) 0.037(4) 0.012(3) 0.014(3) 0.006(3)
C14 0.020(3) 0.029(3) 0.029(3) 0.010(3) 0.005(2) 0.006(2)
O3W 0.185(5) 0.181(5) 0.185(5) 0.069(3) 0.030(2) 0.050(2)
loop_
_atom_type_symbol
_atom_type_description
_atom_type_scat_dispersion_real
_atom_type_scat_dispersion_imag
_atom_type_scat_source
C C 0.0033 0.0016 'International Tables Vol C Tables 4.2.6.8 and 6.1.1.4'
H H 0.0000 0.0000 'International Tables Vol C Tables 4.2.6.8 and 6.1.1.4'
N N 0.0061 0.0033 'International Tables Vol C Tables 4.2.6.8 and 6.1.1.4'
O O 0.0106 0.0060 'International Tables Vol C Tables 4.2.6.8 and 6.1.1.4'
Tb Tb -0.1723 4.1537 'International Tables Vol C Tables 4.2.6.8 and 6.1.1.4'
loop_
_geom_angle_atom_site_label_1
_geom_angle_atom_site_label_2
_geom_angle_atom_site_label_3
_geom_angle
_geom_angle_site_symmetry_1
_geom_angle_site_symmetry_3
O1W Tb1 O6 78.68(15) . 2_656
O1W Tb1 O2W 76.56(17) . .
O6 Tb1 O2W 85.04(17) 2_656 .
O1W Tb1 O5 147.02(15) . 2_556
O6 Tb1 O5 80.95(15) 2_656 2_556
O2W Tb1 O5 127.09(16) . 2_556
O1W Tb1 O7 84.30(15) . 1_665
O6 Tb1 O7 114.46(14) 2_656 1_665
O2W Tb1 O7 149.50(19) . 1_665
O5 Tb1 O7 80.88(14) 2_556 1_665
O1W Tb1 O3 126.74(15) . .
O6 Tb1 O3 153.05(16) 2_656 .
O2W Tb1 O3 92.15(18) . .
O5 Tb1 O3 79.48(15) 2_556 .
O7 Tb1 O3 80.42(15) 1_665 .
O1W Tb1 O4 145.69(16) . 2_556
O6 Tb1 O4 80.86(16) 2_656 2_556
O2W Tb1 O4 74.47(17) . 2_556
O5 Tb1 O4 53.05(14) 2_556 2_556
O7 Tb1 O4 129.48(15) 1_665 2_556
O3 Tb1 O4 72.59(17) . 2_556
O1W Tb1 O2 73.82(14) . .
O6 Tb1 O2 150.67(15) 2_656 .
O2W Tb1 O2 78.93(19) . .
O5 Tb1 O2 128.21(14) 2_556 .
O7 Tb1 O2 72.99(16) 1_665 .
O3 Tb1 O2 52.92(14) . .
O4 Tb1 O2 117.43(16) 2_556 .
O1W Tb1 O6 73.35(14) . 1_665
O6 Tb1 O6 64.42(15) 2_656 1_665
O2W Tb1 O6 140.43(16) . 1_665
O5 Tb1 O6 74.53(13) 2_556 1_665
O7 Tb1 O6 50.06(13) 1_665 1_665
O3 Tb1 O6 126.52(15) . 1_665
O4 Tb1 O6 120.95(15) 2_556 1_665
O2 Tb1 O6 115.65(14) . 1_665
O1W Tb1 C13 159.18(17) . 2_556
O6 Tb1 C13 80.52(16) 2_656 2_556
O2W Tb1 C13 101.00(18) . 2_556
O5 Tb1 C13 26.42(15) 2_556 2_556
O7 Tb1 C13 105.10(16) 1_665 2_556
O3 Tb1 C13 73.72(16) . 2_556
O4 Tb1 C13 26.65(16) 2_556 2_556
O2 Tb1 C13 126.45(15) . 2_556
O6 Tb1 C13 98.18(15) 1_665 2_556
O1W Tb1 C12 99.77(17) . .
O6 Tb1 C12 170.09(16) 2_656 .
O2W Tb1 C12 85.09(19) . .
O5 Tb1 C12 104.50(17) 2_556 .
O7 Tb1 C12 74.90(16) 1_665 .
O3 Tb1 C12 26.97(17) . .
O4 Tb1 C12 95.70(18) 2_556 .
O2 Tb1 C12 25.95(16) . .
O6 Tb1 C12 124.75(16) 1_665 .
C13 Tb1 C12 100.61(18) 2_556 .
O1W Tb1 C14 75.73(16) . 1_665
O6 Tb1 C14 89.74(15) 2_656 1_665
O2W Tb1 C14 152.30(16) . 1_665
O5 Tb1 C14 78.53(14) 2_556 1_665
O7 Tb1 C14 24.87(15) 1_665 1_665
O3 Tb1 C14 104.23(16) . 1_665
O4 Tb1 C14 131.50(16) 2_556 1_665
O2 Tb1 C14 93.16(16) . 1_665
O6 Tb1 C14 25.36(14) 1_665 1_665
C13 Tb1 C14 104.94(17) 2_556 1_665
C12 Tb1 C14 99.40(16) . 1_665
Tb1 O1W H1WA 111.4 . .
Tb1 O1W H1WB 111.5 . .
H1WA O1W H1WB 107.3 . .
C12 O2 Tb1 92.2(4) . .
Tb1 O2W H2WA 110.2 . .
Tb1 O2W H2WB 109.8 . .
H2WA O2W H2WB 108.8 . .
C12 O3 Tb1 93.6(3) . .
C13 O4 Tb1 91.6(4) . 2_556
C13 O5 Tb1 95.0(4) . 2_556
C14 O6 Tb1 156.6(4) . 2_656
C14 O6 Tb1 87.6(3) . 1_445
Tb1 O6 Tb1 115.58(15) 2_656 1_445
C14 O7 Tb1 101.5(3) . 1_445
C5 N1 C1A 118.2(7) . .
C5 N1 C1 110.4(10) . .
C6 O1 C2 120.3(11) . .
C2 C1 N1 121.7(14) . .
C2 C1 H1 119.2 . .
N1 C1 H1 119.2 . .
O1 C2 C3 122.8(16) . .
O1 C2 C1 117.8(15) . .
C3 C2 C1 119.2(15) . .
C2 C3 C4 116.5(15) . .
C2 C3 H3 121.7 . .
C4 C3 H3 121.7 . .
C11 O1A C2A 122.4(8) . .
N1 C1A C2A 119.3(9) . .
N1 C1A H1A 120.4 . .
C2A C1A H1A 120.4 . .
C1A C2A O1A 115.3(9) . .
C1A C2A C3A 119.7(9) . .
O1A C2A C3A 124.7(8) . .
C4 C3A C2A 120.9(8) . .
C4 C3A H3A 119.6 . .
C2A C3A H3A 119.6 . .
C3A C4 C5 114.7(7) . .
C3A C4 C12 121.4(7) . .
C5 C4 C12 121.7(6) . .
C5 C4 C3 121.0(9) . .
C12 C4 C3 113.2(9) . .
N1 C5 C4 123.6(7) . .
N1 C5 H5 118.2 . .
C4 C5 H5 118.2 . .
O1 C6 C11 104.3(10) . .
O1 C6 C7 136.8(11) . .
C11 C6 C7 118.4(7) . .
C11 C6 H6 120.8 . .
C7 C6 H6 120.8 . .
C8 C7 C6 121.1(8) . .
C8 C7 H7 119.5 . .
C6 C7 H7 119.5 . .
C7 C8 C9 119.0(6) . .
C7 C8 C13 120.8(6) . .
C9 C8 C13 120.2(5) . .
C10 C9 C8 118.4(6) . .
C10 C9 C14 118.0(6) . .
C8 C9 C14 123.5(5) . .
C11 C10 C9 121.6(8) . .
C11 C10 H10 119.2 . .
C9 C10 H10 119.2 . .
O1A C11 C10 125.2(10) . .
O1A C11 C6 113.0(8) . .
C10 C11 C6 121.4(8) . .
C10 C11 H11 119.3 . .
C6 C11 H11 119.3 . .
O2 C12 O3 121.3(6) . .
O2 C12 C4 120.0(6) . .
O3 C12 C4 118.7(6) . .
O2 C12 Tb1 61.9(3) . .
O3 C12 Tb1 59.4(3) . .
C4 C12 Tb1 178.0(5) . .
O5 C13 O4 120.3(6) . .
O5 C13 C8 119.2(6) . .
O4 C13 C8 120.5(5) . .
O5 C13 Tb1 58.6(3) . 2_556
O4 C13 Tb1 61.7(3) . 2_556
C8 C13 Tb1 176.2(4) . 2_556
O6 C14 O7 120.0(5) . .
O6 C14 C9 121.1(5) . .
O7 C14 C9 118.6(5) . .
O6 C14 Tb1 67.0(3) . 1_445
O7 C14 Tb1 53.6(3) . 1_445
C9 C14 Tb1 164.9(4) . 1_445
H3WA O3W H3WB 109.5 . .
loop_
_geom_bond_atom_site_label_1
_geom_bond_atom_site_label_2
_geom_bond_distance
_geom_bond_site_symmetry_2
Tb1 O1W 2.344(4) .
Tb1 O6 2.353(4) 2_656
Tb1 O2W 2.388(5) .
Tb1 O5 2.406(4) 2_556
Tb1 O7 2.417(4) 1_665
Tb1 O3 2.432(4) .
Tb1 O4 2.474(5) 2_556
Tb1 O2 2.488(5) .
Tb1 O6 2.711(4) 1_665
Tb1 C13 2.808(6) 2_556
Tb1 C12 2.820(6) .
Tb1 C14 2.942(6) 1_665
O1W H1WA 0.8926 .
O1W H1WB 0.8921 .
O2 C12 1.235(7) .
O2W H2WA 0.8626 .
O2W H2WB 0.8627 .
O3 C12 1.281(8) .
O4 C13 1.260(8) .
O4 Tb1 2.474(5) 2_556
O5 C13 1.254(7) .
O5 Tb1 2.406(4) 2_556
O6 C14 1.261(7) .
O6 Tb1 2.353(4) 2_656
O6 Tb1 2.711(4) 1_445
O7 C14 1.263(7) .
O7 Tb1 2.417(4) 1_445
N1 C5 1.322(9) .
N1 C1A 1.345(12) .
N1 C1 1.61(2) .
O1 C6 1.363(12) .
O1 C2 1.380(19) .
C1 C2 1.40(2) .
C1 H1 0.9300 .
C2 C3 1.38(2) .
C3 C4 1.52(2) .
C3 H3 0.9300 .
O1A C11 1.328(10) .
O1A C2A 1.374(12) .
C1A C2A 1.369(14) .
C1A H1A 0.9300 .
C2A C3A 1.381(14) .
C3A C4 1.377(12) .
C3A H3A 0.9300 .
C4 C5 1.385(10) .
C4 C12 1.485(9) .
C5 H5 0.9300 .
C6 C11 1.364(13) .
C6 C7 1.393(13) .
C6 H6 0.9300 .
C7 C8 1.392(9) .
C7 H7 0.9300 .
C8 C9 1.406(9) .
C8 C13 1.488(9) .
C9 C10 1.380(9) .
C9 C14 1.486(8) .
C10 C11 1.358(11) .
C10 H10 0.9300 .
C11 H11 0.9300 .
C13 Tb1 2.808(6) 2_556
C14 Tb1 2.942(6) 1_445
O3W H3WA 0.8503 .
O3W H3WB 0.8500 .
loop_
_geom_torsion_atom_site_label_1
_geom_torsion_atom_site_label_2
_geom_torsion_atom_site_label_3
_geom_torsion_atom_site_label_4
_geom_torsion
_geom_torsion_site_symmetry_1
_geom_torsion_site_symmetry_4
C5 N1 C1 C2 27(2) . .
C6 O1 C2 C3 42(2) . .
C6 O1 C2 C1 -142.0(16) . .
N1 C1 C2 O1 166.2(14) . .
N1 C1 C2 C3 -18(3) . .
O1 C2 C3 C4 -174.9(14) . .
C1 C2 C3 C4 9(3) . .
C5 N1 C1A C2A -19.1(18) . .
N1 C1A C2A O1A -177.6(10) . .
N1 C1A C2A C3A 9.5(18) . .
C11 O1A C2A C1A 157.2(10) . .
C11 O1A C2A C3A -30.3(16) . .
C1A C2A C3A C4 -2.9(18) . .
O1A C2A C3A C4 -175.2(10) . .
C2A C3A C4 C5 5.7(15) . .
C2A C3A C4 C12 169.3(9) . .
C2 C3 C4 C5 -11(2) . .
C2 C3 C4 C12 -168.9(14) . .
C1A N1 C5 C4 23.3(16) . .
C1 N1 C5 C4 -29.7(14) . .
C3A C4 C5 N1 -16.3(14) . .
C12 C4 C5 N1 -179.8(8) . .
C3 C4 C5 N1 24.5(16) . .
C2 O1 C6 C11 54.2(16) . .
C2 O1 C6 C7 -134.2(14) . .
O1 C6 C7 C8 -168.7(11) . .
C11 C6 C7 C8 2.1(12) . .
C6 C7 C8 C9 -2.3(11) . .
C6 C7 C8 C13 177.2(7) . .
C7 C8 C9 C10 1.6(9) . .
C13 C8 C9 C10 -177.9(6) . .
C7 C8 C9 C14 178.8(6) . .
C13 C8 C9 C14 -0.7(9) . .
C8 C9 C10 C11 -0.7(9) . .
C14 C9 C10 C11 -178.1(6) . .
C2A O1A C11 C10 132.3(9) . .
C2A O1A C11 C6 -54.1(12) . .
C9 C10 C11 O1A 173.6(7) . .
C9 C10 C11 C6 0.5(11) . .
C7 C6 C11 O1A -175.0(7) . .
O1 C6 C11 C10 172.4(8) . .
C7 C6 C11 C10 -1.1(12) . .
Tb1 O2 C12 O3 0.7(7) . .
Tb1 O2 C12 C4 179.4(6) . .
Tb1 O3 C12 O2 -0.7(7) . .
Tb1 O3 C12 C4 -179.4(5) . .
C3A C4 C12 O2 -141.9(9) . .
C5 C4 C12 O2 20.5(11) . .
C3 C4 C12 O2 178.0(10) . .
C3A C4 C12 O3 36.8(12) . .
C5 C4 C12 O3 -160.8(7) . .
C3 C4 C12 O3 -3.3(13) . .
Tb1 O5 C13 O4 2.8(6) 2_556 .
Tb1 O5 C13 C8 -176.5(5) 2_556 .
Tb1 O4 C13 O5 -2.7(6) 2_556 .
Tb1 O4 C13 C8 176.6(5) 2_556 .
C7 C8 C13 O5 -174.0(6) . .
C9 C8 C13 O5 5.5(9) . .
C7 C8 C13 O4 6.7(10) . .
C9 C8 C13 O4 -173.8(6) . .
Tb1 O6 C14 O7 178.7(7) 2_656 .
Tb1 O6 C14 O7 -8.3(5) 1_445 .
Tb1 O6 C14 C9 -7.3(13) 2_656 .
Tb1 O6 C14 C9 165.7(5) 1_445 .
Tb1 O6 C14 Tb1 -173.0(10) 2_656 1_445
Tb1 O7 C14 O6 9.5(6) 1_445 .
Tb1 O7 C14 C9 -164.6(4) 1_445 .
C10 C9 C14 O6 -92.5(7) . .
C8 C9 C14 O6 90.3(7) . .
C10 C9 C14 O7 81.6(7) . .
C8 C9 C14 O7 -95.6(7) . .
C10 C9 C14 Tb1 26.7(17) . 1_445
C8 C9 C14 Tb1 -150.5(12) . 1_445
