#------------------------------------------------------------------------------
#$Date: 2019-11-24 10:05:07 +0200 (Sun, 24 Nov 2019) $
#$Revision: 237569 $
#$URL: file:///home/coder/svn-repositories/cod/cif/7/23/72/7237297.cif $
#------------------------------------------------------------------------------
#
# This file is available in the Crystallography Open Database (COD),
# http://www.crystallography.net/
#
# All data on this site have been placed in the public domain by the
# contributors.
#
data_7237297
loop_
_publ_author_name
'G\'omez, Paula'
'Georgakopoulos, Stamatis'
'Cer\'on, Jos\'e Pedro'
'da Silva, Iv\'an'
'M\'as-Montoya, Miriam'
'P\'erez, Jos\'e'
'T\'arraga, Alberto'
'Curiel, David'
_publ_section_title
;
 Hydrogen-bonded azaphenacene: a strategy for the organization of
 \p-conjugated materials
;
_journal_issue                   15
_journal_name_full               'Journal of Materials Chemistry C'
_journal_page_first              3968
_journal_paper_doi               10.1039/C8TC00840J
_journal_volume                  6
_journal_year                    2018
_chemical_formula_moiety         '	C16 H10 N4'
_chemical_formula_sum            'C16 H10 N4'
_chemical_formula_weight         258.28
_chemical_name_mineral           PGP-4_2
_space_group_IT_number           2
_space_group_name_Hall           '-P 1'
_space_group_name_H-M_alt        'P -1'
_symmetry_cell_setting           triclinic
_symmetry_space_group_name_Hall  '-P 1'
_symmetry_space_group_name_H-M   'P -1'
_audit_update_record
;
2017-06-20 deposited with the CCDC.
2018-03-01 downloaded from the CCDC.
;
_cell_angle_alpha                98.51(2)
_cell_angle_beta                 89.43(4)
_cell_angle_gamma                105.65(3)
_cell_formula_units_Z            1
_cell_length_a                   4.1021(13)
_cell_length_b                   8.259(3)
_cell_length_c                   9.176(2)
_cell_measurement_reflns_used    27
_cell_measurement_temperature    298
_cell_measurement_theta_max      34.8641
_cell_measurement_theta_min      6.0263
_cell_volume                     295.91(16)
_diffrn_ambient_temperature      298
_diffrn_measurement_device_type  'ESRF BM25A Powder Diffractometer'
_diffrn_radiation_type           synchrotron
_diffrn_radiation_wavelength     0.953892
_diffrn_source                   Synchrotron
_exptl_crystal_density_diffrn    1.44928
_pd_meas_scan_method             cont
_pd_proc_ls_prof_R_factor        4.82920737
_pd_proc_ls_prof_wR_expected     5.59388474
_pd_proc_ls_prof_wR_factor       6.60052663
_pd_spec_mounting                'borosilicate capillary'
_pd_spec_mount_mode              transmission
_pd_spec_shape                   cylinder
_refine_ls_goodness_of_fit_all   1.17995399
_refine_ls_R_factor_all          4.12457992
_refine_ls_shift/su_max          0.001
_cod_data_source_file            c8tc00840j2.cif
_cod_data_source_block           PGP-4_2
_cod_original_cell_volume        295.93(15)
_cod_original_sg_symbol_Hall     '	-P 1'
_cod_original_sg_symbol_H-M      P-1
_cod_original_formula_sum        '	C16 H10 N4'
_cod_database_code               7237297
loop_
_symmetry_equiv_pos_as_xyz
'x, y, z '
'-x, -y, -z '
loop_
_atom_site_label
_atom_site_type_symbol
_atom_site_symmetry_multiplicity
_atom_site_fract_x
_atom_site_fract_y
_atom_site_fract_z
_atom_site_occupancy
_atom_site_B_iso_or_equiv
C1 C 2 0.2296(11) 0.3164(11) 0.5618(7) 1 3.26(12)
N2 N 2 0.3139(16) 0.171(2) 0.5541(7) 1 3.26(12)
C3 C 2 0.370(2) 0.129(2) 0.6835(19) 1 3.26(12)
C4 C 2 0.347(2) 0.223(2) 0.822(3) 1 3.26(12)
C5 C 2 0.259(3) 0.374(4) 0.824(3) 1 3.26(12)
C6 C 2 0.199(3) 0.421(4) 0.690(4) 1 3.26(12)
N7 N 2 0.460(3) -0.016(4) 0.702(2) 1 3.26(12)
C8 C 2 0.497(3) -0.018(4) 0.850(4) 1 3.26(12)
C9 C 2 0.429(3) 0.129(3) 0.930(4) 1 3.26(12)
C13 C 2 0.451(3) 0.154(3) 1.081(5) 1 3.26(12)
H1 H 2 0.1884(18) 0.350(3) 0.4729(16) 1 3.26(12)
H6 H 2 0.139(3) 0.521(4) 0.688(4) 1 3.26(12)
H5 H 2 0.240(3) 0.442(4) 0.913(3) 1 3.26(12)
H7 H 2 0.488(3) -0.092(4) 0.632(2) 1 3.26(12)
H13 H 2 0.408(4) 0.249(3) 1.137(5) 1 3.26(12)
loop_
_geom_angle_atom_site_label_1
_geom_angle_atom_site_label_2
_geom_angle_atom_site_label_3
_geom_angle
_geom_angle_site_symmetry_1
_geom_angle_site_symmetry_3
_geom_angle_publ_flag
C1 N2 C3 114.5(10) . . no
C3 N7 C8 109(2) . . no
N2 C1 C6 125.5(14) . . no
N2 C3 N7 124.5(16) . . no
N2 C3 C4 126.0(14) . . no
N7 C3 C4 109.5(15) . . no
C8 N7 H7 126(3) . . no
C3 N7 H7 125(3) . . no
C3 C4 C9 106.4(17) . . no
C3 C4 C5 117(2) . . no
C5 C4 C9 136(3) . . no
C4 C5 C6 118(3) . . no
C1 C6 C5 119(2) . . no
C9 C8 C13 123(3) . 2_657 no
N7 C8 C9 109(3) . . no
N7 C8 C13 127(3) . 2_657 no
C4 C9 C8 106(3) . . no
C4 C9 C13 134(2) . . no
C8 C9 C13 119(2) . . no
C8 C13 C9 117(3) 2_657 . no
N2 C1 H1 116.9(14) . . no
C6 C1 H1 117.6(19) . . no
C4 C5 H5 121(3) . . no
C6 C5 H5 121(3) . . no
C1 C6 H6 121(4) . . no
C5 C6 H6 120(4) . . no
C9 C13 H13 122(4) . . no
C8 C13 H13 121(5) 2_657 . no
loop_
_geom_bond_atom_site_label_1
_geom_bond_atom_site_label_2
_geom_bond_distance
_geom_bond_site_symmetry_2
_geom_bond_publ_flag
N2 C1 1.329(16) . no
N2 C3 1.324(19) . no
N7 C3 1.38(3) . no
N7 C8 1.37(4) . no
C1 C6 1.38(4) . no
C3 C4 1.40(3) . no
N7 H7 0.86(3) . no
C4 C9 1.44(4) . no
C4 C5 1.39(3) . no
C5 C6 1.39(4) . no
C8 C13 1.43(4) 2_657 no
C8 C9 1.42(4) . no
C9 C13 1.37(6) . no
C1 H1 0.931(18) . no
C5 H5 0.94(4) . no
C6 H6 0.93(4) . no
C13 H13 0.93(4) . no
loop_
_pd_meas_2theta_scan
_pd_proc_intensity_total
_pd_calc_intensity_total
2.99946 761.92483 748.59202
3.00343 773.81657 748.00119
3.00743 768.55252 747.40673
3.01144 796.18757 746.80921
3.01540 772.57353 746.21848
3.01940 776.29224 745.62102
3.02341 757.45129 745.02256
3.02740 761.13211 744.42628
3.03139 757.52352 743.83002
3.03538 759.27705 743.23229
3.03939 767.73692 742.63252
3.04338 754.41091 742.03389
3.04737 775.41022 741.43481
3.05139 745.50386 740.83266
3.05535 779.51636 740.23749
3.05934 764.28223 739.63713
3.06334 761.51344 739.03528
3.06735 782.26995 738.43198
3.07133 768.00842 737.83201
3.07532 771.89104 737.23106
3.07933 771.49774 736.62601
3.08331 756.20738 736.02588
3.08732 748.24236 735.42059
3.09131 750.13824 734.81648
3.09530 739.58608 734.21310
3.09928 765.17526 733.61092
3.10327 743.62724 733.00679
3.10729 757.34162 732.39853
3.11126 749.06525 731.79582
3.11526 757.43382 731.19008
3.11928 755.17405 730.58022
3.12326 734.61544 729.97487
3.12725 742.05524 729.36865
3.13124 730.14535 728.76204
3.13525 729.70482 728.15301
3.13924 738.86658 727.54527
3.14323 726.98563 726.93817
3.14724 729.21462 726.32818
3.15122 741.77069 725.72109
3.15520 737.05546 725.11473
3.15919 732.78266 724.50494
3.16318 732.88068 723.89639
3.16718 734.04143 723.28546
3.17117 742.71647 722.67529
3.17519 742.93759 722.06159
3.17918 747.27184 721.45196
3.18317 721.19849 720.84148
3.18717 741.40949 720.22807
3.19117 744.55800 719.61655
3.19515 720.68281 719.00587
3.19913 729.76846 718.39705
3.20313 723.12224 717.78370
3.20711 722.42316 717.17225
3.21112 745.96785 716.55789
3.21510 724.91977 715.94650
3.21911 694.12445 715.33057
3.22309 748.89856 714.71983
3.22708 706.92783 714.10616
3.23110 699.40410 713.48902
3.23508 715.76122 712.87625
3.23909 704.16162 712.25979
3.24309 722.13022 711.64472
3.24707 718.52699 711.03274
3.25105 729.00367 710.42003
3.25504 727.55015 709.80438
3.25904 692.54234 709.18801
3.26303 709.60618 708.57367
3.26703 725.63694 707.95750
3.27102 710.63880 707.34116
3.27502 706.90676 706.72519
3.27900 708.58105 706.11073
3.28299 695.67964 705.49497
3.28702 711.33085 704.87368
3.29099 705.85761 704.26089
3.29499 706.59738 703.64305
3.29900 683.87589 703.02522
3.30296 683.22834 702.41310
3.30696 708.81151 701.79486
3.31096 693.58320 701.17708
3.31495 699.90276 700.55914
3.31895 691.39700 699.94164
3.32293 715.37875 699.32507
3.32695 704.80778 698.70410
3.33093 697.21587 698.08843
3.33494 688.49097 697.46831
3.33893 691.15289 696.84971
3.34293 682.85241 696.23101
3.34690 695.43274 695.61606
3.35089 699.94474 694.99882
3.35489 689.03850 694.37896
3.35888 717.66423 693.76105
3.36288 692.47860 693.14139
3.36689 689.42867 692.52166
3.37086 677.46555 691.90569
3.37484 677.90911 691.28857
3.37885 670.50503 690.66869
3.38285 700.53019 690.04765
3.38684 685.17617 689.42929
3.39085 669.11272 688.80868
3.39485 697.83766 688.18860
3.39884 679.41401 687.57064
3.40282 676.66605 686.95374
3.40679 703.05166 686.33682
3.41079 690.09719 685.71714
3.41479 690.96271 685.09691
3.41879 679.30776 684.47663
3.42279 672.36078 683.85744
3.42678 679.21455 683.23774
3.43078 673.44710 682.61904
3.43478 688.24666 681.99821
3.43877 654.12971 681.37956
3.44276 683.14985 680.76037
3.44677 679.43363 680.13951
3.45075 667.12221 679.52199
3.45473 653.91030 678.90445
3.45873 682.37274 678.28420
3.46273 660.11004 677.66455
3.46671 675.85500 677.04765
3.47071 673.41872 676.42855
3.47470 659.44696 675.80900
3.47870 656.52762 675.18890
3.48270 664.72901 674.56888
3.48670 656.93277 673.94942
3.49071 675.40519 673.32839
3.49469 675.40794 672.71121
3.49868 663.24184 672.09410
3.50266 652.06659 671.47706
3.50665 658.17599 670.85896
3.51064 649.79313 670.24042
3.51464 641.13512 669.62137
3.51865 668.18176 669.00027
3.52263 689.56823 668.38412
3.52662 666.85938 667.76695
3.53062 653.70468 667.14771
3.53461 648.88725 666.52964
3.53862 648.75941 665.90893
3.54262 646.12070 665.29048
3.54660 672.51431 664.67433
3.55058 659.81114 664.05882
3.55457 655.05684 663.44285
3.55858 646.57721 662.82321
3.56256 649.93173 662.20752
3.56656 661.66756 661.58973
3.57055 649.06037 660.97207
3.57456 637.99170 660.35234
3.57854 638.64619 659.73843
3.58254 650.55337 659.12113
3.58656 648.18584 658.50074
3.59052 639.74788 657.88862
3.59453 648.74811 657.26957
3.59851 641.23622 656.65555
3.60252 623.88933 656.03735
3.60649 642.55509 655.42474
3.61049 647.30900 654.80846
3.61450 654.58649 654.19017
3.61849 646.09124 653.57636
3.62248 638.93336 652.96112
3.62646 622.06338 652.34764
3.63047 637.57235 651.73004
3.63447 652.52136 651.11476
3.63847 638.15090 650.49965
3.64245 646.58772 649.88636
3.64645 644.44328 649.27161
3.65043 617.47083 648.65976
3.65443 621.74643 648.04539
3.65842 641.77302 647.43280
3.66240 630.73548 646.82102
3.66640 641.19331 646.22099
3.67042 638.11024 645.60368
3.67442 645.36296 644.98985
3.67840 618.78685 644.37993
3.68240 617.20258 643.76706
3.68639 619.90760 643.15492
3.69038 641.84886 642.54403
3.69438 632.70904 641.93017
3.69838 625.19032 641.31870
3.70236 627.38929 640.70848
3.70635 636.99448 640.09910
3.71034 627.20823 639.48776
3.71434 632.34966 638.87774
3.71832 607.04721 638.26848
3.72233 639.75644 637.65571
3.72633 611.09726 637.04481
3.73033 624.33085 636.43524
3.73432 621.90961 635.82641
3.73832 627.26581 635.21627
3.74231 628.84204 634.60799
3.74629 624.02267 634.00104
3.75028 619.81812 633.39378
3.75428 618.75205 632.78470
3.75826 602.98131 632.17852
3.76226 618.12310 631.57104
3.76627 628.50023 630.96147
3.77026 622.93792 630.35452
3.77425 624.16266 629.74840
3.77825 620.87984 629.14161
3.78224 614.22199 628.53660
3.78623 631.86078 627.93130
3.79022 603.47655 627.32528
3.79423 617.23373 626.71843
3.79819 608.10243 626.11777
3.80219 619.13135 625.51211
3.80620 607.32929 624.90617
3.81017 609.05825 624.30535
3.81418 617.72657 623.69952
3.81816 620.44160 623.09879
3.82218 605.99861 622.49039
3.82616 625.00656 621.88975
3.83016 616.26398 621.28625
3.83416 603.34199 620.68360
3.83814 605.44396 620.08392
3.84215 614.44899 619.48033
3.84614 610.20328 618.87920
3.85015 602.87971 618.27677
3.85411 597.80912 617.68160
3.85810 609.91345 617.08093
3.86212 614.51283 616.47799
3.86610 602.63772 615.88065
3.87008 600.77931 615.28362
3.87409 597.96031 614.68225
3.87809 605.90002 614.08224
3.88209 603.17585 613.48368
3.88608 622.44148 612.88649
3.89009 583.99979 612.28760
3.89407 598.23078 611.69219
3.89804 615.61042 611.09821
3.90204 599.38373 610.50198
3.90603 614.08547 609.90610
3.91003 592.12631 609.31060
3.91403 600.63396 608.71390
3.91803 609.23819 608.11757
3.92204 583.59427 607.52216
3.92601 590.72726 606.93129
3.93001 579.32588 606.33613
3.93401 595.68443 605.74239
3.93799 604.89033 605.15114
3.94199 595.36444 604.55818
3.94599 608.54522 603.96508
3.94998 585.18693 603.37344
3.95395 598.86991 602.78583
3.95795 577.82267 602.19420
3.96194 593.11303 601.60429
3.96593 596.32150 601.01528
3.96994 590.75955 600.42411
3.97394 572.25987 599.83280
3.97793 601.37606 599.24450
3.98192 592.84113 598.65770
3.98593 585.06164 598.06713
3.98991 577.67639 597.48061
3.99390 606.01295 596.89453
3.99790 583.28425 596.30783
4.00190 580.53599 595.71950
4.00588 608.27104 595.13572
4.00988 577.22117 594.54979
4.01388 580.32933 593.96380
4.01787 566.20837 593.38028
4.02185 577.19211 592.79775
4.02584 585.72889 592.21405
4.02986 569.65327 591.62829
4.03385 557.82509 591.04606
4.03785 587.51556 590.46265
4.04185 600.05768 589.87874
4.04583 573.28308 589.29994
4.04981 580.49982 588.72102
4.05380 591.79288 588.14151
4.05780 566.93574 587.55992
4.06179 592.64690 586.98085
4.06578 569.61860 586.40224
4.06980 562.76036 585.82051
4.07377 575.86998 585.24493
4.07777 573.17935 584.66668
4.08177 551.52904 584.08838
4.08576 572.78237 583.51164
4.08977 581.91343 582.93333
4.09376 575.42646 582.50750
4.09777 552.83061 581.93082
4.10173 564.91550 581.36123
4.10573 552.03501 580.78608
4.10973 559.40393 580.21142
4.11371 581.21226 579.64025
4.11770 585.75191 579.06808
4.12170 569.84923 578.49483
4.12571 552.82295 577.92063
4.12971 588.78860 577.34846
4.13369 560.10167 576.78093
4.13770 571.96732 576.20825
4.14168 567.09073 575.64057
4.14567 552.38894 575.07291
4.14968 570.53127 574.50123
4.15367 566.35130 573.93357
4.15764 563.01608 573.36940
4.16164 566.40876 572.80176
4.16564 575.34067 572.23384
4.16964 573.74774 571.66724
4.17361 536.70343 571.10513
4.17763 555.83023 570.53611
4.18162 549.02988 569.97208
4.18562 557.24102 569.40805
4.18961 574.49538 568.84506
4.19361 568.12171 568.28113
4.19761 574.59200 567.71775
4.20158 549.06683 567.15878
4.20557 540.24178 566.59793
4.20956 538.09312 566.03721
4.21355 551.99121 565.47789
4.21756 534.17059 564.91619
4.22156 565.93795 564.35651
4.22555 540.85333 563.79836
4.22954 558.68962 563.24076
4.23354 567.01652 562.68219
4.23753 571.15928 562.12523
4.24152 557.27019 561.56928
4.24550 552.19349 561.01535
4.24951 546.62741 560.45806
4.25349 549.81883 559.90471
4.25749 554.36632 559.35053
4.26149 550.50479 558.79592
4.26547 553.86146 558.24425
4.26947 550.69962 557.69123
4.27346 567.49614 557.13879
4.27748 540.01989 556.58500
4.28144 555.00890 556.03758
4.28545 542.14945 555.48539
4.28947 545.77796 554.93235
4.29345 545.59740 554.38519
4.29742 575.12099 553.83960
4.30142 540.09764 553.29118
4.30543 545.18767 552.74139
4.30942 538.39715 552.19563
4.31339 560.13930 551.65214
4.31741 561.35944 551.10318
4.32139 538.06457 550.56011
4.32538 555.11059 550.01663
4.32938 552.32315 549.47187
4.33338 547.38992 548.92718
4.33738 532.87985 548.38503
4.34136 546.52927 547.84445
4.34538 549.78287 547.29969
4.34936 551.64476 546.76024
4.35333 550.61958 546.22384
4.35733 534.43541 545.68276
4.36133 531.74925 545.14325
4.36531 533.24265 544.60673
4.36931 548.00403 544.06754
4.37333 547.45213 543.52749
4.37731 555.91180 542.99183
4.38130 538.48166 542.45730
4.38531 528.74045 541.91859
4.38932 535.03585 541.38292
4.39327 526.49752 540.85349
4.39729 540.11619 540.31723
4.40128 519.12032 539.78482
4.40528 520.91856 539.25210
4.40926 529.86225 538.72267
4.41325 539.31173 538.19208
4.41725 525.31439 537.66034
4.42123 531.70055 537.13195
4.42523 529.66008 536.60244
4.42923 507.97970 536.07297
4.43322 534.42057 535.54611
4.43721 550.51199 535.01887
4.44123 521.77779 534.48906
4.44520 528.80629 533.96591
4.44918 527.82211 533.44248
4.45319 514.01588 532.91642
4.45717 537.79226 532.39382
4.46117 506.66527 531.86998
4.46516 515.13645 531.34680
4.46918 522.22600 530.82240
4.47317 543.65582 530.30145
4.47715 525.38250 529.78252
4.48115 519.30668 529.26108
4.48515 536.76259 528.74022
4.48913 524.89209 528.22326
4.49313 510.34681 527.70465
4.49714 523.56869 527.18492
4.50113 543.14980 526.66942
4.50511 512.38999 526.15508
4.50909 527.54381 525.64053
4.51309 527.95543 525.12524
4.51709 520.75028 524.61012
4.52108 525.30007 524.09666
4.52509 527.62644 523.58202
4.52908 519.84578 523.07075
4.53308 514.49503 522.55788
4.53708 522.97836 522.04620
4.54106 496.58416 521.53786
4.54506 529.10883 521.02795
4.54904 539.64064 520.52095
4.55304 528.84955 520.01154
4.55702 508.55746 519.50591
4.56102 518.63857 518.99871
4.56503 520.00418 518.49088
4.56902 515.51512 517.98637
4.57300 523.87734 517.48346
4.57699 519.82010 516.97901
4.58100 505.44571 516.47352
4.58499 502.34889 515.97135
4.58899 510.69389 515.46897
4.59299 522.40034 514.96728
4.59699 515.29218 514.46630
4.60096 497.39958 513.96953
4.60496 508.70315 513.46905
4.60895 513.53894 512.97153
4.61293 510.30248 512.47553
4.61693 519.51583 511.97715
4.62094 501.27383 511.47865
4.62493 514.12001 510.98429
4.62891 499.20334 510.49067
4.63292 500.04571 509.99383
4.63693 518.80485 509.49899
4.64088 518.42267 509.01098
4.64490 509.67127 508.51626
4.64890 506.18235 508.02444
4.65290 507.81372 507.53252
4.65687 510.67167 507.04511
4.66087 504.34828 506.55590
4.66486 507.49193 506.06782
4.66884 513.00135 505.59364
4.67284 507.01798 505.10532
4.67685 496.64254 504.61766
4.68085 497.46564 504.13160
4.68484 505.78853 503.64713
4.68884 492.93806 503.16125
4.69284 508.91143 502.67698
4.69679 513.62051 502.20016
4.70080 528.52476 501.71647
4.70479 500.28081 501.23483
4.70878 483.63352 500.81342
4.71278 501.03817 500.33370
4.71678 502.46794 499.85340
4.72079 501.13633 499.37389
4.72476 496.51281 498.89843
4.72876 496.42503 498.42120
4.73277 488.87031 497.94347
4.73676 508.88115 497.46857
4.74076 505.42364 496.99358
4.74476 493.99478 496.51847
4.74873 504.46499 496.04794
4.75272 495.65933 495.57642
4.75672 489.24359 495.10445
4.76072 503.04874 494.63234
4.76470 498.64159 494.16352
4.76868 519.59172 493.69577
4.77271 501.25915 493.22391
4.77670 486.25936 492.75605
4.78069 490.48626 492.28901
4.78470 498.75338 491.82105
4.78868 512.09862 491.35751
4.79267 519.41811 490.89274
4.79666 476.77970 490.42913
4.80065 509.21903 489.96582
4.80466 487.21428 489.50250
4.80863 505.07187 489.04277
4.81263 491.86106 488.58098
4.81663 494.18028 488.12073
4.82062 492.19209 487.66200
4.82461 495.83757 487.20291
4.82861 477.35637 486.74421
4.83261 486.06274 486.28710
4.83660 493.39943 485.83116
4.84061 485.97497 485.37353
4.84460 492.25307 484.91875
4.84856 498.17385 484.46871
4.85257 492.78614 484.01386
4.85656 479.25834 483.56217
4.86056 489.11852 483.10969
4.86455 476.89174 482.65876
4.86854 481.80573 482.20903
4.87256 489.98355 481.75731
4.87653 494.55721 481.31152
4.88055 503.96825 480.86025
4.88453 491.31786 480.41522
4.88851 489.32728 479.97024
4.89253 486.26571 479.52206
4.89650 490.61823 479.07946
4.90051 461.86170 478.63488
4.90448 467.18832 478.19381
4.90848 468.24382 477.75120
4.91249 478.71452 477.30823
4.91645 482.88269 476.87148
4.92047 469.13226 476.42860
4.92446 484.22207 475.98921
4.92846 497.66459 475.55097
4.93245 489.99830 475.11396
4.93645 473.55177 474.67661
4.94046 476.02409 474.23930
4.94443 496.79337 473.80700
4.94842 476.14825 473.37245
4.95243 476.07132 472.93720
4.95639 476.69610 472.50883
4.96039 470.60051 472.07635
4.96440 467.10149 471.64428
4.96840 473.26412 471.21268
4.97238 462.91250 470.78491
4.97637 498.72189 470.35685
4.98038 472.95781 469.92735
4.98437 478.21322 469.50170
4.98837 472.30009 469.07492
4.99238 474.19616 468.64752
4.99636 488.44764 468.22468
5.00035 479.69315 467.80232
5.00433 476.20663 467.38114
5.00834 453.13905 466.95706
5.01232 458.22194 466.53794
5.01631 462.90987 466.11774
5.02033 480.57385 465.69547
5.02432 479.19682 465.27805
5.02828 482.82062 464.86296
5.03229 459.46193 464.44506
5.03630 475.44573 464.02723
5.04029 475.37155 463.61246
5.04428 471.55129 463.19854
5.04827 469.06625 462.78513
5.05227 490.53802 462.37251
5.05624 482.92511 461.96295
5.06025 473.35921 461.55094
5.06424 488.70877 461.14054
5.06823 481.38641 460.73206
5.07223 478.62980 460.32340
5.07624 473.44192 459.91410
5.08023 474.21471 459.50751
5.08421 473.77891 459.10318
5.08823 465.44241 458.69613
5.09222 458.26326 458.29174
5.09619 440.21583 457.89178
5.10020 467.10912 457.48700
5.10417 465.66308 457.08837
5.10817 461.35596 456.68745
5.11216 468.38627 456.28778
5.11616 476.63211 455.88788
5.12018 471.36765 455.48820
5.12415 454.97433 455.09325
5.12817 441.60651 454.69425
5.13216 464.26664 454.29930
5.13613 454.96840 453.90763
5.14015 452.23196 453.51134
5.14414 458.82843 453.11903
5.14813 460.34020 452.72762
5.15210 481.27980 452.33914
5.15610 471.34206 451.94842
5.16010 464.27594 451.55903
5.16408 447.32932 451.17214
5.16808 466.79703 450.78347
5.17208 450.15188 450.39639
5.18006 472.54394 449.62697
5.18407 477.41280 449.24191
5.18806 454.22581 448.85946
5.19204 445.65458 448.47960
5.19604 469.75460 448.09791
5.20005 446.26829 447.71587
5.20802 470.79664 446.96047
5.21202 457.72621 446.58246
5.21602 451.30555 446.20541
5.21999 470.54535 445.83162
5.22801 457.08929 445.08080
5.23197 442.11678 444.71169
5.23597 450.92707 444.33861
5.23998 453.70117 443.96679
5.24398 436.55127 443.59660
5.24797 468.21645 443.22793
5.25195 435.68330 442.86059
5.25595 449.21707 442.49349
5.25993 470.09225 442.12865
5.26393 468.26524 441.76284
5.26794 458.79332 441.39666
5.27193 465.98502 441.03371
5.27591 460.62059 440.67266
5.27990 456.12528 440.31162
5.28391 446.59689 439.94959
5.28790 455.57161 439.59111
5.29189 452.86360 439.23231
5.29590 460.10784 438.87323
5.29989 447.39791 438.51761
5.30386 445.24892 438.16393
5.30786 458.52909 437.80902
5.31186 447.03677 437.45478
5.31585 443.05577 437.10276
5.31985 460.38669 436.75021
5.32385 449.75653 436.39889
5.32785 445.73467 436.04833
5.33183 443.49014 435.70089
5.33585 437.78556 435.35164
5.33984 462.88050 435.00466
5.34380 440.77192 434.66206
5.34782 452.48822 434.31555
5.35180 459.07015 433.97310
5.35579 452.73781 433.63014
5.35977 462.61798 433.28970
5.36377 458.51653 432.94878
5.36778 441.26298 432.60827
5.37175 435.01133 432.27122
5.37577 431.81877 431.93160
5.37976 445.25471 431.59541
5.38375 449.95640 431.26020
5.38775 447.25222 430.92547
5.39175 450.31974 430.59151
5.39575 451.30289 430.25833
5.39972 431.56552 429.92937
5.40372 452.43145 429.59885
5.40772 443.58210 429.26912
5.41170 443.15962 428.94218
5.41571 417.00389 428.61372
5.41969 454.29219 428.28833
5.42369 446.35193 427.96344
5.42767 440.23718 427.64020
5.43168 449.80755 427.31694
5.43567 432.82630 426.99503
5.43965 443.05000 426.67595
5.44365 428.83164 426.35594
5.44766 422.74052 426.03651
5.45164 432.20747 425.72015
5.45563 435.99678 425.40406
5.45963 436.01156 425.08911
5.46363 448.95411 424.77474
5.46761 446.36354 424.46313
5.47160 428.56957 424.15155
5.47562 452.57488 423.90043
5.47959 435.43935 423.59287
5.48360 447.46080 423.28398
5.48761 448.00666 422.97575
5.49160 441.78996 422.67031
5.49558 448.77897 422.36655
5.49956 435.15603 422.06424
5.50358 433.67659 421.76046
5.50754 459.05733 421.46186
5.51154 435.80576 421.16181
5.51555 426.86657 420.86193
5.51954 441.52431 420.56484
5.52353 442.94691 420.26897
5.52752 424.97592 419.97380
5.53154 450.83333 419.67883
5.53551 408.82139 419.38773
5.53950 444.81431 419.09684
5.54352 431.01990 418.80516
5.54751 430.24965 418.51705
5.55148 435.01450 418.23097
5.55548 442.76834 417.94443
5.55947 426.69442 417.65995
5.56347 430.34684 417.37678
5.56747 437.97406 417.09415
5.57148 422.38319 416.81166
5.57546 432.78125 416.53520
5.57944 425.12479 416.25811
5.58346 429.07654 415.97994
5.58746 445.49591 415.70388
5.59143 422.67840 415.43163
5.59544 430.55105 415.15792
5.59943 432.74199 414.88679
5.60341 435.23128 414.61854
5.60740 440.20482 414.35031
5.61140 447.15394 414.08304
5.61540 436.45059 413.81727
5.61937 426.30916 413.55532
5.62338 424.30548 413.29183
5.62739 454.72502 413.02990
5.63135 442.63680 412.77292
5.63536 432.56720 412.51385
5.63937 441.96597 412.25661
5.64336 425.43569 412.00233
5.64734 431.36491 411.75073
5.65133 436.09316 411.49947
5.65535 426.10629 411.24852
5.65930 438.91208 411.00320
5.66331 419.49901 410.75566
5.66732 447.70957 410.51053
5.67130 421.54518 410.26820
5.67529 426.12345 410.02788
5.67928 429.73402 409.78890
5.68330 435.37273 409.55013
5.68727 423.99667 409.31574
5.69128 424.62977 409.08115
5.69528 419.25212 408.84934
5.69924 439.12196 408.62154
5.70326 454.81474 408.39274
5.70724 426.62786 408.16775
5.71125 450.09225 407.94367
5.71522 436.85155 407.72311
5.71922 416.19458 407.50397
5.72324 421.63258 407.28551
5.72720 436.51278 407.07258
5.73122 429.07096 406.85917
5.73521 434.78035 406.64926
5.73920 421.12921 406.44184
5.74320 429.35298 406.23673
5.74719 421.86749 406.03476
5.75120 422.34347 405.83441
5.75516 432.62909 405.63887
5.75916 433.92648 405.44460
5.76317 426.16521 405.25276
5.76715 419.88204 405.06511
5.77114 421.70897 404.88008
5.77514 438.62682 404.69825
5.77915 425.54739 404.51884
5.78313 428.96111 404.34446
5.78714 414.82867 404.17247
5.79114 420.34761 404.00469
5.79513 395.46966 403.84099
5.79911 440.77879 403.68190
5.80310 412.96756 403.52665
5.80710 407.00844 403.37571
5.81107 424.76403 403.22997
5.81508 430.77003 403.08825
5.81908 422.63916 402.95175
5.82307 405.55007 402.82117
5.82705 416.39936 402.69666
5.83106 412.73965 402.57740
5.83506 412.70873 402.46493
5.83903 414.63478 402.35987
5.84305 407.66315 402.26117
5.84704 417.23592 402.17081
5.85104 411.84416 402.08875
5.85502 396.97906 402.01601
5.85900 420.00857 401.95273
5.86300 434.34776 401.89957
5.86698 401.56846 401.85782
5.87099 409.21831 401.82804
5.87500 430.69256 401.81153
5.87898 410.19250 401.80950
5.88297 421.47902 401.82317
5.88698 418.93190 401.85425
5.89098 443.18625 401.90436
5.89495 410.93793 401.97475
5.89895 418.60465 402.06898
5.90294 419.20490 402.18887
5.90692 418.18394 402.33695
5.91091 414.49486 402.51772
5.91492 414.98559 402.73560
5.91893 428.20616 402.99474
5.92290 419.46710 403.29774
5.92690 421.69191 403.65552
5.93091 421.82837 404.07561
5.93489 426.19888 404.56146
5.93889 414.36041 405.13164
5.94290 419.62722 405.79633
5.94688 405.56010 406.56781
5.95087 424.30297 407.46729
5.95486 420.10767 408.52219
5.95885 433.15009 409.75991
5.96284 451.55182 411.21538
5.96684 415.73005 412.93874
5.97086 451.13952 414.99535
5.97484 435.83724 417.42999
5.97882 457.30306 420.34675
5.98282 472.59136 423.88806
5.98683 476.79714 428.19258
5.99080 487.60245 433.38232
5.99480 509.11921 439.78402
5.99882 528.85526 447.63765
6.00279 535.57528 457.11548
6.00678 568.34570 468.53785
6.01078 556.75107 481.95694
6.01478 586.32767 496.91930
6.01875 578.07309 512.05422
6.02276 578.81834 525.42770
6.02677 610.67117 534.00470
6.03076 562.74731 535.44370
6.03475 566.99774 529.32064
6.03875 578.35076 517.30643
6.04275 584.63694 502.25878
6.04672 548.48249 486.91212
6.05071 552.49737 472.66687
6.05471 505.21293 460.24424
6.05869 499.62378 449.84330
6.06269 511.21460 441.22440
6.06669 502.67754 434.15228
6.07070 470.36845 428.31850
6.07467 461.52251 423.56375
6.07868 471.71133 419.58677
6.08269 454.15845 416.27273
6.08666 445.67840 413.51387
6.09065 427.98397 411.17087
6.09466 438.69429 409.16935
6.09865 444.79021 407.46335
6.10263 443.50521 405.99510
6.10663 434.34501 404.72049
6.11063 423.36392 403.60985
6.11459 438.63742 402.64939
6.11860 398.60013 401.79616
6.12263 431.84941 401.04217
6.12662 402.44915 400.38220
6.13059 433.22796 399.80064
6.13459 422.31355 399.27975
6.13860 397.44853 398.81819
6.14258 420.68688 398.41011
6.14655 429.06233 398.04732
6.15058 408.55920 397.72090
6.15456 401.76824 397.43391
6.15855 416.71312 397.17929
6.16255 411.63357 396.95339
6.16655 416.67315 396.75505
6.17052 407.11729 396.58243
6.17452 421.51118 396.43176
6.17854 425.72936 396.30157
6.18253 430.48212 396.19213
6.18650 421.90459 396.10157
6.19052 406.19452 396.02719
6.19451 404.58292 395.96958
6.19849 388.77069 395.92765
6.20248 430.73495 395.90016
6.20649 406.13870 395.88672
6.21045 406.52492 395.88680
6.21445 407.33155 395.89986
6.21847 430.12314 395.92564
6.22246 402.10270 395.96352
6.22644 422.02358 396.01303
6.23044 393.04352 396.07455
6.23445 412.18187 396.14764
6.23843 421.98030 396.23131
6.24242 395.38954 396.32621
6.24644 406.05558 396.43269
6.25043 391.96787 396.54936
6.25440 409.33126 396.67614
6.25840 396.42348 396.81454
6.26239 400.62760 396.96324
6.26637 414.46695 397.12216
6.27036 396.86197 397.29202
6.27438 410.27766 397.47404
6.27837 407.51003 397.66577
6.28235 429.54690 397.86778
6.28636 409.18223 398.08203
6.29036 407.95079 398.30699
6.29433 388.05351 398.54146
6.29833 414.10936 398.78840
6.30235 394.23774 399.04840
6.30631 404.41814 399.31624
6.31030 404.97934 399.59795
6.31431 405.33610 399.89290
6.31832 412.88050 400.20011
6.32228 412.87918 400.51544
6.32628 395.56286 400.84674
6.33031 405.70556 401.19272
6.33428 408.80601 401.54778
6.33826 405.34937 401.91667
6.34228 399.62173 402.30224
6.34627 395.60383 402.69928
6.35024 402.77256 403.10862
6.35424 408.10513 403.53543
6.35825 393.32039 403.97788
6.36222 406.89736 404.43108
6.36621 384.95306 404.90258
6.37023 408.14634 405.39310
6.37422 407.89797 405.89561
6.37820 403.92010 406.41469
6.38220 394.33263 406.95327
6.38621 400.11908 407.51153
6.39019 414.37895 408.08178
6.39417 392.48023 408.67255
6.39820 416.60409 409.28784
6.40217 396.26110 409.91545
6.40616 398.73131 410.56428
6.41016 393.95195 411.23786
6.41417 406.36500 411.93220
6.41813 393.67857 412.64020
6.42213 399.66850 413.37897
6.42615 410.56463 414.14442
6.43014 406.99029 414.92707
6.43412 405.51421 415.73276
6.43814 395.32264 416.57260
6.44213 390.60780 417.43214
6.44610 387.97666 418.31359
6.45009 404.01632 419.22844
6.45410 400.04143 420.17535
6.45808 380.97704 421.14591
6.46206 404.75389 422.14606
6.46608 405.09739 423.18696
6.47007 411.55758 424.25514
6.47405 399.95857 425.35102
6.47805 413.54853 426.48966
6.48206 423.24210 427.66985
6.48604 400.62598 428.87486
6.49003 427.08347 430.12161
6.49404 404.41586 431.41739
6.49804 424.29338 432.74816
6.50200 411.79514 434.11072
6.50601 413.98572 435.53635
6.51000 403.14732 437.00299
6.51398 406.30781 438.50865
6.51798 426.55904 440.07333
6.52200 423.88083 441.69862
6.52599 408.81276 443.36507
6.52997 415.61400 445.08074
6.53398 411.95945 446.86845
6.53797 395.10517 448.71039
6.54196 407.95196 450.61323
6.54593 427.66255 452.57067
6.54995 419.62530 454.62459
6.55393 404.87192 456.72580
6.55792 426.55623 458.90405
6.56193 416.22922 461.16940
6.56593 405.41170 463.51553
6.56991 415.12216 465.92816
6.57390 423.02869 468.43914
6.57792 418.05324 471.05774
6.58190 425.48018 473.74865
6.58588 428.03550 476.53658
6.58990 425.15775 479.45738
6.59388 430.04525 482.46136
6.59786 438.25691 485.57094
6.60186 417.86102 488.82872
6.60587 439.09883 492.21673
6.60985 445.41033 495.70289
6.61384 438.53460 499.34286
6.61785 435.58520 503.15235
6.62184 428.00228 507.08840
6.62581 449.82162 511.16992
6.62983 454.50428 515.46589
6.63383 455.25176 519.93425
6.63782 448.55557 524.56281
6.64180 469.52269 529.39372
6.64582 465.01280 534.46527
6.64980 457.21970 539.72734
6.65378 454.84984 545.20813
6.65778 472.40875 550.97033
6.66178 466.34497 556.99090
6.66575 485.87688 563.25514
6.66974 477.24127 569.83604
6.67376 481.13147 576.77350
6.67775 489.05043 584.00094
6.68173 494.90079 591.57542
6.68575 505.50701 599.58302
6.68974 514.47411 607.94290
6.69372 523.98314 616.69942
6.69772 526.73790 625.96708
6.70173 550.76136 635.75211
6.70571 548.10677 645.98187
6.70968 570.43137 656.74977
6.71370 549.56306 668.25612
6.71769 575.90567 680.31973
6.72167 573.83704 693.02009
6.72566 628.66298 706.53190
6.72968 624.63332 720.94135
6.73366 626.12112 736.10834
6.73764 647.37733 752.18197
6.74165 666.01169 769.40606
6.74565 671.26068 787.64322
6.74963 681.50255 807.04087
6.75363 740.66227 827.82338
6.75763 764.49453 850.00618
6.76161 779.77667 873.62225
6.76559 826.87285 898.95333
6.76961 847.07950 926.30858
6.77361 895.27106 955.58030
6.77758 939.91106 986.79303
6.78159 995.10051 1020.74209
6.78559 1056.63303 1057.20589
6.78958 1108.72879 1096.51302
6.79357 1131.64933 1138.87734
6.79757 1224.80820 1184.84024
6.80156 1248.95998 1234.41878
6.80553 1352.14470 1287.86441
6.80955 1402.37726 1346.27418
6.81354 1517.17015 1409.08022
6.81752 1604.21455 1476.70767
6.82151 1642.12756 1549.97882
6.82552 1768.98542 1629.20078
6.82951 1882.97309 1713.69129
6.83350 1988.32705 1803.79467
6.83751 2049.24683 1899.55873
6.84151 2142.82394 2000.02352
6.84549 2238.83375 2103.50408
6.84947 2373.34711 2208.98227
6.85349 2444.61958 2315.83267
6.85746 2506.82296 2418.31756
6.86145 2568.67937 2515.53932
6.86547 2605.29035 2603.82191
6.86945 2648.10055 2678.34097
6.87344 2636.30372 2736.68293
6.87743 2700.83968 2776.14912
6.88143 2720.72980 2795.41480
6.88543 2751.15928 2794.12221
6.88941 2641.54357 2773.66672
6.89343 2688.12898 2735.87451
6.89741 2624.03801 2684.56436
6.90139 2599.93285 2622.69864
6.90539 2515.11237 2553.37302
6.90940 2465.81788 2479.66186
6.91337 2404.21575 2404.83760
6.91736 2304.32591 2329.70240
6.92137 2263.91886 2255.72154
6.92537 2170.43370 2184.47964
6.92934 2125.03714 2116.61836
6.93336 2022.20272 2051.10526
6.93735 1983.84308 1989.03797
6.94134 1899.71706 1929.92391
6.94532 1877.98080 1873.72299
6.94933 1798.75545 1819.64400
6.95332 1733.51765 1767.86586
6.95730 1710.59051 1718.34064
6.96131 1612.44477 1670.02983
6.96531 1625.79546 1623.48943
6.96928 1539.42241 1578.62800
6.97327 1477.34580 1534.85720
6.97729 1431.84634 1491.96233
6.98128 1387.80148 1450.63918
6.98526 1330.42524 1410.47432
6.98928 1320.37532 1370.96332
6.99326 1260.41196 1333.04690
6.99725 1239.66643 1296.09508
7.00124 1185.51405 1260.28535
7.00524 1148.77303 1225.41297
7.00923 1122.72369 1191.87912
7.01322 1097.97036 1159.41840
7.01723 1060.03329 1127.92757
7.02122 1030.83837 1097.70480
7.02519 981.12623 1068.78161
7.02920 988.97296 1040.69098
7.03321 943.13181 1013.70269
7.03719 914.73429 987.95278
7.04117 900.76887 963.24836
7.04520 871.90141 939.31762
7.04917 861.57660 916.67161
7.05315 822.89489 895.00274
7.05715 817.72318 874.07977
7.06116 822.34498 854.06443
7.06513 791.09987 835.08659
7.06913 767.85622 816.83867
7.07315 765.38432 799.27375
7.07713 719.71818 782.64093
7.08112 703.10604 766.73997
7.08512 698.23737 751.45209
7.08912 686.36915 736.86848
7.09310 697.35756 722.99578
7.09709 664.54268 709.67185
7.10111 645.96017 696.86225
7.10508 622.80577 684.72563
7.10907 634.34396 673.08302
7.11308 603.39954 661.87083
7.11709 598.35653 651.15853
7.12105 593.40319 640.99152
7.12505 595.11465 631.19045
7.12906 561.85634 621.76095
7.13305 593.61002 612.77866
7.13704 550.54296 604.15946
7.14104 535.46639 595.86422
7.14504 543.53405 587.92096
7.14901 528.15775 580.34413
7.15300 516.92848 573.04331
7.15702 524.26508 565.97169
7.16099 528.17537 559.25999
7.16498 501.73569 552.78719
7.16901 487.14409 546.49846
7.17299 488.22513 540.52037
7.17696 476.20646 534.78786
7.18098 487.68276 529.20724
7.18498 479.71308 523.84490
7.18896 481.90781 518.71652
7.19296 477.29149 513.75820
7.19696 440.88559 508.96668
7.20093 446.87661 504.38349
7.20492 475.51726 499.95106
7.20892 449.54483 495.65174
7.21293 448.52676 491.49949
7.21691 454.69667 487.51890
7.22089 437.89561 483.67420
7.22490 454.01336 479.92732
7.22889 436.48183 476.33191
7.23288 421.30226 472.85339
7.23690 408.93976 469.46627
7.24089 427.19198 466.21046
7.24487 430.38497 463.07109
7.24886 431.61235 460.02933
7.25286 418.04589 457.06931
7.25683 414.87441 454.22482
7.26083 416.53020 451.45224
7.26483 408.54837 448.76361
7.26883 404.37158 446.15986
7.27281 413.13344 443.64451
7.27681 410.68482 441.19635
7.28082 410.26699 438.81548
7.28480 383.23600 436.51748
7.28880 381.31574 434.28343
7.29280 389.96741 432.10701
7.29679 399.34474 430.00481
7.30077 376.68901 427.96654
7.30476 386.50133 425.97917
7.30877 401.68054 424.04143
7.31275 395.19924 422.17309
7.31675 382.34688 420.34517
7.32076 402.01523 418.56492
7.32476 379.95539 416.83670
7.32873 373.18145 415.16869
7.33274 404.06230 413.52695
7.33675 397.61288 411.93380
7.34072 381.00635 410.39525
7.34471 389.93727 408.88913
7.34872 363.63168 407.41874
7.35271 381.46324 405.99188
7.35669 368.72343 404.60434
7.36069 388.68484 403.24846
7.36467 383.19527 401.92988
7.36866 376.93368 400.64592
7.37266 380.49597 399.38875
7.37667 384.51433 398.15983
7.38066 370.44863 396.96800
7.38463 379.34234 395.81076
7.38866 361.63198 394.66600
7.39265 369.18635 393.55905
7.39662 380.00000 392.48570
7.40062 390.25900 391.43081
7.40462 368.91053 390.40046
7.40861 357.45668 389.39924
7.41259 355.51434 388.42086
7.41661 366.17469 387.45816
7.42059 389.19810 386.52639
7.42458 356.69643 385.61581
7.42859 342.50828 384.72233
7.43259 371.83432 383.85054
7.43657 352.40746 383.00284
7.44055 368.18791 382.17534
7.44457 373.22411 381.35970
7.44855 356.84669 380.56837
7.45254 367.20771 379.79581
7.45654 362.11871 379.03685
7.46054 348.13956 378.29638
7.46451 358.16430 377.58241
7.46850 367.06040 376.87619
7.47252 365.40591 376.18161
7.47651 353.83823 375.50738
7.48049 349.79657 374.84885
7.48450 352.53993 374.20043
7.48850 342.05205 373.56772
7.49248 364.55383 372.95286
7.49646 359.99485 372.35263
7.50049 354.23746 371.75751
7.50446 352.39297 371.18424
7.50843 362.00121 370.62267
7.51246 356.06871 370.06622
7.51644 356.22400 369.52839
7.52042 350.29281 369.00334
7.52443 344.13034 368.48588
7.52844 354.12806 367.97912
7.53242 340.69742 367.48794
7.53641 358.04138 367.00720
7.54043 341.30695 366.53228
7.54441 350.33790 366.07288
7.54839 352.23235 365.62494
7.55239 350.54999 365.18352
7.55639 352.80783 364.75285
7.56036 344.17683 364.33451
7.56436 329.55716 363.92274
7.56839 340.05304 363.51792
7.57237 350.03543 363.12652
7.57634 350.56353 362.74548
7.58036 363.20093 362.36863
7.58436 353.80177 362.00223
7.58833 345.50298 361.64691
7.59233 348.28252 361.29807
7.59634 343.46348 360.95607
7.60033 344.28086 360.62371
7.60430 351.75466 360.30138
7.60832 363.81418 359.98300
7.61230 347.92902 359.67494
7.61628 335.47591 359.37526
7.62029 335.20790 359.08103
7.62430 351.79991 358.79382
7.62828 349.64243 358.51593
7.63227 331.59235 358.24505
7.63628 349.66601 357.97921
7.64027 367.02066 357.72274
7.64426 330.25351 357.47258
7.64824 342.04031 357.23035
7.65224 355.02989 356.99322
7.65623 355.02076 356.76389
7.66022 355.30867 356.54097
7.66423 345.65106 356.32352
7.66821 354.38547 356.11447
7.67219 340.19783 355.91133
7.67619 360.96105 355.71403
7.68021 338.75820 355.52224
7.68418 364.57102 355.33876
7.68816 330.65678 355.16097
7.69219 332.33933 354.98741
7.69617 356.90028 354.82213
7.70017 353.51613 354.66209
7.70416 349.28925 354.50853
7.70815 350.47011 354.36100
7.71213 331.67871 354.21995
7.71612 350.60376 354.08424
7.72014 351.69132 353.95371
7.72412 337.33824 353.83033
7.72810 355.89842 353.71289
7.73213 333.99828 353.59990
7.73611 362.94857 353.49402
7.74010 352.38670 353.39389
7.74409 356.09499 353.29944
7.74811 333.30762 353.21046
7.75209 344.75400 353.12783
7.75606 336.38759 353.05140
7.76008 341.70001 352.97985
7.76405 342.38243 352.91485
7.76803 350.07520 352.85561
7.77205 355.48245 352.80175
7.77605 344.49761 352.75397
7.78003 350.52262 352.71224
7.78402 339.79534 352.67639
7.78803 347.16031 352.64631
7.79203 347.25845 352.62229
7.79601 366.84702 352.60433
7.80002 350.33493 352.59231
7.80400 345.15652 352.58640
7.80799 339.58580 352.58656
7.81199 338.67112 352.59284
7.81599 341.79070 352.60538
7.81997 334.46897 352.62399
7.82396 360.26408 352.64896
7.82797 357.18598 352.68048
7.83196 331.08976 352.71825
7.83595 349.31445 352.76245
7.83995 339.62070 352.81323
7.84394 343.33440 352.87063
7.84795 340.14954 352.93496
7.85192 340.21572 353.00532
7.85593 343.12441 353.08347
7.85991 363.47274 353.16785
7.86389 336.56725 353.25914
7.86789 346.76259 353.35826
7.87190 342.88798 353.46487
7.87588 344.77353 353.57790
7.87987 342.81895 353.69887
7.88388 343.05106 353.82807
7.88788 341.56310 353.96456
7.89187 335.62119 354.10853
7.89584 352.61482 354.26009
7.89987 347.97354 354.42180
7.90384 342.07010 354.58964
7.90782 353.40375 354.76638
7.91184 347.33433 354.95306
7.91582 350.42801 355.14723
7.91981 340.30741 355.35076
7.92381 364.36071 355.56405
7.92781 334.76759 355.78679
7.93179 348.63541 356.01793
7.93580 345.48324 356.26060
7.93981 342.41525 356.51343
7.94379 364.34626 356.77474
7.94778 374.40728 357.04729
7.95176 365.81416 357.33042
7.95577 347.74562 357.62597
7.95975 355.01651 357.93128
7.96373 354.21776 358.24823
7.96775 347.63403 358.58019
7.97172 348.28618 358.92173
7.97573 340.39492 359.27793
7.97974 360.10220 359.64755
7.98372 355.89346 360.02796
7.98771 374.81698 360.42289
7.99171 340.64423 360.83239
7.99571 357.31806 361.25731
7.99970 360.59174 361.69622
8.00367 349.34498 362.14906
8.00769 353.22220 362.62256
8.01166 338.26552 363.10757
8.01565 356.32272 363.61131
8.01967 349.73913 364.13708
8.02366 362.99207 364.67837
8.02766 367.47592 365.23879
8.03163 350.38895 365.81461
8.03565 358.22428 366.41802
8.03964 355.35916 367.03831
8.04363 366.45453 367.68102
8.04763 361.28237 368.34636
8.05162 351.53540 369.03448
8.05560 354.10408 369.74625
8.05959 344.62044 370.48395
8.06360 355.34559 371.25073
8.06758 356.17177 372.04652
8.07157 344.81254 372.86857
8.07559 370.76576 373.72465
8.07957 360.48064 374.60258
8.08357 354.71524 375.51728
8.08756 348.98640 376.46308
8.09157 356.20378 377.44902
8.09557 366.74157 378.46829
8.09953 347.72786 379.51592
8.10354 350.22403 380.61584
8.10752 348.35713 381.75048
8.11151 358.31622 382.93136
8.11551 355.91174 384.15808
8.11952 363.07597 385.43949
8.12351 371.84472 386.76084
8.12750 357.28036 388.13686
8.13151 372.01663 389.57565
8.13550 366.49847 391.06495
8.13949 372.42265 392.61575
8.14348 358.91914 394.22994
8.14748 351.86041 395.91769
8.15146 367.83734 397.66414
8.15545 363.80425 399.49348
8.15946 367.91751 401.40719
8.16344 369.64306 403.39425
8.16744 385.04265 405.47845
8.17142 379.17415 407.64483
8.17543 377.58112 409.92807
8.17941 375.27265 412.29793
8.18340 376.63004 414.78753
8.18743 373.34360 417.41420
8.19141 362.33465 420.13872
8.19540 371.93550 423.00877
8.19939 396.75022 426.01114
8.20337 398.39984 429.16457
8.20737 392.87730 432.49401
8.21136 393.17336 435.99103
8.21537 387.85017 439.68223
8.21935 391.68164 443.54847
8.22335 416.99891 447.64471
8.22735 383.51383 451.97661
8.23134 403.21980 456.53264
8.23533 412.56042 461.36504
8.23932 421.58737 466.46541
8.24333 400.62630 471.90418
8.24732 425.97483 477.63269
8.25130 410.33006 483.71222
8.25532 427.73721 490.24032
8.25929 425.08907 497.08444
8.26326 432.42689 504.38990
8.26726 459.60503 512.22016
8.27127 444.22786 520.61358
8.27527 457.28933 529.52928
8.27925 456.59172 539.03578
8.28327 473.22470 549.29967
8.28725 490.89953 560.16914
8.29125 500.73079 571.89812
8.29524 493.85756 584.41040
8.29924 543.99590 597.87300
8.30323 537.27210 612.26587
8.30721 563.64616 627.66155
8.31122 577.79430 644.26626
8.31520 593.77044 661.85213
8.31920 624.67326 680.75858
8.32320 640.36100 700.91351
8.32718 679.62460 722.18851
8.33118 691.58471 744.73987
8.33518 750.12510 768.42501
8.33919 780.00744 793.23237
8.34318 836.91108 818.67429
8.34715 860.57002 844.54325
8.35115 887.24849 870.75562
8.35513 889.72068 896.52506
8.35913 962.89936 921.52031
8.36313 980.60878 945.07230
8.36713 1030.97487 966.41652
8.37111 1038.76128 984.80911
8.37510 1039.95181 999.81493
8.37910 1063.72668 1010.90803
8.38311 1051.42740 1017.72395
8.38710 1063.50915 1020.16510
8.39109 1072.91320 1018.37519
8.39508 1091.43121 1012.66673
8.39906 1059.32985 1003.60482
8.40306 1085.71209 991.67947
8.40707 1027.46083 977.57707
8.41105 1016.44598 962.05800
8.41504 998.38491 945.59348
8.41904 970.65341 928.65794
8.42304 979.37431 911.71176
8.42703 932.25794 895.14961
8.43102 927.81866 879.13746
8.43504 907.17316 863.73165
8.43902 843.58308 849.23218
8.44301 865.66284 835.47124
8.44700 849.92761 822.54603
8.45100 814.80057 810.30932
8.45498 780.03792 798.81198
8.45898 799.12871 787.85215
8.46300 785.63193 777.38433
8.46697 772.11961 767.47440
8.47096 728.54892 757.88297
8.47497 732.05962 748.53286
8.47896 719.04585 739.46545
8.48296 685.81973 730.53416
8.48694 698.46634 721.75885
8.49096 688.26461 712.99619
8.49495 660.03895 704.33665
8.49893 646.01112 695.73638
8.50294 666.09468 687.07602
8.50691 646.06324 678.50554
8.51090 639.72952 669.90664
8.51489 608.41490 661.32069
8.51889 602.91161 652.72555
8.52288 616.85809 644.20815
8.52686 600.02817 635.73964
8.53088 587.32129 627.25818
8.53485 589.24152 618.94486
8.53886 601.82433 610.65974
8.54286 586.60313 602.50929
8.54685 565.41739 594.49848
8.55084 568.91255 586.61975
8.55482 567.87878 578.92069
8.55884 553.01003 571.31841
8.56281 545.59418 563.96217
8.56680 530.79986 556.76499
8.57080 535.74994 549.73158
8.57480 520.95310 542.89753
8.57880 547.55965 536.25362
8.58279 525.82641 529.83535
8.58681 526.33600 523.56745
8.59079 522.34698 517.54702
8.59478 513.86951 511.71952
8.59878 497.07505 506.06232
8.60277 520.22692 500.62244
8.60674 492.29509 495.39168
8.61074 481.70677 490.31026
8.61475 488.80296 485.40272
8.61873 510.19834 480.70714
8.62272 494.63412 476.17193
8.62674 496.44301 471.77130
8.63073 489.01682 467.56814
8.63472 492.50618 463.52550
8.63871 477.79542 459.62602
8.64271 471.14855 455.87701
8.64670 486.98323 452.26770
8.65069 470.08263 448.80387
8.65468 474.93309 445.47247
8.65866 458.39521 442.26787
8.66266 455.10546 439.17937
8.66665 456.60464 436.20849
8.67067 454.33945 433.33608
8.67464 469.37862 430.59948
8.67863 470.99780 427.95694
8.68265 445.99803 425.39663
8.68663 459.61605 422.95676
8.69064 457.68113 420.59422
8.69463 456.03123 418.32690
8.69862 455.99673 416.14587
8.70261 473.52407 414.04416
8.70659 458.47618 412.02763
8.71061 452.84563 410.06700
8.71458 443.05045 408.20174
8.71857 441.08684 406.39421
8.72259 431.77981 404.64479
8.72657 430.67703 402.97006
8.73057 434.26407 401.35049
8.73456 463.40028 399.79621
8.73856 427.17404 398.28926
8.74255 444.84838 396.84273
8.74654 431.21554 395.45030
8.75055 423.68781 394.09854
8.75452 427.87101 392.80714
8.75851 406.48638 391.55832
8.76250 430.23628 390.34961
8.76651 420.98268 389.18043
8.77050 425.22808 388.05860
8.77449 421.56963 386.97512
8.77851 406.97406 385.92165
8.78249 431.53060 384.91562
8.78648 428.03069 383.94125
8.79048 431.27623 383.00025
8.79446 427.06775 382.09504
8.79846 424.81136 381.21827
8.80244 405.74741 380.37660
8.80645 431.50895 379.55758
8.81044 405.52194 378.77128
8.81442 414.33815 378.01251
8.81842 429.80617 377.27763
8.82242 422.32817 376.56842
8.82641 406.06541 375.88585
8.83041 414.18650 375.22672
8.83442 407.91461 374.58791
8.83841 417.94098 373.97534
8.84239 425.60589 373.38507
8.84639 431.40965 372.81312
8.85038 424.60500 372.26301
8.85437 417.96920 371.73246
8.85836 416.71355 371.22112
8.86236 420.27188 370.72664
8.86635 424.19204 370.25260
8.87033 408.95026 369.79635
8.87435 397.00001 369.35267
8.87834 411.66696 368.92796
8.88233 415.12762 368.52064
8.88633 407.95460 368.12674
8.89032 417.45002 367.74912
8.89431 399.04332 367.38649
8.89831 413.40868 367.03749
8.90231 403.43699 366.70279
8.90629 400.70056 366.38229
8.91027 400.71556 366.07551
8.91426 410.57622 365.78107
8.91828 400.04602 365.49666
8.92228 407.03460 365.22644
8.92625 404.23981 364.96960
8.93027 390.01955 364.72201
8.93425 399.94888 364.48804
8.93824 390.76758 364.26480
8.94225 397.61086 364.05104
8.94624 401.40584 363.84937
8.95024 401.76950 363.65786
8.95421 400.22496 363.47774
8.95821 399.08556 363.30628
8.96219 421.20860 363.14576
8.96618 389.54602 362.99463
8.97019 397.08268 362.85238
8.97418 408.99273 362.71978
8.97819 397.20301 362.59607
8.98217 402.73290 362.48225
8.98618 396.34435 362.37647
8.99018 406.55286 362.27986
8.99415 414.05411 362.19238
8.99817 414.22824 362.11245
9.00214 407.43248 362.04179
9.00614 401.81574 361.97893
9.01013 392.94517 361.92433
9.01413 403.60692 361.87766
9.01813 396.51010 361.83900
9.02613 402.88064 361.78521
9.03011 390.79726 361.77000
9.03410 400.70020 361.76235
9.03809 396.29876 361.76224
9.04209 410.69672 361.76963
9.04608 383.53714 361.78447
9.05407 395.09958 361.83616
9.05806 397.27182 361.87293
9.06204 411.58279 361.91679
9.06604 390.76231 361.96809
9.07404 410.49753 362.09224
9.07802 394.41870 362.16457
9.08203 420.96121 362.24467
9.08603 396.65368 362.33160
9.09000 403.43172 362.42499
9.09402 409.25053 362.52659
9.09801 410.86410 362.63454
9.10199 412.54184 362.74945
9.10598 404.00220 362.87125
9.10998 380.39301 363.00069
9.11397 402.34874 363.13701
9.11795 386.77053 363.27976
9.12196 400.64422 363.43108
9.12597 399.87740 363.58936
9.12995 394.56755 363.75379
9.13394 393.65695 363.92560
9.13795 399.84676 364.10572
9.14194 401.58385 364.29220
9.14591 400.37810 364.48496
9.14991 388.75908 364.68663
9.15392 396.53036 364.89618
9.15790 413.38814 365.11149
9.16189 396.33290 365.33549
9.16591 389.92490 365.56819
9.16990 417.82125 365.80739
9.17387 399.06055 366.05305
9.17789 416.85291 366.30921
9.18188 401.93000 366.57173
9.18586 400.03575 366.84153
9.18986 410.75919 367.12062
9.19386 411.42390 367.40878
9.19786 399.07122 367.70445
9.20182 408.98876 368.00564
9.20585 392.95379 368.32082
9.20982 414.96677 368.64047
9.21380 417.75883 368.96884
9.21780 409.34031 369.30817
9.22181 404.03421 369.65694
9.22581 395.94867 370.01530
9.22979 404.80993 370.38007
9.23380 417.04322 370.75761
9.23779 409.93187 371.14286
9.24177 410.30352 371.53659
9.24579 404.68078 371.94485
9.24977 421.69751 372.35900
9.25375 414.43486 372.78388
9.25775 398.61648 373.22442
9.26175 411.24072 373.67373
9.26573 415.20020 374.13129
9.26970 414.56168 374.59786
9.27374 402.29621 375.08341
9.27772 398.07597 375.57524
9.28170 417.14628 376.07797
9.28570 421.20837 376.59502
9.28970 411.05187 377.12504
9.29371 428.50399 377.66924
9.29768 425.03000 378.22026
9.30168 402.70443 378.78971
9.30568 416.97601 379.37198
9.30965 409.48699 379.96429
9.31365 407.28832 380.57713
9.31765 407.98000 381.20092
9.32166 424.35608 381.84424
9.32563 404.40951 382.49483
9.32965 416.53373 383.16866
9.33364 427.79875 383.85494
9.33761 417.30436 384.55411
9.34163 442.45172 385.27767
9.34562 412.34483 386.01412
9.34961 412.41742 386.76908
9.35360 429.92753 387.54083
9.35759 436.49913 388.33204
9.36159 410.22500 389.14407
9.36557 425.72062 389.97216
9.36956 417.99799 390.82273
9.37357 430.28092 391.69969
9.37756 432.36074 392.59193
9.38155 434.76821 393.50627
9.38557 424.16820 394.45194
9.38955 435.35055 395.41258
9.39352 404.81018 396.39304
9.39753 413.20966 397.40885
9.40152 426.79724 398.44426
9.40550 433.23692 399.50473
9.40950 448.91822 400.59547
9.41350 429.94085 401.71729
9.41750 425.27900 402.86715
9.42149 429.27426 404.04189
9.42549 444.04801 405.25258
9.42949 440.81799 406.49646
9.43347 442.58532 407.76543
9.43748 446.29637 409.07604
9.44148 445.37912 410.42130
9.44548 451.87602 411.80269
9.44944 450.85364 413.20772
9.45346 452.15354 414.67345
9.45744 448.67056 416.16472
9.46141 440.67970 417.69101
9.46543 453.88046 419.28039
9.46942 448.48377 420.90341
9.47343 458.09814 422.58303
9.47740 451.69756 424.28938
9.48141 469.14964 426.06507
9.48542 476.58880 427.89130
9.48938 469.76667 429.74767
9.49339 457.06717 431.68730
9.49740 474.91238 433.67813
9.50137 468.09378 435.71412
9.50537 450.15291 437.82106
9.50935 469.74309 439.98606
9.51336 468.03304 442.23588
9.51732 468.41200 444.52292
9.52134 466.25486 446.91715
9.52535 458.40658 449.38041
9.52931 482.22865 451.89540
9.53332 487.73658 454.51911
9.53732 485.53411 457.22035
9.54133 478.92847 460.01820
9.54528 495.59325 462.86974
9.54930 482.08851 465.86370
9.55331 486.31228 468.95005
9.55727 473.89568 472.10232
9.56126 490.86255 475.38805
9.56527 499.57324 478.80310
9.56927 501.44717 482.33367
9.57325 521.20317 485.96441
9.57726 505.06157 489.75708
9.58126 498.03227 493.68022
9.58523 525.43215 497.70628
9.58925 522.99304 501.93907
9.59324 512.84795 506.29976
9.59723 535.69018 510.81204
9.60122 517.47022 515.50255
9.60520 543.32243 520.36787
9.60921 518.87153 525.44873
9.61319 536.93189 530.68612
9.61718 530.27873 536.15464
9.62119 532.04859 541.86104
9.62519 546.49150 547.78383
9.62917 567.11439 553.92417
9.63317 568.03648 560.34825
9.63718 553.71364 567.04996
9.64114 579.22607 573.96007
9.64517 553.71143 581.26832
9.64916 568.24144 588.83023
9.65312 609.16703 596.67838
9.65712 603.04682 604.92781
9.66112 592.59259 613.54390
9.66513 590.39764 622.58263
9.66910 607.55366 631.93049
9.67311 611.54414 641.80115
9.67711 633.09426 652.11373
9.68110 648.23282 662.87452
9.68508 650.55057 674.13156
9.68910 650.05539 686.03786
9.69309 680.92474 698.45450
9.69706 676.19690 711.36636
9.70107 674.12128 725.10676
9.70506 699.11797 739.44166
9.70904 709.34556 754.46012
9.71303 696.54602 770.28485
9.71705 724.50602 787.05051
9.72105 724.53215 804.60099
9.72501 763.54291 822.91834
9.72904 779.09182 842.53454
9.73303 796.35799 863.02041
9.73700 811.59863 884.55016
9.74101 849.12844 907.41870
9.74500 864.79332 931.46604
9.74900 863.54897 956.97775
9.75296 911.48258 983.65090
9.75698 941.16451 1012.27974
9.76097 970.72109 1042.31794
9.76495 982.06124 1074.07387
9.76895 1019.07586 1107.86307
9.77296 1059.59186 1143.68427
9.77695 1117.14049 1181.52841
9.78094 1158.87755 1221.62006
9.78494 1194.97767 1264.34725
9.78895 1244.69791 1309.63504
9.79290 1310.56770 1357.05776
9.79693 1352.46267 1408.25201
9.80092 1408.17910 1461.96342
9.80489 1505.86079 1518.52760
9.80888 1556.26257 1578.49678
9.81289 1660.33318 1641.88350
9.81690 1712.43177 1708.52655
9.82087 1839.78013 1777.40843
9.82488 1894.99936 1849.57049
9.82888 1997.14984 1923.72356
9.83285 2062.00150 1998.76614
9.83685 2172.11875 2074.47467
9.84086 2221.19276 2149.25297
9.84485 2299.81556 2221.00012
9.84882 2350.32617 2287.72028
9.85284 2486.25535 2348.18927
9.85683 2475.61146 2399.03384
9.86080 2462.08651 2438.08076
9.86480 2486.08657 2464.11424
9.86880 2513.54169 2475.34305
9.87281 2501.66713 2471.08922
9.87678 2457.78292 2451.66764
9.88079 2443.27956 2417.59970
9.88479 2436.73012 2370.83097
9.88876 2353.73683 2313.72472
9.89277 2300.71478 2247.53590
9.89677 2217.56566 2175.42477
9.90075 2136.56068 2099.73954
9.90473 2067.51066 2021.95764
9.90874 1983.19029 1943.53430
9.91274 1931.44136 1865.97160
9.91671 1809.69333 1790.98229
9.92072 1746.29467 1717.73358
9.92473 1704.86800 1647.74793
9.92870 1639.90330 1581.56891
9.93269 1584.69571 1518.58875
9.93671 1448.51529 1458.71479
9.94071 1431.25660 1402.53859
9.94468 1380.68276 1350.03191
9.94870 1330.48607 1300.02372
9.95268 1308.39602 1253.45524
9.95665 1238.93940 1209.91034
9.96065 1224.02036 1168.68820
9.96465 1182.88017 1130.01180
9.96867 1124.64874 1093.51524
9.97262 1089.08726 1059.68692
9.97665 1066.68023 1027.30583
9.98065 990.49555 997.10918
9.98460 969.57368 968.94470
9.98862 961.54530 941.98177
9.99262 924.82962 916.67216
9.99661 902.05301 892.86895
10.00058 889.46492 870.45378
10.00460 856.04914 849.06495
10.00860 850.02925 828.91682
10.01256 821.75779 810.06292
10.01657 786.43861 791.91962
10.02057 814.06614 774.80788
10.02457 736.55053 758.60330
10.02854 749.87927 743.31388
10.03256 729.43690 728.62978
10.03656 713.15542 714.74346
10.04052 690.45289 701.69064
10.04454 676.47432 689.06593
10.04854 660.13346 677.11975
10.05251 659.74983 665.81436
10.05650 658.94309 654.98991
10.06050 647.63502 644.63755
10.06451 628.83428 634.73976
10.06848 625.83581 625.38948
10.07250 610.36420 616.33975
10.07649 603.90782 607.76964
10.08047 602.01281 599.59265
10.08447 566.66497 591.71686
10.08846 579.60699 584.19796
10.09248 571.23987 576.96792
10.09644 560.22039 570.11325
10.10045 559.03272 563.48289
10.10445 562.06660 557.13309
10.10842 538.67744 551.09062
10.11242 545.10362 545.23200
10.11641 562.41907 539.63581
10.12042 524.86342 534.22097
10.12440 506.30338 529.06620
10.12842 514.17040 524.06001
10.13240 505.23750 519.28959
10.13637 477.90624 514.70652
10.14039 484.43558 510.24155
10.14439 483.83288 505.96384
10.14839 495.87659 501.85018
10.15236 491.16563 497.90622
10.15636 482.08320 494.08068
10.16036 481.04708 490.38865
10.16433 472.34648 486.85670
10.16834 478.50923 483.40586
10.17234 449.19270 480.08399
10.17632 448.97233 476.89753
10.18032 476.81446 473.80364
10.18432 476.91409 470.81397
10.18832 452.32985 467.91629
10.19230 468.30655 465.13883
10.19630 444.67015 462.42932
10.20031 459.81916 459.80942
10.20427 437.59122 457.29909
10.20827 437.56031 454.84847
10.21227 447.88214 452.47615
10.21627 439.59391 450.17841
10.22024 435.31473 447.96330
10.22427 438.89058 445.79084
10.22825 421.56029 443.70715
10.23222 435.26367 441.69367
10.23623 437.16846 439.71973
10.24023 426.33356 437.81223
10.24422 430.22547 435.96283
10.24820 427.98354 434.17596
10.25221 423.27612 432.42439
10.25620 410.83441 430.73610
10.26018 407.27051 429.09885
10.26419 442.74073 427.49730
10.26818 424.19777 425.94835
10.27218 407.65237 424.43901
10.27616 426.75062 422.98004
10.28018 413.58667 421.54748
10.28418 418.34713 420.16096
10.28814 398.62491 418.82660
10.29215 441.89354 417.50958
10.29615 408.78357 416.23448
10.30013 406.00683 414.99839
10.30411 406.62647 413.79717
10.30812 413.38003 412.61903
10.31213 414.78023 411.47189
10.31609 415.08094 410.36661
10.32011 400.94447 409.27527
10.32410 399.77159 408.22061
10.32808 416.96982 407.19650
10.33208 394.01363 406.19191
10.33609 398.37058 405.21210
10.34008 403.11925 404.26155
10.34406 397.01780 403.33829
10.34807 394.83128 402.43028
10.35207 404.94767 401.54643
10.35602 401.32523 400.69807
10.36003 398.34614 399.85531
10.36402 398.16248 399.03857
10.36803 397.14873 398.23887
10.37200 406.19648 397.46501
10.37602 398.49700 396.70139
10.38003 371.11571 395.95829
10.38398 378.19879 395.24263
10.38800 394.13466 394.53356
10.39200 385.22655 393.84291
10.39599 385.51283 393.17143
10.39996 379.37203 392.51944
10.40396 371.44162 391.87774
10.40797 402.71860 391.25119
10.41195 378.52169 390.64224
10.41594 395.27477 390.04576
10.41994 398.31078 389.46262
10.42394 403.51989 388.89264
10.42793 384.56660 388.33741
10.43195 381.24707 387.79167
10.43593 394.37763 387.26238
10.43991 377.74338 386.74691
10.44392 399.78692 386.23767
10.44792 393.62566 385.74215
10.45189 384.00649 385.26178
10.45589 371.78625 384.78939
10.45988 398.36130 384.32774
10.46387 376.96229 383.87702
10.46786 373.67347 383.43694
10.47187 375.87843 383.00436
10.47587 368.26621 382.58252
10.47984 367.86973 382.17266
10.48384 377.28673 381.76952
10.48785 384.13298 381.37518
10.49184 389.27910 380.99069
10.49582 375.57639 380.61614
10.49983 383.75673 380.24743
10.50382 369.96449 379.88864
10.50780 364.84397 379.54562
10.51179 366.16754 379.20265
10.51579 373.11692 378.86629
10.51980 359.61434 378.53727
10.52377 366.93063 378.21859
10.52779 371.78642 377.90278
10.53179 378.76425 377.59647
10.53576 374.77185 377.29862
10.53977 368.74113 377.00499
10.54377 379.38813 376.71843
10.54776 385.50794 376.43913
10.55172 367.38728 376.16770
10.55574 384.04704 375.89928
10.55973 368.19617 375.63828
10.56371 375.60018 375.38437
10.56772 348.49157 375.13408
10.57172 363.74690 374.89051
10.57571 353.54521 374.65277
10.57970 383.60057 374.42039
10.58371 354.38419 374.19249
10.58771 382.60341 373.97022
10.59168 376.98830 373.75529
10.59569 358.98800 373.54262
10.59968 376.55886 373.33645
10.60366 366.42460 373.13544
10.60765 386.33137 372.93850
10.61164 363.21670 372.74625
10.61565 364.37832 372.55800
10.61963 358.79439 372.37553
10.62365 372.45609 372.19592
10.62764 381.41586 372.02144
10.63160 364.08788 371.85298
10.63561 367.02175 371.68638
10.63963 383.12429 371.52395
10.64362 366.45089 371.36632
10.64760 373.61969 371.21324
10.65160 370.18829 371.06312
10.65558 366.88517 370.91777
10.65957 369.12786 370.77691
10.66357 378.12987 370.63826
10.66756 382.41847 370.50341
10.67156 383.17650 370.37217
10.67554 378.04214 370.24488
10.67956 370.96754 370.12010
10.68355 373.34685 370.00300
10.68752 370.91590 369.88632
10.69154 364.80632 369.77170
10.69554 366.88131 369.66077
10.69952 365.23391 369.55353
10.70350 364.92045 369.44942
10.70751 360.48176 369.34782
10.71149 393.76821 369.24997
10.71548 381.69080 369.15496
10.71949 363.55355 369.06246
10.72349 364.37288 368.97286
10.72747 371.65474 368.88690
10.73147 364.75612 368.80341
10.73547 361.85435 368.72247
10.73947 353.96616 368.64440
10.74344 383.02348 368.56957
10.74746 377.10711 368.49665
10.75145 372.05059 368.42678
10.75543 377.75329 368.35988
10.75942 380.16592 368.29524
10.76341 364.72839 368.23309
10.76740 359.53690 368.17345
10.77139 385.66432 368.11641
10.77541 385.25908 368.06136
10.77940 360.88552 368.00908
10.78338 364.80632 367.95940
10.78738 360.03546 367.91173
10.79139 358.06688 367.86639
10.79538 363.15330 367.82345
10.79935 379.52913 367.78304
10.80336 364.41901 367.74450
10.80734 352.70744 367.70843
10.81133 370.72207 367.67444
10.81533 372.56862 367.64252
10.81934 382.63950 367.61294
10.82333 360.22438 367.58535
10.82731 366.43541 367.55996
10.83132 376.32055 367.53641
10.83532 366.65950 367.51499
10.83929 360.93881 367.49573
10.84331 372.07420 367.47826
10.84731 355.92019 367.46288
10.85128 366.68734 367.44952
10.85526 355.16386 367.43806
10.85927 360.43789 367.42847
10.86326 363.25419 367.42079
10.86725 364.74564 367.41501
10.87126 367.21378 367.41107
10.87525 379.60268 367.40898
10.87923 370.24659 367.40872
10.88322 362.39930 367.41027
10.88723 382.47093 367.41392
10.89123 365.49097 367.41904
10.89521 358.72895 367.42589
10.89922 379.06347 367.43455
10.90320 361.08934 367.44486
10.90718 366.94089 367.45687
10.91117 363.58575 367.47062
10.91517 376.10642 367.48608
10.91916 345.70088 367.50316
10.92315 356.91794 367.52190
10.92717 361.91489 367.54241
10.93117 380.68254 367.56450
10.93513 364.90980 367.58843
10.93914 373.19908 367.61376
10.94314 374.12110 367.64068
10.94713 359.00030 367.66908
10.95112 374.36008 367.69900
10.95512 364.65276 367.73063
10.95910 385.60067 367.76360
10.96308 372.78526 367.79806
10.96709 352.68066 367.83432
10.97110 386.15665 367.87210
10.97509 350.51129 367.91122
10.97908 362.02118 367.95181
10.98308 363.78820 367.99405
10.98707 355.25866 368.03764
10.99106 363.67774 368.08262
10.99506 356.36005 368.12921
10.99906 376.61336 368.17721
11.00305 369.05334 368.22655
11.00703 361.93416 368.27714
11.01104 371.95662 368.32959
11.01503 369.46877 368.38324
11.01900 366.12671 368.43793
11.02301 370.53058 368.49460
11.02702 372.14003 368.55258
11.03499 369.28827 368.67207
11.03900 377.74406 368.73426
11.04299 366.33351 368.79760
11.04697 365.14439 368.86199
11.05098 373.12357 368.92821
11.05497 386.70206 368.99539
11.06294 367.21245 369.13374
11.06695 366.08780 369.20520
11.07094 371.20485 369.27776
11.07492 374.75983 369.35134
11.08293 368.18096 369.50353
11.08691 364.39886 369.58093
11.09092 379.57126 369.66027
11.09491 364.14615 369.74058
11.09890 378.32990 369.82209
11.10288 371.49105 369.90460
11.10688 360.75021 369.98899
11.11087 364.41267 370.07422
11.11485 363.21351 370.16045
11.11887 372.55843 370.24902
11.12287 382.44918 370.33813
11.12686 359.51650 370.42839
11.13084 380.76461 370.51965
11.13485 370.67354 370.61295
11.13885 379.37873 370.70704
11.14283 388.40352 370.80196
11.14684 378.81544 370.89884
11.15083 378.97450 370.99638
11.15480 355.59599 371.09465
11.15879 379.60483 371.19482
11.16280 370.19814 371.29636
11.16678 366.82128 371.39865
11.17077 378.24390 371.50225
11.17479 360.22666 371.60759
11.17878 377.36707 371.71373
11.18277 379.87415 371.82068
11.18676 384.62413 371.92907
11.19076 377.71578 372.03897
11.19476 357.76548 372.14975
11.19874 360.06365 372.26127
11.20274 371.67940 372.37457
11.20672 378.56674 372.48844
11.21070 371.04027 372.60367
11.21471 384.17137 372.72052
11.21872 369.38154 372.83871
11.22270 381.30841 372.95737
11.22669 389.38187 373.07721
11.23071 384.93386 373.19926
11.23470 376.52052 373.32130
11.23869 382.51035 373.44467
11.24269 366.60351 373.56949
11.24667 357.65253 373.69504
11.25067 389.72676 373.82194
11.25465 396.21856 374.13198
11.25865 375.80229 374.26175
11.26264 378.91227 374.39203
11.26662 369.38154 374.52350
11.27063 367.68844 374.65660
11.27463 371.24842 374.79066
11.27862 379.55283 374.92557
11.28260 381.27952 375.06146
11.28661 381.34673 375.19926
11.29061 364.28382 375.33787
11.29459 361.16652 375.47690
11.29860 380.82251 375.61813
11.30257 366.96135 375.75898
11.30655 370.42086 375.90147
11.31056 378.35655 376.04582
11.31456 375.18773 376.19099
11.31855 385.49594 376.33702
11.32254 380.02399 376.48429
11.32655 369.35038 376.63319
11.33054 378.19760 376.78252
11.33453 376.69633 376.93295
11.33853 369.43431 377.08478
11.34253 371.37487 377.23782
11.34652 374.15447 377.39155
11.35050 383.98062 377.54593
11.35450 391.95118 377.70259
11.35848 385.31115 377.85904
11.36248 375.55368 378.01736
11.36647 377.64903 378.17687
11.37047 370.36009 378.33730
11.37446 378.13080 378.49879
11.37845 380.13569 378.66124
11.38247 380.34193 378.82597
11.38646 371.28544 378.99061
11.39045 366.96692 379.15637
11.39446 381.32728 379.32393
11.39844 383.16342 379.49137
11.40241 386.83802 379.65976
11.40641 376.94064 379.82999
11.41041 378.93462 380.00179
11.41439 375.42102 380.17355
11.41838 384.92900 380.34674
11.42239 391.51449 380.52207
11.42638 383.94186 380.69779
11.43037 385.93350 380.87437
11.43436 384.20986 381.05204
11.43838 380.59683 381.23211
11.44237 385.72942 381.41196
11.44636 390.19961 381.59291
11.45036 394.05786 381.77512
11.45433 379.79920 381.95760
11.45832 381.90397 382.14186
11.46232 360.26036 382.32763
11.46632 386.21316 382.51455
11.47031 368.41442 382.70205
11.47430 382.26358 382.89050
11.47832 389.88969 383.08172
11.48230 378.57882 383.27204
11.48630 381.40884 383.46423
11.49031 388.77184 383.65816
11.49429 382.76932 383.85175
11.49828 387.97773 384.04731
11.50226 392.71719 384.24267
11.50628 380.18363 384.44185
11.51026 393.79336 384.63973
11.51424 392.76799 384.83907
11.51825 380.55864 385.04084
11.52224 390.53434 385.24279
11.52623 387.90080 385.44603
11.53022 378.48203 385.65009
11.53423 374.33627 385.85654
11.53822 389.62905 386.06305
11.54221 388.91482 386.27076
11.54622 382.91115 386.48086
11.55020 382.46450 386.69032
11.55419 384.45344 386.90147
11.55818 375.41742 387.11380
11.56218 365.01594 387.32822
11.56616 377.40321 387.54200
11.57015 389.02957 387.75789
11.57417 394.24555 387.97674
11.57814 390.37170 388.19412
11.58214 390.50451 388.41446
11.58614 385.22627 388.63579
11.59014 391.64155 388.85825
11.59414 373.12906 389.08169
11.59812 381.96928 389.30588
11.60213 375.54805 389.53288
11.60610 377.46216 389.75878
11.61009 378.97495 389.98717
11.61409 398.38208 390.21734
11.61809 379.93925 390.44901
11.62210 396.03361 390.68239
11.62607 404.25639 390.91514
11.63009 399.19858 391.15198
11.63407 391.80793 391.38827
11.63806 386.55526 391.62603
11.64207 381.70653 391.86649
11.64605 396.39594 392.10709
11.65005 392.70235 392.34964
11.65401 417.77879 392.59199
11.65803 393.10753 392.83906
11.66201 375.87071 393.08509
11.66600 385.77274 393.33382
11.67000 404.25934 393.58436
11.67401 383.53057 393.83724
11.67800 395.03685 394.09072
11.68199 397.89468 394.34586
11.68600 400.48372 394.60410
11.68999 386.43547 394.86258
11.69399 379.23387 395.12381
11.69798 396.08753 395.38640
11.70196 393.64263 395.65004
11.70594 391.04527 395.91557
11.70994 402.07082 396.18440
11.71395 396.76246 396.45619
11.71793 413.27893 396.72801
11.72192 395.16383 397.00272
11.72593 394.57187 397.28114
11.72992 391.84002 397.56031
11.73392 385.01058 397.84273
11.73790 409.67283 398.12672
11.74191 385.18295 398.41451
11.74589 393.54172 398.70366
11.74989 408.60919 398.99600
11.75390 409.18297 399.29261
11.75786 386.44230 399.58876
11.76186 405.78470 399.89015
11.76585 379.08201 400.19497
11.76985 401.72759 400.50322
11.77385 384.42853 400.81511
11.77784 402.64741 401.12960
11.78185 393.54668 401.44980
11.78583 404.15748 401.77122
11.78984 395.81025 402.09956
11.79384 400.07554 402.43143
11.79781 394.58180 402.76566
11.80181 408.71722 403.10686
11.80578 396.09646 403.45030
11.80980 396.09646 403.80338
11.81378 388.51385 404.15858
11.81776 402.57909 404.51951
11.82179 400.78081 404.89095
11.82576 383.94196 405.26429
11.82976 390.43043 405.64680
11.83376 406.60711 406.03607
11.83776 406.55952 406.43422
11.84176 407.31741 406.83984
11.84573 400.79555 407.25140
11.84975 401.28799 407.67788
11.85372 411.50047 408.10853
11.85770 423.66628 408.55078
11.86170 402.25095 409.00719
11.86571 408.45496 409.47579
11.86970 396.53111 409.95588
11.87369 396.13332 410.44940
11.87770 410.61252 410.96148
11.88168 401.63491 411.48546
11.88568 400.21138 412.02892
11.88969 407.11751 412.59262
11.89367 411.34109 413.17242
11.89767 390.18989 413.77739
11.90164 413.77748 414.40173
11.90565 407.56768 415.05796
11.90962 405.33843 415.73518
11.91362 397.33300 416.44789
11.91762 409.24989 417.19383
11.92162 404.04142 417.97830
11.92561 417.92172 418.79894
11.92961 417.82555 419.66503
11.93362 393.75629 420.58306
11.93760 411.84171 421.54559
11.94160 409.35378 422.57368
11.94560 414.46292 423.66443
11.94958 404.53848 424.82343
11.95355 422.05849 426.05587
11.95755 424.36367 427.38374
11.96157 416.18555 428.82130
11.96554 422.25435 430.34540
11.96953 425.69029 432.00197
11.97355 433.22135 433.80441
11.97753 410.64888 435.74614
11.98153 423.51462 437.86231
11.98552 444.46681 440.16804
11.98953 443.21441 442.69926
11.99351 432.30732 445.45418
11.99750 429.62478 448.48191
12.00151 443.09736 451.83646
12.00548 447.54541 455.48219
12.00947 467.05622 459.51828
12.01347 469.28021 463.99376
12.01748 494.25663 468.92107
12.02147 475.15786 474.33622
12.02545 488.19492 480.26332
12.02947 512.26076 486.83652
12.03344 510.07725 493.95127
12.03744 536.75888 501.75949
12.04145 551.84212 510.28504
12.04543 553.98542 519.46021
12.04943 575.06477 529.48880
12.05340 575.35142 540.35262
12.05742 584.42343 552.40815
12.06139 592.89044 565.51904
12.06539 603.11714 579.94417
12.06940 619.60143 595.42548
12.07338 602.76384 610.83889
12.07739 624.80349 624.38580
12.08136 627.90055 633.03798
12.08538 625.01258 634.00318
12.08937 603.67118 626.22694
12.09336 617.51280 611.14468
12.09736 595.90729 591.81395
12.10135 579.88493 571.59324
12.10532 567.66142 552.51376
12.10932 578.54835 535.43103
12.11333 542.40358 520.72708
12.11731 516.19392 508.36920
12.12131 513.77901 497.93908
12.12532 503.03709 489.15700
12.12931 506.42331 481.78936
12.13329 502.28632 475.58251
12.13731 496.15211 470.26536
12.14130 502.03101 465.74845
12.14529 486.72411 461.86731
12.14927 463.94890 458.52464
12.15327 474.72550 455.61799
12.15725 470.66508 453.09601
12.16124 461.54233 450.88953
12.16523 452.46025 448.95437
12.16925 451.89673 447.24234
12.17323 462.10475 445.74927
12.17722 469.18109 444.42424
12.18123 442.85229 443.06440
12.18521 446.20873 442.03016
12.18921 460.85405 441.10768
12.19322 455.46742 440.28822
12.19720 448.30879 439.56479
12.20118 444.88560 438.92357
12.20517 429.80814 438.35196
12.20919 434.72138 437.84211
12.21316 450.55691 437.39708
12.21715 449.65389 437.00110
12.22116 444.56727 436.65081
12.22515 438.19928 436.34423
12.22914 444.44444 436.07642
12.23312 432.71503 435.84381
12.23715 439.43464 435.64099
12.24112 442.40002 435.46943
12.24512 442.42782 435.32348
12.24913 442.55105 435.20114
12.25310 433.68712 435.10228
12.25709 417.59566 435.02294
12.26109 442.69728 434.96210
12.26509 431.11909 434.91844
12.26907 431.35678 434.89079
12.27306 433.89899 434.87761
12.27709 426.53005 434.87796
12.28105 454.43478 434.89064
12.28505 446.16312 434.91500
12.28906 428.13932 434.95010
12.29305 424.82322 434.99501
12.29704 427.51621 435.04919
12.30101 429.85794 435.11148
12.30504 448.18321 435.18268
12.30901 456.25353 435.26028
12.31300 446.84992 435.34523
12.31701 438.20211 435.43702
12.32100 437.63742 435.53465
12.32500 429.53695 435.63796
12.32898 420.09087 435.74580
12.33300 444.18762 435.85967
12.33699 431.62940 435.97717
12.34097 445.32044 436.09899
12.34499 439.67195 436.22580
12.34897 432.94259 436.35517
12.35294 422.80219 436.48772
12.35694 440.14407 436.62437
12.36094 436.24860 436.76413
12.36493 447.69296 436.90650
12.36891 425.95707 437.05147
12.37292 434.26735 437.19974
12.37692 447.26300 437.34985
12.38090 443.38462 437.50169
12.38490 433.08361 437.65655
12.38890 424.77166 437.81343
12.39290 451.08027 437.97185
12.39687 455.97259 438.13087
12.40088 439.53065 438.29309
12.40487 429.98983 438.45628
12.40884 438.16361 438.61986
12.41284 435.83596 438.78612
12.41685 451.42828 438.95390
12.42084 441.22557 439.12204
12.42483 434.90155 439.29160
12.42884 437.25611 439.46299
12.43283 448.98266 439.63443
12.43682 450.89101 439.80664
12.44083 427.42118 439.98069
12.44483 449.83872 440.15541
12.44880 444.31060 440.32938
12.45279 430.57245 440.50490
12.45680 421.42248 440.68250
12.46077 430.96764 440.85860
12.46477 428.75056 441.03646
12.46877 445.68189 441.21525
12.47277 430.30607 441.39464
12.47676 457.40090 441.57398
12.48074 433.15427 441.75381
12.48476 434.18559 441.93550
12.48874 434.39096 442.11644
12.49274 437.62776 442.29822
12.49675 450.01443 442.48113
12.50072 435.71563 442.66309
12.50471 425.74642 442.84618
12.50870 442.65997 443.02977
12.51271 422.88981 443.21474
12.51669 431.46158 443.39865
12.52068 449.94918 443.58381
12.52470 440.07622 443.77109
12.52867 438.81772 443.95611
12.53268 424.95107 444.14375
12.53667 429.96514 444.33109
12.54067 458.80582 444.51970
12.54466 441.61188 444.70833
12.54863 457.49815 444.89673
12.55266 447.50896 445.08835
12.55663 431.29388 445.27823
12.56062 446.91841 445.46941
12.56462 430.56878 445.66220
12.56861 435.31004 445.85571
12.57261 437.94925 446.05036
12.57660 445.48123 446.24521
12.58061 439.00236 446.44275
12.58460 438.45499 446.63989
12.58858 443.93736 446.83788
12.59260 459.11997 447.03890
12.59658 453.55657 447.23983
12.60057 444.68960 447.44211
12.60455 439.89975 447.64573
12.60855 445.15773 447.85240
12.61254 441.35996 448.05981
12.61653 439.43916 448.26911
12.62054 439.96095 448.48155
12.62454 448.96169 448.69589
12.62852 446.88479 448.91153
12.63252 441.42632 449.13039
12.63653 449.17910 449.35262
12.64051 445.10192 449.57607
12.64451 455.25277 449.80344
12.64851 468.22910 450.03421
12.65250 431.16355 450.26739
12.65647 452.92283 450.50347
12.66046 452.62236 450.74503
12.66447 452.14385 450.99164
12.66845 443.42542 451.24110
12.67245 433.10984 451.49615
12.67646 452.39319 451.75752
12.68045 439.39736 452.02296
12.68444 460.51675 452.29496
12.68844 455.39047 452.57359
12.69244 438.29025 452.85918
12.69643 454.95349 453.15136
12.70041 426.43410 453.45069
12.70442 445.75457 453.76066
12.70840 464.56140 454.07728
12.71238 475.64858 454.40458
12.71639 449.80081 454.74365
12.72039 460.89627 455.09475
12.72438 444.17163 455.45670
12.72837 458.57447 455.83206
12.73239 463.12888 456.22389
12.73637 475.13840 456.62877
12.74035 456.58713 457.05025
12.74437 456.04939 457.49386
12.74835 464.09948 457.95287
12.75234 446.90947 458.43479
12.75631 457.87569 458.93809
12.76033 447.29459 459.47268
12.76430 456.95389 460.02899
12.76829 457.76130 460.61814
12.77232 440.27693 461.24549
12.77629 458.01871 461.90214
12.78029 459.95893 462.60241
12.78428 451.79629 463.34583
12.78829 458.37404 464.13987
12.79229 460.06710 464.98686
12.79626 455.03228 465.88738
12.80027 465.28047 466.86080
12.80426 453.57675 467.89901
12.80824 463.83490 469.01609
12.81223 463.70129 470.22577
12.81624 468.11387 471.53474
12.82023 475.60045 472.95112
12.82421 462.79006 474.48128
12.82823 464.23833 476.15996
12.83222 468.37774 477.97283
12.83621 488.17498 479.94847
12.84022 463.48944 482.11447
12.84420 461.16669 484.45957
12.84819 496.30576 487.01802
12.85216 504.75082 489.78702
12.85618 473.52680 492.82395
12.86017 503.88015 496.07622
12.86414 497.77867 499.55236
12.86815 513.89289 503.27338
12.87215 499.21778 507.16855
12.87614 525.28340 511.17629
12.88014 507.26922 515.22109
12.88414 507.25944 519.19668
12.88814 511.34330 522.92863
12.89212 510.45501 526.25966
12.89613 516.59426 529.05013
12.90012 503.68962 531.11276
12.90408 518.86804 532.35200
12.90807 527.92132 532.73714
12.91209 516.78138 532.26834
12.91606 509.76856 531.04036
12.92006 514.81676 529.17540
12.92407 511.40546 526.83512
12.92806 515.10788 524.19804
12.93205 499.93738 521.40599
12.93606 502.10379 518.56875
12.94006 505.97161 515.80032
12.94404 502.26459 513.16343
12.94803 491.08395 510.68894
12.95204 484.09589 508.38252
12.95602 496.71403 506.27531
12.96000 486.94086 504.34253
12.96400 497.98594 502.55923
12.96801 464.25576 500.91584
12.97199 488.31273 499.40208
12.97598 485.95931 497.99016
12.98000 497.88006 496.64828
12.98398 468.91065 495.38615
12.98797 475.55283 494.17095
12.99198 478.79600 492.98764
12.99597 487.44982 491.83718
12.99996 464.77429 490.70687
13.00392 462.76443 489.59742
13.00795 461.90024 488.48472
13.01193 467.53897 487.39398
13.01591 464.41423 486.31132
13.01992 481.92892 485.23314
13.02392 469.46503 484.17242
13.02791 470.91184 483.12677
13.03190 458.00610 482.10058
13.03591 462.55953 481.08854
13.03990 483.03019 480.10476
13.04388 483.24766 479.14790
13.04789 463.78841 478.21248
13.05187 456.70866 477.31305
13.05585 475.49896 476.44454
13.05984 463.25212 475.60742
13.06386 474.29801 474.79620
13.06784 476.08203 474.02289
13.07183 474.12446 473.28316
13.07585 453.46641 472.57038
13.07984 463.54785 471.89689
13.08382 467.28177 471.25602
13.08783 467.05688 470.64478
13.09182 464.90702 470.06531
13.09581 451.12970 469.51795
13.09979 455.99900 469.00080
13.10379 475.66540 468.50915
13.10778 484.35136 468.04753
13.11177 457.50310 467.61178
13.11576 457.14286 467.20093
13.11976 467.82339 466.81451
13.12375 462.78843 466.45389
13.12774 458.74909 466.11509
13.13176 481.73850 465.79568
13.13575 466.47580 465.49950
13.13973 454.33753 465.22407
13.14374 467.13577 464.96582
13.14773 479.40824 464.72754
13.15171 467.70184 464.50747
13.15570 476.36532 464.30412
13.15970 456.88578 464.11664
13.16369 475.30294 463.94573
13.16768 451.33794 463.78968
13.17169 478.48636 463.64772
13.17569 471.47624 463.52046
13.17967 468.95897 463.40760
13.18367 473.63885 463.30755
13.18768 439.05731 463.22021
13.19167 483.18929 463.14577
13.19565 474.08000 463.08372
13.19965 479.47192 463.03318
13.20363 477.28664 462.99452
13.20762 465.21267 462.96708
13.21162 467.64926 462.95062
13.21563 464.45166 462.94506
13.21960 487.97560 462.95017
13.22359 480.84973 462.96575
13.22761 478.61711 462.99188
13.23159 467.68308 463.02790
13.23558 457.73680 463.07410
13.23959 470.65880 463.13053
13.24359 495.00599 463.19674
13.24759 475.49301 463.27285
13.25155 467.09204 463.35791
13.25557 486.09012 463.45397
13.25954 466.67750 463.55865
13.26352 458.57582 463.67327
13.26753 465.40220 463.79827
13.27153 476.34747 463.93269
13.27551 469.61298 464.07640
13.27950 466.16879 464.23010
13.28352 454.50573 464.39498
13.28752 477.61492 464.56868
13.29150 472.91034 464.75166
13.29550 481.72903 464.94595
13.29949 474.00593 465.14949
13.30347 468.53819 465.36328
13.30746 481.61471 465.58757
13.31146 485.46018 465.82310
13.31545 471.09967 466.06835
13.31944 474.91321 466.32719
13.32345 478.22016 466.59635
13.32745 483.78922 466.87532
13.33143 476.44018 467.16464
13.33543 474.63044 467.46698
13.33944 485.71464 467.78202
13.34343 467.54285 468.10726
13.34741 481.50783 468.44392
13.35141 484.75770 468.79553
13.35539 492.79056 469.15672
13.35938 488.40781 469.53306
13.36338 496.58548 469.92267
13.36736 477.54338 470.32441
13.37135 485.30256 470.74076
13.37535 473.78408 471.17146
13.37937 479.28477 471.62001
13.38336 478.45242 472.07973
13.38735 477.08437 472.55409
13.39136 497.34102 473.04678
13.39535 490.17110 473.55302
13.39934 465.53661 474.07552
13.40331 490.17110 474.61218
13.40731 501.28567 475.16986
13.41130 485.14505 475.74309
13.41529 492.50749 476.33573
13.41930 488.03135 476.94793
13.42329 505.02152 477.57753
13.42727 496.80384 478.22490
13.43127 489.54523 478.89362
13.43530 495.29233 479.58911
13.43928 488.50238 480.29784
13.44327 494.29402 481.02916
13.44727 482.59675 481.78394
13.45126 510.41303 482.56014
13.45523 499.50110 483.35710
13.45923 501.62313 484.18120
13.46323 499.92513 485.03239
13.46721 518.62661 485.90466
13.47121 497.36586 486.80523
13.47523 506.01176 487.73975
13.47921 501.28413 488.69163
13.48320 506.22168 489.67449
13.48720 512.25233 490.68810
13.49121 517.41691 491.73429
13.49520 518.28485 492.80829
13.49917 511.06926 493.90796
13.50319 522.27948 495.05255
13.50715 526.67423 496.21751
13.51115 512.34329 497.42449
13.51515 517.94328 498.66947
13.51914 526.61666 499.94914
13.52313 516.40581 501.26405
13.52711 503.75949 502.61718
13.53114 508.51305 504.02389
13.53512 534.57669 505.45940
13.53912 540.52033 506.94347
13.54312 538.51042 508.47090
13.54711 524.91081 510.03974
13.55110 531.46260 511.65388
13.55508 547.88913 513.31120
13.55909 526.29478 515.03158
13.56306 540.17367 516.78749
13.56706 545.42281 518.60648
13.57106 525.46957 520.48298
13.57506 543.95968 522.41396
13.57904 529.36922 524.39335
13.58304 531.47132 526.43670
13.58705 561.77813 528.55267
13.59104 551.55211 530.71860
13.59503 550.07295 532.94660
13.59903 559.93018 535.24893
13.60301 555.23274 537.60643
13.60699 560.98017 540.03675
13.61099 570.25989 542.54729
13.61500 557.21592 545.13950
13.61897 547.65141 547.78681
13.62297 574.29864 550.52452
13.62699 584.00279 553.36524
13.63098 577.35868 556.26182
13.63497 581.24174 559.24235
13.63897 584.44117 562.32155
13.64296 585.64073 565.48240
13.64696 599.82546 568.73978
13.65094 595.91654 572.07918
13.65495 579.57280 575.53532
13.65892 576.20271 579.05679
13.66291 596.49998 582.69614
13.66691 578.00556 586.45125
13.67091 616.18226 590.31245
13.67491 588.92034 594.26965
13.67889 612.49549 598.32279
13.68291 624.94080 602.52076
13.68690 596.17542 606.80870
13.69088 613.42999 611.19872
13.69489 611.65157 615.73401
13.69887 605.95185 620.34933
13.70286 630.69216 625.09258
13.70684 609.64168 629.93916
13.71086 619.55817 634.94823
13.71483 626.53244 640.02527
13.71882 628.11935 645.23304
13.72285 638.92350 650.60840
13.72683 663.95752 656.04372
13.73083 659.89241 661.61027
13.73482 645.08575 667.27910
13.73882 653.07343 673.06837
13.74281 682.69327 678.94682
13.74680 651.93012 684.93178
13.75080 664.35779 691.00648
13.75478 683.81858 697.14733
13.75876 681.96199 703.36573
13.76276 665.08882 709.68407
13.76676 688.57481 716.07484
13.77075 700.70519 722.46955
13.77473 687.68993 728.90407
13.77876 691.02924 735.40815
13.78274 689.02667 741.85918
13.78673 717.58711 748.29713
13.79073 737.88198 754.71815
13.79472 719.91830 761.07522
13.79872 718.82324 767.37195
13.80271 714.84784 773.58239
13.80671 732.11215 779.71416
13.81068 706.55044 785.70165
13.81467 733.11977 791.58090
13.81868 734.53014 797.37128
13.82268 727.69854 802.98697
13.82667 731.74496 808.42743
13.83065 745.39977 813.68714
13.83466 751.31959 818.79962
13.83866 768.78073 823.68887
13.84264 761.42107 828.35158
13.84665 771.62979 832.81832
13.85064 781.41620 837.03175
13.85461 796.20617 840.99408
13.85861 777.09734 844.73545
13.86261 802.52906 848.23686
13.86660 779.98257 851.47217
13.87058 783.77672 854.46741
13.87460 807.95609 857.24360
13.87860 817.41643 859.77650
13.88258 838.04685 862.07488
13.88658 815.58623 864.18251
13.89058 844.15051 866.09534
13.89457 845.76755 867.83530
13.89856 840.86747 869.42289
13.90256 836.31745 870.89197
13.90653 854.47050 872.24925
13.91052 849.92089 873.54474
13.91452 879.49933 874.80236
13.91852 844.27515 876.05357
13.92252 877.26899 877.33296
13.92650 868.46268 878.66870
13.93052 914.20037 880.11739
13.93451 880.96956 881.69509
13.93850 914.04101 883.44772
13.94250 917.40288 885.42043
13.94649 943.14198 887.64470
13.95047 938.62151 890.16627
13.95445 952.81950 893.02098
13.95847 911.28781 896.28823
13.96244 968.94286 899.93627
13.96644 975.39362 904.07309
13.97046 963.74036 908.74600
13.97445 967.92117 913.93296
13.97843 989.30082 919.71169
13.98242 1002.33866 926.10865
13.98643 1020.54420 933.19968
13.99042 1005.97015 940.94675
13.99441 1046.28628 949.42833
13.99841 1061.75574 958.67655
14.00239 1054.27591 968.63704
14.00637 1065.88361 979.36624
14.01037 1097.80499 990.91170
14.01438 1080.30069 1003.27903
14.01836 1067.95440 1016.25754
14.02235 1099.20778 1029.96355
14.02637 1108.51286 1044.39356
14.03036 1135.32207 1059.24579
14.03435 1142.03230 1074.54516
14.03835 1165.63410 1090.15403
14.04234 1177.79077 1105.83518
14.04633 1154.91416 1121.44930
14.05031 1151.07484 1136.69110
14.05433 1160.64962 1151.56380
14.05829 1170.45964 1165.46200
14.06228 1208.71545 1178.38333
14.06630 1205.91417 1190.03768
14.07029 1207.32178 1200.06404
14.07428 1222.30102 1208.28722
14.07827 1206.99520 1214.50719
14.08228 1220.51269 1218.61524
14.08627 1249.54920 1220.46077
14.09025 1236.04553 1220.42766
14.09426 1215.53224 1217.69369
14.09825 1210.55053 1212.74714
14.10223 1190.89926 1205.64876
14.10623 1207.71229 1196.45416
14.11023 1177.66144 1185.26966
14.11421 1170.04738 1172.29173
14.11820 1159.57606 1157.56134
14.12222 1129.06997 1141.00574
14.12621 1102.22045 1123.07092
14.13020 1104.04516 1103.70982
14.13420 1062.87164 1083.05650
14.13820 1059.37345 1061.38354
14.14219 1017.99550 1038.94873
14.14617 968.11104 1015.99505
14.15018 958.49694 992.69801
14.15415 952.64382 969.52709
14.15813 939.95921 946.61134
14.16214 933.05824 924.01349
14.16614 875.35576 902.10139
14.17013 859.18451 880.96361
14.17412 844.34396 860.74370
14.17814 814.86087 841.30390
14.18213 793.42460 822.95768
14.18612 797.31377 805.57179
14.19012 764.87689 789.10169
14.19411 739.44144 773.60928
14.19809 740.06010 759.05180
14.20207 735.65961 745.34597
14.20608 693.78525 732.36589
14.21006 676.10677 720.27651
14.21405 673.98139 708.86798
14.21806 671.12994 698.12450
14.22206 649.15614 688.04728
14.22604 648.52506 678.62673
14.23003 636.66857 669.74586
14.23406 625.88481 661.34328
14.23803 616.40110 653.53000
14.24204 608.99172 646.12326
14.24603 614.91833 639.16317
14.25001 599.84835 632.62573
14.25400 586.55197 626.46296
14.25799 588.18268 620.62651
14.26199 578.10966 615.08064
14.26598 571.68423 609.85981
14.26997 580.36857 604.88989
14.27399 560.44120 600.12972
14.27797 561.96499 595.64525
14.28196 556.43879 591.34271
14.28596 555.28091 587.21089
14.28996 538.12417 583.23665
14.29395 540.29331 579.42270
14.29794 536.46603 575.74576
14.30195 527.91576 572.15509
14.30592 544.60817 568.70822
14.30990 546.03979 565.34277
14.31391 526.37335 562.04671
14.31789 526.57725 558.84008
14.32189 507.48864 555.69521
14.32588 521.48413 552.62057
14.32990 528.43308 549.59204
14.33388 517.66752 546.65499
14.33787 519.73864 543.77029
14.34189 520.63713 540.92804
14.34586 509.02496 538.18031
14.34985 524.91925 535.48467
14.35384 511.03991 532.85006
14.35785 502.01222 530.27416
14.36182 519.24438 527.78890
14.36582 510.00609 525.36155
14.36984 494.03579 522.99167
14.37382 493.82593 520.71740
14.37781 506.28134 518.51414
14.38181 514.77621 516.38509
14.38581 512.64856 514.32740
14.38981 508.72793 512.35469
14.39380 508.91192 510.46569
14.39780 512.17483 508.64826
14.40177 493.60033 506.92294
14.40576 476.96531 505.27089
14.40976 506.99957 503.68874
14.41375 484.28197 502.18916
14.41773 498.87668 500.77024
14.42173 496.77716 499.42172
14.42574 484.13870 498.14087
14.42973 501.57674 496.94163
14.43371 489.83040 495.81621
14.43773 501.28525 494.75456
14.44172 510.51573 493.76749
14.44571 495.41262 492.85088
14.44970 489.52821 491.99978
14.45371 494.08346 491.21206
14.45767 501.56366 490.49824
14.46167 490.96075 489.84141
14.46567 479.32858 489.17963
14.46967 495.67280 488.64695
14.47366 498.22594 488.17761
14.47765 498.70388 487.76658
14.48167 496.34420 487.41226
14.48565 480.48883 487.11931
14.48964 484.45139 486.88202
14.49365 473.35633 486.70095
14.49762 492.73528 486.57625
14.50160 502.72383 486.50605
14.50560 507.30303 486.48978
14.50962 497.43812 486.52761
14.51359 497.70545 486.61820
14.51759 511.24237 486.76184
14.52161 499.21811 486.95934
14.52559 486.78641 487.20687
14.52958 490.59413 487.50658
14.53358 521.85555 487.85834
14.53758 485.79863 488.26232
14.54158 501.99114 488.71679
14.54556 484.51179 489.22052
14.54956 499.37950 489.77796
14.55354 507.60591 490.38173
14.55752 501.94678 491.03830
14.56152 508.03101 491.74810
14.56552 505.66038 492.50801
14.56950 498.79668 493.31775
14.57350 486.41810 494.18032
14.57752 534.96104 495.10257
14.58150 502.18790 496.06577
14.58549 501.40077 497.08274
14.58950 501.23971 498.15876
14.59349 504.56975 499.28254
14.59749 519.20096 500.46066
14.60146 522.82394 501.68678
14.60547 522.81746 502.97777
14.60944 516.25699 504.31225
14.61344 507.25897 505.70938
14.61745 511.28602 507.16925
14.62144 527.19561 508.68019
14.62544 531.02797 510.25055
14.62943 506.87258 511.87822
14.63344 525.29612 513.56987
14.63743 509.30383 515.31618
14.64141 525.02295 517.12077
14.64541 520.38161 518.99776
14.64941 528.86498 520.93251
14.65337 542.16106 522.92100
14.65737 538.81595 524.99036
14.66138 557.32745 527.13248
14.66536 560.07437 529.32913
14.66936 567.85714 531.60592
14.67337 548.08515 533.96784
14.67736 556.97833 536.38757
14.68135 539.44399 538.87939
14.68536 561.08373 541.46460
14.68935 566.25057 544.12031
14.69334 537.32527 546.85479
14.69733 556.85283 549.67721
14.70133 573.95724 552.58961
14.70531 560.74581 555.57874
14.70929 572.56855 558.66267
14.71329 560.83700 561.85101
14.71730 571.10291 565.15094
14.72129 573.25504 568.53136
14.72528 579.93155 572.01850
14.72929 564.61962 575.63888
14.73327 591.02902 579.33585
14.73727 595.77104 583.16340
14.74128 582.75849 587.11769
14.74526 576.41402 591.17107
14.74925 590.88206 595.36269
14.75323 605.91200 599.66128
14.75724 619.92913 604.14385
14.76121 622.34122 608.70898
14.76520 607.84095 613.43329
14.76921 609.95439 618.34243
14.77320 620.40695 623.37280
14.77721 621.36500 628.57816
14.78119 627.99583 633.91779
14.78520 633.60643 639.45985
14.78919 635.83772 645.15772
14.79318 645.96027 651.02774
14.79718 667.90573 657.11982
14.80117 659.34229 663.37873
14.80514 657.33625 669.83299
14.80914 672.27390 676.56687
14.81315 653.48961 683.54142
14.81714 702.80041 690.75862
14.82112 687.17974 698.23945
14.82514 689.70466 706.09609
14.82912 702.10369 714.17521
14.83311 701.38072 722.58736
14.83711 716.06590 731.31607
14.84110 737.82178 740.28954
14.84510 732.04297 749.46991
14.84907 756.60667 758.71256
14.85309 744.43027 767.99527
14.85707 747.70983 776.95525
14.86106 765.28111 785.47427
14.86506 747.54699 793.37216
14.86906 747.17654 800.40670
14.87305 769.01558 806.48106
14.87703 775.40973 811.57221
14.88105 766.49671 815.82359
14.88504 770.44450 819.34470
14.88902 805.48746 822.36738
14.89303 806.25836 825.15001
14.89702 779.59936 827.86383
14.90099 794.82197 830.68391
14.90498 804.25010 833.75899
14.90900 809.10891 837.17704
14.91297 813.44854 840.94314
14.91697 802.56242 845.12369
14.92098 842.56383 849.72870
14.92498 856.01842 854.72964
14.92896 840.35444 860.10217
14.93296 841.83427 865.88045
14.93697 850.70158 872.01968
14.94095 865.60917 878.48575
14.94494 869.92252 885.29534
14.94894 869.32641 892.45369
14.95292 898.89197 899.89239
14.95691 902.74302 907.64720
14.96090 898.72071 915.72887
14.96491 890.64780 924.16647
14.96889 904.70064 932.83436
14.97289 949.41577 941.86072
14.97691 914.61378 951.23504
14.98089 963.53329 960.82732
14.98488 948.59235 970.75392
14.98889 950.73611 981.02831
14.99287 974.14710 991.53754
14.99686 975.46983 1002.37125
15.00083 1013.32013 1013.43022
15.00486 1038.48295 1024.89334
15.00883 1009.08922 1036.47435
15.01282 1032.03446 1048.29421
15.01683 1033.92409 1060.39455
15.02081 1050.80889 1072.54486
15.02482 1106.67673 1084.83608
15.02880 1068.82992 1097.10788
15.03281 1079.58820 1109.39875
15.03680 1088.85287 1121.50016
15.04079 1107.03281 1133.36076
15.04878 1134.79810 1155.99620
15.05276 1159.69008 1166.43467
15.05675 1167.40917 1176.20243
15.06076 1159.39732 1185.11032
15.06474 1184.47442 1192.94941
15.06873 1187.47141 1199.64585
15.07674 1230.60180 1209.04808
15.08072 1191.81775 1211.47150
15.08473 1199.25788 1212.28523
15.08872 1241.34690 1211.39402
15.09670 1227.28453 1204.41059
15.10070 1247.54947 1198.29311
15.10469 1226.47808 1190.52774
15.10867 1217.07305 1181.19463
15.11267 1228.88229 1170.27827
15.11667 1190.30834 1158.01882
15.12066 1215.27254 1144.53214
15.12466 1161.24886 1129.93096
15.12867 1121.87705 1114.32413
15.13266 1135.18260 1098.03938
15.13664 1109.75685 1081.18390
15.14066 1118.28914 1063.70266
15.14464 1083.41880 1046.06850
15.14862 1047.71443 1028.22421
15.15261 1049.04410 1010.32589
15.15662 1006.25696 992.35150
15.16060 971.12971 974.67409
15.16458 979.98739 957.16917
15.16859 937.03493 939.85200
15.17259 920.75229 922.92936
15.17657 911.13694 906.49031
15.18057 913.62973 890.41278
15.18458 846.01608 874.76859
15.18857 850.88716 859.62862
15.19256 818.69580 845.03960
15.19657 802.10456 830.83765
15.20056 775.99614 817.21845
15.20452 774.65276 804.17736
15.20852 760.24808 791.50848
15.21252 750.75402 779.33662
15.21651 738.65012 767.64653
15.22049 691.60334 756.46615
15.22452 699.18458 745.58643
15.22850 688.73125 735.28079
15.23248 674.81191 725.37953
15.23649 667.87013 715.78082
15.24048 654.20815 706.64520
15.24449 657.15521 697.82596
15.24845 657.05496 689.46120
15.25247 627.24555 681.31142
15.25644 610.64024 673.56950
15.26043 616.39652 666.11120
15.26444 595.13280 658.91251
15.26842 606.82430 652.03339
15.27243 602.65850 645.37435
15.27641 563.17975 639.01785
15.28042 585.87930 632.84663
15.28441 561.03588 626.94030
15.28839 580.38770 621.28174
15.29242 554.64241 615.75384
15.29639 550.89998 610.50170
15.30038 570.82170 605.42448
15.30437 580.62206 600.53031
15.30837 547.25668 595.79068
15.31235 548.79962 591.24692
15.31635 544.46120 586.85183
15.32037 565.20343 582.58729
15.32435 560.28745 578.51894
15.32833 538.79103 574.58812
15.33234 536.15172 570.77575
15.33635 542.25569 567.10544
15.34034 543.02934 563.58171
15.34432 531.28512 560.19646
15.34833 549.41390 556.90708
15.35232 546.41569 553.76785
15.35629 534.30156 550.76084
15.36029 533.68886 547.85552
15.36427 503.94012 545.07816
15.36826 525.62314 542.41205
15.37226 532.84581 539.85636
15.37627 530.16629 537.40605
15.38026 525.53302 535.08283
15.38425 529.50180 532.87054
15.38826 532.23398 530.75579
15.39225 509.60197 528.75969
15.39623 516.09719 526.87720
15.40021 528.96477 525.10489
15.40423 517.61451 523.41970
15.40820 516.10992 521.86132
15.41220 511.51829 520.39937
15.41621 528.79833 519.03751
15.42019 516.81704 517.78808
15.42418 519.97680 516.63958
15.42818 529.25706 515.58994
15.43219 522.69391 514.64256
15.43619 529.61294 513.80010
15.44016 529.95568 513.06374
15.44419 520.22722 512.41982
15.44816 529.95568 511.88507
15.45214 548.13590 511.45106
15.45614 530.03010 511.11510
15.46014 519.82422 510.88103
15.46412 528.25347 510.74988
15.46811 527.53545 510.71883
15.47213 523.91058 510.78935
15.47611 517.72778 510.95959
15.48009 527.84563 511.22848
15.48411 523.90114 511.59717
15.48810 547.87621 512.05827
15.49210 517.72139 512.61189
15.49607 536.91408 513.24541
15.50009 538.35615 513.96562
15.50406 528.64654 514.74781
15.50805 541.12858 515.59199
15.51205 522.49494 516.48700
15.51603 541.50929 517.41013
15.52003 528.45739 518.35336
15.52402 521.46891 519.28965
15.52805 562.94396 520.20985
15.53203 533.87938 521.07176
15.53602 543.50217 521.85926
15.54003 530.00518 522.55156
15.54402 528.91584 523.10978
15.54800 540.23769 523.51195
15.55199 542.20555 523.73067
15.55599 529.16369 523.74017
15.55997 536.81874 523.51552
15.56397 519.17171 523.03475
15.56797 511.49305 522.27950
15.57197 502.12713 521.23583
15.57596 524.51252 519.90065
15.57994 520.18247 518.26683
15.58396 518.73128 516.32058
15.58795 508.75157 514.09593
15.59193 533.69518 511.59943
15.59595 516.07810 508.81371
15.59992 486.83983 505.81936
15.60390 490.96582 502.59600
15.60790 529.51258 499.16295
15.61190 488.72282 495.56436
15.61588 502.76863 491.83671
15.61988 497.13335 487.98746
15.62390 461.40379 484.02300
15.62788 480.15393 480.03880
15.63187 475.19086 476.00515
15.63588 451.25726 471.94196
15.63987 470.80305 467.90185
15.64387 460.25290 463.88263
15.64784 445.79294 459.91806
15.65186 449.84593 455.82294
15.65583 436.84593 451.98224
15.65981 424.84683 448.20885
15.66383 437.65640 444.48446
15.66781 432.64038 440.87717
15.67181 433.87156 437.34823
15.67579 426.88487 433.92938
15.67981 409.59937 430.58013
15.68380 411.83864 427.35728
15.68778 421.51460 424.24081
15.69180 422.56193 421.18664
15.69578 410.73650 418.26308
15.69978 395.43164 415.42840
15.70376 396.03082 412.69339
15.70777 400.45394 410.04200
15.71174 402.10023 407.49534
15.71573 407.73373 405.03365
15.71974 393.62528 402.63794
15.72373 396.07181 400.34415
15.72772 388.31026 398.12381
15.73172 382.78928 395.97480
15.73571 381.56712 393.90841
15.73972 392.61021 391.90818
15.74370 395.33193 389.98454
15.74771 387.34477 388.11701
15.75170 383.14384 386.32344
15.75567 357.47805 384.59609
15.75967 379.45444 382.91885
15.76367 373.58384 381.29730
15.76766 367.69831 379.73690
15.77165 367.60992 378.22641
15.77566 361.53514 376.76172
15.77965 376.31521 375.35490
15.78364 383.94321 373.99683
15.78765 361.47490 372.67426
15.79163 364.89152 371.40675
15.79562 378.09548 370.18060
15.79961 375.12782 368.99655
15.80362 362.18533 367.84862
15.80760 366.29784 366.74920
15.81158 363.15271 365.68615
15.81559 366.24961 364.65739
15.81959 370.99735 363.66631
15.82357 365.97570 362.71660
15.82757 359.01036 361.79906
15.83158 347.62046 360.91559
15.83557 364.55497 360.07391
15.83955 358.89102 359.26735
15.84357 359.51070 358.49075
15.84755 351.98385 357.75674
15.85152 357.04791 357.05914
15.85552 354.97804 356.39407
15.85953 382.08308 355.76409
15.86350 345.96193 355.17681
15.86748 343.44230 354.62569
15.87152 343.57157 354.10669
15.87548 345.64982 353.63515
15.87949 357.55180 353.19921
15.88348 351.23056 352.80508
15.88749 343.34679 352.45107
15.89148 347.63341 352.13854
15.89545 348.95628 351.86852
15.89948 344.06909 351.63430
15.90344 346.12261 351.44039
15.90742 335.63264 351.27958
15.91144 354.35620 351.14661
15.91542 348.80228 351.03755
15.91941 356.61891 350.94222
15.92340 340.52191 350.85040
15.92742 335.38768 350.74846
15.93141 351.43416 350.62424
15.93539 335.56518 350.46172
15.93941 351.88421 350.24294
15.94338 332.79590 349.96008
15.94739 343.82119 349.59602
15.95137 351.36266 349.14786
15.95537 340.68950 348.60771
15.95935 344.69352 347.98481
15.96334 349.30715 347.28069
15.96736 330.50440 346.50025
15.97134 333.70680 345.67025
15.97533 345.51920 344.79608
15.97933 338.61079 343.89458
15.98333 337.96576 342.97367
15.98732 336.35289 342.05033
15.99131 333.99759 341.13339
15.99532 337.04105 340.22630
15.99931 350.23268 339.34073
16.00328 340.54287 338.48144
16.00728 339.42437 337.64154
16.01128 333.69837 336.82748
16.01526 330.87702 336.04422
16.01926 347.62924 335.28588
16.02328 350.99036 334.54746
16.02726 332.10368 333.84283
16.03124 319.96456 333.16265
16.03526 329.02607 332.49943
16.03925 322.15822 331.86164
16.04324 326.99695 331.24517
16.04722 326.32187 330.64977
16.05124 331.12828 330.06834
16.05522 336.33693 329.51007
16.05919 337.30613 328.96825
16.06319 324.25386 328.44000
16.06719 320.07485 327.92665
16.07117 332.74267 327.43019
16.07518 315.31166 326.94441
16.07919 337.59427 326.47198
16.08317 321.40133 326.01524
16.08717 322.27442 325.56850
16.09117 330.77935 325.13369
16.09516 327.79144 324.71053
16.09915 331.17978 324.29856
16.10313 322.52272 323.89775
16.10714 338.51825 323.50419
16.11111 332.69354 323.12385
16.11511 329.75492 322.75099
16.11914 329.13791 322.38372
16.12310 327.71890 322.03136
16.12710 341.75254 321.68412
16.13109 333.89491 321.34490
16.13510 337.00175 321.01344
16.13910 319.34282 320.68959
16.14307 322.10669 320.37587
16.14708 320.22030 320.06609
16.15107 331.06163 319.76502
16.15504 321.81364 319.47207
16.15905 336.37001 319.18256
16.16304 319.20543 318.90175
16.16703 327.78338 318.62653
16.17102 322.95997 318.35772
16.17504 316.60402 318.09315
16.17903 325.09772 317.83630
16.18300 329.13072 317.58628
16.18703 329.37357 317.33846
16.19101 317.71654 317.09878
16.19500 311.34604 316.86382
16.19898 318.63890 316.63500
16.20299 333.55062 316.40953
16.20697 310.37408 316.19114
16.21095 324.15819 315.97717
16.21497 307.57129 315.76654
16.21896 316.39584 315.56228
16.22294 332.10441 315.36292
16.22695 320.10624 315.16707
16.23096 316.98559 314.97552
16.23494 326.85169 314.79002
16.23891 312.47619 314.61008
16.24294 317.68421 314.43183
16.24692 310.47916 314.25964
16.25090 325.69624 314.09237
16.25490 309.45150 313.92839
16.25889 323.00183 313.76866
16.26288 322.23342 313.61368
16.26687 321.73849 313.46278
16.27089 340.73910 313.31535
16.27488 323.70283 313.17307
16.27885 323.86754 313.03541
16.28285 321.06563 312.90107
16.28686 330.07323 312.77048
16.29086 317.67640 312.64458
16.29484 326.10939 312.52302
16.29885 310.83804 312.40487
16.30282 317.44082 312.29205
16.30682 320.61763 312.18261
16.31082 315.44811 312.07708
16.31481 320.20037 311.97598
16.31878 331.44121 311.87936
16.32278 295.80129 311.78629
16.32681 301.62710 311.69678
16.33079 305.65241 311.61237
16.33477 321.27803 311.53221
16.33878 325.87318 311.45551
16.34277 324.28050 311.38350
16.34676 322.70593 311.31577
16.35074 328.69984 311.25232
16.35475 317.87039 311.19270
16.35874 304.51119 311.13778
16.36272 323.42894 311.08715
16.36674 309.00022 311.04056
16.37071 311.43170 311.00036
16.37470 323.01586 310.96287
16.37871 303.95405 310.92974
16.38273 314.88557 310.90107
16.38672 323.74030 310.87719
16.39069 324.29380 310.85798
16.39471 314.61944 310.84324
16.39869 323.42473 310.83337
16.40267 314.06825 310.82823
16.40667 321.19441 310.82790
16.41065 311.09364 310.83246
16.41465 310.81695 310.84197
16.41863 319.45449 310.85649
16.42266 318.71884 310.87629
16.42664 308.71956 310.90105
16.43062 322.47849 310.93097
16.43463 313.14768 310.96648
16.43862 325.35251 311.00734
16.44262 305.89015 311.05360
16.44660 325.65971 311.10534
16.45061 313.20185 311.16321
16.45459 307.17519 311.22630
16.45857 303.78753 311.29589
16.46258 318.86834 311.37133
16.47055 312.17308 311.53972
16.47455 322.05677 311.63370
16.47858 329.51810 311.73470
16.48256 311.11602 311.84112
16.48654 322.85146 311.95435
16.49055 316.74808 312.07538
16.49454 315.92382 312.20266
16.49852 311.66665 312.33647
16.50251 313.09771 312.47827
16.50652 320.05501 312.62819
16.51049 325.42040 312.78411
16.51449 309.98773 312.94914
16.51850 311.56346 313.12265
16.52249 307.85088 313.30338
16.52647 325.30061 313.49193
16.53047 313.18681 313.68998
16.53450 321.92764 313.89835
16.53847 326.89924 314.11306
16.54247 313.74473 314.33852
16.54647 308.83255 314.57306
16.55045 314.22193 314.81687
16.55443 327.72006 315.06985
16.55843 324.36280 315.33542
16.56244 316.54217 315.61120
16.56641 330.45121 315.89605
16.57041 322.58223 316.19350
16.57442 331.98847 316.50422
16.57841 320.14133 316.82498
16.58239 317.79234 317.15730
16.58640 315.85017 317.50493
16.59039 312.43556 317.86326
16.59439 323.30569 318.23806
16.59837 324.16247 318.62300
16.60238 330.77876 319.02708
16.60635 313.82555 319.44110
16.61034 314.24538 319.87244
16.61435 310.82440 320.32280
16.61833 322.73659 320.78618
16.62233 327.37125 321.26966
16.62632 329.62368 321.77011
16.63034 320.26689 322.29332
16.63433 332.40128 322.83251
16.63829 325.57456 323.38924
16.64232 336.77397 323.97612
16.64630 338.30748 324.57808
16.65028 312.26401 325.20372
16.65429 320.95009 325.85766
16.65828 328.10141 326.53563
16.66227 339.73691 327.23961
16.66626 335.44746 327.97329
16.67026 323.95420 328.73873
16.67426 341.10959 329.53570
16.67824 342.83333 330.36127
16.68224 343.58358 331.22601
16.68624 336.22506 332.12879
16.69024 335.04567 333.06998
16.69423 342.25123 334.05258
16.69823 329.11237 335.07964
16.70221 352.18522 336.15119
16.70618 332.82289 337.26931
16.71020 351.79920 338.45338
16.71420 343.90872 339.69069
16.71817 343.15565 340.98108
16.72217 354.28403 342.34248
16.72618 355.39865 343.77870
16.73018 343.65154 345.28282
16.73417 350.22318 346.86393
16.73816 361.07774 348.53186
16.74215 348.03080 350.28496
16.74614 340.35883 352.13146
16.75014 356.03943 354.08009
16.75414 360.99951 356.13157
16.75811 352.73213 358.27119
16.76210 360.87425 360.53799
16.76611 363.71212 362.91537
16.77011 373.37451 365.40106
16.77409 340.35875 367.97769
16.77809 369.19911 370.65077
16.78210 357.00632 373.41823
16.78609 367.30442 376.23482
16.79009 357.01507 379.08844
16.79408 367.49394 381.94800
16.79806 356.69727 384.76021
16.80204 359.93384 387.50589
16.80605 379.75738 390.15226
16.81005 366.77565 392.64293
16.81403 375.19756 394.93270
16.81802 371.73737 397.02206
16.82204 385.53981 398.89895
16.82601 366.74871 400.53196
16.83001 383.12205 401.97328
16.83402 384.50509 403.24010
16.83800 393.77502 404.36624
16.84200 400.88170 405.40584
16.84598 384.87636 406.39874
16.85000 391.71116 407.40519
16.85397 403.45030 408.44901
16.85796 400.40158 409.58178
16.86196 414.42655 410.83867
16.86594 412.31252 412.23335
16.86995 419.73766 413.80200
16.87394 396.97126 415.54904
16.87795 427.77186 417.50142
16.88194 401.22444 419.64973
16.88593 421.56839 422.00899
16.88994 421.91425 424.60772
16.89391 410.38700 427.40362
16.89790 430.26659 430.44157
16.90189 442.20761 433.71284
16.90591 434.10549 437.25037
16.90988 440.67423 440.99381
16.91387 454.16473 445.01422
16.91789 465.83296 449.32167
16.92186 460.56983 453.85594
16.92586 468.24299 458.69227
16.92985 476.96583 463.81547
16.93386 494.42548 469.26026
16.93785 496.88468 474.99642
16.94185 501.56740 481.07062
16.94584 498.32886 487.48904
16.94984 521.13883 494.27546
16.95380 531.00163 501.39390
16.95781 547.33337 508.99038
16.96180 541.32687 516.98785
16.96580 549.90151 525.44873
16.96979 578.64591 534.38783
16.97380 574.65437 543.91822
16.97779 609.26082 553.93331
16.98179 642.86851 564.55174
16.98578 638.23907 575.82786
16.98977 640.29024 587.77143
16.99376 649.74917 600.44550
16.99775 696.53688 613.94900
17.00176 692.51772 628.35374
17.00573 720.41721 643.61493
17.00973 750.27839 659.96248
17.01372 760.64579 677.42861
17.01772 803.40709 696.15161
17.02171 823.10770 716.14857
17.02570 863.69031 737.59466
17.02972 869.28656 760.75311
17.03371 927.72057 785.52339
17.03770 928.51811 812.24206
17.04568 1044.31642 871.92524
17.04967 1062.14247 905.42934
17.05366 1109.61049 941.64958
17.05766 1148.96688 980.88321
17.06164 1170.61240 1023.04973
17.06564 1202.13899 1069.03976
17.07363 1347.62814 1172.34795
17.07763 1417.06515 1230.54953
17.08162 1497.10466 1293.11308
17.08562 1531.86910 1360.57772
17.09362 1639.81054 1510.55027
17.09762 1722.38791 1593.11791
17.10159 1766.37870 1679.65532
17.10557 1843.27920 1770.63105
17.10958 1902.64242 1865.85266
17.11357 2003.76832 1962.75902
17.11755 2096.73119 2060.51501
17.12156 2161.42719 2158.06145
17.12558 2218.62388 2252.76459
17.12955 2288.25679 2341.44369
17.13355 2387.63633 2423.20238
17.13756 2408.48222 2495.77849
17.14153 2505.88034 2556.72041
17.14553 2592.47040 2606.62585
17.14952 2665.39510 2644.93490
17.15352 2748.80821 2673.18336
17.15750 2844.10107 2693.43002
17.16149 2887.72277 2709.10587
17.16549 3038.30162 2724.01683
17.16949 3130.00526 2742.52035
17.17347 3159.11594 2769.21913
17.17747 3344.17338 2809.29214
17.18148 3393.66660 2867.57118
17.18546 3483.31255 2948.57460
17.18946 3600.65995 3057.52898
17.19347 3729.73701 3198.69579
17.19745 3849.30485 3373.70590
17.20143 3940.44155 3583.30032
17.20543 4128.74833 3825.35274
17.20943 4210.39250 4088.89782
17.21341 4319.54414 4352.76850
17.21740 4399.49159 4591.56840
17.22141 4419.28035 4769.47867
17.22540 4402.56896 4851.04175
17.22939 4409.20704 4815.83670
17.23339 4376.03664 4662.02008
17.23740 4213.55025 4408.64666
17.24138 4090.69020 4092.07089
17.24537 3957.59027 3743.86141
17.24938 3796.30852 3392.41571
17.25335 3629.60790 3061.67972
17.25735 3375.15279 2757.73565
17.26134 3131.73938 2486.44804
17.26534 2894.77609 2248.10675
17.26932 2637.65494 2040.85996
17.27331 2409.49961 1860.44916
17.27732 2101.87301 1703.15481
17.28130 1888.60091 1567.64184
17.28531 1671.96853 1448.82533
17.28931 1511.73250 1345.23979
17.29330 1346.44552 1254.71801
17.29727 1230.61888 1175.26151
17.30128 1083.45656 1104.48575
17.30529 1002.21263 1041.56159
17.30926 896.28300 986.03935
17.31324 885.65357 936.16727
17.31726 797.09048 890.97930
17.32125 769.22325 850.62758
17.32523 719.81320 814.09865
17.32923 669.52475 780.86883
17.33324 633.94973 750.52603
17.33723 616.39873 722.95403
17.34121 597.17237 697.81474
17.34522 555.04660 674.51971
17.34921 572.63528 653.23551
17.35320 528.25856 633.61671
17.35719 511.10786 615.43582
17.36118 511.53245 598.60314
17.36517 487.08144 582.99074
17.36916 489.27154 568.46131
17.37318 470.01344 554.82926
17.37717 449.71368 542.23804
17.38115 469.84065 530.47290
17.38515 428.19767 519.38352
17.38915 437.34650 509.02253
17.39314 443.65217 499.28742
17.39713 416.64834 490.16406
17.40114 426.66927 481.53817
17.40511 419.85469 473.47652
17.40910 408.91321 465.82443
17.41310 418.28661 458.59787
17.41709 386.02492 451.78119
17.42107 403.83418 445.34284
17.42509 382.60402 439.20437
17.42910 381.66821 433.39100
17.43308 405.57495 427.91262
17.43707 371.33892 422.70299
17.44108 390.89666 417.73382
17.44508 357.08356 413.01678
17.44905 378.72252 408.56178
17.45304 372.50208 404.30718
17.45705 369.03992 400.22659
17.46103 356.50137 396.37301
17.46502 364.64399 392.68884
17.46901 358.07775 389.17142
17.47302 357.36616 385.80385
17.47700 361.33571 382.61478
17.48100 343.12637 379.55293
17.48502 358.06326 376.61406
17.48900 340.69154 373.83001
17.49300 350.54895 371.16518
17.49700 351.86519 368.61135
17.50098 341.39430 366.19015
17.50496 345.03873 363.87862
17.50896 341.58422 361.65882
17.51295 340.86608 359.54708
17.51693 339.82716 357.54208
17.52093 337.25117 355.62203
17.52495 331.73470 353.78996
17.52893 327.45856 352.06697
17.53292 345.32515 350.43139
17.53693 327.94001 348.87833
17.54091 321.79142 347.42581
17.54490 320.89397 346.06015
17.54889 313.74463 344.78345
17.55290 329.48640 343.59143
17.55688 316.07829 342.50068
17.56086 313.49584 341.49981
17.56488 305.80711 340.58470
17.56887 313.48437 339.77113
17.57286 308.42479 339.05544
17.57683 305.87920 338.44200
17.58086 311.42080 337.92586
17.58485 308.73940 337.52352
17.58882 313.87093 337.23368
17.59284 314.51406 337.05798
17.59684 307.33184 337.00595
17.60081 296.95750 337.08160
17.60481 297.59001 337.29194
17.60881 313.33911 337.64382
17.61279 313.46541 338.14356
17.61679 311.03242 338.79983
17.62079 297.94395 339.62239
17.62480 285.47386 340.61707
17.62877 310.97680 341.77832
17.63278 301.65118 343.12791
17.63679 288.25840 344.65532
17.64076 299.15114 346.34160
17.64476 310.64551 348.18501
17.64876 304.68941 350.15474
17.65275 311.23694 352.19180
17.65672 301.06216 354.22663
17.66071 297.04394 356.18755
17.66472 291.59398 357.96098
17.66870 297.15318 359.40789
17.67271 290.27774 360.41882
17.67672 299.20587 360.86469
17.68071 308.65281 360.67263
17.68469 301.06583 359.81452
17.68870 298.50819 358.29915
17.69269 299.79506 356.21681
17.69667 309.90894 353.67269
17.70067 317.14453 350.76482
17.70468 300.96247 347.61134
17.70865 299.38279 344.35845
17.71263 289.69604 341.05725
17.71664 287.24053 337.76202
17.72064 286.03112 334.54231
17.72463 290.48019 331.43920
17.72862 301.87943 328.44828
17.73263 284.38121 325.57906
17.73663 301.36786 322.85082
17.74061 284.65516 320.26671
17.74462 282.75585 317.78936
17.74861 281.99159 315.45972
17.75259 295.60300 313.25479
17.75656 290.90909 311.16533
17.76057 291.84487 309.17071
17.76457 284.79879 307.28870
17.76855 280.38726 305.50642
17.77257 280.05895 303.80640
17.77656 264.72883 302.20486
17.78053 271.13358 300.69164
17.78455 275.17278 299.24201
17.78855 273.18928 297.87262
17.79253 276.97106 296.57807
17.79651 272.59201 295.34916
17.80053 289.32105 294.17219
17.80451 279.84702 293.06114
17.80848 286.43155 292.01068
17.81248 292.95390 291.00419
17.81649 263.62583 290.04512
17.82048 283.76189 289.13731
17.82447 285.63073 288.27509
17.82848 280.99597 287.44886
17.83248 281.11217 286.66440
17.83646 281.56038 285.92141
17.84047 283.82066 285.20897
17.84446 277.53433 284.53435
17.84844 277.65515 283.89416
17.85242 274.58617 283.28376
17.85643 264.99744 282.69963
17.86041 273.87581 282.14639
17.86441 272.57672 281.61926
17.86841 263.98139 281.11706
17.87241 272.88121 280.64011
17.87639 265.64271 280.19004
17.88039 263.51795 279.76055
17.88439 277.52875 279.35427
17.88838 257.29740 278.97005
17.89238 259.10537 278.60705
17.89638 274.70572 278.26363
17.90037 273.47098 277.94186
17.90434 268.79626 277.64127
17.90834 269.59721 277.35816
17.91234 270.69498 277.09363
17.91632 261.22688 276.84902
17.92031 281.56261 276.62267
17.92433 260.80711 276.41276
17.92832 275.38156 276.22286
17.93230 275.54625 276.05162
17.93631 256.59184 275.89724
17.94030 273.32611 275.76138
17.94429 268.47207 275.64406
17.94829 257.91998 275.54464
17.95230 270.44010 275.46341
17.95629 270.38025 275.40123
17.96026 257.26919 275.35790
17.96425 269.28225 275.33331
17.96825 273.76722 275.32809
17.97223 256.58559 275.34253
17.97623 274.27013 275.37868
17.98024 263.33922 275.43416
17.98424 265.12449 275.51047
17.98822 270.46974 275.60817
17.99223 274.69651 275.72890
17.99622 266.19931 275.87187
18.00020 263.34883 276.03827
18.00419 255.45482 276.22934
18.00820 260.61675 276.44739
18.01219 270.85970 276.69024
18.01617 266.81273 276.96021
18.02018 274.28794 277.26156
18.02418 267.68150 277.50980
18.02816 266.05036 277.87002
18.03216 266.58877 278.26561
18.03616 263.18863 278.69641
18.04015 264.22947 279.16233
18.04413 254.82174 279.66670
18.04815 263.81757 280.21720
18.05214 272.85010 280.80762
18.05611 275.76805 281.44099
18.06011 274.72741 282.12825
18.06411 265.00189 282.86882
18.06809 268.82414 283.66337
18.07208 262.43870 284.51899
18.07610 273.37114 285.44530
18.08009 286.68743 286.43274
18.08406 280.18936 287.48867
18.08808 265.54806 288.63330
18.09207 267.59175 289.85287
18.09605 286.66302 291.15255
18.10004 291.08598 292.53947
18.10406 280.73933 294.02878
18.10804 278.27441 295.58935
18.11202 277.00238 297.22846
18.11602 280.59593 298.95636
18.12001 278.90105 300.74929
18.12399 289.04055 302.59403
18.12799 281.62709 304.48969
18.13201 289.49416 306.43756
18.13599 285.84989 308.40008
18.13997 282.94819 310.40525
18.14398 301.83175 312.49642
18.14797 298.30937 314.68297
18.15195 288.03931 317.00270
18.15595 298.07868 319.49228
18.15995 301.77673 322.10523
18.16394 294.98826 324.66084
18.16793 296.73230 326.85086
18.17193 295.59718 328.22728
18.17593 294.58835 328.38114
18.17991 296.98060 327.20667
18.18391 282.97916 324.93180
18.18792 301.21127 322.01541
18.19190 294.55611 318.92569
18.19588 291.65502 315.93007
18.19990 278.40626 313.14528
18.20389 278.54842 310.63868
18.20786 285.07925 308.37926
18.21186 283.70380 306.30254
18.21587 285.25563 304.37877
18.21986 282.28885 302.57800
18.22385 290.12421 300.86515
18.22786 291.14617 299.20571
18.23185 281.89208 297.60472
18.23582 284.59996 296.05036
18.23983 275.59399 294.51135
18.24383 272.70296 292.99926
18.24782 272.52405 291.51865
18.25181 276.29788 290.06196
18.25581 285.71776 288.62394
18.25979 272.30321 287.22415
18.26377 269.23591 285.85301
18.26779 267.80032 284.50148
18.27179 270.50744 283.19057
18.27577 256.92040 281.92688
18.27976 265.60696 280.69761
18.28377 269.91274 279.50442
18.28776 270.46800 278.36346
18.29174 270.41597 277.27510
18.29575 274.18023 276.22512
18.29975 266.40111 275.23524
18.30372 276.02953 274.30452
18.30771 253.69691 273.42763
18.31172 264.71660 272.60988
18.31570 280.34022 271.86074
18.31970 269.94461 271.17603
18.32371 267.53773 270.55829
18.32771 287.16454 270.01518
18.33167 250.97430 269.54518
18.33568 272.58266 269.13763
18.33969 272.63894 268.78908
18.34367 251.70853 268.48748
18.34765 273.58067 268.20759
18.35167 267.14267 267.91682
18.35566 270.10287 267.58435
18.35963 263.70748 267.17478
18.36363 266.44965 266.65356
18.36764 270.51170 266.00934
18.37161 254.89887 265.25318
18.37560 254.16565 264.39984
18.37963 258.53759 263.47378
18.38362 272.76257 262.52586
18.38759 251.86300 261.58669
18.39160 257.86080 260.66274
18.39560 252.13203 259.78231
18.39958 256.44952 258.95594
18.40357 265.53034 258.18341
18.40757 244.39642 257.46097
18.41156 260.49584 256.78977
18.41555 254.98240 256.16644
18.41956 254.71148 255.58469
18.42355 256.42271 255.04309
18.42752 253.48112 254.54082
18.43152 252.13981 254.06620
18.43554 253.86967 253.61918
18.43953 251.36585 253.20316
18.44350 254.09468 252.81136
18.44752 258.05199 252.43967
18.45151 248.19148 252.09142
18.45548 248.87680 251.76563
18.45949 259.16437 251.45723
18.46348 254.41868 251.16895
18.46746 244.08656 250.90042
18.47146 253.93436 250.64892
18.47548 252.70819 250.41404
18.47946 260.93287 250.19907
18.48344 249.53576 250.00177
18.48744 267.07456 249.81981
18.49145 251.36479 249.65482
18.49544 255.20878 249.50690
18.49942 250.26393 249.37546
18.50343 263.43037 249.25880
18.50742 258.35881 249.15873
18.51140 259.91483 249.07405
18.51540 252.30471 249.00409
18.51940 249.54788 248.94896
18.52339 262.27917 248.90881
18.52737 255.73922 248.88295
18.53139 258.01442 248.87104
18.53538 264.58634 248.87307
18.53936 261.23241 248.88848
18.54337 250.99790 248.91730
18.54737 254.12837 248.95888
18.55135 263.98546 249.01261
18.55534 259.37871 249.07850
18.55934 260.48902 249.15620
18.56332 251.62784 249.24460
18.56731 263.71387 249.34373
18.57132 257.57613 249.45349
18.57533 257.36017 249.57270
18.57929 260.11687 249.69935
18.58329 266.57936 249.83538
18.58730 263.56683 249.97941
18.59129 261.27753 250.12953
18.59528 262.31099 250.28568
18.59929 272.01184 250.44889
18.60328 276.14961 250.61592
18.60724 258.23350 250.78608
18.61125 261.35358 250.96191
18.61525 263.50384 251.14114
18.61923 264.27679 251.32191
18.62322 261.98331 251.50601
18.62725 271.10756 251.69361
18.63123 267.08661 251.88105
18.63520 264.41154 252.06982
18.63922 266.45012 252.26216
18.64322 270.63114 252.45535
18.64720 270.73611 252.64824
18.65119 262.39046 252.84286
18.65521 259.03082 253.03976
18.65919 272.85077 253.23628
18.66315 269.07221 253.43253
18.66716 276.02260 253.63211
18.67116 269.93092 253.83262
18.67514 269.54962 254.03285
18.67913 278.93556 254.23517
18.68315 282.73420 254.43989
18.68714 292.33045 254.64489
18.69112 279.34967 254.85092
18.69513 280.33442 255.06081
18.69913 294.73429 255.27192
18.70310 279.58867 255.48484
18.70710 305.72631 255.70197
18.71111 278.87597 255.92348
18.71509 295.40550 256.14757
18.71907 275.08275 256.37674
18.72310 294.42855 256.61441
18.72709 282.36891 256.85710
18.73107 289.98922 257.10594
18.73506 295.82960 257.36502
18.73906 297.62755 257.63422
18.74306 296.94598 257.91411
18.74703 291.93826 258.20504
18.75105 297.42085 258.51296
18.75505 290.00678 258.83488
18.75902 290.66247 259.17070
18.76302 300.87788 259.52694
18.76702 298.21372 259.90252
18.77099 304.67889 260.29635
18.77499 298.85169 260.71400
18.77901 319.90699 261.15750
18.78300 313.38369 261.62186
18.78698 321.68594 262.10784
18.79099 318.85321 262.62273
18.79498 324.14236 263.15952
18.79896 317.60343 263.71759
18.80295 323.50235 264.29833
18.80697 321.92146 264.90308
18.81096 316.98698 265.51918
18.81493 322.96422 266.14538
18.81895 335.02477 266.78500
18.82293 321.82516 267.42106
18.82691 328.84012 268.05014
18.83091 324.18947 268.66774
18.83493 326.36450 269.26367
18.83891 322.15675 269.82037
18.84288 343.72351 270.33194
18.84691 347.74181 270.79254
18.85090 328.95278 271.18143
18.85487 340.51208 271.49024
18.85886 326.94194 271.71067
18.86288 324.60454 271.83271
18.86685 348.15461 271.84643
18.87084 330.97568 271.74760
18.87487 334.17685 271.52977
18.87886 332.31947 271.19517
18.88283 333.99525 270.74496
18.88683 318.58922 270.17926
18.89084 324.96944 269.50304
18.89482 298.81187 268.73253
18.89879 295.27373 267.87524
18.90282 308.84739 266.92636
18.90680 322.80957 265.92025
18.91078 288.23245 264.86027
18.91479 297.16804 263.74747
18.91879 302.02560 262.60443
18.92277 288.03177 261.44670
18.92675 290.54307 260.27591
18.93078 282.21394 259.08895
18.93475 299.39482 257.92193
18.93874 283.69481 256.76331
18.94274 287.10845 255.61440
18.94675 285.26847 254.48471
18.95072 270.25784 253.39173
18.95472 256.44316 252.31535
18.95873 280.36886 251.26161
18.96271 259.11402 250.24597
18.96669 253.77161 249.25648
18.97071 258.10199 248.28452
18.97469 249.31895 247.34681
18.97867 253.82689 246.43559
18.98268 259.71575 245.54113
18.98668 239.09492 244.67175
18.99067 242.85231 243.82254
18.99464 246.85382 242.99929
18.99867 255.28312 242.17968
19.00265 242.14878 241.39031
19.00663 256.57584 240.61378
19.01063 245.42784 239.84638
19.01464 231.73535 239.09143
19.01861 253.67340 238.35751
19.02260 247.32691 237.63244
19.02663 246.79111 236.91337
19.03060 233.82248 236.21565
19.03459 232.92512 235.52993
19.03859 243.95139 234.85251
19.04260 236.99975 234.18798
19.04658 235.29696 233.54177
19.05057 236.34736 232.90684
19.05459 235.94024 232.28062
19.05856 256.39475 231.67564
19.06254 230.26451 231.08493
19.06656 227.13697 230.50111
19.07055 238.30651 229.93706
19.07453 224.92173 229.38777
19.07851 221.96979 228.85265
19.08254 237.65346 228.32647
19.08652 241.12823 227.82068
19.09050 232.99094 227.32848
19.09452 226.55929 226.84508
19.09851 228.92221 226.37937
19.10249 230.90229 225.92874
19.10648 223.87086 225.48947
19.11050 233.90003 225.05963
19.11447 224.97340 224.65092
19.11845 224.57294 224.24958
19.12248 227.61474 223.85693
19.12646 234.00295 223.47879
19.13043 225.19407 223.11316
19.13443 219.90402 222.75621
19.13845 223.31517 222.40746
19.14243 216.13001 222.07319
19.14641 228.63775 221.74792
19.15044 223.02819 221.42866
19.15441 214.65089 221.12234
19.15839 213.76667 220.82500
19.16239 222.01808 220.53528
19.16640 219.85353 220.25284
19.17038 224.70118 219.97999
19.17437 216.91638 219.71444
19.17839 217.38447 219.45456
19.18238 229.07957 219.20364
19.18634 218.33829 218.96204
19.19036 216.68420 218.72330
19.19436 201.41104 218.49296
19.19834 222.62214 218.26991
19.20232 230.98762 218.05381
19.20634 224.72834 217.84126
19.21032 210.07622 217.63606
19.21430 218.26970 217.43694
19.21831 221.27475 217.24204
19.22232 209.67703 217.05269
19.22629 219.81368 216.87020
19.23027 226.31573 216.69229
19.23430 208.44200 216.51785
19.23829 216.08562 216.34332
19.24226 204.90516 216.18102
19.24628 214.32540 216.02139
19.25028 214.01581 215.86711
19.25424 217.56089 215.71932
19.25824 212.44156 215.57403
19.26225 216.69949 215.43332
19.26623 205.20996 215.29787
19.27021 219.45885 215.16654
19.27425 204.37780 215.03795
19.27823 221.37174 214.91500
19.28221 225.41196 214.79652
19.28622 222.56031 214.68122
19.29022 215.26310 214.57025
19.29420 213.89238 214.46366
19.29818 213.77919 214.36141
19.30220 211.46226 214.26209
19.30619 218.65154 214.16727
19.31015 222.79117 214.07732
19.31416 213.10664 213.99020
19.31817 206.08651 213.90708
19.32212 218.82589 213.82906
19.32613 220.55912 213.75395
19.33015 208.06066 213.68251
19.33414 216.29973 213.61567
19.33811 208.19640 213.55326
19.34213 211.03233 213.49401
19.34613 206.80824 213.43908
19.35009 208.06342 213.38885
19.35409 206.10890 213.34223
19.35811 214.72622 213.29981
19.36208 208.06568 213.26188
19.36607 210.95080 213.22804
19.37009 222.58419 213.20065
19.37409 209.92154 213.17546
19.37806 220.11523 213.15481
19.38205 206.09646 213.13865
19.38608 213.41574 213.12690
19.39005 211.08739 213.11998
19.39403 226.86682 213.11776
19.39804 222.72393 213.12039
19.40205 220.83876 213.12798
19.40600 220.25698 213.14045
19.41001 198.18428 213.15821
19.41403 208.82836 213.18139
19.41799 222.48755 213.20956
19.42198 208.00290 213.24339
19.42601 206.31091 213.28325
19.42999 219.10397 213.32838
19.43397 210.98350 213.37942
19.43798 216.21622 213.43697
19.44198 219.27336 213.50062
19.44597 214.33226 213.57055
19.44994 215.30812 213.64673
19.45397 217.01984 213.73092
19.45794 214.52018 213.82084
19.46192 207.78970 213.91789
19.46593 214.65369 214.02342
19.46992 207.68432 214.13656
19.47391 210.40694 214.25679
19.47789 218.42213 214.38510
19.48191 215.02678 214.52318
19.48590 209.01536 214.66870
19.48987 209.12887 214.82264
19.49389 229.09761 214.98780
19.49789 215.96086 215.16163
19.50187 215.38944 215.34448
19.50585 221.22218 215.53783
19.50987 207.50642 215.74348
19.51385 212.15448 215.95870
19.51782 224.59661 216.18584
19.52185 211.13577 216.42709
19.52584 211.32622 216.68039
19.52982 228.65412 216.94802
19.53382 217.87743 217.22601
19.53783 211.61521 217.51856
19.54182 217.09765 217.82339
19.54578 211.84898 218.14127
19.54981 222.91589 218.48247
19.55380 220.56977 218.83461
19.55777 226.41236 219.20129
19.56177 219.36838 219.58804
19.56579 224.61828 219.99535
19.56976 216.64898 220.41670
19.57375 224.19448 220.86037
19.57777 222.47682 221.32782
19.58176 219.63282 221.81391
19.58573 226.53160 222.31956
19.58975 232.62487 222.85449
19.59374 227.61248 223.41129
19.59773 225.84106 223.99278
19.60170 240.58265 224.59827
19.60573 230.51975 225.24219
19.60970 221.94369 225.90437
19.61369 223.10411 226.60164
19.61770 235.01604 227.33496
19.62170 231.71629 228.10092
19.62568 222.00256 228.90023
19.62968 234.52266 229.73815
19.63368 237.54549 230.61739
19.63768 220.98489 231.53505
19.64165 230.04089 232.48985
19.64567 235.56649 233.50259
19.64966 244.07892 234.55882
19.65363 238.25313 235.65553
19.65762 247.42964 236.81128
19.66164 234.86875 238.03523
19.66562 238.97294 239.30311
19.66960 240.94817 240.63207
19.67363 239.80145 242.04660
19.67762 244.48381 243.51738
19.68158 243.94359 245.04898
19.68558 250.85024 246.66151
19.68960 263.97995 248.37478
19.69359 246.14792 250.16008
19.69756 247.06180 252.03119
19.70158 248.82550 254.02293
19.70558 253.65924 256.10190
19.70953 239.96624 258.26580
19.71354 254.79181 260.57386
19.71756 247.24487 263.00551
19.72152 254.54677 265.53223
19.72551 277.20910 268.20827
19.72955 273.01649 271.05549
19.73354 264.58863 274.02276
19.73749 280.55629 277.12037
19.74151 289.05317 280.43125
19.74552 286.61607 283.90403
19.74948 294.28475 287.51649
19.75347 287.50136 291.34511
19.75749 283.07321 295.39554
19.76147 292.60535 299.58779
19.76545 303.37322 303.98300
19.76947 298.41323 308.60720
19.77346 309.70230 313.37976
19.77744 301.98497 318.28309
19.78144 318.10564 323.34275
19.78545 304.75273 328.49492
19.78943 307.69972 333.60815
19.79341 301.78498 338.65486
19.79744 316.51315 343.57531
19.80142 304.57660 348.13752
19.80539 311.65077 352.25537
19.80939 316.41194 355.80208
19.81340 292.09746 358.60736
19.81739 312.35021 360.52814
19.82137 302.89017 361.47664
19.82540 309.10799 361.38731
19.82938 316.27795 360.25701
19.83335 297.43862 358.14063
19.83735 308.32229 355.10036
19.84136 312.50828 351.27128
19.84535 297.29958 346.82958
19.84931 313.89173 341.94432
19.85334 281.33393 336.65138
19.85733 286.14755 331.23737
19.86130 301.45402 325.77915
19.86530 294.26704 320.32127
19.86932 283.66472 314.95132
19.87329 283.35119 309.79403
19.87728 280.92824 304.82510
19.88131 294.48680 300.04467
19.88528 277.51565 295.56126
19.88926 275.66943 291.31296
19.89328 278.81547 287.26305
19.89727 279.76542 283.47126
19.90125 274.31872 279.91580
19.90524 282.13430 276.55709
19.90925 269.82522 273.37704
19.91323 267.14497 270.39904
19.91722 261.66333 267.58394
19.92123 270.93857 264.90383
19.92523 263.87903 262.37086
19.92920 255.04762 259.97572
19.93320 252.72384 257.68305
19.93721 261.33218 255.48726
19.94120 263.14080 253.39793
19.94517 260.74816 251.39964
19.94920 250.18042 249.45708
19.95318 261.50645 247.61410
19.95715 258.76322 245.84623
19.96116 238.27984 244.13028
19.96517 249.75929 242.47761
19.96914 242.57884 240.90712
19.97313 241.84704 239.38979
19.97716 257.46861 237.91880
19.98115 256.43862 236.52328
19.98511 258.62940 235.19820
19.98912 259.33675 233.91398
19.99312 235.45820 232.68839
19.99710 235.36770 231.52819
20.00109 248.01578 230.41781
20.00511 244.09553 229.35137
20.00909 248.59600 228.34672
20.01307 230.07743 227.39161
20.01708 225.66914 226.47348
20.02109 248.89701 225.59774
20.02505 248.99579 224.77154
20.02904 232.26334 223.97710
20.03306 232.46975 223.20935
20.03704 239.29404 222.47787
20.04102 228.45056 221.77319
20.04504 237.01994 221.08282
20.04904 235.28846 220.41662
20.05300 238.19430 219.77084
20.05700 216.93872 219.13318
20.06102 244.91366 218.50133
20.06499 243.15583 217.88507
20.06897 221.39477 217.27488
20.07300 212.83300 216.66218
20.07699 231.84781 216.05905
20.08096 228.66209 215.46375
20.08497 213.43589 214.86710
20.08898 232.20469 214.27489
20.09295 221.54112 213.69195
20.09694 225.72886 213.11368
20.10096 215.31992 212.53821
20.10495 221.50119 211.97440
20.10892 213.84615 211.42166
20.11292 222.57193 210.87452
20.11694 222.91141 210.33567
20.12090 215.93299 209.81514
20.12490 224.91890 209.30113
20.12891 213.04876 208.79789
20.13290 217.34587 208.30913
20.13688 221.71478 207.83434
20.14089 225.18974 207.36762
20.14490 217.09190 206.91348
20.14887 218.20366 206.47579
20.15286 212.41575 206.04785
20.15687 211.46984 205.62990
20.16085 228.68948 205.22598
20.16483 198.47824 204.83321
20.16885 216.06295 204.44834
20.17285 206.80128 204.07553
20.17681 210.89310 203.71755
20.18081 217.65830 203.36602
20.18483 229.52986 203.02391
20.18881 212.41064 202.69395
20.19279 209.71695 202.37421
20.19682 219.88107 202.06086
20.20081 200.31690 201.75975
20.20477 210.88296 201.47051
20.20876 212.96686 201.18807
20.21278 212.19292 200.91367
20.21676 209.04484 200.65120
20.22075 212.41830 200.39820
20.22478 226.44048 200.15219
20.22877 211.33018 199.91823
20.23274 205.82053 199.69523
20.23674 204.46793 199.48017
20.24075 214.40665 199.27526
20.24472 202.33706 199.08263
20.24870 210.59964 198.90022
20.25273 205.82548 198.72648
20.25671 210.38222 198.56588
20.26068 203.13681 198.41705
20.26469 205.26114 198.27881
20.26868 204.02968 198.15332
20.27267 213.36150 198.04084
20.27666 210.74623 197.94206
20.28068 219.85407 197.85564
20.28467 206.90400 197.78418
20.28864 200.32651 197.72783
20.29265 200.93890 197.68654
20.29665 216.88859 197.66180
20.30062 211.96122 197.65417
20.30461 198.31062 197.66435
20.30863 202.71146 197.69355
20.31262 211.76273 197.74231
20.31660 211.07470 197.81165
20.32061 209.94051 197.90335
20.32462 209.72021 198.01795
20.32858 212.19904 198.15491
20.33258 214.71612 198.31811
20.33659 201.65404 198.50809
20.34057 205.61802 198.72335
20.34455 215.40418 198.96611
20.34858 199.09046 199.24043
20.35257 204.47836 199.54151
20.35654 200.66729 199.86936
20.36054 215.84253 200.22816
20.36455 214.39797 200.61627
20.36851 227.55641 200.62803
20.37251 218.60755 201.06648
20.37654 211.73365 201.52766
20.38052 224.21116 202.00104
20.38449 225.29801 202.48396
20.38850 223.72922 202.97717
20.39250 219.27803 203.46896
20.39647 209.02613 203.94816
20.40047 215.94126 204.41475
20.40449 224.07027 204.86130
20.40847 223.44331 205.27458
20.41244 223.14159 205.65415
20.41645 230.26276 206.00110
20.42046 231.09682 206.31308
20.42443 233.38331 206.59132
20.42842 228.89788 206.84785
20.43244 229.01569 207.09492
20.43642 235.97971 207.34348
20.44039 240.20049 207.61409
20.44443 231.28321 207.93314
20.44841 237.82617 208.31554
20.45239 238.23865 208.78643
20.45638 242.79969 209.36948
20.46040 237.95817 210.08447
20.46438 232.19833 210.92614
20.46836 244.14002 211.89242
20.47239 252.71338 212.95827
20.47638 247.29996 214.04229
20.48036 258.40513 215.04810
20.48435 245.00474 215.85443
20.48835 224.86839 216.31762
20.49234 257.56032 216.31640
20.49632 251.69660 215.79132
20.50035 243.64216 214.73946
20.50434 233.16236 213.26583
20.50831 237.87258 211.50474
20.51230 241.71213 209.57328
20.51630 243.14769 207.60638
20.52028 239.21221 205.70500
20.52427 233.73072 203.92162
20.52829 235.97405 202.27522
20.53228 220.85772 200.80248
20.53625 231.92854 199.49608
20.54028 239.59332 198.32592
20.54427 223.52040 197.30339
20.54825 230.71944 196.41073
20.55224 222.48061 195.62876
20.55624 220.19756 194.94467
20.56023 224.60919 194.35284
20.56420 224.81178 193.84478
20.56822 222.49661 193.40330
20.57222 227.17469 193.03144
20.57619 225.64643 192.72071
20.58019 224.86880 192.46747
20.58421 214.29257 192.26722
20.58819 209.48479 192.11908
20.59217 216.58953 192.01969
20.59620 211.28060 191.96624
20.60019 230.46964 191.95856
20.60415 216.04524 191.99382
20.60814 213.76534 192.07085
20.61216 215.99588 192.18832
20.61613 227.69526 192.34038
20.62012 217.33866 192.52463
20.62414 210.37492 192.73656
20.62814 216.00623 192.96481
20.63211 221.30067 193.19970
20.63611 222.80544 193.43309
20.64012 209.24183 193.64988
20.64410 212.86074 193.83533
20.64809 202.73782 193.97835
20.65211 215.18729 194.06914
20.65610 206.53814 194.10009
20.66007 217.34026 194.07093
20.66407 216.52203 193.98435
20.66806 209.05389 193.84963
20.67205 213.27202 193.67876
20.67604 206.28587 193.48503
20.68006 197.17094 193.28126
20.68405 217.90480 193.08456
20.68802 213.32567 192.90589
20.69204 208.21301 192.75233
20.69604 213.64758 192.63455
20.70001 211.35329 192.55735
20.70400 208.86978 192.52381
20.70802 201.48191 192.53644
20.71199 204.21945 192.59512
20.71597 201.51955 192.69874
20.72000 215.41852 192.84623
20.72399 204.54137 193.03058
20.72797 211.91799 193.24535
20.73196 204.93159 193.48311
20.73597 212.58768 193.73475
20.73996 208.68066 193.98435
20.74393 207.81462 194.21990
20.74795 207.18487 194.43067
20.75194 200.85767 194.60078
20.75591 217.95286 194.72190
20.75991 211.28820 194.78983
20.76392 219.09406 194.80295
20.76791 210.61457 194.76534
20.77190 211.08331 194.68559
20.77592 205.47683 194.57342
20.77991 198.33998 194.44378
20.78389 204.55798 194.30860
20.78788 209.07274 194.17849
20.79189 214.26347 194.06431
20.79587 200.12927 193.97453
20.79985 207.02615 193.91496
20.80387 205.62449 193.88940
20.80786 203.18615 193.90144
20.81183 213.91808 193.95204
20.81584 199.20109 194.04279
20.81984 206.84702 194.17316
20.82383 209.88127 194.34238
20.82781 207.58082 194.54939
20.83183 193.09388 194.79630
20.83582 202.52438 195.07767
20.83979 219.44827 195.39276
20.84381 205.48142 195.74653
20.84781 211.77230 196.13224
20.85178 206.51094 196.54601
20.85577 210.27205 196.99289
20.85978 214.04298 197.47303
20.86375 216.65629 197.97766
20.86774 216.09982 198.51306
20.87176 209.35295 199.08229
20.87575 212.90191 199.67651
20.87974 213.55295 200.29860
20.88373 229.15670 200.95396
20.88774 228.76012 201.64320
20.89173 224.92612 202.36408
20.89569 219.35376 203.12006
20.89972 226.23633 203.92733
20.90370 215.12991 204.77133
20.90768 218.10522 205.66490
20.91169 227.12270 206.62346
20.91569 228.10941 207.64617
20.91967 223.78559 208.73530
20.92365 223.39471 209.90527
20.92767 226.45482 211.17846
20.93166 240.77419 212.54098
20.93564 231.92566 214.00616
20.93966 233.55987 215.59467
20.94365 228.12851 217.29157
20.94764 235.44331 219.09938
20.95161 228.81194 221.00622
20.95563 235.23224 223.03692
20.95961 232.94565 225.12153
20.96359 250.88808 227.24632
20.96761 249.02500 229.38753
20.97160 231.22106 231.45286
20.97558 241.05317 233.38310
20.97957 238.16589 235.11069
20.98359 242.69394 236.56311
20.98758 234.01660 237.63654
20.99155 236.57558 238.27763
20.99557 234.66692 238.44908
20.99956 237.28935 238.12468
21.00353 233.92148 237.32120
21.00753 223.29227 236.07405
21.01154 240.61301 234.43396
21.01553 239.43679 232.50015
21.01951 236.51442 230.34739
21.02353 226.86624 228.02618
21.02752 225.59176 225.65708
21.03150 236.93646 223.28988
21.03550 210.38036 220.95557
21.03951 228.31738 218.70428
21.04350 231.29398 216.57264
21.04746 219.68357 214.58107
21.05149 215.11030 212.69968
21.05547 216.05086 210.98300
21.05944 218.73805 209.41329
21.06345 210.63698 207.96719
21.06746 214.60079 206.65655
21.07145 210.72508 205.47757
21.07542 208.87279 204.42002
21.07945 224.91035 203.46213
21.08343 229.03025 202.61691
21.08741 212.16357 201.86663
21.09143 220.57365 201.19523
21.09542 213.57808 200.60806
21.09939 196.37415 200.09606
21.10338 204.33422 199.64666
21.10739 202.28019 199.25240
21.11138 208.06292 198.91299
21.11536 209.41657 198.61950
21.11938 204.12113 198.36314
21.12337 206.99294 198.14235
21.12735 207.31824 197.95051
21.13135 194.32270 197.77978
21.13535 193.01745 197.62619
21.13934 198.29974 197.48556
21.14331 200.94551 197.35151
21.14733 200.01194 197.21759
21.15134 204.52781 197.08140
21.15530 208.62415 196.93983
21.15930 192.61913 196.78588
21.16330 209.13783 196.61769
21.16729 192.12388 196.43285
21.17127 199.91877 196.22875
21.17530 190.41480 196.00032
21.17928 192.42804 195.75185
21.18326 189.11942 195.47939
21.18726 192.51107 195.18203
21.19126 192.13306 194.86133
21.19525 186.33095 194.51819
21.19922 198.86574 194.15563
21.20325 197.03068 193.76808
21.20723 192.23695 193.36749
21.21121 190.37834 192.95234
21.21522 188.49142 192.52017
21.21921 185.81089 192.07871
21.22320 186.73922 191.62978
21.22718 191.57445 191.17669
21.23120 192.64444 190.71498
21.23520 188.66889 190.25531
21.23917 194.54454 189.80064
21.24320 194.89825 189.34162
21.24717 175.59531 188.86741
21.25116 182.75566 188.42504
21.25515 190.38753 187.99036
21.25915 180.51576 187.56377
21.26314 189.46665 187.14899
21.26712 194.39467 186.74609
21.27114 181.78346 186.35104
21.27514 191.15593 185.97046
21.27912 193.45675 185.60557
21.28311 183.57211 185.25149
21.28712 187.96337 184.91069
21.29111 186.93909 184.58454
21.29508 192.56414 184.27336
21.29910 196.54753 183.97185
21.30309 180.06462 183.68691
21.30707 179.42747 183.41599
21.31106 169.03628 183.15719
21.31507 185.37610 182.91075
21.31905 185.24486 182.67847
21.32304 185.74272 182.45923
21.32707 176.67541 182.24972
21.33105 190.40805 182.05502
21.33503 193.77163 181.87251
21.33903 195.66203 181.70037
21.34304 172.80474 181.53983
21.34701 192.83549 181.39177
21.35101 177.42975 181.25404
21.35501 182.20410 181.12665
21.35899 191.46931 181.01064
21.36298 190.20338 180.90462
21.36698 185.34735 180.80849
21.37100 179.90819 180.72211
21.37496 179.05675 180.64658
21.37896 195.02886 180.58001
21.38297 179.51350 180.52287
21.38696 165.80607 180.47536
21.39093 182.89423 180.43752
21.39496 179.58015 180.40816
21.39894 185.36062 180.38822
21.40293 187.39787 180.37723
21.40692 185.52938 180.37513
21.41093 189.03050 180.38193
21.41489 183.02400 180.39742
21.41889 175.34612 180.42179
21.42290 188.08269 180.45517
21.42689 187.92106 180.49713
21.43088 182.63794 180.54786
21.43487 186.56334 180.60735
21.43888 175.81160 180.67608
21.44287 186.27732 180.75335
21.44685 188.26222 180.83926
21.45087 184.63152 180.93517
21.45486 192.26551 181.03942
21.45882 179.21130 181.15217
21.46283 186.00215 181.27549
21.46683 174.78414 181.40776
21.47081 177.80321 181.54889
21.47481 192.12974 181.70030
21.47882 187.83371 181.86218
21.48281 191.78246 182.03299
21.48679 184.22370 182.21332
21.49081 185.95559 182.40574
21.49480 181.98076 182.60739
21.49878 178.44291 182.81897
21.50277 172.23169 183.04141
21.50677 185.91791 183.27566
21.51075 174.02504 183.51987
21.51474 188.34968 183.77592
21.51875 172.78535 184.04520
21.52274 187.12893 184.32429
21.52674 184.09443 184.61617
21.53073 191.34060 184.91940
21.53473 185.38562 185.23623
21.53873 185.57635 185.56528
21.54271 183.41933 185.90548
21.54671 194.42922 186.26087
21.55070 190.19260 186.62845
21.55467 196.00553 187.00656
21.55868 197.57791 187.40220
21.56268 196.52367 187.81080
21.56666 198.55282 188.23124
21.57066 185.84060 188.66749
21.57467 192.47919 189.11821
21.57867 182.37256 189.58208
21.58264 191.46375 190.05588
21.58665 201.07446 190.54950
21.59064 212.83538 191.05329
21.59464 193.72676 191.57165
21.59861 187.44562 192.09975
21.60263 191.39531 192.64764
21.60660 184.01325 193.20253
21.61059 182.94862 193.77094
21.61460 206.28187 194.35543
21.61859 184.95126 194.94759
21.62258 203.53034 195.54992
21.62657 181.17022 196.16200
21.63059 207.23512 196.78836
21.63457 201.64143 197.41716
21.63855 202.92720 198.05366
21.64258 209.83169 198.70268
21.64656 198.87501 199.34981
21.65054 212.31938 200.00097
21.65453 207.48785 200.65676
21.65853 201.05291 201.31493
21.66251 206.64347 201.97002
21.66650 215.68277 202.62472
21.67053 215.88148 203.28355
21.67452 221.09451 203.93282
21.67850 212.70366 204.57568
21.68249 206.70997 205.21453
21.68651 214.50939 205.84916
21.69050 213.93023 206.47282
21.69447 221.60031 207.08534
21.69849 217.42393 207.69621
21.70247 202.47860 208.29220
21.70645 215.56516 208.88035
21.71044 214.51705 209.46170
21.71444 220.07074 210.03625
21.71843 228.70201 210.60496
21.72243 228.00000 211.16811
21.72644 218.54904 211.73087
21.73043 217.50972 212.29059
21.73441 236.35844 212.84932
21.73842 230.61725 213.41954
21.74241 228.45710 213.99408
21.74641 235.09240 214.58179
21.75037 229.25146 215.18043
21.75439 227.90775 215.80862
21.75837 229.65687 216.45509
21.76236 241.29025 217.13220
21.76637 239.12138 217.84889
21.77036 228.15245 218.60040
21.77436 235.45647 219.39688
21.77834 256.89427 220.24055
21.78236 246.37629 221.14428
21.78634 246.30319 222.09712
21.79032 249.75313 223.10998
21.79433 256.47678 224.19755
21.79832 253.78391 225.34194
21.80231 244.79793 226.55137
21.80630 262.93806 227.82731
21.81030 257.95091 229.16526
21.81428 249.43516 230.55368
21.81827 266.00071 231.98808
21.82229 257.02658 233.46758
21.82629 275.44227 234.95769
21.83026 265.17340 236.43770
21.83428 258.34394 237.90674
21.83827 264.98003 239.31633
21.84226 255.66520 240.64404
21.84623 247.71984 241.85220
21.85024 256.70484 242.92700
21.85423 248.61096 243.81640
21.85821 265.48988 244.49739
21.86222 259.51602 244.94975
21.86622 261.61823 245.14733
21.87019 244.28498 245.08244
21.87418 246.47862 244.75161
21.87820 243.64419 244.15444
21.88219 234.56673 243.31111
21.88616 249.10202 242.24448
21.89019 238.96783 240.95780
21.89418 235.64653 239.51413
21.89817 241.62637 237.91988
21.90215 216.07228 236.21353
21.90616 236.93131 234.41106
21.91013 225.44590 232.56279
21.91411 220.88778 230.67869
21.91813 212.34139 228.76365
21.92212 212.33129 226.86602
21.92611 206.55223 224.98539
21.93010 200.61383 223.13546
21.93410 200.59894 221.31472
21.93810 201.23394 219.54577
21.94208 204.96230 217.83182
21.94610 208.44863 216.15454
21.95008 194.35431 214.54509
21.95406 198.65976 212.99534
21.95806 179.50607 211.49135
21.96206 203.03700 210.04708
21.96604 185.03156 208.66512
21.97003 188.51700 207.33301
21.97405 191.40166 206.04376
21.97804 188.21069 204.81745
21.98203 195.23091 203.64398
21.98603 186.33171 202.51425
21.99002 184.70391 201.43647
21.99402 191.20477 200.40317
21.99799 180.66967 199.42040
22.00201 179.54473 198.47270
22.00598 194.89703 197.57522
22.00997 179.29674 196.71697
22.01399 171.51550 195.89184
22.01797 197.11316 195.11190
22.02196 187.18229 194.36714
22.02596 191.60083 193.65868
22.02997 181.88088 192.98115
22.03396 195.78260 192.34082
22.03793 185.33039 191.73659
22.04196 182.88427 191.15497
22.04594 179.31805 190.61087
22.04993 184.19865 190.09350
22.05391 185.28416 189.60347
22.05790 186.01558 189.14004
22.06189 180.46898 188.70275
22.06589 192.61774 188.22456
22.06991 186.18348 187.83274
22.07390 192.47806 187.46770
22.07789 174.95577 187.12497
22.08188 177.96982 186.80336
22.08588 186.62106 186.50370
22.08988 188.22412 186.22506
22.09385 189.02873 185.96987
22.09787 186.04430 185.73419
22.10185 185.50725 185.52332
22.10582 184.66580 185.33570
22.10983 190.22507 185.17133
22.11382 191.30166 185.03424
22.11781 178.04591 184.92532
22.12180 179.90762 184.84695
22.12581 174.87065 184.80239
22.12981 185.83021 184.79619
22.13380 189.76612 184.83302
22.13781 185.79935 184.92003
22.14179 180.52257 185.06638
22.14580 187.09563 185.28238
22.14977 182.59683 185.58250
22.15378 195.61760 185.99360
22.15775 182.85606 186.54322
22.16174 188.17721 187.28407
22.16575 184.47363 188.29466
22.16974 205.29133 189.67290
22.17373 186.07745 191.60509
22.17772 187.12228 194.34881
22.18173 180.01424 198.24820
22.18572 197.74876 203.44763
22.18970 187.18007 209.20816
22.19371 188.64206 213.07337
22.19770 186.07963 212.54084
22.20169 198.35103 208.63614
22.20568 190.85374 204.19799
22.20967 186.84357 200.92208
22.21365 178.02451 199.09036
22.21764 194.36503 198.48995
22.22167 191.54742 198.93230
22.22565 184.06945 200.30913
22.22963 192.21328 202.57164
22.23365 188.52342 205.57021
22.23763 180.43471 208.61170
22.24164 189.22894 210.43843
22.24561 185.89416 210.10635
22.24963 187.96725 208.16808
22.25360 190.32484 205.87469
22.25759 178.40832 203.94480
22.26160 181.66503 202.56086
22.26558 191.49062 201.67919
22.26957 196.53687 201.16518
22.27357 191.37121 200.90318
22.27758 177.31161 200.79621
22.28158 184.68036 200.76778
22.28555 194.51792 200.75791
22.28957 184.07600 200.72199
22.29355 187.46439 200.63302
22.29755 183.55278 200.47497
22.30153 170.74559 200.24582
22.30553 181.63074 199.94832
22.30951 184.24610 199.60872
22.31350 181.43645 199.24317
22.31752 183.36260 198.87674
22.32150 194.33582 198.54267
22.32549 185.15532 198.26789
22.32949 184.30293 198.08134
22.33349 191.69511 198.01404
22.33748 181.50567 198.09525
22.34146 203.17521 198.35351
22.34548 180.19513 198.82067
22.34946 180.94098 199.51326
22.35344 183.39523 200.44505
22.35744 182.79646 201.62190
22.36143 194.07852 202.99001
22.36542 177.60700 204.46352
22.36941 182.76930 205.88280
22.37343 186.00242 207.02874
22.37741 183.23000 207.64436
22.38140 182.95139 207.55025
22.38542 181.84404 206.67438
22.38940 188.89126 205.12937
22.39340 191.78244 203.11028
22.39738 187.59262 200.87964
22.40140 187.94969 198.60882
22.40536 186.61989 196.49247
22.40935 180.13534 194.56560
22.41336 192.47407 192.86434
22.41734 188.01677 191.41209
22.42134 188.47622 190.17062
22.42534 195.26529 189.13064
22.42935 177.06581 188.26411
22.43334 193.58661 187.55781
22.43732 181.91950 186.98900
22.44133 192.36692 186.53908
22.44531 179.77741 186.19977
22.44932 192.32775 185.95639
22.45330 188.35133 185.80306
22.45729 186.75862 185.73103
22.46127 189.23916 185.73503
22.46527 189.44225 185.81098
22.46928 201.85986 185.95634
22.47326 193.02466 186.16675
22.47726 184.40472 186.44227
22.48125 189.91660 186.77997
22.48525 183.31971 187.18076
22.48925 189.05543 187.64239
22.49324 181.78802 188.16550
22.49724 192.78250 188.75004
22.50123 177.78410 189.39335
22.50519 189.79969 190.09398
22.50921 198.86020 190.86538
22.51320 183.85140 191.68993
22.51719 187.96334 192.57494
22.52119 183.25457 193.52024
22.52519 182.23796 194.52282
22.52919 197.00934 195.57736
22.53318 185.81085 196.67629
22.53719 187.76496 197.82531
22.54117 184.44623 199.00028
22.54516 183.45711 200.20499
22.54915 175.98655 201.42143
22.55314 184.88788 202.63963
22.55713 184.02786 203.83821
22.56111 186.69225 204.99928
22.56514 185.71378 206.11377
22.56912 184.63286 207.13649
22.57312 180.67326 208.05565
22.57711 177.54198 208.84476
22.58110 181.89569 209.48056
22.58511 191.50221 209.94307
22.58910 185.01054 210.21212
22.59310 189.05991 210.27709
22.59708 183.19381 210.13027
22.60107 181.62644 209.77083
22.60507 181.22426 209.20104
22.60905 186.19849 208.43466
22.61305 193.19367 207.48398
22.61703 186.51329 206.37275
22.62106 173.04776 205.10694
22.62503 169.23805 203.74273
22.62903 189.88961 202.27907
22.63304 176.16519 200.74167
22.63702 182.92856 199.17492
22.64103 189.01068 197.57027
22.64501 180.37499 195.97355
22.64902 174.79819 194.37526
22.65299 176.72965 192.81715
22.65697 178.12940 191.28666
22.66100 182.95021 189.78509
22.66496 175.24955 188.35398
22.66896 175.98429 186.96025
22.67295 176.02801 185.62738
22.67696 169.31217 184.34262
22.68096 185.00284 183.12256
22.68494 173.47663 181.96155
22.68896 171.33053 180.84770
22.69293 166.91900 179.79967
22.69693 165.48917 178.79612
22.70092 165.74128 177.78559
22.70491 163.14557 176.88465
22.70891 176.37586 176.02905
22.71288 175.20872 175.22246
22.71691 170.36984 174.44528
22.72087 174.34514 173.72026
22.72488 164.88210 173.02558
22.72887 159.21151 172.36893
22.73287 166.81262 171.74485
22.73688 173.38838 171.14998
22.74086 161.67162 170.58959
22.74487 166.52868 170.05307
22.74885 162.39235 169.54705
22.75283 166.22295 169.06579
22.75684 171.47318 168.60467
22.76081 182.05259 168.17110
22.76481 164.06860 167.75456
22.76881 168.08035 167.35833
22.77281 167.71647 166.98110
22.77680 153.69146 166.62212
22.78080 157.73528 166.27971
22.78479 154.83993 165.95351
22.78878 161.19763 165.64345
22.79279 163.80961 165.34578
22.79676 161.70786 165.06457
22.80078 173.50173 164.79369
22.80476 155.29390 164.53860
22.80873 160.29713 164.29467
22.81275 163.73219 164.05901
22.81672 164.06472 163.83698
22.82072 164.84906 163.62328
22.82472 156.45470 163.41982
22.82871 164.56819 163.22583
22.83273 161.87595 163.04023
22.83670 163.36950 162.86488
22.84071 162.01909 162.69616
22.84470 162.67852 162.53657
22.84869 166.15472 162.38454
22.85269 162.89272 162.23978
22.85667 161.06241 162.10237
22.86066 161.94102 161.97188
22.86465 158.36713 161.84810
22.86866 159.22656 161.72993
22.87264 159.62552 161.61900
22.87665 164.93285 161.51346
22.88064 165.92368 161.41437
22.88463 160.28386 161.32098
22.88863 166.42239 161.23307
22.89262 161.13666 161.15068
22.89662 157.61403 161.07349
22.90061 159.84299 161.00185
22.90458 168.33743 160.93545
22.90859 160.67294 160.87360
22.91258 165.87857 160.81699
22.91657 168.43299 160.76514
22.92055 154.28977 160.71821
22.92457 174.49458 160.67559
22.92856 157.34295 160.63795
22.93256 161.99612 160.60487
22.93656 164.81206 160.57627
22.94053 160.85246 160.55240
22.94454 160.60534 160.53280
22.94853 158.61050 160.51776
22.95253 155.41874 160.50714
22.95651 161.71730 160.50094
22.96050 155.37104 160.49564
22.96451 148.94271 160.49824
22.96849 155.26095 160.50522
22.97249 156.41086 160.51663
22.97648 154.85884 160.53243
22.98048 162.12960 160.55273
22.98449 162.31665 160.57752
22.98846 167.82027 160.60655
22.99248 157.05730 160.64046
22.99645 166.80062 160.67841
23.00044 160.62929 160.72120
23.00445 156.85163 160.76876
23.00842 154.78018 160.82060
23.01242 152.03158 160.87746
23.01642 151.73489 160.93941
23.02043 154.60763 161.00616
23.02441 155.48471 161.07731
23.02839 163.23446 161.15340
23.03241 156.17504 161.23533
23.03640 169.69010 161.32170
23.04039 158.26251 161.23122
23.04439 162.95474 161.32863
23.04840 161.35279 161.43180
23.05236 158.48130 161.53954
23.05635 156.39240 161.65335
23.06037 154.31108 161.77350
23.06434 164.67589 161.89833
23.06833 162.88545 162.02984
23.07233 161.98612 162.16767
23.07633 158.80472 162.31159
23.08032 164.98937 162.46159
23.08432 164.06185 162.61847
23.08832 155.84232 162.78193
23.09230 163.80125 162.95150
23.09631 163.24603 163.12907
23.10029 169.18828 163.31405
23.10428 159.62785 163.50508
23.10827 172.05926 163.70377
23.11226 163.15932 163.91002
23.11629 160.32291 164.12601
23.12026 160.92551 164.34723
23.12427 157.97057 164.57853
23.12825 174.06490 164.81668
23.13225 166.23769 165.06378
23.13625 163.09175 165.32053
23.14024 167.71132 165.58521
23.14425 164.85112 165.86092
23.14823 167.64206 166.14323
23.15220 163.24410 166.43520
23.15622 168.72302 166.73951
23.16020 175.03570 167.05165
23.16419 177.97511 167.37529
23.16819 168.00179 167.70787
23.17219 163.95146 168.05038
23.17618 165.47816 168.40565
23.18017 163.97275 168.77206
23.18419 178.42955 169.15241
23.18817 170.32325 169.53995
23.19216 174.08974 169.94170
23.19615 171.46432 170.35422
23.20016 162.98619 170.78116
23.20415 166.58797 171.21869
23.20812 173.49648 171.66729
23.21214 169.46794 172.13367
23.21610 180.50720 172.60581
23.22011 170.05214 173.09608
23.22411 165.19369 173.60700
23.22810 179.20453 174.12320
23.23210 171.25527 174.65295
23.23609 171.57671 175.19481
23.24009 187.22280 175.75155
23.24408 163.32689 176.32071
23.24808 172.21135 176.90431
23.25207 180.36885 177.50101
23.25606 184.14009 178.10956
23.26004 175.39517 178.73201
23.26403 184.14250 179.36810
23.26805 172.86077 180.02409
23.27202 191.25386 180.68335
23.27602 180.19930 181.36260
23.28003 171.36117 182.05627
23.28401 176.08757 182.75811
23.28801 190.68501 183.47772
23.29201 178.88691 184.20971
23.29600 189.27430 184.95584
23.29999 184.59578 185.71573
23.30397 176.82373 186.48906
23.30797 193.07579 187.28134
23.31195 191.88453 188.08714
23.31595 186.01580 188.91352
23.31994 182.06474 189.75756
23.32396 193.29416 190.62798
23.32793 191.71394 191.50989
23.33194 191.00196 192.42510
23.33594 189.62041 193.36208
23.33991 185.21531 194.32261
23.34393 185.87755 195.32327
23.34791 190.72098 196.34721
23.35191 197.15354 197.41195
23.35589 195.31987 198.50719
23.35988 197.99457 199.64359
23.36390 202.06594 200.82793
23.36787 219.10834 202.03509
23.37187 206.31291 203.29146
23.37587 211.48948 204.58311
23.37987 198.15234 205.91009
23.38386 207.71625 207.25807
23.38784 210.53128 208.62116
23.39186 208.82360 210.00200
23.39583 204.79909 211.36448
23.39983 219.10576 212.71615
23.40383 221.37629 214.02957
23.40781 215.34726 215.27795
23.41181 219.34860 216.45478
23.41580 230.71214 217.53029
23.41982 221.08611 218.49645
23.42379 225.13169 219.31786
23.42779 222.00740 219.99893
23.43181 221.84755 220.52692
23.43577 225.95729 220.89086
23.43978 220.16706 221.10091
23.44377 224.13773 221.15853
23.44777 225.98657 221.07771
23.45177 233.52024 220.86450
23.45573 240.11685 220.53961
23.45975 217.54088 220.10659
23.46372 219.00525 219.59644
23.46771 222.03635 219.01221
23.47172 215.26608 218.36566
23.47572 225.60430 217.66891
23.47971 215.21030 216.93103
23.48370 219.64555 216.15760
23.48770 212.03911 215.35239
23.49170 206.40662 214.52290
23.49569 215.11813 213.67150
23.49968 211.64221 212.79950
23.50369 198.73434 211.90790
23.50766 221.93415 211.01107
23.51165 200.92357 210.09850
23.51565 215.09278 209.17575
23.51963 204.32350 208.25232
23.52362 208.91864 207.32422
23.52764 194.34496 206.39261
23.53163 202.62708 205.46809
23.53563 204.37647 204.55070
23.53962 189.61455 203.64353
23.54361 197.99413 202.74643
23.54759 198.98248 201.86758
23.55159 194.13130 201.00095
23.55558 198.78702 200.15528
23.55957 215.74516 199.33056
23.56357 203.35469 198.52733
23.56756 217.66015 197.75165
23.57158 207.37148 196.99641
23.57555 205.57270 196.28112
23.57956 195.22306 195.58910
23.58357 195.50094 194.93055
23.58753 199.88932 194.31515
23.59154 200.08007 193.72847
23.59553 196.23814 193.18454
23.59953 214.14698 192.67847
23.60351 203.29722 192.21480
23.60749 199.06307 191.79302
23.61151 202.40771 191.40891
23.61548 191.77341 191.07178
23.61948 207.63805 190.77279
23.62348 202.90128 190.51494
23.62748 204.11189 190.29616
23.63147 199.45901 190.11569
23.63546 205.91560 189.96979
23.63948 207.32511 189.85419
23.64345 201.66880 189.76962
23.64745 191.78824 189.70972
23.65144 192.10622 189.66929
23.65544 197.10554 189.64392
23.65943 184.02929 189.62852
23.66341 191.05882 189.61675
23.66743 201.76687 189.60293
23.67140 179.26960 189.58151
23.67541 193.10020 189.54635
23.67940 199.12951 189.49244
23.68339 188.19987 189.41504
23.68739 198.82793 189.30987
23.69137 192.46931 189.17509
23.69539 189.87744 189.00680
23.69936 188.76891 188.80791
23.70335 182.17319 188.57541
23.70736 189.66228 188.31277
23.71134 184.90579 188.02478
23.71533 191.38801 187.71325
23.71933 189.44048 187.38412
23.72334 199.35290 187.04232
23.72732 189.60648 186.69624
23.73133 190.49636 186.34746
23.73533 185.51924 186.00295
23.73931 185.34417 185.66668
23.74331 195.70945 185.33593
23.74730 194.87397 185.01094
23.75129 193.99755 184.68449
23.75528 189.77243 184.34685
23.75926 191.51313 183.98396
23.76327 179.53212 183.57600
23.76726 194.53403 183.10900
23.77125 189.57836 182.56231
23.77525 194.09571 181.92349
23.77924 185.33109 181.19092
23.78324 190.12436 180.36157
23.78723 189.03192 179.45021
23.79124 186.94753 178.46981
23.79522 182.34208 177.45502
23.79921 179.72242 176.41659
23.80321 191.28901 175.37733
23.80719 187.46768 174.36396
23.81119 185.41894 173.37885
23.81517 178.74782 172.44214
23.81920 175.26827 171.54692
23.82316 176.02692 170.72114
23.82717 174.59198 169.94419
23.83118 183.20754 169.22486
23.83515 185.28751 168.57046
23.83916 181.75404 167.96467
23.84314 170.25479 167.41901
23.84715 180.77927 166.92162
23.85112 173.83125 166.48101
23.85512 176.66149 166.08642
23.85913 176.64072 165.73748
23.86310 164.57616 165.43815
23.86711 168.06683 165.17905
23.87109 180.35003 164.96118
23.87512 179.20903 164.77705
23.87909 172.10369 164.62514
23.88309 169.36886 164.49486
23.88709 175.28476 164.37885
23.89107 173.54721 164.26693
23.89508 159.40973 164.14590
23.89906 169.88453 164.00632
23.90306 171.49909 163.83449
23.90704 157.76422 163.62356
23.91103 158.48099 163.36682
23.91505 177.58339 163.06071
23.91902 167.53337 162.71600
23.92302 157.17240 162.33043
23.92702 166.19665 161.91862
23.93101 159.12537 161.49032
23.93500 170.10479 161.05509
23.93899 169.21468 160.62343
23.94301 167.97407 160.19867
23.94699 170.99638 159.79510
23.95098 161.23652 159.41025
23.95498 163.72757 159.04894
23.95896 161.29146 158.71349
23.96295 162.28590 158.40274
23.96694 165.10354 158.11663
23.97095 166.57266 157.85448
23.97493 156.19016 157.61792
23.97893 165.46543 157.40372
23.98294 164.37134 157.21081
23.98692 157.42448 157.04057
23.99092 164.05342 156.88932
23.99492 159.05993 156.75802
23.99891 161.63135 156.64553
24.00290 165.94040 156.55112
24.00688 172.84096 156.47452
24.01089 160.81346 156.41458
24.01487 162.63984 156.37208
24.01885 158.42887 156.34624
24.02286 154.06475 156.33714
24.02686 159.51900 156.34501
24.03085 158.95906 156.36986
24.03484 167.59042 156.41210
24.03885 160.41889 156.47229
24.04283 154.82356 156.55039
24.04684 150.69877 156.64810
24.05082 160.89091 156.76270
24.05482 151.48062 156.90102
24.05880 155.76302 157.06071
24.06279 157.17019 157.24447
24.06681 161.58010 157.45470
24.07078 163.88282 157.68996
24.07478 157.72241 157.95651
24.07879 150.13506 158.25492
24.08277 157.62529 158.58771
24.08677 162.68066 158.96306
24.09075 156.29917 159.38024
24.09477 159.59444 159.85274
24.09873 148.96914 160.37511
24.10274 163.72950 160.96844
24.10673 161.56303 161.63446
24.11072 161.13054 162.38496
24.11471 168.03173 163.23421
24.11871 153.66913 164.20356
24.12271 165.79046 165.30634
24.12670 160.39630 166.55864
24.13069 164.99490 167.99060
24.13471 163.40889 169.63266
24.13868 170.99351 171.48139
24.14269 163.35152 173.59222
24.14668 155.46376 175.93624
24.15067 167.78421 178.51301
24.15466 163.01235 181.25360
24.15865 162.29733 184.05583
24.16266 164.63107 186.75731
24.16664 173.88039 189.08784
24.17063 169.04781 190.84100
24.17463 164.40477 191.81841
24.17863 167.95238 191.95002
24.18262 164.95619 191.31858
24.18661 174.60690 190.11394
24.19062 161.32213 188.57136
24.19459 164.81299 186.93849
24.19860 172.41460 185.34795
24.20259 159.98310 183.92913
24.20657 175.75608 182.72754
24.21057 165.81381 181.74912
24.21456 180.46101 180.99795
24.21857 177.42314 180.45102
24.22256 171.03766 180.09486
24.22655 178.18250 179.90922
24.23056 180.03684 179.88048
24.23454 182.90753 179.99834
24.23853 185.27165 180.25703
24.24253 180.68909 180.65206
24.24654 195.10363 181.18468
24.25051 171.86346 181.84185
24.25450 187.08837 182.63544
24.25851 180.62760 183.56426
24.26247 195.92756 184.62511
24.26648 190.05406 185.85336
24.27047 172.70509 187.27310
24.27448 196.65434 188.94912
24.27846 186.82517 190.95166
24.28245 201.73587 193.39870
24.28647 183.65576 196.47223
24.29044 196.05314 200.23248
24.29444 196.15664 204.89471
24.29844 189.32466 210.44701
24.30243 180.13158 216.71263
24.30642 190.81347 223.13512
24.31041 190.92541 228.71323
24.31441 193.29791 232.14908
24.31840 188.03880 232.30072
24.32239 182.95472 228.89603
24.32639 187.85995 222.64294
24.33040 170.50442 214.84174
24.33438 173.28317 206.77875
24.33837 169.81154 199.23895
24.34239 171.07685 192.54600
24.34636 170.05719 186.92199
24.35035 168.99955 182.18158
24.35437 169.86533 178.23225
24.35833 168.86742 174.98958
24.36232 165.96459 172.27774
24.36632 161.00204 170.01469
24.37033 159.85366 168.11183
24.37431 154.13825 166.52226
24.37831 163.53705 165.17482
24.38232 156.84435 164.02669
24.38629 158.09091 163.06324
24.39031 160.77857 162.23350
24.39429 156.07926 161.53350
24.39829 157.59850 160.93686
24.40227 161.72039 160.43455
24.40626 160.89071 160.01084
24.41027 157.09432 159.65689
24.41424 154.16173 159.36957
24.41825 149.31533 159.13652
24.42224 161.33003 158.95606
24.42624 161.65026 158.82300
24.43024 162.11784 158.73395
24.43422 155.62196 158.68607
24.43824 144.24385 158.67676
24.44221 158.12427 158.70395
24.44622 155.13583 158.76651
24.45021 153.18092 158.86291
24.45419 155.60373 158.99156
24.45818 151.48816 159.15248
24.46218 155.17787 159.34564
24.46619 153.54151 159.57078
24.47017 163.30548 159.82487
24.47415 152.67032 160.11035
24.47818 159.18253 160.42905
24.48214 139.12717 160.77499
24.48615 152.00431 161.15504
24.49015 157.87377 161.56683
24.49415 157.43051 162.01004
24.49812 153.76862 162.48174
24.50212 151.38705 162.98871
24.50612 154.34747 163.52772
24.51009 166.85805 164.09487
24.51409 153.28219 164.69907
24.51808 157.64932 165.33435
24.52210 154.54407 166.00690
24.52608 156.86642 166.70448
24.53007 153.77042 167.43590
24.53410 157.97796 168.20739
24.53806 153.98502 168.99895
24.54207 167.56674 169.82996
24.54606 151.17491 170.69022
24.55006 156.07106 171.58554
24.55403 163.42978 172.50747
24.55801 150.91510 173.46671
24.56204 153.30553 174.47373
24.56601 157.99091 175.50610
24.57000 158.17277 176.58572
24.57402 164.28220 177.71922
24.57801 163.68957 178.90172
24.58200 159.37822 180.13939
24.58599 155.53630 181.44584
24.59001 157.70744 182.83833
24.59398 148.98277 184.29278
24.59797 154.71243 185.84430
24.60198 156.03999 187.49046
24.60596 155.86362 189.21317
24.60995 160.61660 191.02219
24.61394 151.88866 192.89740
24.61797 159.24499 194.81934
24.62193 157.20442 196.70294
24.62593 157.18233 198.53397
24.62994 152.27379 200.21908
24.63391 152.68069 201.65461
24.63793 151.26306 202.77557
24.64191 160.40100 203.47190
24.64591 165.60316 203.68027
24.64990 148.46886 203.35641
24.65388 151.65167 202.49612
24.65789 161.72216 201.11209
24.66187 145.90406 199.29562
24.66586 152.85192 197.10965
24.66986 152.50035 194.65823
24.67388 154.52513 192.02495
24.67786 153.74712 189.34059
24.68184 160.31464 186.65410
24.68586 152.09375 183.99133
24.68983 155.97973 181.46317
24.69385 160.22274 179.03168
24.69782 142.41935 176.76443
24.70181 147.51547 174.63657
24.70581 158.62909 172.65387
24.70979 146.35459 170.82483
24.71382 147.14623 169.11594
24.71778 148.16549 167.56179
24.72177 153.84076 166.11795
24.72579 156.35789 164.78010
24.72978 151.62328 163.55495
24.73377 153.34387 162.42175
24.73777 153.50236 161.37361
24.74178 147.22547 160.40390
24.74575 139.33372 159.51217
24.74976 151.95677 158.67837
24.75374 151.96566 157.90740
24.75772 147.23064 157.19334
24.76172 146.33576 156.52284
24.76570 151.29847 155.90200
24.76973 144.71082 155.31540
24.77370 144.73284 154.77425
24.77770 150.38227 154.26322
24.78171 154.95462 153.78252
24.78569 151.02108 153.33570
24.78970 144.97776 152.91158
24.79368 141.08951 152.51471
24.79769 153.23090 152.13894
24.80166 155.31437 151.78694
24.80564 145.07336 151.45369
24.80966 147.48096 151.13530
24.81363 142.10489 150.83792
24.81763 147.70959 150.55313
24.82163 150.83394 150.28377
24.82564 144.37188 150.02660
24.82962 147.81205 149.78460
24.83362 154.15376 149.55278
24.83762 147.97320 149.33208
24.84160 141.45383 149.12423
24.84560 142.52438 148.92361
24.84959 148.39245 148.73258
24.85358 147.86047 148.55004
24.85757 142.63515 148.37551
24.86155 137.09309 148.20871
24.86558 141.24195 148.04747
24.86955 145.11454 147.89519
24.87355 135.41411 147.74800
24.87755 144.53326 147.60681
24.88154 152.42014 147.47164
24.88554 145.45795 147.34199
24.88952 145.25061 147.21753
24.89354 148.22093 147.09708
24.89751 146.83018 146.98259
24.90150 148.62070 146.87164
24.90551 140.14735 146.76472
24.90948 147.90749 146.66246
24.91348 142.35108 146.56352
24.91747 144.62452 146.46820
24.92150 146.47321 146.37565
24.92546 144.38003 146.28771
24.92946 138.78238 146.20222
24.93347 149.48026 146.11945
24.93745 141.28985 146.04015
24.94146 147.53868 145.96295
24.94545 149.45404 145.88889
24.94945 146.31865 145.81721
24.95342 150.12327 145.74848
24.95741 143.87313 145.68164
24.96143 144.92754 145.61676
24.96539 128.03439 145.55485
24.96939 144.72869 145.49444
24.97339 136.33335 145.43609
24.97739 138.72724 145.37961
24.98138 139.88662 145.32521
24.98538 146.29020 145.27246
24.98939 148.74161 145.22145
24.99336 135.80535 145.17249
24.99738 138.45777 145.12475
25.00135 136.95843 145.07903
25.00535 147.09765 145.03461
25.00932 139.80492 144.99195
25.01331 147.34237 144.95059
25.01734 141.04076 144.91029
25.02131 150.68589 144.87197
25.02532 140.53448 144.83463
25.02931 137.42881 144.79879
25.03330 138.10019 144.76421
25.03730 145.57516 144.73090
25.04130 136.74575 144.69876
25.04530 144.45729 144.66787
25.04928 140.71479 144.63838
25.05327 141.40447 144.60995
25.05728 144.81075 144.58251
25.06124 153.20660 144.55663
25.06524 141.74828 144.53156
25.06924 143.04388 144.50764
25.07324 143.87985 144.48483
25.07723 143.08730 144.46320
25.08122 141.90356 144.44260
25.08523 145.01849 144.42308
25.08920 145.66336 144.40478
25.09322 149.09672 144.38737
25.09721 142.08962 144.37117
25.10121 137.45833 144.35604
25.10518 147.40009 144.34208
25.10917 145.31888 144.32918
25.11318 147.08658 144.31731
25.11715 138.12065 144.30669
25.12115 143.39491 144.29715
25.12516 138.72832 144.28873
25.12914 141.64900 144.28155
25.13314 132.28530 144.27553
25.13715 141.28118 144.27076
25.14114 141.03400 144.26725
25.14513 141.85521 144.26504
25.14912 147.16155 144.26416
25.15312 148.29477 144.26465
25.15709 138.69115 144.26655
25.16109 137.65804 144.26993
25.16508 138.42249 144.27484
25.16910 138.95712 144.28139
25.17307 140.50760 144.28952
25.17708 149.37605 144.29947
25.18107 144.36735 144.31123
25.18506 150.65878 144.32489
25.18906 141.81526 144.34059
25.19306 137.90857 144.35849
25.19704 137.19126 144.37855
25.20104 142.61278 144.40105
25.20501 139.29074 144.42599
25.20903 134.21445 144.45399
25.21299 145.42411 144.48444
25.21700 141.26679 144.51839
25.22101 136.37685 144.55562
25.22501 147.22271 144.59643
25.22900 154.59298 144.64095
25.23298 144.05807 144.68951
25.23700 150.63154 144.74297
25.24096 137.96841 144.80043
25.24497 150.34395 144.86371
25.24898 139.24921 144.93258
25.25296 139.24126 145.00702
25.25695 143.04105 145.08807
25.26093 144.24928 145.17580
25.26495 148.73023 145.27205
25.26893 135.02839 145.37500
25.27293 134.37742 145.48717
25.27692 139.91840 145.60802
25.28092 149.63576 145.73863
25.28491 137.69808 145.87875
25.28891 147.32669 146.02939
25.29291 151.53667 146.19034
25.29689 141.55123 146.36764
25.30088 138.06844 146.54753
25.30489 145.71074 146.73696
25.30886 143.50815 146.93127
25.31286 145.19095 147.13257
25.31684 153.33055 147.33477
25.32086 145.05972 147.53761
25.32484 146.66341 147.73290
25.32883 139.87998 147.91762
25.33285 132.69622 148.08907
25.33682 142.94210 148.23490
25.34083 152.34277 148.35501
25.34481 152.92980 148.44248
25.34882 151.29011 148.49524
25.35280 149.49899 148.51034
25.35679 139.09907 148.48852
25.36080 144.30869 148.43104
25.36478 141.34953 148.34212
25.36877 138.47737 148.22577
25.37278 139.14416 148.08695
25.37676 144.85244 147.93267
25.38076 145.85417 147.76723
25.38475 136.83499 147.59667
25.38877 142.03785 147.42324
25.39273 139.83254 147.26351
25.39673 152.14482 147.09644
25.40074 143.23316 146.93918
25.40472 142.89538 146.79212
25.40871 136.53453 146.65436
25.41271 142.89538 146.52696
25.41671 144.96470 146.41039
25.42069 139.91213 146.30523
25.42468 154.60897 146.21015
25.42869 139.34022 146.12467
25.43267 139.12259 146.04958
25.43667 144.12791 145.98358
25.44067 147.25584 145.92623
25.44467 140.80541 145.87753
25.44865 139.45957 145.83677
25.45265 131.12907 145.80342
25.45665 146.02200 145.77712
25.46062 141.80640 145.75767
25.46462 138.86580 145.74448
25.46861 153.91549 145.73739
25.47263 141.39964 145.73609
25.47661 153.52533 145.74033
25.48060 137.69790 145.74990
25.48462 143.44020 145.70606
25.48859 147.97297 145.72566
25.49260 140.23222 145.75034
25.49659 139.34968 145.77966
25.50058 147.79352 145.81347
25.50456 147.27242 145.85181
25.50855 131.77716 145.89473
25.51255 154.34663 145.94221
25.51654 149.75580 145.99430
25.52054 144.55797 146.05054
25.52454 144.67198 146.11128
25.52854 149.66121 146.17644
25.53252 145.09815 146.24578
25.53653 144.79944 146.32006
25.54053 147.29108 146.39884
25.54450 158.58535 146.48149
25.54851 140.04869 146.56969
25.55250 149.10120 146.66229
25.55648 138.69188 146.75949
25.56048 149.84227 146.86231
25.56446 146.61130 146.97017
25.56849 152.67476 147.08397
25.57247 144.59052 147.20194
25.57645 153.35463 147.32616
25.58047 141.41556 147.45638
25.58444 137.60874 147.59100
25.58844 154.45885 147.73283
25.59245 143.39580 147.88123
25.59643 148.55037 148.03534
25.60042 144.98790 148.19651
25.60441 144.83409 148.36496
25.60842 158.75250 148.54178
25.61239 149.38343 148.72523
25.61639 155.51680 148.91802
25.62039 144.41816 149.11956
25.62439 152.22440 149.33093
25.62839 156.07781 149.55235
25.63237 147.47270 149.78382
25.63639 147.89178 150.02890
25.64036 138.21436 150.28378
25.64436 152.63824 150.55398
25.64836 154.23152 150.83855
25.65235 151.73986 151.13926
25.65633 146.16706 151.45520
25.66033 149.23609 151.79075
25.66432 149.74948 152.14613
25.66830 149.67154 152.52150
25.67230 145.93773 152.92174
25.67631 155.05359 153.33840
25.68029 148.85921 153.78816
25.68429 154.67094 154.26985
25.68830 149.48011 154.78329
25.69230 145.82894 155.32873
25.69628 158.47602 155.90647
25.70027 160.24757 156.52315
25.70427 152.16229 157.17884
25.70825 141.20888 157.87183
25.71225 165.93260 158.60610
25.71623 144.69964 159.37685
25.72024 156.88923 160.19288
25.72422 151.35925 161.03647
25.72823 157.72746 161.91605
25.73224 157.44489 162.81903
25.73622 157.93914 163.72685
25.74021 140.84032 164.63890
25.74421 160.70449 165.53441
25.74821 153.81804 166.39526
25.75219 145.54862 167.19680
25.75616 151.29598 167.91984
25.76019 145.75718 168.55013
25.76416 157.99246 169.05440
25.76816 153.04544 169.42518
25.77216 153.27050 169.64960
25.77616 162.70042 169.72321
25.78013 165.47998 169.65038
25.78414 155.51680 169.43852
25.78816 152.59745 169.10178
25.79212 162.45711 168.66549
25.79613 165.56068 168.14063
25.80013 153.23817 167.55290
25.80410 159.73902 166.92348
25.80809 165.60026 166.26507
25.81209 162.34980 165.59150
25.81611 152.78383 164.91302
25.82007 164.85571 164.25042
25.82407 157.47367 163.59756
25.82809 154.99691 162.96225
25.83206 146.69817 162.35440
25.83606 150.59088 161.76798
25.84006 142.40920 161.20733
25.84407 142.16024 160.67143
25.84804 152.26100 160.16543
25.85203 152.05533 159.68434
25.85604 161.16434 159.22627
25.86001 153.11328 158.79736
25.86400 160.00900 158.39071
25.86800 166.72526 158.00748
25.87201 146.81581 157.64768
25.87598 158.93221 157.31443
25.87999 147.13988 157.00235
25.88400 153.69707 156.71323
25.88797 156.95092 156.44994
25.89199 146.43610 156.20798
25.89599 153.76185 155.99092
25.89996 155.18477 155.79923
25.90395 155.71940 155.63175
25.90794 142.10830 155.48916
25.91195 158.74979 155.37181
25.91593 165.69710 155.28212
25.91992 148.81421 155.21937
25.92392 153.11758 155.18492
25.92792 158.98135 155.17969
25.93191 149.79547 155.20433
25.93591 150.02038 155.25967
25.93990 150.65490 155.34538
25.94389 150.85008 155.46113
25.94790 150.43638 155.60614
25.95188 150.75448 155.77724
25.95587 148.97412 155.96988
25.95986 164.53829 156.17844
25.96385 160.64934 156.39496
25.96785 159.12347 156.60852
25.97183 161.15302 156.80585
25.97584 155.35509 156.97560
25.97986 153.54353 157.10339
25.98382 146.14845 157.17794
25.98783 154.22662 157.19088
25.99183 156.15784 157.14516
25.99582 146.73951 157.04310
25.99980 148.77240 156.89224
26.00379 156.64021 156.70278
26.00781 159.25994 156.48568
26.01178 166.56364 156.25784
26.01577 165.11520 156.02653
26.01977 154.92502 155.80043
26.02377 154.69582 155.58659
26.02776 160.00899 155.39067
26.03176 157.30779 155.21318
26.03577 162.52898 155.05590
26.03973 170.11236 154.92043
26.04374 165.58542 154.80324
26.04775 165.80078 154.70491
26.05172 165.70176 154.62442
26.05571 162.73320 154.55942
26.05970 163.78572 154.50882
26.06372 165.08043 154.47120
26.06768 169.77557 154.44608
26.07168 168.51329 154.43188
26.07570 161.08287 154.42828
26.07967 170.16978 154.43466
26.08367 164.17743 154.45096
26.08767 155.62324 154.47715
26.09168 170.94401 154.51373
26.09566 162.66008 154.56018
26.09964 167.22154 154.61762
26.10366 167.53692 154.68730
26.10762 163.63866 154.76828
26.11161 183.17783 154.86308
26.11561 164.60120 154.97275
26.11962 175.24152 155.09835
26.12360 175.71306 155.23959
26.12759 179.52283 155.39907
26.13161 176.41118 155.57908
26.13559 172.08408 155.77811
26.13959 168.97452 156.00003
26.14358 173.31519 156.24420
26.14758 168.35962 156.51229
26.15157 168.55808 156.80523
26.15555 181.47363 157.12374
26.15957 174.24498 157.47062
26.16353 176.54243 157.83835
26.16753 173.14899 158.23574
26.17153 178.75589 158.65679
26.17554 171.30909 159.10061
26.17951 184.19464 159.56079
26.18351 181.65488 160.04334
26.18752 193.55835 160.54581
26.19150 183.13578 161.06165
26.19550 177.57049 161.59719
26.19949 182.58636 162.15208
26.20348 182.55561 162.73123
26.20746 168.38088 163.33836
26.21146 181.96625 163.98374
26.21548 180.68431 164.67499
26.21946 171.30669 165.40912
26.22345 179.38176 166.20298
26.22746 179.38176 167.06220
26.23145 185.68883 167.98170
26.23542 189.18312 168.96758
26.23942 180.90255 170.03031
26.24344 178.22921 171.16578
26.24742 168.94298 172.35485
26.25141 183.32515 173.60623
26.25541 184.19171 174.90979
26.25937 193.79377 176.23338
26.26338 181.21851 177.58812
26.26738 181.01428 178.93827
26.27139 173.91304 180.26784
26.27537 169.68507 181.53461
26.27936 190.38265 182.73144
26.28338 189.93896 183.83751
26.28736 186.53984 184.81477
26.29136 191.56701 185.66743
26.29535 186.53140 186.38814
26.29936 190.96774 186.98419
26.30333 189.63994 187.46855
26.30732 187.43248 187.87431
26.31134 179.66691 188.23936
26.31530 201.37788 188.60317
26.31930 198.24239 189.02467
26.32331 189.28932 189.56107
26.32729 197.35623 190.27049
26.33128 205.37568 191.22048
26.33527 202.01453 192.48558
26.33928 203.11404 194.14788
26.34327 196.15379 196.25939
26.34726 204.09594 198.91655
26.35127 193.65787 202.20135
26.35525 183.40489 206.11731
26.35923 196.97968 210.71820
26.36323 206.32429 215.95025
26.36724 197.85212 221.63901
26.37122 192.41983 227.37571
26.37521 197.25105 232.68483
26.37923 196.17185 236.89680
26.38321 197.04102 239.25684
26.38720 192.73324 239.31943
26.39120 198.57798 236.94720
26.39520 194.85124 232.45895
26.39919 184.20979 226.50971
26.40316 194.99060 219.79577
26.40717 196.02731 212.84576
26.41116 187.69446 206.20446
26.41514 182.17255 200.07071
26.41915 192.30338 194.55137
26.42316 190.71926 189.66323
26.42713 178.01443 185.43232
26.43113 183.94156 181.73000
26.43514 175.38302 178.49478
26.43913 174.43213 175.70457
26.44313 180.44523 173.26252
26.44711 181.23195 171.13433
26.45111 177.23436 169.25842
26.45509 176.54894 167.61094
26.45909 168.21801 166.14828
26.46309 177.15984 164.84630
26.46707 174.79105 163.69399
26.47107 171.99238 162.66024
26.47507 170.13397 161.73141
26.47907 160.60113 160.89879
26.48306 164.38663 160.14958
26.48706 166.07288 159.45894
26.49106 157.63436 158.84659
26.49505 165.98674 158.29453
26.49903 169.07014 157.79507
26.50303 175.89814 157.34073
26.50700 171.61124 156.93142
26.51100 170.76660 156.55814
26.51499 178.47033 156.22034
26.51901 167.80236 155.91320
26.52298 166.95146 155.63817
26.52698 176.08299 155.38822
26.53099 166.57559 155.16226
26.53496 165.05249 154.96090
26.53897 170.49438 154.77875
26.54297 160.51787 154.61613
26.54697 164.99699 154.47143
26.55094 171.04987 154.34402
26.55493 167.83138 154.23118
26.55894 174.10789 154.13158
26.56291 161.34680 154.04610
26.56691 171.66949 153.97209
26.57091 164.71742 153.90904
26.57491 172.35390 153.85641
26.57890 160.09193 153.81345
26.58289 160.69703 153.77936
26.58691 168.13316 153.75331
26.59088 177.08538 153.73516
26.59488 166.61761 153.72402
26.59888 167.89252 153.71958
26.60286 167.18023 153.72143
26.60685 163.83017 153.72924
26.61084 172.72956 153.74274
26.61485 167.01695 153.76183
26.61883 171.25005 153.78614
26.62283 167.34665 153.81582
26.62684 156.08662 153.85102
26.63083 170.39165 153.89123
26.63481 160.85581 153.93684
26.63882 167.47940 153.98841
26.64282 169.54236 154.04575
26.64681 176.20108 154.10899
26.65079 171.25005 154.17855
26.65479 169.55187 154.25477
26.65877 171.41897 154.33744
26.66277 175.17676 154.42750
26.66676 167.38558 154.52449
26.67077 160.79052 154.62392
26.67475 163.35906 154.73439
26.67875 169.15688 154.85216
26.68275 168.04840 154.97632
26.68674 163.67025 155.10498
26.69074 172.91728 155.23832
26.69474 169.56936 155.37439
26.69873 167.16150 155.51098
26.70270 173.78403 155.64561
26.70669 157.90800 155.77688
26.71070 165.40595 155.90183
26.71468 158.37592 156.01551
26.71868 156.36201 156.11578
26.72269 164.67129 156.19850
26.72668 161.76100 156.25941
26.73066 161.29710 156.29519
26.73466 169.74820 156.30294
26.73867 150.75532 156.28191
26.74265 149.26042 156.22683
26.74666 162.93370 156.13133
26.75065 160.69928 156.01093
26.75462 165.52574 155.86064
26.75861 158.24053 155.68190
26.76261 156.27146 155.47793
26.76662 152.35961 155.25229
26.77060 160.85130 155.01274
26.77460 147.55431 154.75987
26.77861 146.89993 154.49851
26.78258 166.88134 154.23599
26.78658 152.80345 153.97124
26.79058 144.46700 153.70972
26.79458 154.27892 153.45329
26.79856 164.88609 153.20583
26.80255 156.13362 152.96591
26.80656 158.97450 152.73428
26.81053 146.27317 152.51565
26.81453 156.14455 152.30643
26.81852 155.21368 152.10797
26.82254 159.27642 151.91968
26.82653 159.69092 151.74304
26.83051 158.28727 151.57706
26.83452 157.46003 151.41957
26.83850 145.46879 151.27286
26.84250 157.17444 151.13425
26.84649 153.59857 151.00445
26.85049 151.21603 150.88235
26.85447 146.21176 150.76810
26.85846 141.21662 150.66040
26.86248 153.86554 150.55845
26.86645 153.13576 150.46356
26.87044 159.31307 150.37382
26.87446 150.08750 150.28861
26.87844 146.96369 150.20881
26.88243 159.23406 150.13310
26.88642 155.62242 150.06147
26.89044 160.90636 149.99311
26.89442 156.70692 149.92863
26.89842 145.72316 149.86711
26.90241 147.86809 149.80855
26.90638 139.72235 149.75294
26.91038 163.37949 149.69944
26.91437 148.92783 149.64816
26.91839 150.94762 149.59871
26.92237 148.52566 149.55177
26.92636 152.87123 149.50644
26.93037 148.81535 149.46254
26.93435 158.74393 149.42063
26.93835 158.02801 149.38003
26.94234 148.16887 149.34093
26.94634 148.85907 149.30318
26.95032 149.32975 149.26691
26.95431 155.78311 149.23181
26.95832 144.12398 149.19777
26.96230 161.35620 149.16530
26.96630 146.54473 149.13381
26.97029 153.11005 149.10355
26.97430 152.20402 149.07437
26.97828 149.63514 149.04652
26.98228 151.88033 149.01977
26.98630 149.31722 148.99402
26.99027 152.05251 148.96976
26.99428 154.66831 148.94644
26.99826 144.77714 148.92446
27.00226 148.09222 148.90363
27.00624 145.67628 148.88407
27.01023 161.70427 148.86571
27.01425 157.79976 148.84846
27.01822 152.85626 148.83272
27.02221 152.91323 148.81815
27.02622 144.74071 148.80486
27.03021 159.77846 148.79297
27.03420 153.06080 148.78242
27.03820 157.26630 148.77325
27.04221 156.46335 148.76545
27.04619 156.47648 148.75925
27.05018 151.49862 148.75437
27.05418 141.61866 148.75096
27.05815 145.96334 148.74907
27.06215 161.08283 148.74868
27.06614 148.12743 148.74985
27.07015 148.44876 148.75260
27.07414 149.43863 148.75694
27.07813 155.26595 148.76290
27.08215 150.32506 148.77056
27.08612 146.14427 148.77982
27.09013 160.16106 148.79085
27.09411 151.44567 148.80354
27.09811 156.77504 148.82073
27.10209 156.45897 148.83693
27.10608 160.11852 148.85498
27.11010 149.40311 148.87503
27.11406 146.32918 148.89661
27.11806 149.59750 148.92031
27.12206 158.54869 148.94597
27.12606 146.49352 148.97353
27.13005 154.95772 149.00311
27.13403 150.27674 149.03463
27.13806 154.27182 149.06852
27.14204 155.94586 149.10415
27.14605 153.86766 149.14219
27.15004 161.40165 149.18523
27.15402 140.76706 149.22740
27.15800 152.54924 149.27192
27.16199 156.72028 149.31878
27.16601 156.37584 149.36839
27.16998 152.91323 149.41978
27.17397 151.13744 149.47392
27.17799 156.77066 149.53099
27.18197 143.81570 149.59260
27.18597 146.15138 149.65488
27.18996 161.57327 149.71950
27.19396 155.12280 149.78723
27.19795 145.77977 149.85766
27.20194 157.17619 149.93114
27.20595 154.66711 150.00795
27.20992 149.35301 150.08706
27.21391 146.37076 150.17008
27.21791 155.63029 150.25641
27.22192 153.17317 150.34655
27.22589 158.26755 150.43937
27.22988 148.18126 150.53629
27.23390 153.10042 150.63782
27.23788 157.17180 150.74220
27.24190 152.21916 150.85181
27.24589 151.57824 150.96491
27.24986 159.48625 151.08209
27.25385 162.53982 151.20399
27.25783 151.08677 151.33049
27.26186 154.87980 151.46359
27.26582 158.97149 151.59989
27.26983 162.64976 151.74273
27.27383 160.64122 151.89116
27.27782 154.03102 152.04527
27.28181 150.00489 152.20537
27.28580 165.35158 152.37182
27.28982 159.23959 152.54647
27.29378 155.98637 152.72569
27.29779 160.02011 152.91400
27.30180 155.50684 153.11059
27.30577 154.15334 153.31324
27.30976 163.16495 153.52264
27.31375 147.82973 153.74422
27.31777 158.00207 153.97660
27.32174 166.61083 154.21695
27.32574 159.20621 154.46886
27.32976 156.34815 154.73374
27.33373 162.26636 155.00745
27.33773 167.39768 155.29626
27.34172 157.83892 155.59724
27.34573 159.98883 155.91349
27.34970 159.79439 156.24311
27.35369 158.96405 156.58930
27.35770 161.76738 156.95593
27.36168 159.06171 157.33743
27.36568 157.04233 157.74054
27.36968 155.39617 158.16603
27.37368 156.26962 158.61487
27.37766 156.90657 159.08631
27.38165 160.36182 159.58519
27.38566 152.80861 160.11653
27.38964 159.66281 160.67373
27.39365 159.93299 161.27009
27.39765 172.65785 161.90175
27.40163 164.38433 162.56938
27.40561 162.11690 163.27795
27.40960 154.03505 164.03431
27.41362 168.43516 164.83961
27.41759 170.11777 165.68552
27.42158 171.50514 166.58046
27.42560 157.68828 167.52788
27.42958 160.60758 168.50833
27.43357 168.75235 169.52564
27.43757 165.36544 170.56656
27.44158 171.09556 171.61567
27.44556 162.79362 172.64767
27.44955 161.50334 173.64034
27.45356 154.08450 174.56836
27.45753 167.44342 175.39311
27.46153 183.12769 176.10191
27.46552 164.86106 176.66159
27.46953 174.18004 177.06332
27.47351 175.31126 177.29953
27.47750 168.47743 177.38144
27.48153 163.49322 177.32540
27.48550 182.47299 177.16023
27.48950 155.41568 176.91199
27.49350 173.26988 176.61355
27.49748 174.27687 176.29422
27.50148 169.93719 175.97561
27.50545 185.09112 175.68024
27.50947 171.81268 175.41799
27.51345 180.59295 175.20531
27.51744 176.07431 175.04472
27.52144 182.17844 174.94069
27.52544 181.57961 174.89466
27.52943 180.53502 174.90621
27.53342 162.02645 174.97351
27.53743 189.50893 175.09503
27.54140 173.68494 175.26480
27.54542 183.26660 175.48573
27.54940 189.61209 175.75006
27.55339 191.94554 176.05658
27.55738 183.58715 176.40258
27.56137 184.56989 176.78659
27.56539 180.94853 177.20855
27.56935 186.30076 177.65816
27.57336 189.25931 178.14439
27.57738 190.39913 178.66246
27.58135 188.21428 179.20413
27.58536 191.92948 179.77579
27.58934 186.54208 180.37557
27.59335 176.94475 181.00502
27.59732 197.51433 181.65407
27.60131 182.49763 182.33126
27.60532 193.81909 183.03322
27.60930 194.83074 183.75012
27.61329 180.59295 184.48666
27.61729 205.08815 185.24015
27.62130 199.48121 186.00243
27.62528 200.79201 186.76475
27.62926 213.01808 187.52318
27.63329 205.05669 188.28163
27.63726 197.53638 189.01008
27.64127 203.24614 189.72169
27.64526 209.28449 190.39251
27.64925 210.01534 191.01739
27.65323 211.30434 191.58894
27.65722 196.15610 192.09835
27.66124 212.38741 192.54284
27.66521 211.12179 192.90651
27.66920 212.67574 193.19427
27.67321 214.20802 193.40288
27.67720 211.74469 193.53081
27.68120 203.47775 193.58229
27.68518 216.08362 193.56129
27.68920 196.17952 193.47379
27.69317 205.43133 193.32877
27.69717 214.35940 193.13301
27.70118 210.79340 192.89558
27.70515 216.38201 192.62948
27.70915 198.87963 192.33973
27.71313 227.05792 192.03823
27.71716 212.52457 191.72948
27.72112 213.67200 191.43021
27.72512 206.02294 191.13965
27.72913 201.81747 190.86691
27.73311 202.53165 190.62043
27.73712 202.70948 190.40038
27.74111 199.73250 190.21376
27.74511 200.86667 190.06073
27.74909 197.62725 189.94395
27.75307 193.38649 189.86169
27.75710 203.65543 189.81128
27.76106 197.38768 189.79080
27.76505 196.04126 189.79247
27.76906 181.32144 189.80801
27.77306 186.22805 189.82573
27.77705 185.83380 189.83085
27.78103 190.86374 189.80607
27.78506 183.47807 189.73067
27.78902 199.07207 189.58686
27.79303 189.28183 189.35245
27.79702 176.85842 189.01328
27.80102 190.27172 188.55854
27.80499 187.22194 187.98793
27.80898 178.63764 187.30142
27.81301 188.13040 186.50623
27.81698 194.20560 185.64077
27.82098 176.99263 184.70938
27.82499 177.11601 183.73974
27.82897 175.37849 182.77274
27.83297 180.61963 181.81944
27.83695 177.29458 180.91866
27.84096 194.71171 180.09558
27.84494 173.76533 179.40143
27.84894 184.77550 178.89615
27.85295 179.33419 178.70000
27.85692 171.66664 179.04693
27.86091 179.03626 180.43790
27.86491 176.72048 183.96535
27.86892 173.78227 191.05822
27.87290 177.29519 196.67631
27.87689 176.46076 190.43899
27.88090 169.57745 181.84362
27.88487 187.68721 176.67902
27.88888 173.19105 173.73628
27.89288 172.84776 171.92288
27.89688 161.25795 170.68418
27.90086 175.19712 169.76195
27.90484 176.48779 169.03254
27.90887 162.14711 168.42324
27.91283 178.07990 167.91482
27.91682 163.76549 167.47140
27.92082 174.32982 167.08252
27.92481 171.47476 166.73928
27.92880 173.34874 166.43629
27.93280 170.75583 166.16707
27.93682 173.79921 165.92799
27.94079 180.31371 165.71864
27.94480 174.79403 165.53509
27.94879 159.86399 165.37671
27.95277 163.76777 165.24179
27.95675 174.21816 165.12880
27.96074 180.31622 165.03621
27.96477 159.55210 164.96299
27.96874 166.62722 164.90960
27.97275 175.23863 164.87410
27.97675 173.20070 164.85622
27.98072 165.74770 164.85511
27.98473 173.23295 164.87014
27.98873 174.37355 164.90049
27.99271 171.55668 164.94535
27.99671 173.11147 165.00419
28.00071 173.72421 165.07624
28.00472 170.26730 165.16097
28.00867 171.19323 165.25593
28.01268 171.27664 165.36287
28.01667 180.42098 165.47949
28.02067 174.38267 165.60546
28.02465 169.01644 165.73935
28.02865 170.64884 165.88129
28.03267 181.23626 166.03098
28.03665 170.45897 166.18728
28.04066 167.91471 166.34926
28.04465 169.49483 166.51522
28.04864 183.63396 166.68675
28.05263 169.41700 166.86364
28.05660 168.66967 167.04473
28.06062 180.33562 167.23389
28.06459 174.38267 167.42699
28.06859 180.48380 167.63039
28.07260 174.59323 167.84052
28.07659 174.47909 168.05907
28.08060 172.06455 168.28973
28.08458 175.83396 168.52967
28.08858 179.44008 168.78199
28.09256 178.79210 169.04652
28.09656 170.49454 169.33063
28.10056 176.96262 169.63717
28.10453 182.36727 169.96802
28.10853 168.04385 170.33115
28.11253 177.88910 170.72352
28.11653 176.17172 171.13962
28.12051 172.33270 171.55169
28.12450 170.56098 171.93629
28.12852 179.29230 172.28088
28.13249 184.62224 172.60005
28.13650 177.57256 172.92893
28.14048 188.78268 173.27779
28.14449 157.62011 173.65359
28.14847 181.18583 174.04875
28.15246 184.47588 174.45920
28.15647 201.44125 174.88026
28.16044 170.47083 175.30092
28.16445 189.21476 175.72385
28.16844 170.06595 176.13767
28.17245 167.76526 176.54007
28.17643 195.78397 176.92342
28.18042 182.52389 177.28644
28.18443 199.01771 177.62450
28.18841 173.17270 177.93125
28.19241 188.97901 178.20783
28.19641 190.35706 178.44954
28.20039 196.97033 178.65526
28.20439 177.47345 178.82663
28.20837 185.36599 178.96348
28.21238 185.84747 179.06921
28.21635 176.83003 179.14625
28.22036 189.72684 179.19904
28.22436 186.74188 179.23533
28.22835 186.99911 179.25878
28.23234 185.84206 179.27275
28.23634 176.11288 179.27549
28.24035 190.89999 179.25775
28.24433 177.28840 179.20471
28.24833 196.45688 179.10148
28.25233 184.85409 178.95041
28.25630 192.01246 178.76991
28.26029 190.39411 178.58289
28.26428 192.26169 178.41221
28.26830 180.53816 178.27087
28.27228 191.93773 178.16776
28.27628 193.08466 178.10434
28.28029 192.69066 178.08266
28.28424 192.19219 178.10313
28.28826 194.74197 178.16758
28.29226 185.13059 178.27660
28.29626 198.83236 178.43162
28.30025 191.08263 178.63383
28.30421 192.79252 178.88396
28.30823 201.42724 179.18997
28.31221 193.28829 179.54756
28.31621 202.18534 179.96492
28.32020 190.39675 180.44108
28.32420 195.71321 180.98364
28.32820 193.83162 181.59503
28.33219 193.88549 182.27676
28.33620 191.04278 183.04108
28.34017 205.03697 183.87995
28.34418 199.61378 184.81541
28.34819 197.66812 185.84666
28.35215 206.45161 186.96615
28.35615 195.75131 188.20553
28.36015 194.57957 189.55490
28.36414 189.30041 191.02142
28.36813 192.35046 192.60577
28.37213 189.70310 194.31934
28.37612 190.07656 196.14171
28.38011 191.93506 198.06438
28.38412 195.55333 200.08721
28.38811 201.66199 202.15800
28.39211 189.02015 204.24045
28.39608 194.05390 206.26939
28.40008 187.98665 208.20433
28.40409 182.36913 209.95597
28.40807 200.81728 211.43351
28.41205 191.40511 212.59024
28.41605 188.83452 213.37824
28.42007 190.75410 213.77274
28.42405 188.41063 213.78140
28.42803 182.38941 213.45035
28.43203 188.82927 212.83835
28.43602 181.66405 212.02486
28.44002 184.29645 211.08429
28.44404 186.31538 210.08563
28.44802 191.59145 209.10060
28.45200 183.24345 208.16724
28.45599 193.57169 207.31099
28.45999 190.51589 206.54607
28.46396 186.01809 205.88250
28.46796 196.07625 205.29979
28.47196 184.31438 204.78352
28.47596 184.62907 204.30911
28.47997 189.50178 203.84586
28.48395 195.72682 203.36586
28.48795 193.88819 202.83653
28.49192 197.14671 202.23910
28.49593 189.25831 201.54752
28.49993 179.87758 200.75975
28.50390 180.10006 199.88834
28.50791 181.12620 198.92816
28.51189 186.82235 197.90819
28.51591 207.09385 196.83864
28.51989 201.54716 195.75880
28.52389 186.65630 194.67902
28.52789 194.40934 193.61873
28.53186 195.03526 192.60872
28.53588 179.60794 191.63656
28.53987 192.47385 190.73437
28.54387 190.00792 189.89867
28.54784 187.34114 189.13940
28.55184 188.87577 188.45094
28.55585 177.29393 187.83367
28.55982 195.72613 187.29490
28.56383 181.77778 186.82497
28.56782 194.47145 186.42371
28.57183 189.99736 186.09150
28.57582 188.48895 185.82675
28.57981 187.28131 185.62282
28.58382 191.20406 185.47719
28.58779 211.11698 185.38761
28.59180 191.53427 185.35221
28.59578 195.56099 185.35942
28.59977 187.27871 185.40791
28.60376 204.76621 185.49198
28.60775 190.23279 185.60678
28.61177 210.17552 185.74584
28.61575 195.69080 185.90176
28.61974 216.13217 186.07174
28.62375 202.59070 186.25145
28.62773 185.93286 186.43705
28.63172 195.45240 186.62936
28.63572 200.52243 186.82881
28.63973 213.41624 187.03842
28.64370 215.52035 187.25820
28.64770 219.27851 187.49607
28.65170 208.95854 187.75417
28.65567 204.76091 188.03368
28.65967 206.90995 188.34344
28.66366 210.25755 188.68265
28.66768 201.03293 189.05545
28.67166 217.55556 189.45575
28.67565 192.79517 189.88961
28.67967 204.55019 190.35551
28.68364 211.26585 190.84508
28.68765 201.46881 191.36344
28.69163 204.94317 191.90167
28.69563 203.27122 192.46008
28.69961 188.20131 193.03028
28.70360 181.66172 193.61133
28.70762 207.20095 194.20359
28.71159 188.14122 194.78979
28.71560 196.11599 195.37784
28.71959 198.51392 195.95530
28.72358 186.06975 196.52062
28.72757 183.68338 197.06874
28.73157 187.88518 197.59679
28.73557 199.36797 198.10143
28.73956 187.70999 198.57696
28.74356 192.49823 199.02163
28.74755 174.24358 199.42956
28.75154 173.66682 199.80032
28.75553 177.58539 200.12811
28.75952 179.23376 200.41013
28.76354 194.05781 200.64448
28.76751 182.18174 200.82189
28.77151 183.12732 200.94232
28.77551 186.60447 201.00021
28.77949 176.34403 200.99128
28.78350 174.97745 200.91198
28.78749 185.29730 200.75956
28.79149 164.96905 200.53191
28.79547 172.54924 200.22881
28.79945 178.38746 199.85037
28.80347 194.50998 199.39389
28.80744 176.55877 198.87267
28.81144 172.42479 198.27937
28.81543 180.63049 197.62666
28.81945 178.94211 196.91268
28.82342 172.99098 196.15759
28.82743 172.86622 195.35554
28.83143 184.55901 194.51833
28.83540 179.35129 193.66274
28.83942 170.97338 192.77388
28.84340 186.09816 191.88161
28.84740 170.47252 190.97822
28.85139 171.48958 190.07333
28.85537 182.40067 189.17284
28.85938 176.63620 188.27135
28.86335 167.36262 187.39129
28.86735 173.58972 186.51619
28.87134 167.33012 185.66056
28.87535 169.07737 184.82032
28.87933 170.26236 184.00660
28.88333 171.93328 183.21206
28.88734 173.88649 182.44212
28.89132 177.88868 181.70318
28.89532 170.15848 180.98989
28.89931 164.21864 180.30701
28.90330 167.29300 179.65841
28.90729 185.03779 179.04291
28.91127 168.64295 178.46441
28.91529 173.54398 177.91941
28.91927 169.00237 177.42035
28.92326 163.35363 176.96435
28.92728 167.15855 176.55334
28.93125 169.99349 176.19883
28.93526 177.29700 175.89770
28.93924 165.03993 175.66281
28.94325 164.19132 175.49739
28.94723 178.99027 175.41390
28.95121 170.62821 175.42178
28.95523 161.94332 175.53640
28.95920 171.46818 175.76983
28.96320 172.74642 176.14178
28.96720 164.65106 176.66778
28.97120 152.36405 177.35956
28.97518 172.77516 178.20847
28.97918 174.30595 179.19654
28.98319 170.55016 180.25560
28.98717 168.97426 181.25596
28.99117 157.36104 182.04753
28.99517 172.99935 182.44215
28.99915 172.98256 182.31554
29.00314 160.18192 181.64555
29.00713 160.61673 180.53227
29.01115 167.01322 179.12594
29.01512 160.38768 177.64019
29.01912 166.06158 176.17075
29.02312 173.55166 174.81681
29.02711 174.05524 173.61915
29.03110 158.80893 172.57876
29.03508 169.38255 171.68911
29.03911 165.45767 170.92631
29.04308 178.85638 170.29147
29.04708 170.31421 169.75261
29.05109 165.03535 169.29807
29.05506 174.47693 168.91971
29.05906 165.74570 168.60118
29.06305 177.87389 168.33612
29.06706 171.82845 168.11679
29.07104 171.29719 167.93797
29.07504 166.91604 167.79277
29.07905 163.27210 167.67792
29.08302 182.43533 167.59108
29.08704 173.76127 167.52743
29.09103 152.11908 167.48616
29.09501 162.76072 167.46473
29.09899 172.45536 167.46150
29.10298 178.62733 167.47518
29.10700 166.33400 167.50503
29.11097 178.68425 167.54965
29.11497 173.32761 167.60912
29.11896 169.73659 167.68258
29.12297 173.50839 167.77029
29.12696 168.83854 167.87169
29.13095 176.14801 167.98675
29.13496 170.48399 168.11652
29.13894 171.84750 168.25941
29.14294 170.47690 168.41841
29.14693 175.92888 168.59150
29.15092 175.96055 168.78066
29.15490 175.30543 168.98549
29.15889 173.93954 169.20788
29.16292 181.57381 169.44990
29.16688 171.01638 169.70722
29.17089 173.42433 169.98633
29.17489 182.26362 170.28504
29.17888 176.84455 170.60472
29.18288 182.14553 170.94702
29.18687 174.49553 171.31095
29.19088 167.76785 171.70094
29.19486 183.21287 172.11233
29.19884 175.01835 172.54903
29.20285 173.52281 173.01457
29.20682 177.87623 173.50351
29.21082 188.55331 174.02248
29.21481 194.74909 174.56816
29.21882 181.45563 175.14457
29.22280 185.12617 175.74473
29.22679 192.00797 176.37436
29.23081 189.49468 177.03625
29.23478 196.02414 177.71572
29.23880 182.92295 178.43166
29.24279 195.61906 179.16421
29.24678 182.96600 179.92095
29.25077 180.02159 180.69431
29.25475 190.44456 181.48389
29.25877 185.68323 182.29303
29.26274 189.94584 183.10238
29.26672 186.48432 183.91757
29.27074 185.23494 184.73748
29.27472 181.83580 185.54196
29.27872 193.88165 186.33626
29.28270 191.38597 187.10086
29.28673 187.31059 187.83920
29.29070 179.66078 188.52512
29.29468 180.72840 189.15618
29.29869 185.15545 189.72275
29.30267 189.39761 190.20503
29.30666 186.71872 190.59663
29.31065 191.76262 190.88618
29.31468 187.05295 191.06772
29.31865 196.68863 191.13528
29.32265 189.53253 191.09262
29.32666 182.84449 190.94513
29.33064 186.20356 190.70714
29.33464 193.77699 190.39115
29.33863 183.27454 190.01971
29.34264 184.64093 189.60990
29.34661 191.91234 189.18940
29.35060 181.26738 188.77267
29.35461 189.22470 188.38080
29.35858 188.83170 188.03594
29.36258 185.54704 187.74638
29.36658 179.48931 187.52661
29.37059 186.88847 187.38555
29.37457 187.60988 187.33083
29.37856 198.73577 187.36475
29.38258 188.81341 187.48949
29.38656 183.27885 187.70079
29.39056 179.31015 187.99681
29.39454 192.60571 188.36647
29.39854 178.28717 188.80156
29.40252 189.06615 189.28535
29.40651 176.10863 189.80396
29.41053 180.24052 190.34323
29.41450 181.49624 190.87200
29.41849 181.60955 191.37867
29.42250 189.02431 191.83873
29.42649 183.18837 192.22772
29.43048 184.23129 192.52249
29.43448 177.67698 192.70160
29.43849 190.37078 192.74405
29.44247 172.48585 192.63100
29.44647 179.33497 192.34967
29.45047 191.87518 191.89334
29.45443 175.69530 191.26858
29.45843 173.72782 190.47763
29.46242 189.39363 189.54492
29.46644 180.15825 188.48520
29.47041 179.27047 187.34589
29.47441 177.24425 186.14231
29.47843 172.44767 184.90105
29.48240 177.33745 183.67194
29.48641 170.83189 182.45120
29.49040 166.41770 181.27413
29.49439 183.80127 180.14838
29.49838 181.22476 179.08918
29.50235 178.60403 178.10309
29.50637 178.18851 177.17467
29.51035 176.89711 176.33672
29.51434 182.26812 175.56887
29.51834 171.46492 174.87480
29.52235 172.31892 174.25255
29.52634 189.69710 173.70206
29.53032 170.19393 173.21939
29.53434 173.21332 172.79750
29.53831 173.22769 172.44306
29.54232 168.66771 172.14523
29.54631 177.40664 171.90662
29.55030 179.73802 171.72437
29.55428 160.59282 171.58966
29.55827 170.93261 171.51718
29.56229 173.43934 171.49876
29.56627 171.60548 171.53437
29.57027 175.53508 171.62383
29.57428 167.48714 171.76665
29.57826 171.68854 171.95908
29.58226 177.26141 172.19988
29.58625 174.67732 172.48055
29.59026 175.39882 172.79205
29.59424 179.66589 173.11371
29.59822 171.70041 173.42591
29.60222 174.66283 173.70318
29.60620 172.31178 173.91447
29.61020 161.76572 174.03844
29.61420 169.17059 174.06026
29.61821 162.38938 173.97884
29.62219 178.55464 173.80865
29.62618 167.47324 173.56947
29.63020 178.51020 173.28530
29.63417 168.12532 172.98409
29.63818 176.22266 172.67731
29.64217 172.66585 172.38171
29.64617 175.92861 172.10183
29.65014 166.83931 171.84251
29.65412 179.84985 171.60164
29.65815 156.91908 171.37464
29.66211 168.03007 171.16420
29.66611 174.00918 170.96207
29.67011 161.55589 170.76671
29.67411 178.19538 170.57495
29.67809 173.99956 170.38476
29.68209 171.19505 170.19232
29.68610 169.09814 169.99671
29.69008 182.55152 169.79810
29.69409 173.76406 169.59328
29.69808 170.11863 169.38425
29.70206 174.79214 169.17066
29.70605 169.62225 168.95154
29.71004 163.61501 168.72819
29.71405 176.83955 168.49929
29.71802 173.06497 168.26996
29.72202 161.34825 168.03659
29.72605 175.97966 167.80000
29.73001 169.12618 167.56657
29.73402 175.55448 167.33071
29.73801 165.12621 167.09753
29.74201 171.28728 166.86496
29.74600 170.16575 166.63624
29.74998 161.98671 166.41216
29.75400 172.89649 166.18969
29.75796 162.21219 165.97586
29.76195 176.01614 165.76612
29.76596 179.70822 165.56252
29.76996 166.65285 165.36586
29.77395 159.35022 165.17323
29.77794 176.49901 164.99324
29.78196 180.93200 164.82104
29.78593 178.63509 164.65931
29.78994 186.59666 164.50579
29.79394 184.38325 164.36229
29.79792 182.55152 164.22933
29.80191 169.74955 164.10649
29.80589 168.01846 163.99424
29.80991 176.89820 163.89156
29.81388 167.76957 163.80086
29.81788 177.90055 163.72032
29.82189 170.72262 163.65062
29.82588 172.49662 163.59258
29.82987 180.99948 163.54553
29.83386 171.24943 163.50972
29.83787 173.30036 163.48515
29.84186 165.52943 163.47203
29.84585 177.86125 163.47024
29.84984 180.16275 163.47982
29.85382 185.43046 163.50066
29.85781 166.41803 163.53290
29.86180 183.46089 163.57638
29.86582 173.64410 163.63164
29.86979 183.28618 163.69722
29.87379 181.47448 163.77436
29.87781 181.40139 163.86253
29.88179 169.45127 163.96017
29.88578 182.07430 164.06816
29.88978 179.61641 164.18542
29.89378 179.84976 164.30579
29.89777 180.04833 164.43832
29.90174 169.81340 164.57609
29.90576 169.56216 164.71931
29.90972 176.10827 164.86282
29.91372 172.41570 165.00755
29.91772 179.35338 165.14973
29.92173 182.09442 165.28760
29.92571 184.48962 165.41805
29.92970 180.65371 165.54087
29.93372 184.73508 165.65557
29.93769 187.77787 165.76014
29.94170 177.64047 165.85746
29.94569 188.68758 165.94728
29.94968 175.50880 166.03235
29.95367 183.41840 166.11463
29.95765 180.55153 166.19629
29.96168 167.41900 166.28036
29.96564 184.51764 166.36636
29.96964 180.11298 166.45772
29.97365 177.84160 166.55468
29.97763 167.22122 166.65676
29.98164 176.56877 166.76466
29.98562 194.04509 166.87645
29.98963 181.78053 166.99188
29.99361 184.88810 167.10725
29.99760 176.04020 167.22109
30.00161 181.86834 167.33102
30.00558 178.62170 167.43295
30.00958 193.14341 167.52632
30.01357 172.42045 167.60846
30.01758 192.70726 167.67937
30.02156 172.22107 167.73843
30.02555 197.13024 167.78741
30.02958 184.74782 167.82821
30.03355 176.07180 167.86181
30.03756 181.46947 167.89113
30.04154 186.21604 167.91776
30.04554 184.48383 167.94395
30.04952 182.62874 167.97135
30.05351 192.17563 168.00205
30.05752 192.48386 168.03835
30.06150 176.99066 168.08166
30.06549 191.76229 168.13494
30.06950 183.99934 168.20073
30.07350 187.66127 168.28171
30.07749 190.64977 168.38060
30.08148 183.17241 168.50111
30.08549 183.87253 168.64815
30.08947 191.64321 168.82347
30.09347 192.69662 169.03454
30.09746 201.54525 169.28489
30.10144 194.37397 169.58193
30.10543 188.52097 169.93228
30.10942 185.62048 170.34483
30.11344 195.69504 170.83272
30.11741 197.44371 171.39838
30.12142 204.21215 172.06586
30.12543 208.24774 172.84711
30.12940 194.64022 173.75420
30.13340 188.18339 174.81913
30.13739 202.98969 176.06147
30.14140 196.81174 177.51754
30.14538 208.99310 179.20059
30.14937 195.76793 181.14522
30.15338 184.92773 183.38797
30.15734 195.56071 185.88174
30.16135 211.55092 188.63742
30.16534 187.65160 191.52531
30.16935 196.13900 194.38192
30.17333 205.29217 196.90703
30.17732 199.54749 198.82483
30.18134 205.94234 199.87248
30.18532 189.48878 199.90584
30.18933 201.90597 199.00793
30.19331 200.94849 197.40932
30.19730 197.08352 195.39223
30.20129 197.27779 193.21562
30.20527 191.68677 191.07163
30.20930 202.96450 189.03384
30.21326 192.23721 187.19783
30.21725 191.62337 185.52810
30.22127 183.56822 184.01181
30.22525 200.71685 182.65024
30.22925 185.98487 181.40364
30.23324 177.13072 180.26278
30.23725 181.57750 179.20521
30.24124 202.90295 178.23712
30.24524 193.79909 177.33927
30.24923 178.64527 176.51412
30.25320 179.76537 175.76078
30.25719 179.84470 175.06809
30.26118 189.10495 174.43965
30.26519 189.60219 173.86944
30.26918 185.22091 173.36252
30.27316 203.19351 172.91140
30.27719 179.25503 172.51047
30.28116 177.40023 172.16655
30.28517 187.80999 171.86808
30.28916 191.02766 171.61797
30.29316 184.42024 171.41138
30.29714 195.00358 171.24755
30.30112 192.70202 171.12334
30.30514 199.33298 171.03606
30.30911 197.51726 170.98612
30.31310 193.47997 170.97050
30.31711 191.94006 170.98850
30.32111 189.39999 171.03901
30.32510 190.03004 171.12083
30.32908 181.63532 171.23254
30.33311 181.87831 171.37587
30.33708 198.26327 171.54593
30.34109 190.23738 171.74578
30.34507 203.00037 171.97177
30.34906 179.78766 172.22464
30.35304 192.10145 172.50263
30.35703 192.06704 172.80478
30.36105 184.75700 173.13116
30.36503 184.96218 173.47499
30.36902 190.33966 173.83456
30.37304 184.26781 174.21541
30.37702 187.99934 174.60654
30.38102 194.89879 175.01165
30.38500 194.55499 175.42448
30.38902 201.00281 175.85350
30.39300 197.11167 176.29119
30.39698 195.53327 176.74470
30.40099 202.23048 177.22252
30.40496 193.80710 177.72236
30.40896 195.88239 178.25981
30.41295 198.36077 178.83651
30.41697 189.32433 179.46416
30.42094 205.95564 180.13813
30.42493 201.17887 180.87259
30.42895 197.03022 181.67696
30.43292 194.55767 182.53297
30.43694 199.65292 183.46188
30.44093 201.12347 184.44236
30.44492 192.74189 185.47565
30.44891 213.67110 186.54088
30.45288 201.52798 187.62380
30.45691 196.85397 188.71559
30.46087 217.05298 189.76238
30.46487 208.99631 190.75979
30.46887 217.40387 191.67815
30.47287 210.18135 192.49590
30.47686 201.48083 193.20586
30.48084 207.73499 193.81626
30.48486 223.67297 194.35600
30.48884 207.59208 194.85342
30.49285 213.97614 195.36656
30.49685 210.77844 195.95190
30.50082 215.94822 196.66735
30.50481 214.06450 197.58062
30.50880 207.27728 198.73489
30.51282 213.93261 200.15869
30.51679 206.34790 201.77792
30.52078 211.62157 203.48092
30.52480 195.88509 205.01822
30.52877 204.87684 206.05418
30.53279 209.96392 206.35529
30.53677 221.24076 205.86484
30.54077 212.85201 204.75927
30.54475 207.24590 203.36175
30.54875 204.55234 201.95448
30.55276 215.90064 200.72589
30.55673 219.56462 199.78636
30.56072 195.84733 199.13667
30.56472 209.43965 198.76884
30.56873 209.09128 198.65345
30.57271 207.21737 198.75696
30.57670 197.18000 199.04853
30.58072 214.07334 199.50753
30.58469 192.30663 200.09808
30.58870 209.47425 200.81696
30.59270 204.03896 201.63967
30.59668 207.63493 202.54819
30.60067 202.19986 203.53651
30.60465 206.22017 204.59110
30.60867 201.68437 205.71100
30.61264 219.99560 206.86283
30.61663 220.41052 208.05614
30.62065 221.46090 209.27924
30.62464 213.90315 210.50764
30.62863 208.82960 211.73765
30.63262 212.13330 212.95335
30.63663 213.78836 214.15556
30.64061 204.78943 215.31126
30.64461 203.45701 216.42369
30.64860 199.13813 217.47513
30.65258 217.51335 218.45244
30.65657 202.26976 219.35073
30.66057 215.33550 220.15903
30.66459 211.37227 220.87304
30.66856 207.77792 221.47382
30.67255 216.35006 221.96793
30.67657 206.24286 222.35438
30.68055 205.86495 222.62452
30.68456 210.84196 222.78781
30.68854 200.79449 222.84472
30.69255 204.06422 222.80310
30.69653 208.41529 222.67107
30.70051 215.52602 222.45794
30.70453 206.30971 222.17057
30.70849 212.72847 221.82769
30.71249 206.20031 221.43270
30.71649 204.86302 220.99896
30.72049 211.80546 220.53778
30.72448 210.09212 220.05911
30.72847 208.62389 219.56966
30.73249 208.79801 219.07182
30.73646 210.70593 218.58021
30.74048 209.95296 218.08636
30.74447 202.73226 217.60106
30.74845 218.86170 217.12283
30.75244 219.56725 216.64832
30.75642 212.51703 216.18107
30.76044 232.55046 215.71508
30.76441 217.78584 215.26417
30.76840 221.19207 214.82329
30.77242 212.75542 214.39859
30.77639 218.29785 214.00454
30.78040 218.29184 213.64189
30.78438 232.99369 213.32655
30.78840 216.74498 213.06292
30.79238 219.56686 212.86416
30.79637 224.80993 212.73560
30.80038 210.34393 212.68369
30.80434 229.20304 212.71320
30.80833 214.11888 212.82758
30.81233 223.38262 213.02916
30.81634 217.10499 213.32042
30.82033 232.23785 213.69769
30.82432 225.46984 214.16213
30.82834 233.44507 214.71600
30.83230 216.43915 215.34571
30.83632 223.59770 216.06537
30.84031 235.17765 216.85889
30.84430 234.05835 217.72532
30.84829 229.79975 218.66326
30.85226 227.66016 219.66361
30.85629 218.23876 220.74137
30.86025 242.18761 221.86272
30.86425 226.51676 223.04695
30.86825 245.79194 224.28167
30.87225 220.43476 225.56585
30.87625 245.04148 226.89310
30.88023 231.34226 228.25812
30.88425 244.42764 229.67693
30.88822 240.73871 231.11926
30.89223 241.86123 232.61884
30.89623 243.42042 234.16259
30.90020 235.64032 235.75196
30.90419 252.10015 237.40549
30.90818 235.49784 239.12938
30.91220 230.11137 240.95408
30.91617 251.29623 242.85122
30.92018 248.75253 244.87240
30.92418 242.00129 247.02187
30.92816 249.39863 249.30444
30.93217 252.15026 251.75734
30.93615 248.92551 254.36521
30.94015 253.95429 257.15851
30.94413 236.64930 260.10706
30.94813 246.47153 263.22430
30.95214 260.69157 266.48638
30.95610 253.41007 269.78871
30.96010 255.07820 273.15048
30.96409 261.26039 276.43950
30.96811 244.17582 279.58189
30.97209 245.05831 282.40758
30.97608 259.73384 284.82217
30.98010 258.78796 286.71497
30.98407 256.25472 287.93702
30.98809 253.78689 288.45504
30.99207 260.18942 288.21683
30.99606 271.08591 287.24974
31.00005 249.98969 285.61572
31.00403 267.23854 283.42507
31.00806 270.06908 280.76723
31.01203 264.51002 277.85017
31.01601 247.75697 274.76215
31.02003 256.73856 271.61766
31.02401 245.40282 268.57273
31.02801 261.56002 265.67419
31.03199 250.07554 263.02434
31.03601 251.39749 260.62945
31.03999 248.46563 258.57305
31.04399 255.77850 256.83856
31.04799 260.61779 255.45327
31.05196 261.15271 254.43033
31.05596 263.77974 253.75022
31.05995 248.91430 253.42065
31.06396 243.21986 253.43529
31.06795 251.48039 253.78565
31.07194 253.33004 254.46161
31.07596 244.05514 255.45795
31.07992 241.01410 256.73421
31.08394 240.83281 258.30090
31.08792 258.98569 260.09548
31.09192 248.09438 262.09259
31.09591 231.33959 264.22891
31.09988 248.85958 266.43212
31.10391 244.84642 268.65495
31.10788 252.88366 270.73737
31.11187 260.69873 272.62311
31.11587 249.26843 274.19027
31.11987 260.16617 275.33037
31.12386 258.24176 275.95494
31.12785 250.22999 276.01216
31.13187 249.83177 275.47315
31.13584 249.38889 274.36256
31.13986 238.29133 272.71215
31.14385 246.37681 270.62455
31.14783 247.53590 268.19415
31.15182 235.38453 265.53000
31.15580 232.46361 262.73059
31.15982 249.98627 259.85475
31.16379 247.30947 257.03668
31.16778 239.67816 254.25434
31.17179 240.35372 251.52049
31.17577 236.28553 248.84750
31.17977 230.63934 246.16507
31.18376 232.89889 243.45110
31.18777 224.72404 240.62646
31.19175 217.41219 237.71300
31.19575 228.63732 234.65170
31.19976 235.43623 231.48776
31.20372 218.88607 228.30352
31.20772 220.80167 225.07227
31.21171 207.14178 221.90749
31.21573 228.82554 218.81632
31.21971 224.74872 215.89554
31.22369 221.74653 213.13533
31.22772 227.09819 210.53129
31.23168 210.68241 208.15598
31.23570 217.14192 205.93283
31.23969 208.34534 203.91098
31.24368 218.28463 202.05819
31.24767 207.91767 200.37284
31.25165 201.08942 198.83866
31.25567 206.38645 197.43108
31.25964 200.19756 196.17183
31.26363 217.44204 195.02530
31.26764 215.10982 193.98839
31.27163 197.98612 193.05973
31.27563 223.25581 192.22511
31.27961 200.33499 191.48503
31.28363 204.24130 190.82320
31.28760 209.54081 190.24731
31.29162 216.65523 189.73798
31.29561 212.53705 189.29927
31.29958 213.97709 188.92411
31.30358 199.75031 188.60205
31.30756 201.44715 188.33150
31.31158 208.54485 188.10385
31.31556 201.81446 187.91726
31.31955 217.15980 187.76342
31.32357 204.06764 187.63758
31.32754 206.33832 187.53750
31.33155 200.60081 187.45866
31.33554 209.58782 187.40050
31.33955 202.13992 187.36245
31.34352 201.07286 187.34553
31.34751 210.75163 187.35123
31.35152 195.27715 187.38233
31.35549 196.14404 187.44054
31.35948 218.16785 187.52996
31.36348 209.25928 187.65338
31.36748 214.44838 187.81487
31.37147 206.58333 188.01688
31.37546 211.32904 188.26406
31.37948 204.20767 188.56483
31.38344 212.06431 188.91769
31.38745 217.35137 189.33822
31.39145 212.58450 189.82972
31.39545 219.06093 190.40162
31.39942 211.46437 191.05983
31.40341 214.22502 191.78191
31.40743 209.74687 192.65322
31.41140 205.63183 193.62362
31.41540 214.59428 194.70721
31.41940 207.07999 195.89227
31.42340 212.69015 197.15335
31.42739 199.89029 198.45229
31.43138 196.67183 199.73339
31.43540 215.75352 200.93120
31.43936 202.32887 201.93726
31.44338 202.38732 202.68236
31.44737 213.69278 203.06962
31.45134 203.82864 203.04917
31.45534 195.78235 202.59967
31.45933 196.54241 201.75070
31.46335 189.21548 200.55283
31.46732 193.68548 199.11842
31.47131 191.36868 197.52461
31.47534 190.78163 195.85057
31.47930 192.31929 194.21203
31.48332 189.06100 192.61661
31.48731 193.25473 191.13590
31.49131 194.53887 189.77889
31.49529 190.87319 188.56362
31.49927 185.50598 187.48831
31.50330 182.72553 186.53986
31.50726 173.91543 185.73626
31.51125 180.11298 185.04827
31.51525 182.02503 184.47217
31.51925 184.42224 184.00198
31.52324 194.26629 183.62682
31.52722 196.95682 183.34015
31.53124 184.25598 183.12890
31.53521 188.60942 182.99081
31.53923 189.46330 182.91451
31.54323 187.46917 182.89437
31.54721 182.35431 182.92259
31.55120 193.46348 182.99200
31.55518 193.83574 183.09534
31.55919 173.20763 183.22657
31.56316 186.87699 183.37629
31.56716 194.27694 183.53927
31.57117 179.75065 183.70855
31.57515 181.32237 183.87505
31.57916 177.34665 184.03427
31.58315 175.58089 184.17796
31.58716 175.72774 184.30286
31.59114 187.23707 184.40230
31.59512 179.49175 184.47346
31.59913 178.55676 184.51349
31.60311 187.85620 184.52045
31.60710 179.58557 184.50464
31.61109 180.87891 184.44492
31.61511 182.95994 184.35291
31.61908 180.12244 184.23254
31.62308 181.09567 184.08461
31.62710 181.72601 183.91199
31.63107 179.05623 183.72132
31.63508 172.95520 183.51187
31.63907 182.50034 183.28992
31.64306 183.39678 183.05720
31.64705 172.77293 182.81699
31.65103 178.84197 182.57141
31.65505 172.50733 182.31911
31.65901 179.49947 182.06772
31.66302 176.64544 181.81168
31.66701 177.86296 181.55464
31.67102 178.06982 181.29576
31.67501 176.42386 181.03675
31.67900 160.50432 180.77480
31.68302 170.67192 180.50798
31.68698 173.95591 180.24166
31.69100 169.33883 179.96758
31.69499 172.89835 179.68956
31.69897 179.03906 179.40737
31.70296 170.92846 179.11781
31.70694 178.08444 178.82216
31.71096 183.07488 178.51630
31.71494 178.76361 178.20621
31.71893 180.06818 177.88744
31.72295 165.72587 177.55959
31.72692 170.62520 177.22871
31.73093 170.74674 176.88789
31.73492 162.28647 176.54389
31.73893 174.15592 176.19266
31.74290 169.81649 175.84047
31.74689 171.18746 175.48463
31.75091 160.80842 175.12393
31.75487 161.83958 174.76808
31.75887 173.41800 174.40914
31.76287 166.58686 174.05207
31.76687 168.71397 173.69751
31.77086 163.44863 173.34738
31.77485 161.03633 173.00354
31.77887 169.74675 172.66263
31.78284 166.97253 172.33253
31.78685 179.03661 172.00722
31.79085 161.83072 171.69143
31.79483 169.25772 171.38652
31.79881 175.18168 171.09134
31.80280 161.45684 170.80643
31.80682 177.83618 170.52999
31.81079 179.46014 170.26867
31.81478 167.32828 170.01796
31.81879 163.39717 169.77778
31.82278 164.85140 169.55131
31.82678 173.69877 169.33678
31.83078 165.82694 169.13370
31.83478 168.59391 168.94491
31.83876 171.07965 168.76996
31.84276 167.68827 168.60713
31.84676 177.35446 168.45772
31.85073 166.04600 168.32233
31.85472 171.10308 168.19975
31.85871 162.29091 168.09047
31.86273 181.62896 167.99407
31.86670 173.18482 167.91227
31.87070 174.56776 167.84340
31.87471 166.09224 167.78829
31.87868 168.52011 167.74751
31.88269 173.46073 167.72041
31.88669 169.85184 167.70750
31.89069 167.96233 167.70879
31.89467 173.26306 167.72429
31.89866 168.93934 167.75400
31.90267 168.85677 167.79827
31.90663 169.64921 167.85583
31.91063 172.18181 167.92768
31.91463 172.30668 168.01317
31.91863 168.25293 168.11172
31.92262 176.80767 168.22202
31.92661 168.95552 168.34382
31.93062 162.46322 168.47682
31.93459 162.75191 168.61733
31.93861 168.77822 168.76718
31.94261 162.61764 168.92293
31.94658 163.75453 169.08259
31.95058 163.76125 169.24674
31.95456 177.32049 169.41275
31.95858 167.01553 169.58220
31.96255 178.78195 169.75110
31.96654 165.93241 169.92276
31.97056 162.65769 170.09813
31.97453 170.94157 170.27549
31.97854 173.86068 170.46049
31.98253 165.28699 170.65296
31.98653 152.94230 170.85721
31.99052 166.11950 171.07407
31.99451 172.31812 171.30803
31.99853 168.62826 171.56065
32.00248 177.76075 171.83237
32.00648 164.93041 172.12974
32.01047 171.35588 172.44972
32.01449 164.92590 172.79490
32.01846 157.18039 173.15903
32.02245 171.58881 173.54307
32.02648 154.89376 173.94736
32.03044 167.61946 174.35440
32.03445 166.35202 174.77035
32.03846 164.43830 175.18153
32.04245 179.62287 175.57800
32.04644 167.96293 175.95177
32.05041 169.90570 176.29182
32.05443 165.68759 176.59351
32.05840 169.74735 176.84188
32.06239 169.33995 177.03466
32.06639 172.03126 177.16665
32.07039 177.87502 177.23570
32.07439 173.74417 177.24275
32.07838 163.35233 177.19196
32.08240 160.67988 177.08887
32.08637 166.39335 176.94345
32.09038 166.90821 176.76308
32.09437 177.58581 176.55942
32.09835 178.65978 176.34301
32.10233 162.07792 176.12267
32.10632 172.47606 175.90700
32.11033 162.58428 175.70335
32.11432 161.16335 175.52067
32.11832 163.14703 175.36236
32.12232 165.14012 175.23273
32.12631 173.67291 175.13749
32.13030 168.72512 175.07744
32.13429 167.00594 175.05429
32.13831 176.02843 175.06935
32.14228 164.89209 175.12256
32.14628 165.34529 175.21443
32.15028 179.51731 175.34508
32.15425 176.28564 175.51167
32.15825 168.77776 175.71110
32.16224 166.60290 175.95180
32.16626 177.03225 176.22925
32.17024 174.19813 176.53843
32.17423 173.42336 176.88168
32.17825 168.12418 177.25898
32.18221 173.55191 177.66210
32.18622 171.82675 178.09883
32.19022 176.01880 178.56253
32.19421 162.41547 179.05198
32.19820 177.66123 179.56657
32.20218 159.05832 180.10325
32.20620 167.23825 180.66785
32.21017 161.55875 181.24410
32.21416 155.82571 181.84174
32.21817 164.97999 182.45750
32.22215 174.18861 183.08100
32.22615 174.48344 183.71690
32.23013 167.14005 184.35433
32.23415 169.47068 184.99756
32.23813 159.33991 185.62771
32.24213 162.35114 186.24810
32.24614 165.68080 186.84596
32.25010 166.10433 187.40446
32.25411 171.11014 187.92527
32.25809 167.52440 188.38625
32.26209 167.04702 188.77982
32.26608 177.59552 189.08866
32.27007 173.50214 189.30359
32.27410 164.09024 189.41560
32.27806 162.49983 189.41648
32.28207 175.76172 189.30547
32.28607 167.24891 189.08427
32.29006 171.42701 188.76006
32.29405 159.51054 188.34325
32.29803 152.52872 187.84805
32.30205 180.89217 187.28148
32.30602 168.47856 186.67018
32.31001 167.73366 186.02054
32.31401 182.29508 185.34666
32.31801 174.22193 184.66011
32.32200 162.08836 183.97410
32.32599 156.90345 183.29385
32.33001 162.27801 182.61804
32.33398 164.21358 181.96555
32.33799 160.72062 181.32502
32.34198 166.88282 180.70476
32.34598 169.50171 180.10499
32.34995 164.51150 179.52995
32.35394 167.73824 178.97583
32.35796 153.43633 178.44503
32.36193 166.20937 177.94730
32.36592 168.41186 177.47876
32.36993 183.37796 177.04185
32.37392 161.88097 176.64310
32.37791 166.19349 176.28404
32.38189 157.99178 175.96793
32.38592 163.37674 175.69517
32.38989 169.10409 175.47493
32.39389 163.77334 175.30574
32.39790 165.67983 175.19317
32.40187 158.59320 175.14177
32.40586 158.07429 175.15540
32.40985 160.34735 175.23959
32.41387 168.17735 175.40116
32.41784 171.49099 175.64265
32.42183 164.95296 175.97066
32.42586 158.64518 176.39042
32.42983 162.96660 176.88469
32.43384 162.32676 177.45037
32.43783 157.68065 178.04501
32.44183 157.65053 178.61409
32.44581 168.25314 179.07719
32.44980 153.59615 179.34937
32.45382 158.78780 179.35855
32.45778 160.58912 179.08269
32.46177 160.12452 178.54171
32.46577 149.17753 177.80237
32.46977 164.18990 176.94301
32.47376 160.76451 176.03164
32.47775 162.37451 175.11432
32.48177 164.87866 174.20751
32.48575 157.70648 173.34167
32.48976 161.37353 172.50209
32.49376 153.27720 171.69834
32.49773 159.40387 170.92953
32.50173 165.67079 170.18646
32.50571 163.12938 169.47229
32.50972 154.80349 168.78014
32.51370 168.81134 168.11840
32.51769 152.58261 167.48129
32.52171 169.78790 166.86546
32.52568 154.51768 166.28249
32.52969 161.73963 165.72032
32.53368 154.73803 165.18550
32.53769 140.64398 164.67271
32.54167 165.46380 164.18833
32.54565 157.07449 163.72698
32.54966 158.98885 163.28483
32.55363 149.77348 162.86950
32.55763 160.80512 162.47182
32.56163 158.28830 162.09384
32.56563 166.77581 161.73513
32.56961 163.03147 161.39599
32.57362 169.88522 161.07139
32.57762 147.47750 160.76328
32.58160 150.84454 160.47228
32.58561 161.11119 160.19348
32.58961 159.77518 159.92900
32.59360 153.87763 159.67781
32.59759 149.29608 159.43861
32.60156 156.22741 159.21185
32.60558 135.44535 158.99271
32.60954 155.60678 158.78736
32.61353 145.95833 158.59005
32.61754 163.79122 158.40101
32.62154 159.60970 158.22139
32.62552 153.98247 158.05035
32.62951 153.24251 157.88721
32.63353 164.30958 157.73012
32.63751 150.84043 157.58199
32.64152 158.80244 157.43966
32.64552 161.05845 157.30452
32.64949 157.71176 157.17635
32.65348 160.35343 157.05380
32.65747 146.26625 156.93732
32.66149 152.71964 156.82562
32.66546 155.02183 156.72096
32.66945 162.06121 156.62099
32.67347 152.72380 156.52568
32.67744 165.78050 156.43668
32.68145 149.43077 156.35197
32.68544 161.51695 156.27251
32.68944 149.26961 156.19761
32.69343 138.22612 156.12778
32.69741 157.95574 156.06283
32.70143 152.10038 156.00200
32.70539 155.54737 155.94651
32.70939 156.44134 155.89509
32.71339 155.78253 155.84823
32.71739 151.75177 155.80584
32.72137 148.99854 155.76824
32.72536 148.56629 155.73505
32.72939 154.19217 155.70611
32.73336 158.99673 155.68218
32.73737 162.24615 155.66258
32.74137 165.99185 155.64770
32.74535 145.47636 155.63754
32.74934 156.39229 155.63207
32.75332 155.93904 155.63138
32.75734 149.57346 155.63563
32.76131 157.86963 155.64472
32.76530 158.68598 155.65886
32.76931 146.30889 155.67825
32.77330 156.38163 155.70276
32.77729 151.68769 155.73265
32.78128 152.82944 155.76817
32.78530 160.68898 155.80949
32.78929 162.95145 155.85619
32.79328 155.68487 155.90903
32.79728 154.52304 155.96796
32.80125 162.29260 156.03102
32.80524 156.40785 156.10241
32.80924 155.22974 156.18044
32.81325 151.16977 156.26571
32.81723 155.63821 156.35703
32.82123 153.98247 156.45619
32.82524 145.50412 156.56277
32.82922 155.85194 156.67626
32.83322 152.60519 156.79783
32.83720 158.93390 156.92645
32.84121 154.34925 157.06357
32.84520 157.62795 157.20822
32.84918 161.12724 157.36040
32.85320 143.88881 157.52248
32.85716 152.55530 157.68985
32.86115 164.47906 157.86651
32.86516 157.97143 158.05122
32.86916 154.36324 158.24346
32.87314 156.65768 158.44204
32.87713 158.20009 158.64728
32.88116 154.66935 158.86076
32.88513 156.38017 159.07653
32.88913 152.78781 159.29845
32.89313 154.76839 159.52377
32.89711 150.83236 159.75033
32.90111 156.10394 159.97819
32.90509 154.32191 160.20501
32.90911 143.58667 160.43198
32.91307 160.94210 160.65143
32.91707 167.78569 160.86648
32.92109 150.21939 161.07524
32.92506 167.23601 161.27150
32.92906 157.30704 161.45686
32.93305 156.05503 161.62787
32.93707 165.48946 161.78391
32.94105 163.66113 161.92144
32.94505 169.63519 162.04037
32.94905 165.52776 162.13954
32.95302 168.87981 162.21715
32.95701 154.28408 162.27428
32.96101 156.02740 162.31021
32.96501 156.24319 162.32541
32.96899 158.62078 162.31775
32.97297 160.17652 162.29428
32.97700 157.34775 162.25305
32.98097 164.44995 162.19692
32.98499 162.93634 162.12810
32.98899 166.99552 162.04630
32.99298 150.54671 161.95548
32.99698 161.18273 161.85567
33.00094 159.03273 161.75363
33.00496 164.02325 161.64763
33.00893 166.81866 161.54218
33.01292 169.84676 161.43772
33.01692 171.72900 161.33635
33.02092 161.77011 161.23988
33.02491 169.69367 161.15005
33.02889 166.86635 161.06818
33.03292 156.56174 160.99457
33.03690 163.26308 160.93199
33.04090 160.38300 160.88037
33.04490 166.06135 160.84084
33.04887 156.34825 160.81432
33.05286 174.98232 160.80122
33.05685 172.74807 160.80231
33.06087 172.20219 160.81837
33.06484 161.96139 160.84948
33.06883 160.34640 160.89664
33.07285 169.44584 160.96069
33.07683 159.51471 161.04093
33.08083 168.04528 161.13883
33.08481 164.65656 161.25437
33.08882 177.92781 161.38904
33.09280 173.93671 161.54188
33.09680 162.85652 161.71273
33.10081 160.30275 161.90618
33.10478 164.46338 162.11786
33.10877 171.82757 162.35204
33.11277 160.94958 162.60851
33.11678 164.20755 162.88770
33.12076 168.77178 163.18830
33.12474 164.17850 163.51232
33.12877 172.69634 163.86428
33.13275 164.81154 164.23667
33.13675 152.69420 164.63772
33.14075 162.32389 165.06297
33.14473 173.14699 165.51326
33.14873 174.35786 165.99059
33.15271 171.12299 166.49204
33.15673 175.85288 167.02566
33.16070 175.54927 167.57678
33.16468 172.09682 168.15555
33.16870 165.17056 168.76304
33.17269 172.13895 169.39037
33.17668 170.78908 170.04152
33.18066 168.16229 170.71564
33.18468 174.01944 171.41749
33.18866 155.81731 172.13565
33.19267 164.08917 172.88085
33.19667 156.64731 173.64626
33.20064 176.52654 174.42595
33.20463 160.32849 175.22476
33.20862 156.67714 176.03228
33.21264 174.09281 176.83937
33.21661 161.53480 177.61292
33.22059 159.39114 178.34624
33.22462 169.91844 179.00876
33.22859 158.04563 179.55094
33.23260 169.56670 179.94787
33.23658 166.91830 180.15892
33.24059 157.18718 180.15779
33.24458 169.28224 179.92832
33.24855 169.12215 179.47316
33.25258 159.84994 178.79165
33.25654 165.74676 177.93676
33.26053 151.68043 176.92087
33.26454 164.10256 175.79095
33.26853 154.21215 174.59300
33.27252 157.24014 173.36601
33.27651 163.85372 172.13634
33.28054 159.24727 170.92003
33.28451 156.37871 169.76160
33.28851 154.84573 168.64735
33.29250 158.34262 167.59862
33.29649 164.78687 166.61538
33.30047 155.04002 165.69869
33.30446 158.59031 164.84445
33.30849 151.60619 164.04542
33.31246 164.06686 163.31549
33.31645 153.04556 162.63620
33.32047 160.71550 162.00459
33.32445 150.48794 161.42570
33.32845 150.08157 160.88860
33.33243 158.96488 160.39242
33.33645 168.10515 159.92958
33.34043 157.85826 159.50448
33.34442 158.78842 159.10970
33.34843 163.13435 158.74095
33.35240 145.60667 158.40268
33.35639 162.03358 158.08538
33.36038 155.94584 157.79080
33.36439 156.30860 157.51556
33.36837 152.63773 157.26086
33.37236 155.17733 157.02279
33.37639 156.33833 156.79869
33.38035 160.24570 156.59291
33.38435 158.73879 156.39937
33.38835 164.41037 156.21568
33.39235 158.04777 156.04669
33.39634 152.97281 155.88977
33.40032 167.23981 155.74309
33.40434 155.41578 155.60529
33.40831 169.36393 155.47868
33.41231 148.33141 155.35989
33.41631 154.61353 155.24909
33.42030 148.93328 155.14638
33.42429 150.67265 155.05100
33.42828 156.39849 154.96258
33.43230 144.18529 154.88004
33.43628 150.16027 154.80496
33.44029 164.29425 154.73522
33.44429 165.80198 154.67148
33.44826 163.97543 154.61381
33.45224 156.01488 154.56132
33.45624 159.07640 154.51386
33.46025 155.83569 154.47135
33.46423 162.73764 154.43427
33.46821 155.34824 154.40198
33.47223 160.16081 154.37432
33.47621 154.53792 154.35181
33.48021 174.30993 154.33396
33.48421 154.95579 154.32096
33.48821 155.43901 154.31287
33.49221 158.31895 154.30977
33.49620 160.80839 154.31175
33.50020 149.00415 154.31896
33.50416 147.35527 154.33143
33.50815 158.41799 154.34956
33.51216 153.72698 154.37363
33.51615 153.90677 154.40386
33.52013 160.20433 154.44046
33.52412 157.84617 154.48409
33.52815 151.67525 154.53570
33.53212 159.84342 154.59447
33.53613 148.57453 154.66263
33.54013 152.77419 154.74007
33.54411 160.00000 154.82736
33.54810 149.26468 154.92587
33.55208 165.95392 155.03667
33.55610 159.93698 155.16252
33.56007 164.48923 155.30155
33.56406 147.87069 155.45828
33.56807 157.40766 155.63419
33.57206 154.20954 155.83017
33.57606 153.81482 156.04941
33.58005 156.40911 156.29381
33.58406 153.48294 156.56709
33.58804 163.58008 156.86831
33.59205 152.48439 157.20295
33.59605 165.08281 157.57041
33.60002 158.35132 157.96719
33.60401 149.89410 158.39468
33.60800 160.51696 158.84627
33.61201 146.04132 159.31224
33.61599 157.92975 159.77143
33.61998 164.12928 160.20738
33.62400 160.26276 160.59453
33.62797 156.87553 160.90143
33.63198 155.58242 161.11168
33.63596 169.30642 161.20583
33.63997 160.25841 161.18130
33.64396 155.76375 161.04751
33.64795 155.76798 160.82371
33.65196 171.07191 160.53292
33.65592 162.31853 160.20701
33.65992 159.01377 159.86143
33.66392 173.96026 159.51555
33.66792 166.99013 159.18551
33.67191 164.45573 158.87836
33.67590 161.96925 158.59824
33.67992 162.04181 158.34411
33.68388 164.82756 158.12178
33.68790 156.15371 157.92353
33.69190 147.23327 157.75146
33.69587 172.25088 157.60391
33.69987 154.14467 157.47703
33.70385 157.33720 157.37015
33.70787 162.64046 157.28056
33.71184 163.89661 157.20857
33.71583 158.94040 157.15138
33.71985 161.14014 157.10799
33.72382 160.85747 157.07797
33.72783 173.86822 157.05987
33.73182 154.13422 157.05305
33.73583 171.97530 157.05675
33.73981 165.22601 157.07020
33.74381 162.12477 157.09290
33.74782 167.22998 157.12439
33.75178 164.48760 157.16347
33.75576 168.19945 157.21040
33.75977 160.28452 157.26476
33.76378 172.82041 157.32608
33.76776 167.58700 157.39333
33.77174 166.67571 157.46677
33.77577 157.60125 157.54682
33.77974 156.45640 157.63125
33.78375 161.95652 157.72152
33.78775 159.74172 157.81661
33.79173 161.03086 157.91591
33.79572 162.11817 158.01979
33.79970 165.99311 158.12754
33.80372 166.31159 158.24040
33.80769 171.09513 158.35551
33.81168 161.48243 158.47490
33.81568 159.57014 158.59768
33.81969 159.53334 158.72383
33.82368 162.28017 158.85233
33.82767 162.33520 158.98357
33.83169 168.80933 159.11780
33.83565 163.84549 159.25258
33.83966 160.88683 159.39074
33.84367 163.17895 159.53006
33.84764 166.65989 159.66955
33.85162 158.13235 159.81040
33.85562 160.41896 159.95228
33.85962 166.15761 160.09507
33.86360 164.79644 160.23687
33.86760 164.88359 160.37903
33.87161 161.41674 160.52159
33.87559 170.76445 160.66202
33.87959 157.23697 160.80280
33.88359 173.09257 160.94228
33.88760 163.56635 161.08133
33.89157 158.74006 161.21825
33.89557 162.51475 161.35517
33.89958 152.92220 161.49153
33.90354 170.92349 161.62580
33.90754 162.62807 161.76057
33.91154 167.53927 161.89540
33.91554 165.04683 162.03046
33.91952 161.45176 162.16507
33.92351 164.82548 162.30086
33.92753 158.70779 162.43901
33.93150 161.86163 162.57674
33.93551 158.44589 162.71798
33.93952 161.17137 162.86141
33.94350 157.46025 163.00642
33.94749 163.84694 163.15482
33.95147 169.75840 163.30622
33.95549 174.13461 163.46275
33.95945 176.69856 163.62089
33.96344 172.29236 163.78395
33.96745 163.57523 163.95237
33.97144 168.50552 164.12399
33.97543 159.13710 164.30030
33.97944 164.76072 164.48148
33.98344 159.83518 164.66659
33.98742 169.97060 164.85455
33.99143 169.99824 165.04760
33.99544 180.74443 165.24312
33.99941 167.38715 165.43947
34.00339 174.84205 165.63792
34.00741 175.46190 165.83906
34.01138 171.76318 166.03789
34.01536 167.40303 166.23612
34.01935 165.42454 166.43353
34.02338 171.73291 166.63086
34.02735 163.47548 166.82355
34.03135 168.40965 167.01715
34.03536 177.59948 167.21066
34.03935 173.43703 167.40431
34.04334 175.59072 167.60049
34.04733 161.67527 167.80162
34.05134 167.28287 168.01004
34.05530 179.67787 168.22516
34.05930 176.42676 168.45295
34.06329 174.51554 168.69420
34.06730 181.32337 168.95128
34.07128 178.58933 169.22500
34.07528 177.56098 169.51930
34.07930 167.62317 169.83858
34.08326 178.30497 170.17974
34.08727 170.98375 170.55589
34.09128 167.40207 170.97146
34.09526 167.28514 171.43631
34.09924 173.32431 171.97827
34.10323 173.57622 172.63495
34.10724 166.22420 173.41790
34.11122 182.60340 174.13463
34.11521 175.53127 174.52962
34.11922 179.93624 174.72063
34.12321 167.75119 174.95973
34.12720 167.28740 175.31740
34.13120 167.24890 175.76391
34.13521 179.76311 176.26667
34.13918 178.27117 176.79531
34.14319 174.74018 177.34447
34.14720 184.17703 177.89542
34.15117 179.43925 178.43304
34.15515 171.14153 178.95180
34.15915 183.49220 179.43884
34.16315 174.70467 179.88025
34.16713 180.47393 180.26308
34.17112 173.57622 180.57903
34.17515 175.27658 180.82171
34.17912 173.26565 180.98268
34.18312 176.03143 181.06526
34.18713 183.41522 181.07054
34.19112 168.83627 181.00291
34.19510 173.22579 180.87223
34.19908 178.19638 180.68378
34.20311 173.11937 180.43954
34.20707 180.86561 180.14983
34.21106 177.56124 179.81094
34.21507 175.61953 179.42545
34.21906 182.51198 178.99790
34.22306 177.67185 178.53127
34.22705 178.64877 178.03236
34.23107 174.40050 177.50588
34.23505 172.60189 176.97047
34.23904 186.46454 176.43108
34.24305 176.93557 175.89721
34.24703 171.50514 175.38612
34.25101 175.01726 174.90111
34.25500 175.73845 174.44686
34.25900 185.10500 174.02933
34.26298 167.17646 173.65329
34.26697 175.26234 173.31774
34.27098 171.38369 173.02280
34.27497 183.79358 172.77111
34.27896 173.18360 172.55950
34.28296 181.53297 172.38694
34.28697 165.47318 172.25147
34.29095 189.09406 172.15242
34.29493 171.56086 172.08631
34.29895 179.68771 172.05027
34.30292 180.70415 172.04232
34.30691 183.21603 172.05828
34.31091 165.45974 172.09507
34.31491 174.75807 172.14872
34.31890 175.88123 172.21512
34.32289 173.81893 172.29026
34.32692 183.60194 172.37034
34.33089 167.06618 172.44998
34.33489 179.43966 172.52615
34.33889 175.85988 172.59700
34.34288 176.20239 172.65942
34.34687 173.68471 172.71227
34.35085 170.39703 172.75528
34.35487 169.77506 172.78930
34.35884 195.06387 172.81534
34.36283 173.24220 172.83586
34.36683 176.91641 172.85342
34.37082 166.03978 172.87088
34.37481 179.28685 172.89130
34.37880 174.00479 172.91784
34.38282 166.40969 172.95377
34.38680 188.18949 173.00147
34.39080 177.63354 173.06443
34.39481 171.30250 173.14544
34.39879 187.85083 173.24655
34.40276 176.03356 173.37120
34.40675 182.67163 173.52314
34.41077 180.42429 173.70687
34.41475 180.75060 173.92357
34.41874 165.79414 174.18103
34.42276 179.80445 174.48642
34.42674 172.10586 174.84147
34.43073 172.23612 175.26032
34.43473 174.80664 175.75156
34.43873 177.28232 176.32700
34.44272 179.12627 176.99450
34.44670 167.48036 177.75618
34.45073 173.32738 178.60783
34.45469 158.13526 179.47690
34.45868 170.02177 180.29218
34.46268 166.99339 180.95113
34.46668 178.96075 181.41850
34.47067 177.60472 181.77664
34.47466 167.68540 182.19665
34.47868 185.39250 182.88289
34.48266 182.40091 184.00575
34.48666 174.15290 185.70175
34.49066 172.40587 187.89848
34.49464 181.42012 190.02636
34.49864 170.72148 190.98778
34.50261 173.88718 189.93065
34.50663 189.92253 187.21723
34.51061 175.45330 184.01838
34.51460 177.92190 181.13092
34.51860 182.14020 178.82340
34.52260 172.87356 177.07830
34.52659 175.30807 175.77311
34.53059 183.11534 174.79557
34.53459 183.13761 174.06642
34.53858 176.85292 173.53126
34.54258 178.33018 173.14299
34.54657 187.13198 172.87819
34.55056 174.83028 172.71635
34.55454 179.79716 172.64288
34.55853 185.67453 172.64835
34.56253 184.00497 172.72651
34.56651 185.72722 172.87163
34.57051 173.57236 173.08255
34.57453 189.35039 173.35780
34.57850 187.91221 173.69231
34.58250 184.54965 174.09027
34.58651 181.54312 174.55206
34.59050 182.36392 175.07581
34.59449 184.50474 175.66500
34.59846 186.92497 176.31924
34.60249 179.84580 177.05292
34.60645 187.31918 177.84816
34.61044 190.65890 178.72544
34.61444 184.25356 179.68633
34.61844 178.82531 180.73126
34.62243 188.26581 181.86299
34.62642 193.15678 183.08787
34.63044 192.07346 184.42057
34.63442 188.91170 185.84048
34.63841 192.91700 187.37084
34.64243 193.73758 189.01698
34.64640 193.17721 190.75389
34.65040 187.21541 192.60564
34.65437 189.36702 194.55123
34.65839 189.59088 196.60848
34.66236 175.04998 198.71728
34.66635 183.09802 200.89728
34.67037 172.86785 203.12091
34.67436 193.86735 205.31623
34.67835 198.85174 207.46827
34.68235 194.60511 209.51993
34.68635 196.70359 211.41701
34.69034 212.26409 213.10255
34.69433 213.29588 214.53123
34.69834 217.03709 215.66618
34.70231 202.90912 216.47061
34.70629 202.41953 216.94274
34.71029 202.96394 217.08928
34.71429 194.90587 216.93270
34.71828 202.44413 216.51408
34.72228 212.84642 215.88215
34.72630 198.12099 215.08663
34.73028 209.14185 214.19669
34.73428 203.60849 213.25129
34.73828 198.59267 212.29402
34.74227 208.28044 211.35646
34.74626 199.46245 210.44528
34.75023 212.41137 209.56211
34.75425 206.33870 208.67931
34.75822 209.83819 207.79802
34.76221 219.52735 206.90098
34.76621 218.42340 206.00540
34.77021 207.19735 205.15061
34.77420 209.81552 204.37492
34.77819 206.11151 203.69859
34.78220 215.06248 203.12389
34.78619 212.22108 202.63993
34.79019 223.69612 202.22725
34.79419 216.32719 201.89805
34.79817 219.90900 201.69921
34.80216 224.00432 201.70767
34.80614 236.08824 202.01778
34.81016 227.46358 202.73392
34.81413 222.46821 203.92794
34.81812 214.31851 205.70423
34.82214 235.61807 208.15171
34.82612 235.39575 211.31537
34.83012 220.07451 215.31902
34.83411 231.24570 220.22077
34.83811 249.40954 226.05350
34.84211 220.86386 232.76072
34.84609 239.05738 240.14353
34.85010 233.54668 247.98504
34.85406 242.35224 255.68910
34.85806 235.89453 262.90796
34.86206 248.05365 268.92563
34.86606 237.71034 272.95101
34.87005 249.42637 274.29185
34.87404 239.54424 272.62646
34.87806 228.97259 268.06672
34.88203 248.48411 261.31759
34.88603 238.59327 253.11278
34.89004 235.40210 244.31709
34.89402 227.15556 235.65347
34.89802 237.58741 227.46794
34.90199 215.62643 220.07886
34.90601 231.80578 213.43104
34.90998 225.31560 207.69621
34.91397 222.82198 202.68623
34.91799 217.17015 198.34022
34.92197 210.83044 194.63402
34.92596 210.50927 191.43088
34.92996 206.48506 188.66440
34.93397 197.91990 186.25193
34.93796 203.98802 184.15738
34.94195 205.87878 182.30644
34.94595 202.71200 180.64701
34.94993 194.01133 179.15592
34.95392 185.71255 177.78683
34.95791 179.36542 176.51620
34.96191 188.15914 175.32506
34.96590 190.69472 174.20891
34.96989 196.24882 173.15493
34.97391 174.58391 172.15587
34.97789 178.07757 171.22785
34.98188 173.35690 170.35831
34.98589 172.54860 169.54751
34.98988 179.44046 168.80386
34.99388 178.70825 168.12280
34.99785 173.13868 167.50858
35.00186 175.57766 166.95162
35.00584 164.84613 166.46027
35.00982 173.16672 166.02586
35.01382 168.23715 165.64621
35.01783 176.71809 165.31944
35.02182 169.25506 165.04277
35.02581 160.57843 164.80944
35.02983 171.32377 164.61542
35.03381 161.81884 164.45750
35.03780 169.85001 164.32820
35.04181 169.88667 164.22368
35.04579 172.76894 164.14234
35.04978 158.51620 164.08223
35.05376 170.66494 164.04461
35.05778 158.61455 164.03142
35.06175 158.39234 164.04537
35.06574 165.30665 164.08868
35.06976 156.21966 164.16282
35.07374 158.93254 164.26572
35.07774 171.75068 164.39500
35.08173 163.58021 164.54467
35.08574 163.68562 164.70761
35.08973 170.41931 164.87133
35.09371 157.00229 165.02400
35.09773 179.88676 165.15305
35.10169 169.56557 165.24262
35.10568 155.10523 165.28198
35.10968 165.55292 165.26074
35.11369 169.76757 165.17208
35.11766 160.66422 165.01674
35.12165 176.18200 164.79682
35.12568 162.14322 164.51741
35.12966 154.83314 164.19618
35.13366 171.29143 163.84062
35.13766 165.25315 163.46573
35.14165 153.39185 163.08522
35.14565 167.88793 162.70800
35.14962 155.04461 162.34716
35.15364 165.67122 162.00305
35.15760 165.65689 161.68902
35.16159 171.29374 161.40270
35.16560 162.55912 161.14708
35.16959 166.15260 160.92611
35.17358 165.20415 160.73847
35.17757 162.17819 160.58437
35.18159 149.55084 160.46236
35.18558 160.03235 160.37354
35.18957 159.63327 160.31622
35.19357 163.90570 160.28939
35.19756 166.47798 160.29221
35.20155 170.11414 160.32375
35.20553 168.38928 160.38291
35.20953 155.92398 160.46931
35.21351 152.31735 160.58129
35.21750 152.83054 160.71874
35.22152 170.50629 160.88156
35.22550 152.78938 161.06602
35.22949 163.34447 161.27252
35.23349 167.14068 161.49944
35.23749 157.95712 161.74459
35.24149 149.80264 162.00412
35.24547 162.48468 162.27245
35.24948 158.21736 162.54866
35.25345 168.63443 162.81999
35.25744 150.47765 163.08379
35.26144 160.83002 163.32866
35.26543 163.17293 163.54431
35.26942 159.26939 163.72042
35.27342 158.49057 163.84957
35.27744 170.28385 163.92630
35.28142 153.37390 163.94713
35.28541 156.11649 163.91478
35.28941 164.43744 163.83342
35.29341 162.54598 163.71000
35.29740 144.42573 163.55208
35.30137 168.97690 163.36750
35.30539 161.15263 163.16014
35.30936 167.22111 162.94038
35.31336 162.36759 162.70917
35.31737 166.18842 162.47031
35.32136 151.97650 162.22939
35.32534 161.18084 161.98775
35.32934 163.39508 161.74691
35.33336 165.05508 161.50703
35.33734 161.55524 161.27364
35.34133 154.71429 161.04516
35.34534 162.66293 160.82220
35.34931 162.48030 160.60870
35.35330 161.79461 160.40255
35.35729 164.56429 160.20468
35.36129 156.22054 160.01652
35.36527 152.52663 159.83880
35.36927 162.04932 159.67135
35.37329 158.95965 159.51391
35.37726 161.08756 159.37024
35.38125 167.01911 159.23811
35.38526 146.00466 159.11845
35.38926 149.30920 159.01011
35.39325 165.95051 158.91818
35.39722 152.12034 158.84125
35.40125 159.35612 158.77863
35.40521 149.40394 158.73248
35.40920 160.22613 158.70226
35.41321 160.90685 158.68881
35.41720 156.34548 158.69273
35.42119 151.90283 158.71443
35.42518 150.99216 158.75426
35.42921 157.44767 158.81236
35.43319 156.96196 158.88842
35.43718 157.45403 158.98230
35.44119 163.73797 159.09687
35.44517 160.96753 159.22790
35.44917 155.29380 159.37577
35.45314 168.83134 159.53690
35.45715 161.32463 159.71100
35.46113 156.87965 159.89171
35.46512 167.14457 160.07815
35.46913 144.28189 160.26725
35.47312 164.39315 160.45433
35.47711 161.82075 160.63934
35.48110 158.30282 160.82234
35.48511 171.48705 161.00654
35.48910 146.57770 161.19155
35.49310 164.89297 161.38136
35.49710 158.89121 161.57838
35.50107 147.04972 161.78229
35.50505 154.96785 161.99520
35.50905 164.48236 162.21787
35.51306 155.49454 162.44807
35.51704 154.60394 162.68295
35.52103 163.58818 162.92127
35.52506 161.85966 163.16225
35.52904 161.43353 163.39721
35.53303 156.06501 163.62662
35.53703 163.95471 163.84597
35.54102 155.38577 164.05095
35.54503 147.06357 164.23709
35.54899 157.51463 164.40118
35.55301 154.74845 164.54195
35.55698 165.02387 164.65262
35.56097 152.43427 164.73290
35.56497 158.27299 164.78064
35.56897 156.40295 164.79262
35.57296 154.33668 164.76887
35.57695 157.32483 164.70941
35.58097 168.27156 164.61370
35.58496 157.64712 164.48476
35.58895 160.58983 164.32344
35.59296 163.76377 164.13105
35.59693 155.93075 163.91309
35.60092 165.68270 163.66975
35.60491 154.82134 163.40565
35.60892 149.36375 163.12112
35.61290 150.80742 162.82403
35.61689 154.11728 162.51425
35.62091 164.35409 162.19275
35.62489 152.38095 161.86752
35.62890 155.64496 161.53817
35.63287 164.87301 161.21023
35.63689 147.73538 160.88100
35.64088 167.48066 160.55735
35.64486 160.92727 160.23797
35.64887 158.37323 159.92604
35.65284 153.59587 159.62628
35.65682 157.92800 159.33716
35.66083 160.23659 159.05885
35.66483 153.16563 158.79551
35.66881 149.21477 158.54859
35.67280 152.36456 158.31860
35.67682 166.55235 158.10553
35.68081 164.17208 157.91301
35.68481 152.13912 157.74026
35.68881 160.01075 157.58691
35.69280 147.48723 157.45265
35.69679 152.73128 157.33443
35.70077 158.66702 157.22946
35.70478 165.82651 157.13081
35.70875 152.29286 157.03350
35.71274 151.81163 156.92892
35.71675 170.71598 156.80889
35.72075 159.83006 156.66987
35.72474 164.98393 156.50960
35.72873 162.75195 156.32948
35.73274 171.39324 156.13336
35.73673 147.01411 155.92975
35.74072 156.81424 155.72531
35.74473 155.33981 155.52589
35.74870 154.40030 155.33848
35.75269 150.70407 155.16425
35.75667 149.83810 155.00645
35.76069 150.08534 154.86499
35.76466 153.39519 154.74220
35.76865 154.63821 154.63610
35.77267 159.53344 154.54561
35.77666 147.55465 154.47151
35.78065 148.16803 154.41180
35.78465 141.90497 154.36570
35.78865 148.10834 154.33185
35.79264 155.28969 154.30933
35.79663 149.41216 154.29689
35.80063 154.71515 154.29323
35.80460 146.27074 154.29702
35.80859 157.84098 154.30423
35.81260 150.93528 154.31883
35.81660 149.90255 154.33650
35.82059 156.47291 154.35554
35.82457 147.64866 154.37422
35.82859 145.68309 154.39081
35.83257 151.98173 154.40308
35.83657 144.32021 154.40913
35.84057 160.68959 154.40681
35.84456 136.44727 154.39413
35.84855 154.41483 154.36917
35.85253 152.35639 154.33033
35.85654 146.73183 154.27551
35.86052 149.81394 154.20492
35.86450 151.13201 154.11732
35.86852 152.35639 154.01174
35.87251 151.68728 153.89029
35.87651 151.02446 153.75263
35.88050 156.36369 153.60141
35.88450 152.93123 153.43686
35.88850 148.75522 153.26217
35.89248 149.73549 153.07937
35.89648 151.25960 152.88970
35.90046 165.24752 152.69726
35.90444 155.53795 152.50257
35.90844 147.15755 152.30711
35.91245 142.88400 152.11361
35.91643 150.44866 151.92479
35.92042 155.05832 151.74075
35.92444 154.27382 151.56248
35.92842 145.45064 151.39364
35.93243 155.09788 151.23307
35.93642 156.82273 151.08314
35.94041 142.85139 150.94418
35.94441 149.28579 150.81700
35.94839 164.14223 150.70244
35.95240 151.88582 150.59906
35.95636 155.30852 150.50765
35.96036 149.01698 150.42461
35.96436 152.06186 150.34662
35.96836 154.22411 150.26892
35.97236 155.00007 150.18541
35.97634 147.39415 150.09011
35.98036 148.81224 149.97716
35.98434 149.04498 149.84704
35.98834 157.50739 149.70059
35.99234 150.75094 149.54292
35.99631 145.18121 149.38102
36.00030 161.49035 149.21898
36.00429 154.20755 149.06204
36.00831 156.17406 148.91130
36.01228 144.46904 148.77180
36.01626 152.21329 148.63967
36.02029 161.02843 148.51756
36.02427 140.49032 148.40618
36.02827 151.23320 148.30280
36.03225 153.70373 148.20762
36.03626 145.57361 148.11899
36.04025 147.69297 148.03725
36.04425 154.15375 147.96138
36.04825 150.47560 147.89083
36.05222 154.97096 147.82569
36.05621 145.84508 147.76494
36.06021 152.91070 147.70838
36.06421 142.15351 147.65564
36.06819 149.34421 147.60709
36.07218 155.45863 147.56190
36.07621 145.50527 147.51970
36.08019 141.93687 147.48125
36.08419 156.68809 147.44564
36.08819 148.13821 147.41297
36.09217 157.80575 147.38319
36.09617 152.81019 147.35604
36.10014 150.78354 147.33166
36.10416 141.42390 147.30950
36.10813 150.51599 147.29003
36.11212 161.82862 147.27280
36.11612 158.61560 147.25780
36.12012 154.49401 147.24505
36.12411 155.75012 147.23446
36.12810 159.77880 147.22594
36.13211 147.00951 147.21942
36.13610 145.72574 147.21491
36.14010 145.48966 147.21233
36.14410 151.65368 147.21165
36.14808 147.18266 147.21283
36.15207 146.61962 147.21584
36.15606 155.83579 147.22068
36.16007 154.18272 147.22737
36.16404 162.88864 147.23579
36.16802 155.76474 147.24604
36.17204 141.79605 147.25822
36.17603 154.47122 147.27210
36.18002 145.65346 147.28782
36.18403 150.79546 147.30541
36.18802 158.42009 147.32456
36.19202 154.67332 147.34579
36.19600 156.69439 147.36885
36.20001 148.22164 147.39383
36.20398 152.13368 147.42043
36.20796 154.92316 147.44900
36.21196 160.44401 147.47959
36.21597 145.10525 147.51206
36.21995 151.76966 147.54631
36.22394 136.91722 147.58257
36.22796 141.07795 147.62105
36.23194 146.17655 147.66111
36.23594 154.71273 147.70354
36.23994 153.94938 147.74790
36.24393 156.61245 147.79415
36.24791 150.15619 147.84256
36.25190 155.56479 147.89317
36.25591 157.03732 147.94638
36.25989 158.24176 148.00140
36.26388 149.95575 148.05907
36.26789 154.57591 148.11938
36.27188 160.16510 148.18205
36.27587 152.50352 148.24746
36.27986 154.20498 148.31554
36.28388 151.46964 148.38713
36.28786 161.68764 148.46111
36.29186 155.46472 148.53864
36.29586 159.07599 148.61956
36.29984 148.58491 148.70336
36.30382 157.16545 148.79115
36.30782 150.24079 148.88293
36.31183 150.35457 148.97899
36.31581 147.04267 149.07836
36.31980 152.89151 149.18175
36.32382 154.33050 149.28943
36.32779 153.66893 149.39861
36.33180 141.96108 149.51010
36.33578 151.84987 149.62058
36.33979 169.40521 149.72708
36.34378 144.92637 149.83052
36.34776 152.95916 149.92748
36.35178 146.09227 150.01856
36.35574 151.80306 150.10203
36.35973 156.38114 150.18038
36.36373 150.47224 150.25427
36.36772 155.22948 150.32396
36.37172 148.71561 150.39022
36.37571 152.93660 150.45361
36.37973 160.55734 150.51517
36.38371 144.58284 150.57458
36.38772 150.08576 150.63386
36.39171 155.01092 150.69325
36.39569 153.55951 150.75350
36.39967 156.80596 150.81602
36.40366 153.65452 150.88160
36.40768 146.83619 150.95137
36.41165 156.87325 151.02504
36.41564 152.81778 151.10424
36.41966 165.54978 151.18996
36.42365 149.01971 151.28169
36.42764 145.96311 151.38067
36.43163 152.03989 151.48724
36.43565 157.54783 151.60272
36.43962 155.26901 151.72576
36.44363 145.57539 151.85883
36.44763 161.36507 152.00137
36.45160 150.66438 152.15196
36.45559 147.48520 152.31264
36.45959 153.61954 152.48302
36.46359 151.50135 152.66223
36.46757 141.62515 152.84665
36.47156 141.77866 153.03683
36.47558 148.51923 153.23129
36.47955 155.65203 153.42199
36.48356 147.13875 153.60910
36.48756 145.11743 153.78566
36.49155 157.54361 153.94579
36.49554 143.98972 154.08448
36.49952 156.39017 154.19600
36.50354 149.41251 154.27618
36.50750 156.35040 154.32034
36.51149 163.34843 154.32785
36.51550 147.81689 154.29846
36.51949 155.21908 154.23453
36.52349 157.29555 154.13964
36.52747 153.63600 154.01973
36.53149 156.38389 153.87930
36.53547 144.83128 153.72688
36.53948 153.86882 153.56647
36.54348 153.17873 153.40457
36.54746 162.31481 153.24697
36.55144 158.85887 153.09631
36.55543 148.96182 152.95581
36.55944 150.14525 152.82825
36.56342 156.76826 152.71726
36.56741 151.01615 152.62233
36.57143 155.51450 152.54607
36.57540 153.55785 152.49051
36.57941 149.25653 152.45577
36.58341 151.82419 152.44252
36.58740 153.29444 152.45401
36.59139 164.32560 152.48228
36.59539 149.02045 152.54491
36.59940 147.11756 152.63508
36.60336 154.52734 152.75199
36.60735 159.91651 152.89811
36.61135 154.23339 153.07275
36.61534 149.29249 153.27294
36.61934 145.64731 153.49643
36.62333 153.43611 153.73714
36.62735 152.54419 153.99003
36.63133 150.16133 154.24031
36.63533 145.60443 154.48051
36.63934 165.52241 154.69313
36.64332 156.48497 154.86153
36.64731 143.03303 154.97214
36.65128 151.02423 155.01254
36.65530 155.03627 154.97747
36.65927 156.98032 154.87036
36.66326 157.81796 154.70049
36.66727 158.88864 154.48351
36.67126 146.41782 154.23932
36.67527 149.91902 153.98340
36.67926 154.99846 153.73261
36.68327 154.28648 153.49596
36.68724 145.62197 153.28403
36.69124 147.90635 153.09834
36.69525 151.67298 152.94195
36.69922 156.74099 152.81687
36.70321 156.85435 152.72079
36.70720 155.60788 152.65313
36.71121 157.49000 152.61274
36.71519 158.81000 152.57055
36.71918 155.44790 152.58090
36.72321 155.07399 152.61483
36.72718 159.98717 152.67023
36.73119 153.54347 152.74686
36.73518 144.32162 152.84229
36.73917 161.51676 152.95518
36.74316 145.35140 153.08422
36.74715 144.31389 153.22669
36.75116 138.89595 153.38091
36.75512 157.58062 153.54236
36.75911 152.88261 153.71067
36.76312 152.12217 153.88310
36.76711 153.44489 154.05618
36.77111 153.65890 154.22979
36.77509 157.55322 154.40302
36.77911 147.22088 154.57925
36.78309 149.15671 154.75780
36.78710 149.53471 154.94574
36.79110 154.88080 155.14768
36.79507 146.34538 155.36825
36.79907 150.80617 155.61845
36.80305 153.81119 155.90513
36.80706 153.89349 156.24129
36.81104 154.26585 156.63245
36.81503 160.46428 157.09163
36.81904 149.71060 157.62191
36.82303 154.28854 158.20514
36.82703 158.80362 158.80776
36.83103 157.00955 159.35638
36.83502 149.79270 159.74466
36.83901 145.14899 159.87860
36.84301 156.19567 159.71461
36.84701 146.96759 159.28968
36.85098 157.47526 158.70731
36.85497 157.32652 158.06345
36.85896 148.46905 157.43701
36.86295 150.36428 156.87272
36.86695 159.33912 156.38399
36.87095 160.25032 155.97013
36.87497 166.17433 155.62283
36.87894 164.25831 155.33751
36.88294 153.17351 155.09819
36.88695 148.44721 154.89801
36.89093 161.06306 154.73081
36.89492 162.26617 154.58883
36.89890 158.45183 154.46773
36.90292 149.66259 154.36234
36.90689 161.40670 154.27174
36.91088 154.19162 154.19117
36.91488 153.85027 154.11956
36.91887 154.82491 154.05567
36.92287 152.15269 153.99789
36.92687 153.21243 153.94569
36.93088 154.91602 153.89809
36.93485 150.80617 153.85547
36.93886 162.27701 153.81686
36.94286 145.41178 153.78258
36.94684 139.51187 153.75286
36.95082 146.92241 153.72747
36.95482 150.75377 153.70656
36.95882 150.16444 153.69027
36.96280 150.13835 153.67132
36.96679 148.65118 153.66465
36.97082 156.77049 153.66264
36.97479 155.42698 153.66520
36.97879 149.24695 153.67207
36.98280 141.99602 153.68287
36.98678 151.82903 153.69699
36.99078 152.88190 153.71392
36.99477 154.77940 153.73282
36.99877 161.03077 153.75297
37.00274 149.87439 153.77314
37.00673 158.88163 153.79255
37.01074 165.68680 153.81014
37.01473 154.31266 153.82461
37.01872 152.85943 153.83494
37.02271 162.49733 153.83990
37.02673 146.98303 153.83871
37.03071 141.73860 153.83042
37.03471 148.20954 153.81413
37.03872 138.93899 153.78924
37.04270 154.96420 153.75559
37.04670 156.86903 153.71254
37.05066 145.22705 153.66075
37.05468 156.20701 153.59914
37.05865 153.21741 153.52979
37.06264 151.32045 153.45204
37.06665 152.92687 153.36632
37.07064 145.52837 153.27432
37.07464 144.71803 153.17669
37.07864 133.78391 153.07449
37.08264 149.43481 152.96828
37.08662 146.00061 152.86015
37.09062 146.17922 152.74961
37.09463 153.93455 152.63811
37.09860 144.64653 152.52754
37.10258 146.23978 152.41733
37.10658 151.39123 152.30820
37.11058 160.80402 152.20057
37.11456 155.61374 152.09637
37.11856 155.16758 151.99513
37.12258 156.41861 151.89712
37.12656 138.32915 151.80485
37.13056 151.50989 151.71766
37.13457 153.63863 151.63713
37.13855 145.96941 151.56499
37.14255 151.75804 151.50218
37.14653 147.41227 151.45078
37.15054 151.14306 151.41294
37.15451 147.90868 151.39143
37.15850 155.15514 151.38871
37.16250 138.02866 151.40823
37.16650 150.21969 151.45367
37.17049 146.23001 151.52882
37.17448 157.91442 151.63784
37.17850 141.03317 151.78690
37.18247 148.25496 151.97749
37.18648 145.72455 152.21788
37.19048 143.20829 152.51047
37.19446 146.21242 152.85639
37.19845 151.88657 153.25959
37.20243 143.58783 153.71413
37.20645 151.73777 154.21867
37.21042 151.88657 154.74584
37.21441 145.87978 155.27902
37.21843 142.09591 155.78467
37.22240 138.48743 156.21112
37.22640 151.22147 156.51918
37.23040 157.28958 156.66571
37.23441 147.39653 156.62345
37.23839 151.25175 156.38928
37.24238 145.18863 155.98008
37.24639 138.43750 155.42822
37.25036 143.40288 154.78872
37.25435 152.34636 154.09844
37.25834 143.34353 153.39518
37.26233 147.21043 152.71224
37.26632 147.43984 152.06770
37.27032 141.22046 151.47164
37.27434 148.98414 150.92743
37.27831 149.54469 150.44484
37.28231 145.40408 150.01227
37.28632 146.62428 149.62829
37.29031 142.88003 149.29161
37.29430 146.25229 148.99581
37.29828 140.78188 148.73722
37.30230 156.55912 148.50883
37.30626 152.45009 148.31213
37.31026 152.83493 148.13922
37.31427 153.90568 147.98803
37.31825 144.22692 147.85713
37.32225 143.34161 147.74252
37.32624 137.32531 147.64237
37.33026 146.48143 147.55388
37.33424 147.13773 147.47608
37.33823 150.77416 147.40613
37.34224 137.08978 147.34196
37.34622 147.86366 147.28273
37.35021 154.16027 147.22622
37.35420 136.01302 147.17090
37.35819 142.38636 147.11553
37.36218 145.16344 147.05918
37.36617 147.02391 147.00076
37.37018 154.77604 146.93920
37.37417 152.12289 146.87481
37.37816 137.88319 146.80662
37.38216 138.15008 146.73452
37.38617 149.78596 146.65856
37.39016 154.35319 146.57922
37.39414 153.54021 146.49688
37.39815 150.10342 146.41082
37.40213 145.16925 146.32301
37.40611 147.71333 146.23291
37.41011 143.48818 146.14075
37.41410 140.23479 146.04773
37.41810 150.28886 145.95372
37.42209 143.86723 145.85981
37.42611 143.09706 145.76507
37.43009 152.32805 145.67191
37.43409 158.49821 145.57930
37.43810 146.47361 145.48758
37.44208 135.88246 145.39789
37.44608 142.08000 145.30969
37.45005 139.78366 145.22404
37.45406 147.19411 145.13715
37.45804 138.75362 145.05591
37.46203 143.40589 144.97659
37.46603 146.37594 144.89950
37.47003 148.33787 144.82524
37.47402 145.74748 144.75341
37.47801 149.40903 144.68416
37.48202 144.67086 144.61700
37.48601 147.34261 144.55265
37.49000 139.56838 144.49061
37.49401 135.29121 144.43057
37.49799 153.87078 144.37306
37.50198 147.14703 144.31755
37.50596 149.95934 144.26391
37.50997 145.31294 144.21184
37.51394 145.27806 144.16149
37.51793 148.50772 144.11273
37.52195 146.05738 144.06507
37.52594 146.28035 144.01918
37.52994 136.54062 143.97431
37.53393 137.96964 143.93055
37.53793 149.49086 143.88782
37.54192 143.69279 143.84610
37.54591 152.72020 143.80538
37.54992 149.13392 143.76525
37.55389 144.75104 143.72628
37.55787 153.98355 143.68805
37.56188 145.87526 143.65042
37.56587 149.24776 143.61366
37.56986 152.26316 143.57772
37.57385 148.30226 143.54254
37.57787 144.19026 143.50792
37.58185 137.56882 143.47453
37.58585 149.02264 143.44187
37.58986 150.34788 143.40997
37.59384 151.65574 143.37917
37.59783 142.65153 143.34919
37.60181 145.86360 143.32026
37.60582 146.47016 143.29203
37.60980 142.83050 143.26495
37.61379 144.17681 143.23870
37.61780 144.02898 143.21334
37.62179 151.27908 143.18903
37.62579 133.80385 143.16557
37.62978 148.35143 143.14317
37.63379 132.67034 143.12159
37.63778 146.48817 143.10098
37.64176 153.27631 143.08138
37.64577 142.61162 143.06252
37.64975 149.21197 143.04468
37.65373 152.80719 143.02772
37.65772 142.34155 143.01156
37.66172 146.83200 142.99620
37.66571 150.61781 142.98172
37.66970 150.17974 142.96802
37.67373 156.83141 142.95501
37.67771 140.90437 142.94292
37.68170 137.25307 142.93156
37.68570 150.20373 142.92091
37.68970 139.78824 142.91101
37.69370 146.45065 142.90182
37.69766 148.76385 142.89340
37.70168 155.59848 142.88555
37.70566 139.99947 142.87846
37.70964 144.48973 142.87200
37.71365 142.51857 142.86615
37.71764 135.69974 142.86096
37.72164 142.59072 142.85638
37.72563 143.65642 142.85242
37.72965 137.35459 142.84919
37.73364 145.50877 142.84642
37.73762 139.99387 142.84424
37.74162 151.29117 142.84262
37.74561 148.93929 142.84159
37.74960 147.46937 142.84111
37.75357 148.10671 142.84120
37.75760 153.44451 142.84186
37.76156 144.18636 142.84307
37.76555 142.91610 142.84421
37.76958 151.31737 142.84658
37.77356 148.42024 142.84950
37.77756 137.79700 142.85301
37.78155 143.77954 142.85709
37.78555 151.87986 142.86176
37.78954 152.79295 142.86702
37.79353 143.93889 142.87286
37.79754 149.17223 142.87932
37.80152 144.35706 142.88634
37.80550 154.28259 142.89394
37.80949 143.35734 142.90214
37.81350 135.73927 142.91100
37.81749 136.72483 142.91992
37.82147 144.59691 142.92979
37.82550 141.03674 142.94028
37.82948 136.02980 142.95115
37.83347 151.29068 142.96253
37.83748 133.32446 142.97439
37.84146 140.55637 142.98687
37.84546 150.35272 142.99951
37.84943 147.70475 143.01247
37.85344 147.16022 143.02604
37.85743 152.00585 143.03979
37.86140 138.82863 143.05390
37.86541 135.12615 143.06853
37.86941 145.59968 143.08355
37.87341 153.03774 143.09909
37.87738 144.80794 143.11505
37.88141 146.24022 143.12755
37.88540 141.31606 143.14481
37.88938 144.83006 143.16269
37.89339 139.44144 143.18146
37.89737 150.32471 143.20092
37.90136 151.13417 143.22124
37.90534 134.72026 143.24240
37.90935 146.80851 143.26398
37.91333 155.14971 143.28707
37.91732 142.52237 143.31124
37.92134 146.20800 143.33669
37.92533 146.05650 143.36301
37.92932 151.50145 143.39054
37.93331 149.78723 143.41920
37.93732 139.86349 143.44927
37.94131 137.67788 143.48067
37.94528 148.52841 143.51300
37.94931 147.04670 143.54722
37.95329 135.75371 143.58249
37.95726 155.30882 143.61909
37.96126 154.01593 143.65757
37.96527 143.86614 143.69765
37.96926 151.46519 143.73927
37.97324 144.56805 143.78241
37.97726 144.07896 143.82786
37.98125 144.54305 143.87488
37.98523 148.09495 143.92363
37.98923 157.99840 143.97471
37.99323 144.63661 144.02784
37.99722 153.36347 144.08305
38.00119 155.95330 144.14025
38.00522 149.97208 144.20058
38.00919 152.29992 144.26260
38.01317 138.55301 144.32709
38.01718 151.45714 144.39485
38.02118 136.58121 144.46492
38.02517 150.11695 144.53758
38.02915 147.63798 144.61262
38.03317 145.52998 144.69103
38.03716 137.15926 144.77159
38.04114 142.44333 144.85423
38.04516 153.00721 144.94005
38.04914 144.38936 145.02719
38.05312 147.37626 145.11615
38.05711 147.37430 145.20637
38.06112 142.69954 145.29809
38.06511 146.82804 145.38952
38.06909 157.35683 145.48016
38.07311 146.31682 145.56869
38.07710 148.89657 145.65642
38.08108 129.31183 145.74127
38.08508 150.30960 145.82284
38.08909 142.87613 145.90047
38.09308 159.54477 145.97289
38.09704 141.93377 146.03962
38.10107 141.50079 146.10186
38.10505 154.80716 146.15773
38.10903 145.92640 146.20797
38.11303 150.36555 146.25325
38.11703 152.01648 146.29355
38.12102 157.71085 146.32930
38.12500 154.64589 146.36116
38.12902 156.72723 146.39019
38.13301 147.85071 146.41653
38.13698 147.77212 146.43018
38.14100 161.00602 146.45376
38.14500 148.48252 146.47736
38.14899 150.99757 146.49984
38.15296 151.36256 146.52237
38.15698 152.84255 146.54552
38.16097 147.57519 146.56895
38.16493 155.89733 146.59264
38.16895 149.97407 146.61705
38.17295 150.68275 146.64145
38.17693 146.24296 146.66557
38.18092 139.20251 146.68929
38.18493 140.61732 146.71217
38.18892 145.12423 146.73360
38.19289 150.19186 146.75308
38.19692 148.13241 146.77056
38.20091 140.24836 146.78515
38.20488 145.40044 146.79653
38.20888 148.59891 146.80450
38.21289 138.79221 146.80865
38.21687 143.86846 146.80872
38.22084 152.37893 146.80459
38.22487 148.39421 146.79606
38.22886 149.11582 146.78326
38.23283 147.56931 146.76631
38.23684 150.77287 146.74502
38.24084 142.97475 146.71976
38.24483 146.58240 146.69089
38.24880 138.05371 146.65868
38.25283 140.85779 146.62277
38.25681 155.10670 146.58437
38.26078 142.55554 146.54343
38.26479 153.08668 146.49982
38.26880 144.02915 146.45407
38.27278 145.70169 146.40680
38.27676 141.52334 146.35796
38.28079 152.79586 146.30711
38.28478 149.55852 146.25551
38.28874 144.38517 146.20334
38.29276 146.83773 146.14947
38.29676 140.23346 146.09540
38.30074 146.05668 146.04109
38.30472 143.57395 145.98664
38.30874 148.10093 145.93170
38.31273 139.30401 145.87751
38.31670 150.32845 145.82419
38.32073 146.55905 145.77099
38.32472 154.26909 145.71965
38.32869 139.30956 145.67009
38.33268 142.71872 145.62206
38.33670 147.91791 145.57608
38.34069 141.43506 145.53294
38.34466 142.91592 145.49304
38.34868 145.03371 145.45572
38.35267 138.26059 145.42230
38.35663 145.42753 145.39295
38.36064 159.37737 145.36738
38.36465 144.87520 145.34628
38.36863 142.41938 145.33001
38.37261 146.75782 145.31864
38.37664 156.08617 145.31239
38.38063 145.91990 145.31159
38.38459 152.25759 145.31626
38.38860 147.58580 145.32667
38.39261 155.24908 145.34282
38.39659 143.69097 145.36443
38.40057 147.37932 145.39149
38.40460 138.27160 145.42400
38.40859 148.59432 145.46081
38.41255 143.94713 145.50100
38.41656 147.84721 145.54447
38.42057 142.90454 145.58937
38.42453 143.63762 145.63361
38.42853 140.96542 145.67658
38.43255 150.52879 145.71482
38.43654 147.28549 145.74958
38.44051 142.84198 145.77826
38.44453 144.31431 145.80074
38.44853 149.82028 145.81643
38.45249 156.78163 145.82597
38.45649 150.32446 145.82862
38.46051 147.89470 145.82973
38.46449 154.25419 145.82905
38.46846 148.77107 145.82702
38.47249 152.04167 145.82806
38.47648 144.10208 145.83233
38.48044 140.81291 145.84101
38.48444 151.86182 145.85524
38.48846 139.36654 145.87579
38.49245 155.00013 145.90284
38.49641 149.44158 145.93647
38.50045 154.07266 145.97748
38.50443 155.94749 146.02446
38.50840 145.50275 146.07698
38.51240 144.27029 146.13497
38.51642 150.18694 146.19703
38.52040 144.32771 146.26107
38.52438 154.82913 146.32587
38.52840 151.60953 146.39038
38.53240 142.12794 146.45125
38.53636 146.58464 146.50661
38.54038 145.52976 146.55595
38.54438 144.70613 146.59636
38.54836 141.02428 146.62687
38.55233 150.79134 146.64670
38.55636 149.97083 146.65555
38.56035 149.51685 146.65311
38.56431 157.09345 146.63978
38.56833 149.13816 146.61560
38.57234 156.77123 146.58152
38.57631 140.43089 146.53884
38.58030 143.58050 146.48808
38.58432 145.54906 146.43052
38.58831 154.51667 146.36877
38.59227 145.57783 146.30505
38.59630 159.09844 146.23984
38.60029 149.96686 146.17699
38.60425 152.59693 146.11836
38.60825 155.99830 146.06497
38.61227 156.33245 146.01886
38.61626 156.55702 145.98193
38.62023 150.77535 145.95531
38.62426 152.90001 145.93982
38.62825 152.70009 145.93697
38.63222 144.88373 145.94760
38.63622 146.74424 145.97299
38.64024 154.44097 146.01424
38.64422 146.47007 146.07124
38.64819 158.38015 146.14396
38.65221 146.69758 146.23226
38.65621 143.50631 146.32825
38.66016 147.72622 146.42818
38.66417 139.24101 146.52159
38.66819 148.29919 146.59505
38.67217 144.06970 146.63830
38.67615 156.33037 146.64834
38.68017 151.83440 146.62885
38.68416 153.35260 146.59025
38.68813 148.29527 146.54383
38.69214 152.49997 146.49784
38.69615 154.76143 146.45857
38.70012 151.54325 146.42843
38.70411 154.54124 146.40720
38.70813 160.43022 146.39373
38.71211 156.53626 146.38648
38.71608 146.45260 146.38175
38.72010 139.42155 146.38062
38.72410 156.62379 146.37976
38.72809 155.51053 146.37759
38.73206 157.62921 146.37288
38.73609 146.31500 146.36451
38.74007 152.59491 146.35191
38.74405 150.25365 146.33467
38.74806 151.86455 146.31233
38.75205 139.34958 146.28533
38.75603 152.33051 146.25396
38.76002 155.38097 146.21839
38.76403 147.21652 146.17920
38.76803 147.51232 146.13737
38.77200 148.29330 146.09367
38.77602 150.17806 146.04808
38.78002 153.11714 146.00223
38.78399 159.91316 145.95668
38.78799 154.84418 145.91157
38.79199 147.20288 145.86770
38.79599 146.38667 145.82548
38.79995 145.82589 145.78614
38.80397 153.72603 145.74867
38.80796 159.90046 145.71432
38.81193 152.59087 145.68322
38.81595 155.67499 145.65505
38.81995 150.92143 145.63044
38.82393 150.31227 145.60946
38.82792 163.13360 145.59210
38.83193 158.81839 145.57833
38.83593 142.09516 145.56836
38.83990 145.71447 145.56218
38.84392 144.64593 145.55973
38.84791 149.27348 145.56112
38.85188 146.51123 145.56630
38.85587 145.93206 145.57533
38.85988 147.02806 145.58831
38.86386 153.10093 145.60513
38.86785 151.77615 145.62591
38.87187 146.97357 145.65094
38.87587 159.18292 145.67995
38.87985 151.42891 145.71331
38.88384 142.33142 145.74987
38.88784 149.32486 145.79184
38.89183 147.92868 145.83816
38.89582 152.59865 145.88916
38.89983 156.44143 145.94519
38.90381 161.10722 146.00604
38.90778 156.01392 146.07196
38.91179 159.73765 146.14240
38.91579 154.05370 146.22052
38.91979 154.31633 146.30407
38.92376 142.72479 146.39339
38.92779 150.07078 146.49035
38.93178 153.47976 146.59344
38.93577 145.37567 146.70367
38.93977 156.41453 146.82183
38.94376 153.74231 146.94713
38.94774 147.75223 147.08041
38.95172 160.45724 147.22162
38.95574 163.98646 147.37261
38.95971 138.95939 147.53028
38.96370 142.60589 147.69710
38.96771 147.04521 147.87305
38.97172 160.84018 148.05635
38.97570 151.67381 148.24672
38.97969 153.64876 148.44350
38.98370 154.28571 148.64690
38.98769 144.02030 148.85304
38.99168 157.33961 149.06197
38.99568 169.28978 149.27239
38.99967 154.00685 149.48051
39.00364 141.50107 149.68461
39.00763 157.56566 149.88340
39.01164 150.38866 150.07512
39.01563 145.07964 150.25611
39.01962 152.04462 150.42616
39.02364 152.54820 150.58619
39.02763 150.42645 150.73324
39.03162 139.23900 150.86857
39.03561 149.13336 150.99601
39.03961 152.91474 151.11621
39.04360 149.25413 151.23096
39.04758 161.14621 151.34159
39.05159 149.99339 151.45013
39.05556 156.74661 151.55443
39.05955 148.63168 151.65471
39.06356 147.80942 151.74811
39.06756 156.22234 151.82964
39.07156 151.26073 151.89319
39.07553 157.94481 151.93707
39.07955 156.32354 151.95733
39.08355 151.33421 151.95231
39.08752 151.85724 151.92397
39.09154 154.66695 151.87534
39.09552 150.25359 151.81386
39.09950 146.49808 151.74510
39.10349 159.03353 151.67515
39.10749 142.67220 151.60878
39.11147 155.36649 151.55079
39.11546 161.35342 151.50313
39.11948 149.49911 151.46697
39.12348 139.57177 151.44280
39.12747 155.69100 151.43100
39.13146 156.17282 151.42988
39.13546 140.20433 151.43820
39.13945 149.75411 151.45447
39.14345 151.77097 151.47741
39.14745 151.53757 151.50586
39.15143 154.44750 151.53886
39.15541 160.23464 151.57633
39.15940 152.13343 151.61863
39.16340 149.80324 151.66672
39.16738 153.02106 151.72184
39.17137 151.22833 151.78670
39.17539 151.73889 151.86468
39.17938 152.22390 151.95801
39.18339 150.57032 152.07170
39.18738 158.61686 152.20946
39.19137 159.39961 152.37587
39.19536 154.26677 152.57445
39.19934 152.91676 152.80824
39.20336 140.17839 153.08058
39.20732 151.68280 153.38274
39.21131 152.72900 153.71364
39.21532 150.26947 154.05699
39.21931 157.85511 154.38657
39.22330 160.77536 154.67162
39.22729 148.29680 154.87572
39.23131 154.25455 154.96356
39.23529 150.83179 154.91016
39.23929 147.48296 154.70866
39.24330 157.16096 154.37035
39.24727 154.26066 153.92988
39.25125 148.99350 153.41983
39.25525 145.74257 152.87475
39.25925 145.77721 152.32628
39.26323 159.14825 151.79916
39.26722 149.38263 151.30292
39.27124 150.44902 150.84260
39.27523 150.62850 150.42676
39.27922 147.66111 150.05100
39.28322 156.60789 149.71234
39.28722 149.92345 149.40941
39.29122 152.48756 149.13927
39.29520 147.65136 148.89656
39.29921 151.04105 148.67947
39.30318 141.24167 148.48788
39.30717 143.16256 148.31627
39.31117 153.95784 148.16306
39.31516 147.84503 148.02781
39.31914 144.43902 147.90854
39.32314 149.58800 147.80374
39.32716 149.91950 147.71277
39.33115 155.77014 147.63560
39.33514 154.94835 147.57112
39.33914 147.54617 147.51875
39.34313 152.80508 147.47860
39.34711 150.76411 147.44972
39.35110 148.49041 147.43329
39.35510 155.78453 147.42830
39.35908 155.34390 147.43495
39.36308 154.33133 147.45330
39.36707 160.91013 147.48335
39.37108 140.34532 147.52503
39.37506 153.30201 147.57785
39.37906 146.51203 147.64175
39.38308 144.35519 147.71831
39.38706 150.16038 147.80123
39.39106 153.89893 147.89192
39.39506 146.06860 147.98771
39.39904 155.81537 148.08524
39.40302 143.08514 148.18121
39.40701 149.29392 148.27118
39.41101 143.33399 148.34987
39.41500 150.86775 148.41180
39.41900 143.25461 148.45261
39.42300 152.79500 148.46841
39.42699 147.36231 148.45754
39.43099 142.44075 148.42033
39.43499 159.24601 148.35923
39.43899 150.58129 148.27897
39.44297 154.61689 148.18604
39.44696 150.86377 148.08629
39.45097 150.70445 147.98529
39.45493 160.43486 147.88505
39.45893 142.47081 147.77616
39.46293 151.25186 147.64704
39.46692 149.93476 147.49532
39.47091 138.96699 147.33506
39.47490 153.22517 147.18121
39.47892 144.29238 147.04231
39.48290 147.35566 146.92189
39.48691 152.26647 146.81711
39.49091 150.45170 146.72768
39.49489 156.71386 146.65324
39.49888 149.93137 146.59235
39.50286 143.24517 146.54478
39.50687 148.28095 146.50951
39.51085 159.28690 146.48576
39.51484 146.88192 146.47084
39.51886 156.32911 146.46111
39.52284 155.01832 146.45169
39.52684 151.02498 146.43703
39.53084 145.59458 146.41306
39.53484 153.32499 146.37855
39.53883 140.56564 146.33577
39.54283 155.02445 146.28891
39.54683 144.64373 146.24282
39.55080 138.29815 146.20173
39.55478 152.83267 146.16762
39.55878 143.87996 146.14137
39.56277 144.58466 146.12353
39.56676 140.02715 146.11374
39.57076 160.76161 146.11208
39.57478 145.26671 146.11680
39.57876 145.21696 146.12782
39.58276 141.29804 146.14469
39.58677 142.73290 146.16695
39.59075 158.31774 146.19397
39.59474 146.17555 146.22557
39.59872 135.73969 146.26118
39.60273 158.59124 146.30089
39.60671 154.11171 146.34373
39.61070 140.26207 146.38993
39.61470 142.29999 146.43900
39.61869 155.58542 146.49053
39.62269 143.99789 146.54424
39.62669 148.65381 146.59976
39.63069 156.19319 146.65665
39.63468 142.32062 146.71424
39.63868 146.63822 146.77256
39.64268 148.93617 146.83089
39.64666 156.14793 146.88867
39.65065 148.28857 146.94553
39.65464 146.06579 147.00126
39.65863 150.76635 147.05518
39.66261 157.05909 147.10679
39.66660 146.70004 147.15581
39.67062 141.45673 147.20192
39.67461 155.73468 147.24403
39.67860 147.01314 147.28187
39.68261 144.92601 147.31508
39.68660 154.87070 147.34283
39.69060 140.11799 147.36516
39.69459 147.28968 147.38214
39.69859 157.82542 147.39418
39.70257 143.49681 147.40193
39.70655 147.74419 147.40613
39.71055 147.76755 147.40744
39.71454 154.02647 147.40626
39.71853 150.30303 147.40282
39.72254 144.35488 147.39739
39.72654 139.33940 147.39047
39.73052 142.62014 147.38280
39.73453 147.10996 147.37490
39.73853 145.05587 147.36728
39.74252 157.34804 147.36022
39.74651 150.62343 147.35394
39.75048 146.19375 147.34798
39.75450 146.85665 147.34382
39.75847 154.14786 147.34106
39.76246 148.64527 147.33983
39.76646 143.59784 147.34038
39.77046 151.44414 147.34276
39.77445 143.64321 147.34753
39.77846 148.56180 147.35481
39.78245 141.51465 147.36483
39.78644 150.15663 147.37782
39.79044 146.37742 147.39413
39.79444 145.11946 147.41387
39.79843 142.80261 147.43798
39.80241 152.35687 147.46546
39.80640 143.57895 147.49731
39.81040 152.66372 147.53322
39.81437 155.96716 147.57388
39.81837 146.61892 147.61932
39.82239 144.05876 147.66960
39.82638 144.69060 147.72382
39.83038 145.69763 147.78217
39.83438 142.80073 147.84368
39.83837 147.77392 147.90772
39.84237 135.45932 147.97314
39.84635 156.36277 148.03801
39.85036 143.43448 148.10114
39.85433 146.77160 148.15955
39.85831 151.00300 148.21183
39.86231 147.39751 148.25613
39.86630 153.87651 148.29067
39.87031 149.08598 148.31477
39.87430 142.79321 148.32808
39.87830 144.65823 148.33124
39.88230 148.63940 148.32539
39.88629 151.58493 148.31142
39.89029 141.64321 148.29217
39.89429 140.11097 148.26869
39.89827 141.47927 148.24239
39.90225 146.35816 148.21441
39.90626 144.46097 148.18538
39.91023 146.69631 148.15629
39.91422 150.09144 148.12723
39.91823 149.41667 148.09841
39.92223 145.34555 148.07032
39.92623 142.07348 148.04288
39.93023 157.21144 148.01613
39.93422 146.61916 147.99031
39.93821 142.59987 147.96534
39.94221 152.84814 147.94132
39.94621 149.79028 147.91839
39.95020 153.83806 147.89675
39.95417 151.05653 147.87661
39.95817 161.50146 147.85796
39.96216 162.24107 147.84116
39.96615 150.91560 147.82646
39.97015 150.06577 147.81408
39.97416 157.64895 147.80434
39.97815 151.56898 147.79757
39.98214 153.32772 147.79402
39.98614 150.76288 147.79398
39.99013 156.70190 147.79775
39.99413 161.73938 147.80558
39.99811 155.23157 147.81764
40.00212 155.01308 147.83430
40.00608 140.31951 147.85530
40.01008 149.79816 147.88103
40.01408 152.94195 147.91136
40.01808 143.06754 147.94600
40.02207 162.65765 147.98447
40.02606 155.45826 148.02613
40.03007 151.56810 148.07049
40.03406 156.24836 148.11610
40.03805 153.24098 148.16198
40.04205 138.60007 148.20689
40.04604 155.22137 148.24933
40.05003 146.17538 148.28819
40.05402 145.39907 148.32246
40.05801 148.69537 148.35149
40.06199 137.08639 148.37452
40.06598 158.77397 148.39152
40.07000 142.96038 148.40247
40.07399 154.70107 148.40731
40.07798 154.80275 148.40654
40.08199 153.04165 148.40058
40.08598 147.19024 148.39009
40.08998 158.72390 148.37587
40.09396 147.25991 148.35889
40.09797 157.03793 148.34021
40.10195 152.26678 148.32123
40.10592 147.63019 148.30341
40.10993 156.88951 148.28816
40.11391 162.91995 148.27738
40.11792 153.48831 148.27273
40.12191 151.96059 148.27606
40.12592 148.72583 148.28928
40.12991 141.48316 148.31407
40.13389 148.80686 148.35227
40.13791 156.25738 148.40645
40.14190 155.92125 148.47793
40.14588 144.21611 148.56911
40.14986 150.97514 148.68253
40.15387 143.76166 148.82188
40.15785 146.54017 148.98784
40.16184 152.88968 149.18499
40.16584 134.17984 149.41697
40.16985 156.09654 149.68450
40.17384 159.14018 149.98788
40.17783 146.35493 150.32676
40.18183 154.86243 150.69627
40.18583 137.65384 151.08429
40.18981 155.06034 151.47296
40.19382 150.40832 151.83961
40.19781 148.55477 152.15097
40.20178 146.61748 152.37711
40.20577 143.59864 152.49648
40.20978 145.23290 152.49453
40.21376 148.93198 152.37293
40.21775 153.14523 152.14936
40.22177 150.15685 151.84511
40.22576 152.75115 151.49432
40.22975 153.55731 151.12209
40.23375 143.08414 150.74687
40.23774 148.38557 150.38603
40.24173 162.40349 150.04929
40.24572 156.21432 149.74069
40.24973 160.50631 149.46007
40.25370 151.03852 149.21187
40.25769 153.52708 148.99032
40.26169 144.21033 148.79480
40.26568 145.11662 148.62290
40.26968 149.07941 148.47216
40.27367 145.11472 148.33936
40.27770 152.72508 148.22309
40.28167 145.65135 148.12269
40.28567 140.08007 148.03455
40.28968 143.89623 147.95757
40.29366 154.19763 147.89098
40.29765 144.38426 147.83336
40.30163 141.53531 147.78424
40.30565 145.28468 147.74203
40.30961 144.96940 147.70727
40.31360 142.94710 147.67886
40.31761 155.75351 147.65651
40.32160 144.70800 147.64014
40.32558 155.11361 147.62930
40.32958 138.72347 147.62361
40.33360 161.67979 147.62280
40.33759 149.86619 147.62653
40.34157 151.41293 147.63442
40.34559 154.31653 147.64624
40.34957 143.18331 147.66144
40.35354 146.63673 147.67969
40.35754 149.45424 147.70087
40.36153 161.38298 147.72440
40.36552 146.68295 147.75004
40.36952 159.19668 147.77740
40.37354 151.98709 147.80635
40.37753 148.15009 147.83611
40.38151 155.12175 147.86650
40.38552 152.57683 147.89734
40.38952 154.52649 147.92782
40.39351 150.44851 147.95823
40.39748 145.70649 147.98786
40.40150 147.32810 148.01680
40.40547 146.66964 148.04413
40.40946 155.07089 148.07002
40.41346 151.92729 148.09412
40.41744 145.00433 148.11606
40.42143 153.36201 148.13588
40.42543 152.76066 148.15342
40.42944 143.94565 148.16862
40.43344 146.48286 148.18134
40.43742 145.80929 148.19119
40.44143 151.11169 148.19930
40.44542 146.21355 148.20518
40.44941 155.55585 148.20905
40.45339 152.87225 148.21108
40.45739 146.88332 148.21148
40.46137 152.06932 148.21046
40.46537 149.75814 148.20826
40.46938 157.78637 148.20508
40.47338 154.32196 148.20118
40.47736 155.26647 148.19678
40.48136 158.57575 148.19201
40.48536 147.94025 148.18714
40.48935 156.25819 148.18232
40.49334 147.02759 148.17767
40.49735 153.97323 148.17330
40.50133 152.00356 148.16934
40.50531 159.54715 148.16584
40.50931 138.11017 148.16283
40.51330 153.15020 148.16037
40.51729 148.29770 148.15794
40.52128 145.35349 148.15661
40.52531 144.45580 148.15582
40.52929 143.88527 148.15555
40.53329 156.26639 148.15577
40.53729 141.84546 148.15641
40.54128 154.54784 148.15744
40.54527 148.50551 148.15881
40.54924 155.44775 148.16047
40.55326 156.05868 148.16243
40.55723 144.79354 148.16463
40.56122 147.21225 148.16711
40.56523 143.20347 148.16994
40.56922 149.23496 148.17314
40.57322 149.06442 148.17685
40.57721 136.52450 148.18117
40.58122 145.07908 148.18632
40.58522 155.87681 148.19241
40.58919 139.22525 148.19963
40.59320 147.18524 148.20835
40.59720 143.63598 148.21866
40.60118 154.94896 148.23081
40.60516 149.56016 148.24513
40.60915 153.69494 148.26192
40.61314 149.61300 148.28035
40.61714 154.63796 148.30304
40.62116 154.90836 148.32934
40.62516 160.95357 148.35934
40.62913 150.94340 148.39334
40.63314 151.84637 148.43241
40.63714 149.56208 148.47627
40.64113 153.83003 148.52546
40.64511 148.94926 148.58008
40.64912 155.15075 148.64063
40.65311 148.93366 148.70612
40.65707 144.13471 148.77554
40.66108 152.92562 148.84825
40.66507 154.34353 148.92319
40.66907 158.63993 148.99856
40.67306 148.75146 149.07318
40.67708 148.09772 149.14740
40.68107 142.45872 149.22202
40.68505 153.59631 149.30005
40.68906 152.91761 149.38628
40.69305 146.81589 149.48485
40.69703 160.81665 149.60134
40.70101 155.16700 149.74166
40.70502 134.93446 149.91427
40.70899 150.24950 150.12523
40.71299 141.81537 150.38839
40.71700 147.58989 150.71983
40.72100 148.66386 151.14067
40.72499 146.98328 151.68034
40.72899 144.57390 152.39060
40.73299 157.92230 153.34407
40.73698 148.02989 154.64350
40.74097 147.19623 156.44287
40.74497 144.26298 158.93491
40.74895 142.61780 162.20370
40.75294 156.01890 165.94847
40.75693 153.33726 168.98025
40.76092 141.62629 169.62718
40.76491 142.42702 167.46237
40.76890 156.71691 163.92181
40.77293 144.03287 160.53043
40.77692 153.06897 157.94299
40.78090 149.32328 156.10005
40.78491 150.26225 154.80857
40.78890 151.76691 153.91403
40.79289 147.22899 153.28530
40.79687 145.82979 152.84182
40.80088 144.44401 152.52472
40.80486 146.77362 152.30009
40.80884 144.74614 152.14002
40.81285 158.10277 152.02626
40.81683 138.56438 151.94374
40.82084 154.53272 151.89002
40.82483 141.56512 151.85490
40.82884 157.09859 151.83329
40.83283 141.75784 151.82121
40.83681 142.58421 151.81736
40.84083 147.38633 151.81933
40.84481 148.80703 151.82589
40.84880 159.32585 151.83621
40.85278 147.39790 151.84969
40.85678 153.42150 151.86596
40.86076 145.88457 151.88364
40.86476 146.55849 151.90428
40.86877 146.33955 151.92665
40.87277 147.29767 151.95006
40.87675 150.14331 151.97405
40.88076 147.51076 151.99830
40.88475 143.82916 152.02203
40.88874 145.89411 152.04478
40.89273 140.81892 152.06605
40.89673 147.69102 152.08539
40.90072 137.43871 152.10233
40.90469 150.23474 152.11659
40.90869 147.96599 152.12821
40.91268 146.87537 152.13702
40.91667 149.72619 152.14307
40.92068 160.14235 152.14645
40.92469 133.47280 152.14715
40.92868 149.64616 152.14493
40.93267 147.27071 152.13941
40.93667 146.87921 152.12945
40.94066 154.85626 152.11352
40.94465 148.71171 152.08948
40.94863 152.65779 152.05517
40.95264 151.91463 152.00828
40.95661 142.62188 151.94882
40.96060 146.66231 151.87653
40.96461 153.17413 151.79337
40.96861 152.35707 151.70275
40.97260 151.03813 151.60852
40.97659 146.15787 151.51365
40.98061 148.50644 151.42058
40.98459 151.67959 151.33244
40.98859 142.74704 151.24980
40.99258 155.38854 151.17354
40.99657 152.45275 151.10432
41.00055 153.66322 151.04210
41.00454 154.20628 150.98664
41.00854 158.78661 150.93767
41.01252 152.02645 150.89537
41.01652 154.53583 150.85915
41.02054 153.27113 150.82871
41.02453 151.29282 150.80430
41.02851 150.44595 150.78540
41.03252 150.60005 150.77173
41.03651 145.39369 150.76331
41.04051 151.76577 150.75993
41.04450 150.09538 150.75927
41.04850 143.06443 150.76576
41.05248 148.43270 150.77703
41.05646 146.56265 150.79226
41.06046 147.03076 150.81333
41.06445 157.33863 150.83924
41.06844 146.51287 150.87028
41.07244 141.48011 150.90652
41.07646 151.17024 150.94834
41.08044 153.99885 150.99557
41.08442 149.47800 151.04852
41.08844 149.49754 151.10839
41.09243 148.79638 151.17457
41.09641 147.41051 151.24796
41.10039 163.62354 151.32919
41.10439 151.27060 151.41938
41.10837 149.19097 151.51872
41.11236 153.20105 151.62874
41.11638 149.44871 151.75147
41.12038 146.58181 151.88672
41.12436 151.73999 152.03637
41.12837 142.49151 152.20370
41.13237 145.84966 152.39046
41.13636 141.29696 152.59905
41.14035 144.82191 152.83375
41.14435 136.69318 153.09919
41.14834 148.73810 153.39890
41.15231 150.20826 153.73861
41.15630 153.18904 154.12941
41.16030 157.42023 154.57881
41.16429 161.73647 155.09491
41.16828 150.81531 155.69353
41.17231 153.57894 156.39068
41.17630 155.51027 157.18846
41.18028 146.75063 158.10077
41.18429 147.72252 159.13900
41.18827 159.35673 160.28620
41.19227 149.82173 161.52322
41.19626 143.45936 162.80016
41.20027 158.10772 164.05779
41.20423 162.34640 165.18550
41.20822 153.79793 166.07206
41.21222 155.89776 166.52651
41.21621 149.73765 166.36252
41.22021 145.36910 165.54488
41.22420 149.42334 164.27427
41.22821 134.74168 162.84330
41.23221 144.15167 161.50645
41.23619 144.09335 160.36976
41.24020 156.38580 159.45340
41.24419 162.00418 158.75870
41.24818 148.91395 158.25880
41.25216 158.35999 157.93664
41.25616 151.14034 157.76941
41.26013 148.59066 157.72835
41.26413 151.28245 157.75443
41.26814 151.32343 157.74919
41.27213 158.98467 157.60109
41.27612 149.05471 157.25298
41.28012 144.55252 156.74766
41.28412 149.90931 156.18331
41.28812 139.66962 155.64469
41.29210 145.58557 155.17291
41.29611 154.78817 154.77201
41.30010 152.39089 154.44002
41.30407 151.74681 154.16503
41.30808 136.10448 153.93364
41.31206 148.44973 153.74079
41.31605 149.67318 153.57771
41.32005 142.87579 153.43936
41.32406 144.09335 153.32188
41.32806 150.50425 153.22306
41.33204 154.68316 153.14037
41.33605 146.90577 153.07127
41.34004 143.03239 153.01503
41.34403 147.57221 152.97020
41.34801 144.35086 152.93589
41.35201 152.68887 152.91062
41.35599 155.32764 152.89464
41.35999 137.47783 152.88658
41.36399 152.77452 152.88574
41.36797 148.02829 152.89122
41.37196 136.12046 152.90209
41.37596 147.63264 152.91727
41.37998 155.61118 152.93564
41.38397 145.25912 152.95558
41.38796 155.57467 152.97568
41.39196 154.60449 152.99441
41.39595 149.35141 153.00992
41.39993 155.17781 153.02056
41.40392 149.49368 153.02477
41.40791 148.60423 153.02110
41.41190 156.79529 153.00836
41.41590 157.77734 152.98580
41.41991 151.20311 152.95287
41.42390 149.76859 152.90994
41.42788 149.46638 152.85757
41.43188 147.90284 152.79619
41.43589 149.82133 152.72693
41.43988 155.20209 152.65164
41.44388 152.24787 152.57121
41.44788 159.51000 152.48709
41.45186 164.33143 152.40128
41.45584 140.56309 152.31421
41.45984 147.72312 152.22675
41.46383 142.94471 152.14023
41.46782 148.69462 152.05540
41.47182 142.82736 151.97261
41.47584 159.89785 151.89203
41.47982 148.50737 151.81522
41.48381 147.84309 151.74147
41.48782 143.86052 151.67071
41.49181 154.11887 151.60372
41.49580 142.43819 151.53987
41.49977 153.49322 151.47949
41.50379 146.15204 151.42137
41.50776 150.79386 151.36642
41.51175 146.81769 151.31337
41.51576 145.00124 151.26187
41.51976 143.18093 151.21196
41.52374 149.68078 151.16301
41.52773 148.10372 151.11446
41.53175 144.65491 151.06568
41.53574 156.19305 151.01681
41.53973 146.78899 150.96750
41.54373 144.08779 150.91726
41.54773 155.45513 150.86646
41.55169 151.95612 150.81547
41.55570 156.61944 150.76356
41.55968 139.81351 150.71191
41.56366 146.66476 150.66052
41.56766 142.80502 150.60991
41.57168 153.45922 150.56040
41.57568 142.77340 150.51311
41.57965 141.92305 150.46859
41.58366 145.22724 150.42675
41.58765 151.53134 150.38870
41.59164 151.51752 150.35470
41.59564 149.01266 150.32515
41.59964 149.00878 150.30037
41.60361 154.15061 150.28077
41.60760 146.88265 150.26614
41.61160 138.17898 150.25649
41.61559 150.97090 150.25167
41.61959 141.91983 150.25143
41.62359 155.70001 150.25564
41.62760 140.62500 150.26448
41.63159 150.85690 150.27840
41.63558 145.64017 150.29846
41.63958 154.41320 150.32621
41.64357 151.47806 150.36328
41.64755 151.14176 150.41155
41.65153 155.82116 150.47271
41.65554 155.00000 150.54894
41.65952 153.97437 150.64014
41.66351 149.82483 150.74263
41.66752 140.66529 150.86550
41.67152 153.08912 151.00081
41.67552 159.16252 151.14469
41.67950 146.66476 151.29062
41.68351 156.37282 151.43204
41.68750 144.41261 151.56020
41.69149 152.10314 151.66886
41.69550 147.69103 151.75526
41.69948 143.85906 151.81954
41.70345 141.93414 151.86689
41.70745 145.42045 151.90441
41.71146 148.67837 151.93821
41.71543 149.37695 151.97252
41.71943 143.52858 152.00770
41.72345 149.90826 152.04079
41.72744 142.25462 152.06434
41.73142 154.59944 152.06942
41.73543 142.58726 152.04734
41.73942 145.96754 151.99045
41.74341 161.92349 151.89471
41.74740 144.22113 151.76107
41.75140 151.67654 151.59356
41.75538 158.26121 151.40186
41.75936 141.83252 151.19359
41.76338 144.56827 150.97678
41.76736 153.10607 150.76187
41.77136 161.34279 150.55313
41.77535 150.11061 150.35586
41.77936 162.77890 150.17045
41.78335 151.37555 149.99988
41.78733 140.54082 149.84446
41.79135 150.13600 149.70212
41.79534 143.75000 149.57389
41.79932 155.86307 149.45821
41.80331 148.71708 149.35378
41.80730 153.68596 149.25977
41.81128 149.45295 149.17536
41.81528 148.01515 149.09913
41.81930 137.99922 149.03025
41.82329 151.74657 148.96883
41.82728 147.85314 148.91387
41.83127 143.02071 148.86438
41.83527 152.56729 148.82007
41.83926 154.68492 148.78051
41.84326 144.50055 148.74523
41.84726 154.88706 148.71384
41.85124 145.11575 148.68616
41.85521 139.46893 148.66178
41.85922 141.80668 148.64025
41.86321 158.36433 148.62154
41.86720 155.21844 148.60540
41.87119 154.84677 148.59156
41.87521 150.93947 148.57977
41.87920 143.84034 148.57008
41.88320 151.76434 148.56217
41.88720 150.92965 148.55595
41.89118 143.99230 148.55135
41.89517 148.17127 148.54827
41.89916 144.85100 148.54665
41.90317 145.01951 148.54646
41.90713 146.65159 148.54756
41.91113 155.68333 148.55016
41.91514 152.73966 148.55415
41.91913 149.79910 148.55946
41.92312 154.85281 148.56610
41.92711 158.34168 148.57404
41.93113 145.63801 148.58333
41.93512 150.68422 148.59383
41.93910 153.93016 148.60556
41.94311 152.07978 148.61859
41.94709 159.83143 148.63272
41.95107 147.22587 148.64810
41.95507 146.68782 148.66469
41.95907 147.70895 148.68251
41.96305 152.35320 148.70141
41.96705 150.93163 148.72159
41.97107 152.24428 148.74308
41.97505 149.57937 148.76557
41.97904 152.94776 148.78933
41.98304 154.71193 148.81437
41.98703 148.91073 148.84050
41.99103 143.32519 148.86802
41.99501 152.70193 148.89666
41.99902 144.14040 148.92675
42.00300 145.39026 148.95794
42.00698 158.47968 148.99046
42.01100 153.46824 149.02403
42.01498 156.48736 149.05925
42.01897 144.70607 149.09591
42.02296 158.98582 149.13388
42.02698 151.24171 149.17353
42.03097 143.75244 149.21449
42.03495 152.60668 149.25674
42.03896 147.02939 149.30093
42.04295 147.28329 149.34643
42.04693 146.33893 149.39369
42.05092 148.69115 149.44282
42.05492 148.28487 149.49403
42.05890 144.94034 149.54693
42.06289 160.89385 149.60222
42.06692 151.62821 149.66017
42.07091 142.38944 149.72010
42.07489 158.02674 149.78238
42.07890 142.64735 149.84749
42.08289 149.40066 149.91506
42.08688 146.34591 149.98529
42.09087 149.03346 150.05854
42.09487 146.73941 150.13479
42.09886 143.65718 150.21384
42.10283 148.24055 150.29564
42.10683 148.72788 150.38123
42.11083 154.84743 150.46993
42.11482 140.55515 150.56173
42.11881 145.97250 150.65688
42.12283 155.71928 150.75627
42.12682 156.06208 150.85809
42.13081 159.25570 150.96369
42.13481 145.89666 151.07307
42.13880 153.33870 151.18565
42.14280 146.93772 151.30055
42.14678 144.76912 151.42092
42.15078 143.06137 151.54629
42.15475 155.58787 151.67495
42.15875 154.94001 151.80940
42.16275 148.77729 151.94964
42.16674 149.43559 152.09528
42.17074 148.57529 152.24775
42.17473 153.68618 152.40699
42.18272 165.57813 152.75098
42.18672 148.36556 152.93746
42.19073 154.35553 153.13341
42.19471 145.64531 153.33849
42.19870 162.86256 153.55507
42.20268 157.58221 153.78170
42.20669 153.77822 154.02009
42.21066 144.67411 154.26602
42.21466 142.96661 154.52107
42.21868 154.23189 154.78379
42.22267 157.80321 155.04672
42.22666 148.73479 155.30890
42.23065 146.22495 155.56503
42.23464 160.13292 155.81030
42.23865 155.69298 156.04048
42.24263 154.52224 156.24800
42.24664 154.89430 156.43166
42.25062 162.67383 156.58592
42.25460 157.55355 156.71132
42.25861 153.83418 156.80846
42.26259 157.49013 156.87824
42.26658 146.07413 156.92475
42.27058 139.52764 156.95176
42.27459 150.28932 156.96352
42.27858 152.87879 156.96414
42.28257 153.11502 156.95735
42.28658 150.80426 156.94611
42.29057 163.59791 156.93290
42.29456 146.40604 156.91945
42.29854 159.04284 156.90711
42.30254 148.48465 156.89674
42.30652 156.69996 156.88912
42.31051 151.15887 156.88474
42.31451 147.10733 156.88415
42.31850 160.96454 156.88783
42.32249 147.69423 156.89640
42.32649 155.80105 156.91048
42.33050 152.64599 156.93026
42.33449 150.13822 156.95747
42.33849 157.82165 156.99269
42.34249 153.46078 157.03683
42.34647 144.04504 157.09076
42.35045 149.88388 157.15587
42.35445 150.48714 157.23376
42.35844 159.20088 157.32537
42.36243 148.01168 157.43178
42.36643 159.25046 157.55332
42.37044 156.11579 157.68964
42.37442 144.23763 157.83520
42.37842 155.06169 157.98532
42.38242 146.96610 158.12763
42.38642 153.98783 158.24613
42.39041 153.55485 158.32139
42.39440 150.18799 158.33445
42.39841 145.24705 158.27098
42.40237 150.77882 158.12965
42.40636 160.44002 157.91579
42.41037 159.36296 157.64590
42.41435 171.19290 157.34455
42.41834 160.03529 157.02918
42.42234 155.25920 156.71732
42.42635 156.52693 156.41868
42.43033 154.28742 156.14542
42.43433 170.42034 155.89596
42.43834 156.70606 155.67154
42.44232 161.58473 155.47419
42.44631 157.97395 155.29890
42.45030 150.70253 155.14556
42.45431 157.57308 155.01100
42.45828 157.44234 154.89534
42.46227 153.69458 154.79508
42.46629 158.21027 154.70872
42.47027 157.70702 154.63682
42.47427 150.18799 154.57694
42.47827 152.71294 154.52879
42.48226 154.95313 154.49159
42.48626 157.24918 154.46476
42.49025 148.93176 154.44794
42.49426 150.82010 154.44082
42.49824 142.44985 154.44322
42.50222 146.87273 154.45495
42.50622 150.69700 154.47591
42.51020 155.14045 154.50627
42.51420 157.49747 154.54615
42.51819 163.09380 154.59549
42.52221 161.94290 154.65470
42.52620 161.24143 154.72287
42.53020 155.13442 154.80092
42.53420 153.09020 154.88849
42.53818 153.57712 154.98530
42.54218 150.75755 155.09190
42.54618 159.12244 155.20795
42.55017 151.15661 155.33319
42.55414 161.27277 155.46722
42.55813 150.85933 155.61149
42.56213 161.50098 155.76638
42.56612 169.58640 155.93074
42.57012 157.37909 156.10781
42.57412 143.92555 156.29773
42.57813 150.54237 156.50297
42.58212 163.61869 156.72405
42.58611 148.63184 156.96423
42.59011 157.37909 157.22571
42.59410 157.98067 157.50797
42.59808 155.67993 157.81117
42.60207 157.11676 158.13482
42.60607 153.02076 158.47413
42.61005 160.65714 158.82211
42.61404 165.11525 159.17782
42.61805 159.36998 159.54242
42.62204 158.22900 159.91673
42.62604 147.94258 160.31406
42.63004 159.05026 160.74818
42.63403 149.77311 161.22582
42.63802 158.81202 161.75112
42.64203 167.07910 162.31169
42.64602 152.34542 162.87394
42.65000 153.53138 163.38311
42.65398 158.07533 163.77689
42.65798 154.28483 163.99604
42.66196 152.52898 164.00506
42.66596 156.40375 163.81629
42.66995 160.43945 163.47760
42.67397 151.69020 163.05188
42.67795 152.11844 162.60738
42.68195 163.71360 162.18520
42.68596 143.37326 161.81723
42.68994 152.12435 161.52149
42.69394 160.18236 161.30242
42.69792 152.77778 161.16118
42.70193 143.60834 161.08930
42.70590 157.96429 161.07242
42.70989 153.71270 161.08528
42.71390 153.86011 161.09081
42.71788 138.58284 161.05539
42.72189 155.92763 160.93508
42.72588 155.95915 160.70325
42.72988 164.51057 160.34939
42.73387 145.59387 159.88854
42.73786 160.60096 159.35069
42.74187 156.79776 158.76979
42.74585 160.63633 158.18720
42.74984 162.74555 157.62471
42.75384 152.45789 157.09938
42.75783 150.57995 156.62132
42.76181 149.99741 156.19480
42.76581 146.78139 155.81658
42.76983 147.35481 155.48313
42.77381 160.84459 155.19567
42.77780 160.71868 154.94625
42.78181 148.83625 154.73077
42.78579 156.36326 154.54773
42.78979 160.97371 154.39163
42.79379 155.52855 154.26037
42.79778 160.04348 154.15103
42.80177 154.94562 154.06163
42.80574 157.93832 153.99003
42.80975 159.08973 153.93329
42.81373 156.90333 153.89112
42.81774 150.28917 153.86123
42.82173 158.41379 153.84252
42.82573 161.26486 153.83349
42.82973 148.87670 153.83292
42.83371 159.62320 153.83959
42.83772 155.45436 153.85240
42.84171 152.44605 153.87011
42.84570 154.71444 153.89174
42.84969 149.47466 153.91630
42.85370 150.72854 153.94295
42.85766 154.47133 153.97052
42.86165 146.56678 153.99864
42.86567 154.01136 154.02672
42.86966 150.71099 154.05371
42.87366 156.91145 154.07941
42.87765 161.36540 154.10324
42.88165 155.78370 154.12484
42.88564 157.30918 154.14385
42.88963 162.69292 154.15990
42.89364 160.20491 154.17269
42.89763 155.23531 154.18177
42.90160 156.24596 154.18677
42.90560 150.25223 154.18738
42.90959 149.32174 154.18250
42.91358 161.42593 154.17315
42.91757 157.27256 154.15835
42.92159 154.62037 154.13770
42.92558 152.84187 154.11152
42.92957 153.49012 154.07965
42.93357 150.82629 154.04218
42.93756 157.24612 153.99969
42.94156 151.89219 153.95231
42.94554 159.46019 153.90079
42.94955 161.02660 153.84521
42.95353 158.54084 153.78665
42.95750 148.95075 153.72531
42.96151 169.24867 153.66091
42.96550 158.07169 153.59452
42.96950 161.65584 153.52570
42.97350 157.42249 153.45496
42.97750 156.59302 153.38218
42.98149 149.37995 153.30809
42.98548 157.55398 153.23245
42.98949 160.31028 153.15557
42.99347 162.70976 153.07848
42.99747 157.26646 153.00153
43.00145 150.39305 152.92574
43.00545 157.04125 152.85137
43.00942 153.10411 152.78016
43.01342 148.12708 152.71190
43.01743 159.82012 152.64769
43.02142 158.40356 152.58866
43.02542 154.96819 152.53514
43.02942 157.57027 152.48751
43.03341 161.32994 152.44647
43.03740 145.82687 152.41211
43.04139 156.02800 152.38461
43.04540 155.54464 152.36404
43.04939 163.41094 152.35059
43.05336 159.66908 152.34414
43.05736 155.18312 152.34459
43.06135 149.01890 152.35183
43.06534 164.15883 152.36576
43.06934 157.88112 152.38616
43.07335 161.58899 152.41293
43.07734 158.61240 152.44546
43.08133 154.95617 152.48380
43.08534 156.63149 152.52792
43.08933 163.15136 152.57703
43.09332 161.48041 152.63139
43.09729 161.00655 152.69041
43.10131 153.87598 152.75526
43.10528 155.43412 152.82432
43.10927 158.35853 152.89886
43.11329 151.53434 152.97951
43.11727 164.68643 153.06524
43.12127 150.69183 153.15753
43.12526 160.98575 153.25617
43.12927 160.79156 153.36190
43.13326 155.07282 153.47387
43.13725 157.33909 153.59337
43.14126 159.47324 153.72066
43.14524 165.52152 153.85313
43.14922 165.24871 153.99082
43.15321 168.47981 154.13217
43.15721 164.72260 154.27452
43.16119 157.55806 154.41378
43.16518 159.11968 154.54653
43.16921 170.48757 154.66892
43.17318 163.18310 154.77305
43.17718 170.47876 154.85649
43.18119 172.93612 154.91487
43.18518 157.56934 154.94516
43.18917 180.14901 154.94698
43.19316 171.26109 154.92157
43.19716 167.18114 154.87160
43.20115 163.87683 154.80210
43.20512 165.02937 154.71852
43.20913 159.94834 154.62538
43.21311 160.16533 154.52991
43.21711 169.70261 154.43652
43.22111 159.11968 154.35049
43.22512 167.43321 154.27573
43.22911 162.87091 154.21655
43.23310 161.92074 154.17533
43.23711 164.04323 154.15395
43.24109 176.24195 154.15374
43.24509 165.74100 154.17433
43.24906 155.00071 154.21361
43.25307 161.17367 154.26793
43.25705 155.27566 154.33087
43.26104 163.38545 154.39503
43.26505 160.94626 154.45319
43.26904 157.16849 154.49883
43.27303 157.95587 154.52934
43.27703 156.78579 154.54390
43.28103 160.27056 154.54210
43.28502 156.51456 154.52299
43.28901 147.73681 154.48494
43.29302 156.52062 154.42612
43.29701 157.34455 154.34655
43.30098 161.61199 154.24817
43.30498 154.34216 154.13292
43.30896 169.09260 154.00715
43.31295 145.17482 153.87589
43.31694 158.28507 153.74487
43.32097 152.10185 153.61835
43.32496 155.48615 153.50204
43.32894 154.22333 153.39779
43.33295 150.72913 153.30666
43.33694 155.14751 153.23064
43.34094 157.08535 153.16915
43.34491 161.48892 153.12244
43.34893 150.90445 153.08923
43.35289 152.94512 153.06949
43.35689 160.07642 153.06174
43.36089 166.61935 153.06512
43.36487 160.35750 153.07845
43.36888 150.68635 153.10062
43.37288 151.75760 153.13035
43.37689 152.30037 153.16638
43.38088 156.04923 153.20710
43.38486 157.01648 153.25116
43.38887 151.67539 153.29762
43.39285 158.46078 153.34421
43.39685 165.16555 153.39009
43.40083 156.42170 153.43351
43.40483 152.90567 153.47354
43.40881 155.83678 153.50854
43.41280 151.14208 153.53759
43.41681 152.73478 153.55977
43.42079 159.72760 153.57421
43.42478 152.70129 153.58055
43.42878 155.58221 153.57840
43.43279 150.76051 153.56791
43.43678 154.21538 153.54936
43.44077 154.70496 153.52312
43.44478 152.98181 153.48970
43.44876 154.74686 153.45030
43.45274 159.41637 153.40567
43.45675 160.26608 153.35620
43.46073 151.62455 153.30357
43.46473 148.33153 153.24817
43.46872 166.15496 153.19111
43.47274 147.77550 153.13265
43.47672 157.49127 153.07443
43.48071 151.62259 153.01643
43.48473 150.98037 152.95866
43.48871 147.86554 152.90258
43.49270 159.44514 152.84760
43.49668 152.25128 152.79447
43.50070 156.12674 152.74247
43.50466 151.99990 152.69282
43.50865 155.48596 152.64465
43.51267 166.44752 152.59796
43.51664 160.72833 152.55337
43.52065 152.50068 152.51020
43.52464 147.85601 152.46868
43.52865 148.31049 152.42862
43.53265 154.68303 152.39022
43.53663 153.62211 152.35341
43.54064 145.98314 152.31784
43.54463 148.09849 152.28393
43.54862 141.18435 152.25140
43.55260 148.94467 152.22045
43.55659 149.09906 152.19089
43.56058 150.05282 152.16287
43.56457 158.53423 152.13637
43.56859 157.94629 152.11135
43.57258 160.45786 152.08817
43.57657 148.43639 152.06664
43.58058 147.57752 152.04674
43.58456 155.23573 152.02876
43.58856 148.02025 152.01249
43.59255 159.87433 151.99812
43.59655 153.72925 151.98556
43.60053 160.52547 151.97498
43.60451 151.86678 151.96632
43.60852 151.21549 151.95957
43.61249 151.28562 151.95486
43.61649 162.13498 151.95215
43.62049 149.39790 151.95151
43.62450 149.17262 151.95299
43.62849 152.77563 151.95660
43.63249 151.86091 151.96241
43.63649 150.72942 151.97049
43.64047 148.14052 151.98085
43.64448 158.63206 151.99365
43.64845 152.87149 152.00881
43.65246 151.09897 152.02668
43.65643 152.10223 152.04711
43.66042 154.71377 152.07031
43.66443 158.72198 152.09640
43.66842 143.98270 152.12550
43.67242 149.94851 152.15793
43.67642 165.33526 152.19369
43.68041 155.28582 152.23285
43.68441 154.85797 152.27564
43.68840 148.90139 152.32201
43.69240 158.42604 152.37243
43.69639 157.02639 152.42648
43.70037 157.03448 152.48415
43.70437 146.52619 152.54569
43.70835 158.81149 152.61042
43.71234 153.73321 152.67822
43.71633 143.12928 152.74833
43.72035 159.83934 152.82036
43.72434 150.16415 152.89209
43.72833 159.61692 152.96254
43.73233 157.36962 153.03026
43.73632 149.30944 153.09273
43.74032 158.38729 153.14846
43.74431 162.95629 153.19505
43.74831 152.88330 153.23093
43.75230 155.49756 153.25368
43.75627 157.31696 153.26441
43.76028 152.77510 153.26202
43.76426 158.83194 153.24706
43.76826 152.86559 153.22039
43.77227 155.44375 153.18375
43.77626 155.51956 153.13919
43.78025 153.78479 153.08852
43.78424 154.38452 153.03392
43.78825 148.29118 152.97675
43.79224 152.06152 152.91916
43.79625 154.43220 152.86194
43.80021 154.02435 152.80685
43.80422 164.67470 152.75336
43.80819 157.06658 152.70344
43.81218 154.23423 152.65641
43.81620 155.66566 152.61242
43.82019 147.71193 152.57233
43.82417 153.16718 152.53566
43.82819 158.46271 152.50216
43.83218 157.90625 152.47215
43.83617 147.83549 152.44526
43.84017 164.61540 152.42143
43.84417 165.69966 152.40048
43.84815 143.10349 152.38237
43.85213 162.98392 152.36686
43.85613 155.23986 152.35380
43.86012 163.55290 152.34318
43.86411 141.82974 152.33483
43.86810 154.24813 152.32867
43.87212 163.12887 152.32460
43.87610 152.12413 152.32260
43.88009 146.40361 152.32255
43.88410 143.24119 152.32443
43.88809 151.80305 152.32815
43.89209 156.34442 152.33370
43.89608 154.03401 152.34101
43.90008 152.48286 152.35036
43.90405 160.77402 152.36109
43.90804 143.12337 152.37359
43.91205 150.18838 152.38787
43.91603 154.27734 152.40373
43.92003 158.76403 152.42134
43.92402 162.78232 152.44075
43.92802 151.05989 152.46201
43.93203 154.46914 152.48508
43.93601 152.21248 152.50992
43.94002 160.30662 152.53680
43.94401 149.59425 152.56555
43.94800 160.56950 152.59634
43.95199 150.90073 152.62914
43.95598 147.30995 152.66355
43.95996 147.64169 152.70063
43.96395 152.82563 152.73995
43.96797 144.98715 152.78177
43.97196 149.68067 152.82554
43.97595 157.36896 152.87147
43.97995 152.36137 152.91986
43.98394 155.70925 152.97001
43.98794 156.01634 153.02243
43.99194 156.89903 153.07669
43.99594 164.56884 153.13266
43.99992 151.66266 153.18998
44.00389 153.34018 153.24828
44.00790 164.00560 153.30824
44.01188 164.32510 153.36828
44.01587 155.86886 153.42881
44.01987 154.70748 153.48945
44.02388 148.69277 153.54952
44.02788 157.01789 153.60833
44.03187 155.05430 153.66555
44.03587 155.60723 153.72089
44.03986 149.85976 153.77361
44.04386 153.44072 153.82340
44.04783 153.76906 153.86947
44.05184 152.59444 153.91224
44.05581 149.88627 153.95059
44.05980 151.28080 153.98490
44.06382 153.68021 154.01504
44.06780 168.17434 154.04054
44.07179 152.87213 154.06162
44.07578 148.63927 154.07879
44.07979 160.00616 154.09217
44.08378 150.13625 154.10198
44.08778 146.07838 154.10869
44.09177 164.02667 154.11275
44.09577 159.65275 154.11463
44.09976 151.51749 154.11486
44.10375 155.93220 154.11394
44.10774 150.85808 154.11236
44.11172 153.49841 154.11051
44.11571 152.54542 154.10904
44.11973 163.06806 154.10828
44.12371 157.72854 154.10862
44.12771 151.65877 154.11040
44.13172 156.40133 154.11395
44.13570 152.32418 154.11951
44.13971 151.65877 154.12737
44.14369 151.00542 154.13764
44.14769 157.62231 154.15051
44.15167 161.92543 154.16616
44.15565 153.15234 154.18466
44.15966 154.03376 154.20632
44.16364 147.12644 154.23082
44.16763 159.89518 154.25853
44.17163 158.07799 154.28940
44.17564 154.27280 154.32356
44.17963 153.70389 154.36072
44.18362 166.25779 154.40091
44.18763 162.01024 154.44455
44.19162 162.58243 154.49099
44.19561 162.17466 154.54062
44.19959 158.55208 154.59294
44.20358 155.27599 154.64844
44.20757 143.59817 154.70600
44.21156 155.06264 154.76718
44.21557 157.74474 154.83121
44.21957 154.24112 154.89769
44.22355 148.73974 154.96621
44.22756 154.29063 155.03740
44.23156 156.91308 155.11075
44.23555 157.90960 155.18592
44.23953 158.80027 155.26264
44.24354 159.18252 155.34149
44.24753 154.21142 155.42132
44.25150 150.16241 155.50191
44.25551 154.88311 155.58405
44.25949 147.47680 155.66644
44.26348 153.76325 155.74950
44.26748 157.53126 155.83288
44.27150 163.07250 155.91561
44.27549 165.64464 155.99833
44.27947 157.85490 156.08003
44.28348 162.77101 156.16160
44.28747 153.56584 156.24147
44.29147 156.81646 156.32023
44.29545 148.63287 156.39712
44.29946 150.67421 156.47230
44.30343 154.95324 156.54536
44.30742 156.50633 156.61671
44.31143 159.08449 156.68644
44.31541 155.38165 156.75344
44.31941 154.38506 156.81865
44.32340 155.07458 156.88185
44.32741 157.03179 156.94343
44.33141 156.79232 157.00298
44.33539 159.12328 157.06082
44.33940 166.36073 157.11775
44.34338 163.99836 157.17336
44.34738 168.73436 157.22836
44.35136 159.43572 157.28281
44.35536 152.67411 157.33748
44.35933 160.57495 157.39197
44.36332 159.46844 157.44743
44.36734 155.55499 157.50410
44.37133 161.08553 157.56146
44.37532 158.33462 157.62025
44.37932 163.11038 157.68056
44.38332 161.32384 157.74214
44.38732 163.82253 157.80518
44.39130 161.05042 157.86892
44.39531 165.14091 157.93387
44.39929 163.06020 157.99860
44.40326 154.00192 158.06245
44.40727 154.09277 158.12583
44.41126 153.40640 158.18668
44.41525 161.06074 158.24464
44.41925 152.43566 158.29865
44.42326 161.08208 158.34788
44.42726 152.58800 158.39129
44.43123 154.47738 158.42823
44.43525 159.80102 158.45887
44.43924 164.13934 158.48255
44.44323 151.38462 158.49963
44.44722 166.28649 158.51050
44.45121 165.85091 158.51579
44.45519 161.44211 158.51628
44.45918 155.82951 158.51287
44.46319 168.96282 158.50649
44.46718 160.19075 158.49818
44.47118 157.86371 158.48885
44.47517 160.07994 158.47941
44.47917 164.47697 158.47064
44.48317 159.40505 158.46331
44.48716 169.15053 158.45806
44.49117 160.20487 158.45541
44.49516 155.67035 158.45585
44.49914 163.52878 158.45974
44.50312 161.21217 158.46743
44.50711 169.39463 158.47919
44.51110 164.61454 158.49525
44.51509 151.91820 158.51580
44.51912 156.02655 158.54121
44.52311 152.72261 158.57116
44.52709 175.85571 158.60582
44.53110 156.33644 158.64555
44.53509 154.76267 158.69003
44.53908 152.87081 158.73933
44.54308 161.58100 158.79338
44.54708 166.89733 158.85220
44.55106 154.56957 158.91491
44.55503 154.30921 158.98206
44.55904 155.08918 159.05378
44.56302 169.07037 159.12881
44.56701 166.80328 159.20739
44.57101 155.53478 159.28888
44.57502 161.71554 159.37325
44.57901 159.50449 159.45833
44.58300 151.80732 159.54518
44.58701 154.62004 159.63309
44.59099 160.64751 159.72016
44.59500 162.30963 159.80702
44.59897 156.33844 159.89172
44.60298 162.44799 159.97517
44.60695 158.01609 160.05569
44.61094 163.81065 160.13387
44.61496 161.34110 160.20947
44.61894 153.59770 160.28162
44.62294 170.50709 160.35116
44.62694 153.05809 160.41814
44.63093 159.30585 160.48293
44.63494 144.81770 160.54628
44.63891 160.81534 160.60819
44.64293 166.64321 160.67035
44.64691 160.09622 160.73223
44.65088 159.41194 160.79517
44.65489 155.73571 160.86046
44.65887 165.08359 160.92765
44.66286 177.90075 160.99801
44.66686 154.58838 161.07212
44.67088 164.35268 161.15057
44.67488 161.58306 161.23338
44.67886 162.78475 161.32046
44.68287 153.02282 161.41269
44.68685 149.74330 161.51059
44.69084 168.55687 161.61406
44.69485 164.97589 161.72319
44.69883 159.53103 161.83664
44.70281 161.17760 161.95371
44.70680 162.64659 162.07410
44.71080 158.91666 162.19610
44.71480 165.27572 162.31699
44.71880 157.21798 162.43477
44.72280 161.37207 162.54750
44.72679 155.14903 162.65342
44.73079 165.91441 162.75214
44.73478 155.81291 162.84408
44.73878 158.06063 162.93098
44.74277 163.12955 163.01446
44.74676 148.94760 163.09716
44.75074 169.30675 163.18117
44.75473 154.10000 163.26913
44.75872 154.34610 163.36194
44.76272 177.85510 163.46116
44.76673 174.00661 163.56797
44.77072 160.96538 163.68187
44.77472 165.14466 163.80404
44.77871 164.94212 163.93411
44.78270 160.24354 164.07247
44.78670 163.80996 164.21935
44.79069 162.73268 164.37439
44.79469 154.91463 164.53833
44.79867 171.27291 164.71017
44.80265 165.36833 164.89097
44.80665 161.64923 165.08179
44.81064 153.67301 165.28138
44.81463 165.12354 165.49059
44.81863 164.53073 165.70993
44.82265 152.40433 165.94110
44.82662 167.49108 166.18021
44.83063 164.63851 166.43203
44.83463 159.21213 166.69520
44.83861 155.25441 166.96801
44.84261 173.51271 167.25390
44.84660 170.14315 167.55055
44.85059 175.43546 167.85857
44.85457 167.35931 168.17571
44.85856 164.20428 168.50465
44.86258 151.95828 168.84362
44.86655 175.23995 169.18519
44.87056 163.62846 169.53237
44.87456 161.34969 169.87910
44.87855 166.24704 170.21980
44.88255 161.50671 170.55245
44.88653 166.93731 170.86722
44.89054 164.77142 171.16320
44.89453 166.66454 171.43018
44.89851 171.76377 171.66325
44.90251 170.72392 171.86246
44.90649 160.31900 172.02548
44.91048 169.69511 172.15399
44.91448 152.28945 172.25021
44.91850 169.04719 172.31877
44.92249 170.81705 172.36445
44.92648 164.53546 172.39415
44.93048 167.03297 172.41525
44.93447 172.68025 172.43439
44.93846 166.72413 172.45802
44.94246 172.41908 172.49201
44.94645 175.99264 172.54143
44.95043 176.87579 172.61054
44.95441 168.62976 172.70358
44.95841 170.24320 172.82432
44.96240 180.58645 172.97540
44.96640 168.75439 173.16029
44.97040 183.64741 173.38238
44.97441 175.83091 173.64538
