#------------------------------------------------------------------------------
#$Date: 2019-11-24 11:22:03 +0200 (Sun, 24 Nov 2019) $
#$Revision: 237781 $
#$URL: file:///home/coder/svn-repositories/cod/cif/7/23/75/7237570.cif $
#------------------------------------------------------------------------------
#
# This file is available in the Crystallography Open Database (COD),
# http://www.crystallography.net/
#
# All data on this site have been placed in the public domain by the
# contributors.
#
data_7237570
loop_
_publ_author_name
'Sun, Tiancheng'
'Wang, Ping'
'Fan, Ruiqing'
'Chen, Wei'
'Hao, Sue'
'Yang, Yulin'
_publ_section_title
;
 Functional microscale single-phase white emission lanthanide MOF for
 tunable fluorescent sensing and water quality monitoring
;
_journal_issue                   12
_journal_name_full               'Journal of Materials Chemistry C'
_journal_page_first              3598
_journal_paper_doi               10.1039/C8TC05968C
_journal_volume                  7
_journal_year                    2019
_chemical_formula_sum            'C14 H12 Eu N O10'
_chemical_formula_weight         506.21
_space_group_crystal_system      triclinic
_space_group_IT_number           2
_space_group_name_Hall           '-P 1'
_space_group_name_H-M_alt        'P -1'
_atom_sites_solution_hydrogens   mixed
_audit_creation_method           SHELXL-2014/7
_audit_update_record
;
2018-10-12 deposited with the CCDC.	2019-02-19 downloaded from the CCDC.
;
_cell_angle_alpha                110.0910(10)
_cell_angle_beta                 94.3350(10)
_cell_angle_gamma                103.1810(10)
_cell_formula_units_Z            2
_cell_length_a                   5.9995(8)
_cell_length_b                   11.7780(15)
_cell_length_c                   12.5839(16)
_cell_measurement_reflns_used    2801
_cell_measurement_temperature    293(2)
_cell_measurement_theta_max      24.997
_cell_measurement_theta_min      2.983
_cell_volume                     801.49(18)
_computing_structure_refinement  'SHELXL-2014/7 (Sheldrick, 2014)'
_diffrn_ambient_temperature      293(2)
_diffrn_measured_fraction_theta_full 0.998
_diffrn_measured_fraction_theta_max 0.998
_diffrn_measurement_device_type  'Bruker Smart APEX CCD area detector'
_diffrn_measurement_method       'phi and omega scans'
_diffrn_radiation_type           MoK\a
_diffrn_radiation_wavelength     0.71073
_diffrn_reflns_av_R_equivalents  0.0199
_diffrn_reflns_av_unetI/netI     0.0307
_diffrn_reflns_Laue_measured_fraction_full 0.998
_diffrn_reflns_Laue_measured_fraction_max 0.998
_diffrn_reflns_limit_h_max       7
_diffrn_reflns_limit_h_min       -7
_diffrn_reflns_limit_k_max       13
_diffrn_reflns_limit_k_min       -13
_diffrn_reflns_limit_l_max       14
_diffrn_reflns_limit_l_min       -14
_diffrn_reflns_number            5560
_diffrn_reflns_point_group_measured_fraction_full 0.998
_diffrn_reflns_point_group_measured_fraction_max 0.998
_diffrn_reflns_theta_full        24.999
_diffrn_reflns_theta_max         24.999
_diffrn_reflns_theta_min         1.748
_diffrn_source                   'fine-focus sealed tube'
_exptl_absorpt_coefficient_mu    3.971
_exptl_absorpt_correction_T_max  0.408
_exptl_absorpt_correction_T_min  0.397
_exptl_absorpt_correction_type   multi-scan
_exptl_absorpt_process_details   '(SADABS; Sheldrick, 2003)'
_exptl_crystal_colour            colorless
_exptl_crystal_density_diffrn    2.098
_exptl_crystal_description       flake
_exptl_crystal_F_000             492
_exptl_crystal_size_max          0.300
_exptl_crystal_size_mid          0.280
_exptl_crystal_size_min          0.260
_refine_diff_density_max         0.805
_refine_diff_density_min         -1.152
_refine_diff_density_rms         0.319
_refine_ls_extinction_method     none
_refine_ls_goodness_of_fit_ref   0.890
_refine_ls_hydrogen_treatment    constr
_refine_ls_matrix_type           full
_refine_ls_number_parameters     277
_refine_ls_number_reflns         2801
_refine_ls_number_restraints     12
_refine_ls_restrained_S_all      0.893
_refine_ls_R_factor_all          0.0350
_refine_ls_R_factor_gt           0.0282
_refine_ls_shift/su_max          0.000
_refine_ls_shift/su_mean         0.000
_refine_ls_structure_factor_coef Fsqd
_refine_ls_weighting_details
'w=1/[\s^2^(Fo^2^)+(0.1000P)^2^] where P=(Fo^2^+2Fc^2^)/3'
_refine_ls_weighting_scheme      calc
_refine_ls_wR_factor_gt          0.0820
_refine_ls_wR_factor_ref         0.1042
_reflns_Friedel_coverage         0.000
_reflns_number_gt                2564
_reflns_number_total             2801
_reflns_threshold_expression     'I > 2\s(I)'
_cod_data_source_file            c8tc05968c2.cif
_cod_data_source_block           s
_cod_database_code               7237570
_shelx_shelxl_version_number     2014/7
_shelx_space_group_comment
;
The symmetry employed for this shelxl refinement is uniquely defined
by the following loop, which should always be used as a source of
symmetry information in preference to the above space-group names.
They are only intended as comments.
;
_shelx_estimated_absorpt_t_min   0.382
_shelx_estimated_absorpt_t_max   0.425
_shelx_res_file
;

    s.res created by SHELXL-2014/7

TITL s in  P-1
CELL 0.71073 5.9995 11.778 12.5839 110.091 94.335 103.181
ZERR 2 0.0008 0.0015 0.0016 0.001 0.001 0.001
LATT 1
SFAC C H Eu N O
UNIT 28 24 2 2 20
ISOR 0.02 0.04 C2 N1

L.S. 7
PLAN  -20
SIZE 0.3 0.28 0.26
BOND $H
CONF
fmap 2
acta 50
OMIT 0 50

WGHT    0.100000
FVAR       0.14051   0.56524
EU1   3    0.377343   -0.114135    0.095596    11.00000    0.02515    0.02652 =
         0.02749    0.01019    0.00770    0.00064
O2    5    1.391836    0.904114    0.301236    11.00000    0.03288    0.06623 =
         0.04234    0.02521    0.00700   -0.00856
O3    5    1.065832    0.792192    0.181253    11.00000    0.04011    0.05622 =
         0.03471    0.01839    0.00468   -0.00877
O4    5    0.253350    0.072723    0.198612    11.00000    0.04547    0.03258 =
         0.03613    0.01310    0.01694    0.00334
O5    5    0.435696    0.103472    0.062647    11.00000    0.03341    0.03499 =
         0.02922    0.00537    0.01026    0.00457
O6    5   -0.038153    0.147145    0.041798    11.00000    0.03139    0.02241 =
         0.03899    0.00411   -0.00167    0.00058
O7    5   -0.142459    0.315975    0.056113    11.00000    0.04606    0.03031 =
         0.06811    0.01060    0.00096    0.00977
N1    4    1.079732    0.869262    0.577087    11.00000    0.12195    0.07126 =
         0.03609   -0.00945    0.03200   -0.05715
PART 1
O1    5    0.734927    0.551826    0.440513    21.00000    0.04942    0.03415 =
         0.02502    0.01197   -0.01275   -0.01995
C1    1    0.960917    0.751102    0.561089    21.00000    0.03657    0.04982 =
         0.02085    0.01158   -0.00158   -0.01267
AFIX  43
H1    2    0.939371    0.726961    0.623435    21.00000   -1.20000
AFIX   0
C2    1    0.871924    0.666696    0.450594    21.00000    0.02239    0.02437 =
         0.02104   -0.00207   -0.00370   -0.00925
C3    1    0.936523    0.698787    0.360114    21.00000    0.02649    0.03617 =
         0.02176    0.00672   -0.00249    0.00132
AFIX  43
H3    2    0.881440    0.640774    0.285625    21.00000   -1.20000
AFIX   0
PART 0
PART 2
O1A   5    0.482051    0.655107    0.405212   -21.00000    0.04303    0.03344 =
         0.05423    0.00205    0.02031   -0.00461
C1A   1    0.813888    0.800492    0.539411   -21.00000    0.07374    0.04987 =
         0.02150    0.00068    0.01430   -0.01570
AFIX  43
H1A   2    0.722749    0.807224    0.596690   -21.00000   -1.20000
AFIX   0
C2A   1    0.705481    0.730985    0.428015   -21.00000    0.04337    0.02360 =
         0.04231    0.00693    0.00238   -0.01018
C3A   1    0.831750    0.737332    0.341659   -21.00000    0.04318    0.04570 =
         0.02697    0.00306    0.00486   -0.01476
AFIX  43
H3A   2    0.765089    0.695404    0.264680   -21.00000   -1.20000
AFIX   0
PART 0
C4    1    1.080540    0.814513    0.377001    11.00000    0.06136    0.03690 =
         0.03627    0.00594    0.02098   -0.01197
C5    1    1.169597    0.888850    0.490557    11.00000    0.06009    0.04242 =
         0.03649    0.00842    0.01076   -0.01962
AFIX  43
H5    2    1.299881    0.956296    0.506800    11.00000   -1.20000
AFIX   0
C6    1    0.576906    0.478428    0.349955    11.00000    0.06412    0.04297 =
         0.03269   -0.00324    0.01280   -0.02744
PART 2
AFIX  43
H6    2    0.705011    0.525177    0.407310   -21.00000   -1.20000
AFIX   0
PART 0
C7    1    0.550052    0.353345    0.293723    11.00000    0.04355    0.04897 =
         0.03922    0.01588    0.00527   -0.00468
AFIX  43
H7    2    0.657567    0.315798    0.314596    11.00000   -1.20000
AFIX   0
C8    1    0.366024    0.281883    0.206495    11.00000    0.02772    0.02920 =
         0.02592    0.00339    0.01093   -0.00683
C9    1    0.201459    0.338310    0.177507    11.00000    0.03871    0.02487 =
         0.03618    0.00413    0.01607    0.00266
C10   1    0.231655    0.467175    0.236145    11.00000    0.05126    0.02719 =
         0.07691    0.00155    0.02679    0.00138
AFIX  43
H10   2    0.125552    0.505976    0.216142    11.00000   -1.20000
AFIX   0
C11   1    0.419155    0.537208    0.323945    11.00000    0.07642    0.02564 =
         0.06030   -0.01454    0.03204   -0.01891
PART 1
AFIX  43
H11   2    0.437622    0.622240    0.364363    21.00000   -1.20000
AFIX   0
PART 0
C12   1    1.187495    0.839652    0.282128    11.00000    0.03723    0.03819 =
         0.03358    0.01505    0.01101    0.00127
C13   1    0.343382    0.143987    0.149719    11.00000    0.02172    0.02966 =
         0.03053    0.00893    0.00469    0.00256
C14   1   -0.004826    0.263074    0.086427    11.00000    0.03388    0.02460 =
         0.03477    0.00951    0.01253    0.00207
O1W   5    0.755683    0.011370    0.192147    11.00000    0.02991    0.05509 =
         0.03700    0.01934    0.00678   -0.00472
AFIX   7
H1WA  2    0.844553    0.014850    0.143157    11.00000   -1.50000
H1WB  2    0.808043   -0.021110    0.235927    11.00000   -1.50000
AFIX   0
O2W   5    0.586556   -0.266033    0.098601    11.00000    0.04573    0.04290 =
         0.08488    0.02352   -0.00473    0.00841
AFIX   7
H2WA  2    0.502864   -0.323724    0.117630    11.00000   -1.50000
H2WB  2    0.713774   -0.229694    0.147713    11.00000   -1.50000
AFIX   6

O3W   5    0.261749    0.483700    0.959117    11.00000    0.24123    0.08048 =
         0.23344    0.05286   -0.00364    0.04174
H3WA  2    0.151066    0.416632    0.934270    11.00000   -1.50000
H3WB  2    0.206553    0.546812    0.974471    11.00000   -1.50000
AFIX   0
HKLF 4

REM  s in  P-1
REM R1 =  0.0282 for    2564 Fo > 4sig(Fo)  and  0.0350 for all    2801 data
REM    277 parameters refined using     12 restraints

END

WGHT      0.0639      0.0000

REM Highest difference peak  0.805,  deepest hole -1.152,  1-sigma level  0.319
Q1    1   0.4763  0.5070  0.3369  11.00000  0.05    0.75
Q2    1   0.4003 -0.1496  0.1485  11.00000  0.05    0.75
Q3    1   0.8590  0.5985  0.4346  11.00000  0.05    0.74
Q4    1   0.6352  0.5612  0.4210  11.00000  0.05    0.72
Q5    1   0.6431  0.8989  0.5178  11.00000  0.05    0.67
Q6    1   0.7418  0.6637  0.4563  11.00000  0.05    0.66
Q7    1   0.9666  0.5264  0.4786  11.00000  0.05    0.66
Q8    1   0.8610  0.7233  0.4917  11.00000  0.05    0.65
Q9    1   0.3745 -0.1949  0.0552  11.00000  0.05    0.64
Q10   1   1.0221  0.6794  0.3803  11.00000  0.05    0.64
Q11   1   1.1470  0.5743  0.5213  11.00000  0.05    0.62
Q12   1   0.5110  0.6025  0.3985  11.00000  0.05    0.61
Q13   1   0.2983  0.5164  0.3260  11.00000  0.05    0.60
Q14   1   0.3273  0.6195  0.5120  11.00000  0.05    0.58
Q15   1   0.7117  0.4975  0.5672  11.00000  0.05    0.58
Q16   1   0.5000  0.5000  0.5000  10.50000  0.05    0.57
Q17   1   0.3269  0.6444  0.3281  11.00000  0.05    0.56
Q18   1   0.4612  0.6223  0.4760  11.00000  0.05    0.56
Q19   1   1.1405  0.5818  0.3434  11.00000  0.05    0.56
Q20   1   0.9402  0.5796  0.3472  11.00000  0.05    0.55
;
_shelx_res_checksum              76351
_shelx_hkl_file
;
  -1   0   0  113.62    2.20
   1   0   0  115.98    2.04
   1   0   0  117.36    2.16
  -2   0   0    0.22    0.18
   2   0   0    0.23    0.06
   2   0   0    0.50    0.16
  -3   0   0   59.87    1.59
   3   0   0   60.54    1.47
  -4   0   0   87.66    2.27
   4   0   0   84.81    2.08
  -5   0   0   55.07    1.87
   5   0   0   54.69    1.66
  -6   0   0    0.91    0.62
   6   0   0    1.48    0.51
  -7   0   0    7.04    1.11
   7   0   0    6.15    0.79
   7  -1   0   -0.53    0.41
  -7   1   0   -0.56    0.61
   6  -1   0   20.24    1.08
  -6   1   0   18.33    1.32
   5  -1   0   58.37    1.71
  -5   1   0   57.78    1.90
   4  -1   0   52.25    1.46
  -4   1   0   54.30    1.62
   3  -1   0    0.34    0.21
  -3   1   0    0.37    0.08
  -3   1   0    0.54    0.26
   2  -1   0   15.60    0.50
  -2   1   0   15.59    0.58
  -2   1   0   15.36    0.36
   1  -1   0  132.32    2.42
   1  -1   0  134.17    2.49
  -1   1   0  128.50    2.37
   0  -1   0    0.04    0.04
   0   1   0   -0.02    0.01
  -1  -1   0    0.08    0.12
   1   1   0    0.04    0.10
   1   1   0   -0.01    0.09
  -2  -1   0   16.75    0.63
   2   1   0   16.37    0.56
   2   1   0   16.57    0.41
  -3  -1   0  244.55    4.89
   3   1   0  246.48    4.39
   3   1   0  245.20    4.76
  -4  -1   0   43.40    1.48
   4   1   0   44.48    1.34
  -5  -1   0    2.97    0.66
   5   1   0    3.19    0.54
  -6  -1   0    6.77    0.97
   6   1   0    9.19    0.87
  -7  -1   0   14.06    1.46
   7   1   0   14.20    1.78
   7  -2   0   11.49    1.08
  -7   2   0    9.01    1.25
   6  -2   0   64.43    1.97
  -6   2   0   67.48    2.29
   5  -2   0   29.24    1.12
  -5   2   0   29.98    1.32
   4  -2   0    0.03    0.24
  -4   2   0   -0.38    0.28
   3  -2   0   83.63    1.82
  -3   2   0   79.94    1.60
  -3   2   0   83.98    1.98
   2  -2   0    3.49    0.26
   2  -2   0    4.04    0.36
  -2   2   0    3.59    0.21
   1  -2   0  562.92   10.07
   1  -2   0  562.36   10.28
  -1   2   0  549.97   10.30
   0  -2   0    2.58    0.25
   0   2   0    2.25    0.17
   0   2   0    2.36    0.15
  -1  -2   0   43.43    1.06
   1   2   0   44.62    0.97
   1   2   0   43.01    0.98
  -2  -2   0  193.92    3.77
   2   2   0  177.48    3.52
   2   2   0  195.92    3.67
  -3  -2   0   82.98    2.06
   3   2   0   81.50    1.64
   3   2   0   83.33    1.94
  -4  -2   0    1.75    0.48
   4   2   0    1.83    0.36
  -5  -2   0   12.69    1.03
   5   2   0   12.25    0.83
  -6  -2   0   26.99    1.62
   6   2   0   27.53    1.31
  -7  -2   0   11.25    2.21
   7  -3   0   17.86    1.12
  -7   3   0   17.88    1.41
   6  -3   0   25.44    1.18
  -6   3   0   21.35    1.36
   5  -3   0    1.88    0.40
  -5   3   0    1.21    0.44
   4  -3   0   41.43    1.18
  -4   3   0   38.20    1.33
  -4   3   0   38.65    1.05
   3  -3   0  283.91    5.47
   3  -3   0  284.57    5.27
  -3   3   0  272.25    5.12
   2  -3   0  134.42    2.75
   2  -3   0  131.38    2.56
  -2   3   0  131.98    2.55
   1  -3   0   32.46    0.72
   1  -3   0   34.19    0.90
  -1   3   0   31.69    0.80
   0  -3   0  152.73    3.09
   0   3   0  152.05    2.93
   0   3   0  156.73    2.87
  -1  -3   0  163.84    3.29
   1   3   0  163.85    3.16
   1   3   0  162.87    3.11
  -2  -3   0  202.17    4.03
   2   3   0  194.75    3.82
   2   3   0  201.12    3.88
  -3  -3   0   14.29    0.82
   3   3   0   12.28    0.63
   3   3   0   12.29    0.51
  -4  -3   0   12.79    0.97
   4   3   0   12.93    0.76
  -5  -3   0   50.47    1.91
   5   3   0   50.62    1.67
  -6  -3   0   26.79    1.68
   6   3   0   26.46    1.32
   7  -4   0   11.96    1.00
  -7   4   0   12.78    1.38
   6  -4   0    1.12    0.42
  -6   4   0    1.32    0.65
   5  -4   0    6.73    0.62
  -5   4   0    7.08    0.82
   4  -4   0  103.16    2.56
   4  -4   0  104.87    2.31
  -4   4   0  100.78    2.14
   3  -4   0   26.31    0.80
  -3   4   0   27.16    0.78
   2  -4   0    4.47    0.42
   2  -4   0    3.43    0.25
  -2   4   0    3.16    0.29
   1  -4   0   68.35    1.62
  -1   4   0   68.20    1.52
   0  -4   0  177.48    3.65
   0   4   0  178.78    3.36
  -1  -4   0  108.77    2.44
   1   4   0  104.93    2.17
   1   4   0  107.65    2.26
  -2  -4   0   34.12    1.20
   2   4   0   36.16    1.04
   2   4   0   34.59    1.00
  -3  -4   0   27.74    1.20
   3   4   0   26.72    0.90
   3   4   0   27.69    0.98
  -4  -4   0   60.82    2.00
   4   4   0   59.78    1.75
  -5  -4   0   36.00    1.71
   5   4   0   38.52    1.48
  -6  -4   0    0.33    0.81
   6   4   0   -0.44    0.45
   7  -5   0    0.58    0.42
  -7   5   0    0.03    0.66
   6  -5   0    7.87    0.71
  -6   5   0    6.68    0.90
   5  -5   0   37.24    1.26
  -5   5   0   36.77    1.48
   4  -5   0   69.27    1.95
   4  -5   0   64.02    1.61
  -4   5   0   65.24    1.58
   3  -5   0    5.83    0.53
   3  -5   0    5.99    0.38
  -3   5   0    6.46    0.46
   2  -5   0   17.85    0.55
   2  -5   0   17.94    0.78
  -2   5   0   16.71    0.66
   1  -5   0  338.64    6.58
  -1   5   0  351.76    6.45
   0  -5   0  369.85    7.05
   0   5   0  358.56    6.67
   0   5   0  366.15    6.81
  -1  -5   0   12.06    0.79
   1   5   0   12.47    0.60
   1   5   0   12.41    0.52
  -2  -5   0    6.33    0.71
   2   5   0    6.37    0.53
   2   5   0    6.20    0.48
  -3  -5   0   64.71    2.04
   3   5   0   64.98    1.73
  -4  -5   0   50.50    1.90
   4   5   0   50.97    1.60
  -5  -5   0   16.38    1.36
   5   5   0   16.96    1.06
  -6  -5   0    1.02    0.92
   6   5   0    2.55    0.69
   7  -6   0    5.31    0.70
  -7   6   0    4.62    0.98
   6  -6   0   25.91    1.14
  -6   6   0   25.51    1.44
   5  -6   0   44.95    1.40
   5  -6   0   46.30    1.73
   4  -6   0    3.76    0.42
   4  -6   0    4.34    0.65
  -4   6   0    4.08    0.47
   3  -6   0    2.96    0.51
   3  -6   0    3.16    0.33
  -3   6   0    2.93    0.41
   2  -6   0   72.53    1.95
   2  -6   0   76.05    1.61
  -2   6   0   77.16    1.82
   1  -6   0  116.95    2.72
  -1   6   0  119.75    2.58
   0  -6   0    4.89    0.62
   0   6   0    4.58    0.46
   0   6   0    4.28    0.37
  -1  -6   0    1.02    0.50
   1   6   0    0.76    0.24
   1   6   0    0.86    0.32
  -2  -6   0   45.03    1.63
   2   6   0   42.40    1.35
   2   6   0   45.09    1.30
  -3  -6   0   83.53    2.48
   3   6   0   82.97    2.12
  -4  -6   0   14.04    1.25
   4   6   0   14.14    0.88
  -5  -6   0    2.46    0.91
   5   6   0    1.82    0.56
  -7   7   0   11.38    1.29
  -6   7   0   24.61    1.41
   5  -7   0    3.44    0.65
   5  -7   0    3.39    0.72
   4  -7   0    6.07    0.49
   4  -7   0    5.65    0.75
  -4   7   0    5.03    0.56
   3  -7   0   42.66    1.13
   3  -7   0   41.86    1.48
  -3   7   0   45.60    1.35
   2  -7   0   58.86    1.76
   2  -7   0   57.55    1.35
  -2   7   0   59.53    1.60
   1  -7   0   25.43    1.11
  -1   7   0   27.35    1.01
   0  -7   0   14.53    0.96
   0   7   0   14.74    0.65
  -1  -7   0   41.24    1.67
   1   7   0   42.28    1.36
   1   7   0   43.48    1.23
  -2  -7   0   46.27    1.79
   2   7   0   47.59    1.41
   2   7   0   47.24    1.50
  -3  -7   0    0.46    0.61
   3   7   0    0.15    0.33
  -4  -7   0    4.72    0.95
   4   7   0    4.36    0.67
  -5  -7   0   18.99    1.74
   5   7   0   21.04    1.23
  -7   8   0   10.24    1.94
   6  -8   0    3.01    0.80
   5  -8   0    1.69    0.62
   4  -8   0   23.40    1.26
  -4   8   0   24.39    1.09
   3  -8   0  101.06    2.75
  -3   8   0  107.34    2.56
   2  -8   0   24.44    1.17
  -2   8   0   23.66    1.05
  -1   8   0   15.40    0.85
   0  -8   0   63.50    2.03
   0   8   0   65.33    1.83
  -1  -8   0   68.69    2.24
   1   8   0   67.57    1.93
   1   8   0   68.37    1.78
  -2  -8   0   52.27    2.03
   2   8   0   51.51    1.65
   2   8   0   49.61    1.53
  -3  -8   0    0.46    0.69
   3   8   0   -0.14    0.35
  -4  -8   0   12.64    1.39
   4   8   0   16.22    1.06
   5   8   0   24.54    1.37
   6  -9   0    1.76    0.77
   5  -9   0   10.75    1.16
   4  -9   0   26.50    1.41
  -4   9   0   30.06    1.30
   3  -9   0    2.84    0.63
  -3   9   0    4.03    0.60
   2  -9   0    3.66    0.64
  -2   9   0    3.14    0.58
   1  -9   0   35.95    1.46
  -1   9   0   31.87    1.30
   0  -9   0   63.36    2.11
   0   9   0   64.09    1.92
  -1  -9   0   21.27    1.38
   1   9   0   20.12    1.11
  -2  -9   0    2.91    0.83
   2   9   0    2.01    0.52
  -3  -9   0   14.33    1.44
   6 -10   0    9.67    1.22
   5 -10   0   14.06    1.30
   4 -10   0   13.74    1.16
  -4  10   0   11.23    0.98
   3 -10   0    0.91    0.52
  -3  10   0    0.36    0.49
   2 -10   0   21.58    1.21
  -2  10   0   22.71    1.20
   1 -10   0   57.87    2.01
  -1  10   0   59.67    1.91
   0 -10   0   12.31    1.09
   0  10   0   12.84    0.98
  -1 -10   0    2.30    0.73
   1  10   0    2.02    0.56
  -2 -10   0   13.62    1.28
   2  10   0   13.36    1.02
   6 -11   0   10.19    1.30
   5 -11   0    7.27    1.04
  -5  11   0    9.58    1.01
   4 -11   0    0.41    0.59
  -4  11   0    0.23    0.58
   3 -11   0   11.21    1.08
  -3  11   0   11.47    1.03
   2 -11   0   27.12    1.42
  -2  11   0   29.64    1.43
   1 -11   0   31.38    1.53
  -1  11   0   31.99    1.49
   0 -11   0    1.49    0.61
   0  11   0    0.76    0.53
  -1 -11   0   12.25    1.48
   1  11   0    9.02    0.95
   2  11   0   21.15    1.27
   5 -12   0    0.15    0.66
  -5  12   0   -0.52    0.59
   4 -12   0    5.89    0.97
  -4  12   0    5.61    0.87
   3 -12   0   17.00    1.27
  -3  12   0   13.75    1.19
   2 -12   0   10.30    1.11
  -2  12   0    8.91    1.00
  -1  12   0    0.35    0.59
   0  12   0    8.26    0.96
   1  12   0   20.53    1.33
   5 -13   0    2.33    0.89
  -5  13   0    2.09    0.79
   4 -13   0   10.61    1.24
  -4  13   0    9.06    1.09
   3 -13   0    7.11    1.04
  -3  13   0    7.37    1.04
   2 -13   0    0.34    0.60
  -2  13   0    0.03    0.66
  -1  13   0    6.20    0.97
   0  13   0   17.38    1.43
   1  13   0    9.74    1.07
  -2  14  -1    8.46    1.38
   2 -14   1   10.54    1.24
  -3  14  -1    3.70    1.18
   3 -14   1    3.59    0.89
   4 -14   1    0.48    0.73
   1  13  -1    3.68    0.79
   0  13  -1   10.79    1.11
   0 -13   1   11.42    1.28
  -1  13  -1   22.01    1.44
   1 -13   1   22.31    1.48
  -2  13  -1    3.82    0.80
   2 -13   1    4.83    0.89
  -3  13  -1    1.69    0.70
   3 -13   1    1.03    0.67
  -4  13  -1   10.07    1.10
   4 -13   1   10.33    1.25
  -5  13  -1    5.90    0.97
   5 -13   1    6.56    1.15
   1  12  -1   14.71    1.22
  -1 -12   1   15.67    1.35
   0  12  -1   22.96    1.34
   0 -12   1   21.78    1.48
  -1  12  -1    9.10    1.00
   1 -12   1    7.18    0.99
  -2  12  -1    0.74    0.59
   2 -12   1    1.34    0.61
  -3  12  -1    6.11    0.88
   3 -12   1    5.18    0.91
  -4  12  -1   16.88    1.25
   4 -12   1   14.39    1.31
  -5  12  -1    0.61    0.65
   5 -12   1    1.52    0.78
   2  11  -1   15.70    1.14
  -2 -11   1   17.67    1.47
   1  11  -1   23.18    1.30
  -1 -11   1   22.84    1.56
   0  11  -1   16.02    1.12
   0 -11   1   17.41    1.27
  -1  11  -1    3.70    0.66
   1 -11   1    3.21    0.72
  -2  11  -1   20.62    1.21
   2 -11   1   20.56    1.30
  -3  11  -1   30.56    1.45
   3 -11   1   27.78    1.52
  -4  11  -1    6.56    0.82
   4 -11   1    8.57    1.07
  -5  11  -1   -0.12    0.56
   5 -11   1   -0.33    0.59
   6 -11   1    6.35    1.14
  -3 -10   1   19.45    1.60
   2  10  -1   37.08    1.51
  -2 -10   1   37.73    1.94
   1  10  -1   12.77    0.98
  -1 -10   1   12.53    1.21
   0  10  -1    0.76    0.46
   0 -10   1    0.92    0.56
  -1  10  -1   40.64    1.52
   1 -10   1   41.07    1.71
  -2  10  -1   39.94    1.50
   2 -10   1   40.33    1.67
  -3  10  -1   43.45    1.58
   3 -10   1   43.21    1.77
  -4  10  -1    0.32    0.45
   4 -10   1    1.05    0.62
  -5  10  -1    4.29    0.90
   5 -10   1    5.40    0.94
   6 -10   1    7.66    1.08
  -4  -9   1   13.11    1.49
  -3  -9   1   38.10    1.94
   2   9  -1   15.91    0.98
  -2  -9   1   16.02    1.34
   1   9  -1    0.37    0.40
  -1  -9   1    0.31    0.60
   0   9  -1   31.82    1.26
   0  -9   1   32.50    1.56
  -1   9  -1   39.24    1.38
   1  -9   1   37.28    1.56
  -2   9  -1   35.00    1.29
   2  -9   1   31.76    1.43
  -3   9  -1    0.05    0.41
   3  -9   1    1.18    0.52
  -4   9  -1   16.85    0.99
   4  -9   1   15.69    1.15
   5  -9   1   12.28    1.16
   6  -9   1    8.58    1.09
   5   8  -1    8.36    0.92
  -5  -8   1   10.89    1.44
   4   8  -1   35.57    1.43
  -4  -8   1   33.86    1.90
   3   8  -1   50.73    1.58
  -3  -8   1   48.89    2.12
   2   8  -1    0.09    0.34
   2   8  -1    0.45    0.29
  -2  -8   1    0.46    0.62
   1   8  -1   47.82    1.30
   1   8  -1   46.00    1.48
  -1  -8   1   46.22    1.84
   0   8  -1   94.56    2.30
   0   8  -1   88.40    2.40
   0  -8   1   94.65    2.63
  -1   8  -1   40.17    1.32
   1  -8   1   41.66    1.56
  -2   8  -1    6.96    0.64
   2  -8   1    6.31    0.71
  -3   8  -1   46.59    1.44
   3  -8   1   42.51    1.62
  -4   8  -1   38.85    1.31
   4  -8   1   37.25    1.54
   5  -8   1   13.81    1.06
   6  -8   1   -0.02    0.62
  -7   8  -1    4.48    1.14
   5   7  -1   18.04    1.10
  -5  -7   1   19.56    1.65
   4   7  -1   32.61    1.30
  -4  -7   1   32.80    1.81
   3   7  -1    2.98    0.47
  -3  -7   1    2.87    0.79
   2   7  -1   20.61    0.92
   2   7  -1   21.07    0.85
  -2  -7   1   21.85    1.32
   1   7  -1  124.95    2.63
   1   7  -1  126.29    2.81
  -1  -7   1  126.63    3.23
   0   7  -1   92.65    2.18
   0   7  -1   91.29    1.96
   0  -7   1   92.30    2.51
  -1   7  -1    5.09    0.48
   1  -7   1    6.92    0.75
  -2   7  -1   18.52    0.81
   2  -7   1   15.65    0.90
   2  -7   1   17.72    0.53
  -3   7  -1   43.86    1.31
   3  -7   1   43.36    1.11
   3  -7   1   41.94    1.52
  -4   7  -1   24.38    0.96
   4  -7   1   23.06    1.15
   5  -7   1    8.35    0.90
  -6   7  -1    7.83    0.97
  -7   7  -1   13.46    1.28
  -6  -6   1   12.09    1.57
   5   6  -1   14.83    1.00
  -5  -6   1   13.27    1.45
   4   6  -1    0.61    0.39
  -4  -6   1    2.21    0.79
   3   6  -1   22.69    0.92
  -3  -6   1   20.92    1.30
   2   6  -1   51.09    1.36
   2   6  -1   52.12    1.43
  -2  -6   1   50.75    1.78
   1   6  -1   73.79    1.77
   1   6  -1   73.00    1.64
  -1  -6   1   73.06    2.13
   0   6  -1    3.32    0.29
   0   6  -1    2.26    0.33
   0  -6   1    3.18    0.57
  -1   6  -1   52.14    1.34
   1  -6   1   50.34    1.53
  -2   6  -1  156.74    3.15
   2  -6   1  154.17    2.89
   2  -6   1  148.59    3.36
  -3   6  -1   42.15    1.19
   3  -6   1   40.96    1.03
   3  -6   1   40.67    1.39
  -4   6  -1    0.09    0.26
   4  -6   1    0.27    0.22
   4  -6   1   -0.07    0.36
   5  -6   1    5.43    0.54
   5  -6   1    3.55    0.64
  -6   6  -1   18.84    1.26
   6  -6   1   17.52    0.96
  -7   6  -1   13.59    1.29
   7  -6   1   12.65    1.41
   6   5  -1   16.16    1.12
  -6  -5   1   14.23    1.51
   5   5  -1    1.12    0.47
  -5  -5   1    0.96    0.77
   4   5  -1   35.40    1.28
  -4  -5   1   37.43    1.63
   3   5  -1   68.01    1.75
  -3  -5   1   68.48    2.10
   2   5  -1  125.68    2.59
   2   5  -1  119.29    2.55
  -2  -5   1  117.72    2.90
   1   5  -1    5.33    0.33
   1   5  -1    4.04    0.37
  -1  -5   1    4.08    0.55
   0   5  -1   76.11    1.56
   0  -5   1   77.78    2.02
  -1   5  -1  280.02    5.23
   1  -5   1  276.07    5.45
  -2   5  -1  220.67    4.20
   2  -5   1  219.71    4.44
   2  -5   1  216.40    4.02
  -3   5  -1    6.92    0.45
   3  -5   1    8.58    0.41
   3  -5   1    8.81    0.65
  -4   5  -1   14.07    0.60
   4  -5   1   12.83    0.64
   4  -5   1   15.34    0.90
  -5   5  -1   36.70    1.50
   5  -5   1   38.25    1.25
  -6   5  -1   23.44    1.36
   6  -5   1   24.79    1.13
  -7   5  -1    4.72    0.93
   7  -5   1    4.87    0.71
   6   4  -1    3.63    0.66
  -6  -4   1    3.19    0.94
   5   4  -1   14.09    0.90
  -5  -4   1   15.26    1.25
   4   4  -1   89.17    2.23
  -4  -4   1   86.94    2.51
   3   4  -1   73.89    1.81
  -3  -4   1   73.34    2.07
   2   4  -1   29.42    0.86
   2   4  -1   28.21    0.84
  -2  -4   1   27.57    1.08
   1   4  -1   25.65    0.68
   1   4  -1   24.61    0.73
  -1  -4   1   26.09    0.98
   0   4  -1   56.64    1.13
   0   4  -1   55.29    1.26
   0  -4   1   56.39    1.53
  -1   4  -1  329.40    6.09
   1  -4   1  334.45    5.96
   1  -4   1  332.83    6.28
  -2   4  -1  113.83    2.30
   2  -4   1  114.47    2.21
   2  -4   1  116.52    2.52
  -3   4  -1   49.57    1.15
   3  -4   1   47.47    1.18
   3  -4   1   49.10    1.42
  -4   4  -1   45.41    1.13
   4  -4   1   46.91    1.28
   4  -4   1   47.09    1.51
  -5   4  -1   22.16    1.16
   5  -4   1   23.93    0.99
  -6   4  -1    7.63    1.03
   6  -4   1    7.28    0.74
  -7   4  -1    1.19    0.70
   7  -4   1    2.03    0.59
   6   3  -1    3.89    0.64
  -6  -3   1    2.10    0.84
   5   3  -1   50.97    1.65
  -5  -3   1   51.08    1.93
   4   3  -1   78.81    2.04
  -4  -3   1   80.15    2.29
   3   3  -1   67.06    1.66
   3   3  -1   63.79    1.44
  -3  -3   1   70.49    1.88
   2   3  -1  109.19    2.27
   2   3  -1  109.32    2.19
  -2  -3   1  111.26    2.48
   1   3  -1   72.00    1.51
   1   3  -1   74.39    1.51
  -1  -3   1   74.61    1.75
   0   3  -1   88.91    1.78
   0   3  -1   88.22    1.65
   0  -3   1   92.06    2.01
   1  -3   1  263.97    4.74
  -2   3  -1   13.36    0.43
   2  -3   1   12.29    0.42
   2  -3   1   12.48    0.55
  -3   3  -1  117.04    2.30
   3  -3   1  119.58    2.44
  -4   3  -1   66.46    1.85
  -4   3  -1   61.50    1.37
   4  -3   1   66.20    1.64
  -5   3  -1    7.75    0.83
   5  -3   1    7.03    0.62
  -6   3  -1    6.23    0.98
   6  -3   1    5.46    0.69
  -7   3  -1   16.17    1.39
   7  -3   1   18.11    1.12
  -7  -2   1    1.42    1.44
   6   2  -1   25.87    1.27
  -6  -2   1   23.38    1.48
   5   2  -1   55.20    1.72
  -5  -2   1   56.64    1.96
   4   2  -1   21.70    0.91
  -4  -2   1   21.85    1.09
   3   2  -1   12.68    0.35
   3   2  -1   12.26    0.59
  -3  -2   1   11.19    0.67
   2   2  -1  323.19    5.93
   2   2  -1  319.32    5.77
  -2  -2   1  319.56    6.08
   1   2  -1  123.31    2.38
   1   2  -1  126.01    2.33
  -1  -2   1  127.66    2.54
   0   2  -1  125.61    2.37
   0   2  -1  125.66    2.31
   0  -2   1  133.55    2.55
  -1   2  -1    2.02    0.15
   1  -2   1    2.82    0.25
   1  -2   1    2.37    0.17
   1  -2   1    2.36    0.14
  -2   2  -1  150.79    2.84
   2  -2   1  152.41    3.07
   2  -2   1  156.55    2.94
   2  -2   1  155.96    2.85
  -3   2  -1  112.29    2.13
  -3   2  -1  108.35    2.47
   3  -2   1  112.83    2.34
  -4   2  -1   44.30    1.45
   4  -2   1   44.81    1.29
  -5   2  -1    0.94    0.48
   5  -2   1    0.50    0.36
  -6   2  -1   23.65    1.39
   6  -2   1   24.69    1.19
  -7   2  -1   14.48    1.36
   7  -2   1   16.60    1.10
   7   1  -1    9.29    0.95
  -7  -1   1   11.54    1.38
   6   1  -1   29.77    1.33
  -6  -1   1   24.68    1.47
   5   1  -1    9.92    0.75
  -5  -1   1   10.15    0.97
   4   1  -1    0.29    0.27
  -4  -1   1    0.69    0.43
   3   1  -1  188.91    3.84
  -3  -1   1  199.44    4.02
   2   1  -1  122.88    2.45
  -2  -1   1  122.53    2.56
   1   1  -1   15.54    0.34
  -1  -1   1   16.09    0.50
   0  -1   1   -0.40    0.02
   1  -1   1  407.40    7.30
   1  -1   1  403.52    7.53
   1  -1   1  412.64    7.49
  -2   1  -1  128.57    2.61
   2  -1   1  130.88    2.37
   2  -1   1  127.24    2.52
  -3   1  -1   36.25    1.11
   3  -1   1   36.36    1.02
   3  -1   1   36.33    0.78
  -4   1  -1    3.12    0.48
   4  -1   1    4.19    0.47
  -5   1  -1   41.32    1.58
   5  -1   1   39.73    1.39
  -6   1  -1   27.87    1.49
   6  -1   1   25.97    1.23
  -7   1  -1    3.91    0.91
   7  -1   1    5.56    0.81
   7   0  -1   16.25    1.13
  -7   0   1   15.70    1.40
   6   0  -1   13.72    0.95
  -6   0   1   11.93    1.14
   5   0  -1    6.89    0.64
  -5   0   1    6.77    0.85
   4   0  -1   53.32    1.49
  -4   0   1   54.33    1.66
   3   0  -1  202.39    4.03
  -3   0   1  209.67    4.20
   2   0  -1   70.91    1.53
  -2   0   1   72.43    1.63
   1   0  -1    0.45    0.09
  -1   0   1    0.52    0.05
  -1   0   1    0.58    0.12
   0   0   1   -0.03    0.02
  -1   0  -1  465.66    8.57
   1   0   1  474.47    8.53
   1   0   1  459.66    8.88
  -2   0  -1  112.33    2.31
   2   0   1  111.89    2.07
   2   0   1  109.27    2.25
  -3   0  -1    5.27    0.48
   3   0   1    5.63    0.24
   3   0   1    5.40    0.41
  -4   0  -1   50.61    1.58
   4   0   1   49.05    1.44
  -5   0  -1   72.47    2.22
   5   0   1   74.31    2.04
  -6   0  -1   20.12    1.31
   6   0   1   21.69    1.13
  -7   0  -1   -0.89    0.66
   7   0   1    0.84    0.51
   7  -1  -1    6.28    0.81
  -7   1   1    3.12    0.89
   6  -1  -1    6.97    0.76
  -6   1   1    7.25    1.01
   5  -1  -1   31.39    1.17
  -5   1   1   29.67    1.32
   4  -1  -1  123.86    2.76
  -4   1   1  127.98    2.97
   3  -1  -1  106.11    2.28
  -3   1   1  109.14    2.44
  -2   1   1    3.21    0.31
  -2   1   1    3.46    0.20
   1  -1  -1  165.50    3.03
   1  -1  -1  167.37    3.01
  -1   1   1  157.37    2.98
   0  -1  -1  337.85    5.87
   0   1   1  315.46    5.92
   0   1   1  311.82    5.93
  -1  -1  -1  200.97    3.68
   1   1   1  197.71    3.64
   1   1   1  198.00    3.68
  -2  -1  -1   76.08    1.70
   2   1   1   74.35    1.50
   2   1   1   75.68    1.65
  -3  -1  -1   33.40    1.11
   3   1   1   34.33    0.79
   3   1   1   35.24    1.05
  -4  -1  -1   46.20    1.52
   4   1   1   46.15    1.40
  -5  -1  -1   20.09    1.16
   5   1   1   20.81    1.01
  -6  -1  -1   -0.04    0.56
   6   1   1    0.51    0.44
  -7  -1  -1    4.23    1.00
   7  -2  -1    0.14    0.45
  -7   2   1   -0.19    0.65
   6  -2  -1   38.40    1.43
  -6   2   1   35.50    1.67
   5  -2  -1   45.14    1.45
  -5   2   1   45.68    1.66
   4  -2  -1   60.61    1.58
  -4   2   1   60.43    1.76
   3  -2  -1    4.43    0.36
  -3   2   1    2.91    0.26
  -3   2   1    3.40    0.41
   2  -2  -1   70.98    1.51
   2  -2  -1   71.05    1.60
  -2   2   1   70.22    1.44
   1  -2  -1  111.22    2.13
   1  -2  -1  107.11    2.08
  -1   2   1  105.27    2.09
   0  -2  -1  111.16    2.13
   0   2   1  106.89    2.14
   0   2   1  106.51    2.11
  -1  -2  -1    1.56    0.25
   1   2   1    1.14    0.21
   1   2   1    1.21    0.19
  -2  -2  -1  118.54    2.52
   2   2   1  123.46    2.49
   2   2   1  116.74    2.37
  -3  -2  -1   66.53    1.73
   3   2   1   61.49    1.38
   3   2   1   64.15    1.62
  -4  -2  -1   25.30    1.15
   4   2   1   24.14    1.00
  -5  -2  -1    1.63    0.60
   5   2   1    1.75    0.46
  -6  -2  -1   17.57    1.36
   6   2   1   16.61    1.08
   7  -3  -1   17.22    1.07
  -7   3   1   13.86    1.43
   6  -3  -1   29.34    1.25
  -6   3   1   26.72    1.46
   5  -3  -1   31.10    1.14
  -5   3   1   30.16    1.34
   4  -3  -1    4.51    0.46
  -4   3   1    4.97    0.62
   3  -3  -1   82.52    1.99
   3  -3  -1   81.43    1.82
  -3   3   1   82.56    1.73
   2  -3  -1  142.45    2.91
   2  -3  -1  143.34    2.77
  -2   3   1  142.25    2.78
   1  -3  -1  152.77    3.00
  -1   3   1  154.21    2.98
   0  -3  -1    2.68    0.35
   0   3   1    2.99    0.32
   0   3   1    3.20    0.29
  -1  -3  -1  102.02    2.18
   1   3   1   99.87    2.08
   1   3   1  101.99    2.15
  -2  -3  -1  171.92    3.48
   2   3   1  161.45    3.34
   2   3   1  173.61    3.40
  -3  -3  -1   40.80    1.35
   3   3   1   41.88    1.25
   3   3   1   41.21    1.08
  -4  -3  -1    2.89    0.63
   4   3   1    2.69    0.48
  -5  -3  -1    8.38    1.02
   5   3   1    6.64    0.74
  -6  -3  -1   23.14    1.55
   6   3   1   27.85    1.37
   7  -4  -1   21.43    1.20
  -7   4   1   20.91    1.49
   6  -4  -1   11.35    0.82
  -6   4   1   12.29    1.08
   5  -4  -1    0.73    0.34
  -5   4   1    1.44    0.47
   4  -4  -1   37.55    1.13
  -4   4   1   36.57    1.33
  -4   4   1   34.27    1.02
   3  -4  -1   99.15    2.33
   3  -4  -1   98.46    2.10
  -3   4   1   95.84    2.07
   2  -4  -1   80.94    1.87
   2  -4  -1   77.82    1.68
  -2   4   1   78.71    1.74
   1  -4  -1   24.33    0.80
  -1   4   1   24.29    0.78
   0  -4  -1  146.05    2.96
   0   4   1  134.45    2.79
   0   4   1  140.15    2.86
  -1  -4  -1  198.59    3.99
   1   4   1  197.21    3.92
   1   4   1  194.38    3.82
  -2  -4  -1   62.31    1.69
   2   4   1   59.63    1.53
   2   4   1   60.74    1.54
  -3  -4  -1    1.01    0.48
   3   4   1    0.59    0.28
   3   4   1    0.17    0.28
  -4  -4  -1    8.96    0.93
   4   4   1    8.28    0.69
  -5  -4  -1   38.74    1.76
   5   4   1   42.46    1.57
  -6  -4  -1   12.11    1.39
   6   4   1   12.81    1.08
   7  -5  -1    8.44    0.87
  -7   5   1    8.07    1.10
   6  -5  -1    0.62    0.39
  -6   5   1    0.26    0.55
   5  -5  -1   20.29    0.92
  -5   5   1   20.43    1.14
   4  -5  -1   59.56    1.56
   4  -5  -1   59.81    1.81
  -4   5   1   61.03    1.54
   3  -5  -1   19.40    0.70
   3  -5  -1   17.84    0.86
  -3   5   1   18.79    0.75
   2  -5  -1   25.78    0.77
   2  -5  -1   25.94    0.95
  -2   5   1   25.73    0.87
   1  -5  -1   23.42    0.85
  -1   5   1   22.94    0.82
   0  -5  -1  171.64    3.60
   0   5   1  171.99    3.49
   0   5   1  167.46    3.38
  -1  -5  -1  112.04    2.64
   1   5   1  113.71    2.51
   1   5   1  108.92    2.39
  -2  -5  -1    8.58    0.80
   2   5   1    6.61    0.52
   2   5   1    7.57    0.62
  -3  -5  -1   40.38    1.56
   3   5   1   41.56    1.36
   3   5   1   43.58    1.69
  -4  -5  -1   26.86    1.47
   4   5   1   28.58    1.20
  -5  -5  -1   20.53    1.45
   5   5   1   20.53    1.16
  -6  -5  -1   -0.13    0.91
   7  -6  -1    0.03    0.37
  -7   6   1    0.00    0.63
   6  -6  -1   15.74    0.91
  -6   6   1   16.81    1.23
   5  -6  -1   47.71    1.46
   5  -6  -1   49.70    1.81
   4  -6  -1   40.29    1.21
   4  -6  -1   40.43    1.50
  -4   6   1   43.85    1.31
   3  -6  -1    2.13    0.31
   3  -6  -1    1.61    0.44
  -3   6   1    2.29    0.41
   2  -6  -1   15.87    0.63
   2  -6  -1   14.64    0.79
  -2   6   1   14.57    0.73
   1  -6  -1  139.35    3.06
   0  -6  -1   62.29    1.78
   0   6   1   63.07    1.57
   0   6   1   64.58    1.69
  -1  -6  -1   41.16    1.50
   1   6   1   40.55    1.19
   1   6   1   40.58    1.31
  -2  -6  -1    4.92    0.74
   2   6   1    4.27    0.50
   2   6   1    5.10    0.58
  -3  -6  -1   22.41    1.32
   3   6   1   23.79    1.06
  -4  -6  -1   19.74    1.41
   4   6   1   17.12    1.02
  -5  -6  -1    0.51    0.82
   5   6   1    1.68    0.56
  -7   7   1    1.14    0.71
  -6   7   1   25.96    1.47
   5  -7  -1   34.55    1.57
   5  -7  -1   36.09    1.23
   4  -7  -1    5.01    0.69
   4  -7  -1    4.31    0.46
  -4   7   1    4.77    0.57
   3  -7  -1   19.88    0.76
   3  -7  -1   20.37    1.03
  -3   7   1   21.03    0.97
   2  -7  -1   48.64    1.55
   2  -7  -1   50.50    1.32
  -2   7   1   50.21    1.50
   1  -7  -1   36.35    1.29
  -1   7   1   38.21    1.26
   0  -7  -1    4.01    0.63
   0   7   1    3.63    0.51
  -1  -7  -1    1.80    0.60
   1   7   1    1.89    0.39
   1   7   1    1.30    0.42
  -2  -7  -1  128.82    3.35
   2   7   1  132.83    3.01
   2   7   1  133.25    3.09
  -3  -7  -1   24.52    1.44
   3   7   1   28.56    1.19
  -4  -7  -1    2.66    0.86
   4   7   1    2.53    0.60
   5   7   1    4.67    0.77
  -7   8   1    8.95    1.52
  -6   8   1    6.92    0.93
   5  -8  -1    5.51    0.86
   4  -8  -1    1.48    0.57
  -4   8   1    2.00    0.51
   3  -8  -1   42.72    1.57
  -3   8   1   42.78    1.46
   2  -8  -1   51.38    1.71
  -2   8   1   54.71    1.65
   1  -8  -1    0.90    0.43
  -1   8   1    0.47    0.37
   0  -8  -1   15.26    1.04
   0   8   1   17.42    0.98
  -1  -8  -1   33.66    1.55
   1   8   1   36.28    1.26
   1   8   1   33.62    1.36
  -2  -8  -1   32.30    1.62
   2   8   1   30.89    1.23
   2   8   1   29.84    1.26
  -3  -8  -1    4.09    1.26
   3   8   1    6.51    0.74
   4   8   1    1.41    0.55
   6  -9  -1    0.40    0.69
   5  -9  -1    1.96    0.68
   4  -9  -1   38.55    1.65
  -4   9   1   37.80    1.49
   3  -9  -1   26.25    1.31
  -3   9   1   28.16    1.26
   2  -9  -1   14.03    0.96
  -2   9   1   14.08    0.96
   1  -9  -1   11.69    0.88
  -1   9   1   10.53    0.88
   0  -9  -1   20.96    1.20
   0   9   1   21.31    1.15
  -1  -9  -1   50.37    1.95
   1   9   1   52.26    1.77
   2   9   1    5.06    0.71
   3   9   1   -0.12    0.53
   4   9   1   10.04    1.44
   6 -10  -1    2.31    0.82
   5 -10  -1   12.92    1.31
   4 -10  -1   18.32    1.30
  -4  10   1   16.42    1.17
   3 -10  -1    6.76    0.89
  -3  10   1    7.47    0.81
   2 -10  -1    0.93    0.49
  -2  10   1    1.49    0.57
   1 -10  -1   55.55    1.89
  -1  10   1   53.43    1.88
   0 -10  -1   31.92    1.48
   0  10   1   32.97    1.48
   1  10   1    7.27    0.83
   2  10   1    2.27    0.59
   6 -11  -1    8.49    1.16
   5 -11  -1   13.73    1.30
  -5  11   1   15.56    1.80
   4 -11  -1    3.20    0.76
  -4  11   1    2.51    0.69
   3 -11  -1   -0.24    0.50
  -3  11   1   -0.17    0.52
   2 -11  -1   22.61    1.28
  -2  11   1   27.35    1.44
   1 -11  -1   22.41    1.45
  -1  11   1   21.82    1.38
   0  11   1    4.77    0.76
   1  11   1    0.01    0.49
   2  11   1   10.66    1.02
   5 -12  -1    2.43    0.81
  -5  12   1    2.31    0.77
   4 -12  -1    0.37    0.63
  -4  12   1    0.40    0.62
   3 -12  -1    8.48    1.08
  -3  12   1    6.79    0.96
  -2  12   1   23.89    1.48
  -1  12   1    6.92    1.01
   0  12   1    0.73    0.61
   1  12   1   11.60    1.15
  -4  13   1    3.07    0.87
  -3  13   1   12.09    1.25
  -2  13   1    3.86    0.88
  -1  13   1    0.84    0.69
   0  13   1    5.74    1.01
   0  14  -2    0.15    0.76
   0 -14   2    1.65    0.75
  -1  14  -2    1.51    0.72
   1 -14   2    2.54    0.82
  -2  14  -2   12.95    1.30
   2 -14   2    9.92    1.23
  -3  14  -2    6.12    0.99
   3 -14   2    6.92    1.09
  -4  14  -2    1.30    0.93
   4 -14   2    0.66    0.77
   1  13  -2    0.31    0.61
  -1 -13   2    1.90    0.79
   0  13  -2    4.65    0.83
   0 -13   2    5.84    1.01
  -1  13  -2   28.62    1.59
   1 -13   2   27.85    1.62
  -2  13  -2   10.39    1.09
   2 -13   2   11.36    1.27
  -3  13  -2    0.44    0.59
   3 -13   2    1.55    0.72
  -4  13  -2    0.45    0.62
   4 -13   2    0.40    0.71
  -5  13  -2    6.02    0.98
   5 -13   2    5.42    1.11
  -2 -12   2    5.38    1.12
   1  12  -2    1.70    0.58
  -1 -12   2    2.36    0.80
   0  12  -2   21.34    1.33
   0 -12   2   21.50    1.45
  -1  12  -2   29.28    1.49
   1 -12   2   29.04    1.59
  -2  12  -2    2.14    0.64
   2 -12   2    1.94    0.71
  -3  12  -2   -0.45    0.49
   3 -12   2    0.58    0.59
  -4  12  -2   15.34    1.23
   4 -12   2   17.79    1.42
  -5  12  -2    5.67    0.85
   5 -12   2    8.32    1.19
  -3 -11   2    5.12    1.15
   2  11  -2    1.07    0.58
  -2 -11   2    2.04    0.82
   1  11  -2   18.97    1.18
  -1 -11   2   18.49    1.44
   0  11  -2   53.70    1.84
   0 -11   2   53.33    2.12
  -1  11  -2    4.09    0.65
   1 -11   2    5.81    0.91
  -2  11  -2    2.62    0.64
   2 -11   2    2.57    0.72
  -3  11  -2   17.41    1.11
   3 -11   2   18.91    1.31
  -4  11  -2   15.24    1.11
   4 -11   2   19.25    1.39
  -5  11  -2    1.32    0.60
   5 -11   2    2.31    0.80
   6 -11   2    0.87    0.72
  -4 -10   2    2.17    1.00
  -3 -10   2    3.21    0.98
   2  10  -2   36.23    1.44
  -2 -10   2   34.23    1.86
   1  10  -2   19.16    1.05
  -1 -10   2   18.42    1.40
   0  10  -2   11.07    0.90
   0 -10   2   10.86    1.11
  -1  10  -2    6.95    0.75
   1 -10   2    6.46    0.88
  -2  10  -2   21.47    1.10
   2 -10   2   21.15    1.27
  -3  10  -2   80.21    2.23
   3 -10   2   78.14    2.50
  -4  10  -2    4.99    0.70
   4 -10   2    6.09    0.93
  -5  10  -2   -0.67    0.41
   5 -10   2    0.74    0.60
   6 -10   2    7.54    1.16
  -4  -9   2    0.82    0.84
  -3  -9   2   29.44    1.84
   2   9  -2   40.39    1.44
  -2  -9   2   43.57    1.97
   1   9  -2   15.39    0.91
  -1  -9   2   18.63    1.32
   0   9  -2    2.58    0.50
   0  -9   2    3.11    0.72
  -1   9  -2   35.79    1.29
   1  -9   2   35.77    1.56
  -2   9  -2   40.91    1.39
   2  -9   2   41.16    1.63
  -3   9  -2   25.70    1.12
   3  -9   2   28.75    1.38
  -4   9  -2    0.03    0.38
   4  -9   2    0.63    0.52
   5  -9   2    7.38    0.98
   6  -9   2   10.79    1.24
   5   8  -2    0.28    0.46
  -5  -8   2    0.08    0.89
   4   8  -2   16.86    0.98
  -4  -8   2   16.20    1.51
   3   8  -2  121.31    2.78
  -3  -8   2  116.31    3.41
   2   8  -2   23.25    1.01
   2   8  -2   24.94    0.93
  -2  -8   2   23.26    1.45
   1   8  -2   -0.06    0.33
   1   8  -2    0.70    0.25
  -1  -8   2    0.66    0.63
   0   8  -2   69.56    1.85
   0  -8   2   71.21    2.26
  -1   8  -2   42.85    1.32
   1  -8   2   41.57    1.61
  -2   8  -2   50.51    1.48
   2  -8   2   48.70    1.71
  -3   8  -2   -0.02    0.31
   3  -8   2   -0.30    0.40
  -4   8  -2   17.38    0.87
   4  -8   2   16.14    1.09
   5  -8   2   33.09    1.58
   6  -8   2    3.04    0.77
   5   7  -2    8.06    0.83
  -5  -7   2    8.63    1.33
   4   7  -2   23.82    1.07
  -4  -7   2   23.10    1.62
   3   7  -2   25.94    1.01
  -3  -7   2   27.94    1.59
   2   7  -2    0.04    0.28
   2   7  -2    0.00    0.22
  -2  -7   2    0.04    0.58
   1   7  -2   35.84    1.14
   1   7  -2   35.22    0.96
  -1  -7   2   34.44    1.55
   0   7  -2  182.20    3.52
   0   7  -2  192.68    3.82
   0  -7   2  187.04    4.26
  -1   7  -2   14.32    0.68
   1  -7   2   12.56    0.89
  -2   7  -2    3.46    0.40
   2  -7   2    2.94    0.49
  -3   7  -2   23.74    0.90
   3  -7   2   21.39    1.09
  -4   7  -2   48.34    1.39
   4  -7   2   48.21    1.71
   5  -7   2   19.09    1.19
  -6   7  -2    0.42    0.45
  -7   7  -2    5.01    0.90
   6   6  -2   14.27    1.18
  -6  -6   2   12.50    1.62
   5   6  -2   22.53    1.15
  -5  -6   2   18.10    1.52
   4   6  -2   38.70    1.34
  -4  -6   2   36.39    1.76
   3   6  -2    0.06    0.24
  -3  -6   2    0.33    0.59
   2   6  -2   14.08    0.62
   2   6  -2   14.03    0.67
  -2  -6   2   14.82    1.10
   1   6  -2  155.60    3.14
   1   6  -2  152.83    2.98
  -1  -6   2  150.43    3.55
   0   6  -2   28.66    0.89
   0   6  -2   28.79    0.69
   0  -6   2   26.64    1.20
  -1   6  -2    2.85    0.32
   1  -6   2    3.09    0.47
  -2   6  -2   16.83    0.67
   2  -6   2   14.97    0.43
   2  -6   2   17.64    0.85
  -3   6  -2   59.64    1.49
   3  -6   2   60.34    1.77
   3  -6   2   58.11    1.33
  -4   6  -2   24.32    0.87
   4  -6   2   26.91    1.19
   4  -6   2   24.05    0.83
   5  -6   2   -0.46    0.42
   5  -6   2    0.14    0.26
  -6   6  -2    8.45    1.00
   6  -6   2    6.48    0.69
  -7   6  -2   10.44    1.24
   6   5  -2   26.94    1.36
  -6  -5   2   26.21    1.79
   5   5  -2   13.59    0.89
  -5  -5   2   13.57    1.33
   4   5  -2    0.27    0.32
  -4  -5   2    0.35    0.60
   3   5  -2   26.19    0.94
  -3  -5   2   27.27    1.27
   2   5  -2   75.82    1.71
   2   5  -2   75.02    1.72
  -2  -5   2   76.47    2.12
   1   5  -2  200.88    3.94
   1   5  -2  205.57    3.85
  -1  -5   2  210.42    4.38
   0   5  -2    9.94    0.31
   0   5  -2   10.73    0.47
   0  -5   2   10.64    0.71
  -1   5  -2   69.42    1.54
   1  -5   2   67.47    1.77
  -2   5  -2  155.71    2.99
   2  -5   2  147.51    2.78
   2  -5   2  146.21    3.21
  -3   5  -2   87.60    1.93
   3  -5   2   88.28    1.87
   3  -5   2   91.07    2.24
  -4   5  -2    0.48    0.22
   4  -5   2    0.25    0.23
   4  -5   2    0.93    0.41
  -5   5  -2    7.78    0.86
   5  -5   2    7.26    0.60
  -6   5  -2   26.34    1.42
   6  -5   2   24.31    1.12
  -7   5  -2    7.85    1.13
   7  -5   2    8.34    0.84
   6   4  -2    9.28    0.88
  -6  -4   2    8.42    1.19
   5   4  -2   -0.28    0.34
  -5  -4   2    0.42    0.65
   4   4  -2   31.87    1.15
  -4  -4   2   32.45    1.42
   3   4  -2  124.09    2.69
  -3  -4   2  124.88    3.01
   2   4  -2  122.71    2.42
   2   4  -2  119.12    2.48
  -2  -4   2  122.25    2.80
   1   4  -2    2.32    0.24
   1   4  -2    2.64    0.23
  -1  -4   2    2.39    0.44
   0   4  -2   46.32    0.91
   0   4  -2   46.98    1.09
   0  -4   2   50.19    1.42
  -1   4  -2  148.18    2.85
   1  -4   2  146.62    3.07
  -2   4  -2  222.60    4.19
   2  -4   2  218.92    4.08
   2  -4   2  227.97    4.43
  -3   4  -2    6.29    0.35
   3  -4   2    6.76    0.38
   3  -4   2    7.21    0.56
  -4   4  -2   12.66    0.52
   4  -4   2   13.53    0.65
   4  -4   2   11.38    0.74
  -5   4  -2   26.39    1.23
   5  -4   2   28.94    1.07
  -6   4  -2   17.40    1.20
   6  -4   2   16.51    0.98
  -7   4  -2    1.03    0.75
   7  -4   2    1.32    0.51
   6   3  -2    0.06    0.41
  -6  -3   2    0.32    0.72
   5   3  -2   12.37    0.84
  -5  -3   2   13.94    1.14
   4   3  -2   68.62    1.84
  -4  -3   2   71.16    2.12
   3   3  -2  125.26    2.71
  -3  -3   2  129.93    2.99
   2   3  -2   58.43    1.34
   2   3  -2   56.71    1.21
  -2  -3   2   55.98    1.53
   1   3  -2   16.75    0.49
   1   3  -2   17.24    0.49
  -1  -3   2   18.67    0.77
   0   3  -2  154.83    2.91
   0   3  -2  155.52    2.77
   0  -3   2  155.53    3.18
  -1   3  -2   78.71    1.62
   1  -3   2   81.54    1.63
   1  -3   2   85.36    1.80
   1  -3   2   79.81    1.50
  -2   3  -2   47.05    1.09
   2  -3   2   51.31    1.10
   2  -3   2   50.75    1.11
   2  -3   2   51.90    1.30
  -3   3  -2   22.98    0.64
   3  -3   2   24.40    0.90
   3  -3   2   23.16    0.73
   3  -3   2   23.01    0.64
  -4   3  -2   29.13    1.14
  -4   3  -2   28.49    0.78
   4  -3   2   30.26    1.01
  -5   3  -2   43.49    1.60
   5  -3   2   41.54    1.38
  -6   3  -2   -0.48    0.49
   6  -3   2    0.80    0.42
  -7   3  -2    1.41    0.77
   7  -3   2    1.97    0.56
  -7  -2   2   -0.65    1.21
   6   2  -2    7.55    0.83
  -6  -2   2    6.09    1.01
   5   2  -2   39.89    1.40
  -5  -2   2   38.03    1.62
   4   2  -2   52.30    1.52
  -4  -2   2   56.04    1.77
   3   2  -2    0.50    0.23
  -3  -2   2    0.77    0.35
   2   2  -2   36.75    0.93
   2   2  -2   35.51    0.75
  -2  -2   2   36.10    1.08
   1   2  -2   85.69    1.63
   1   2  -2   83.68    1.69
  -1  -2   2   88.56    1.88
   0   2  -2  270.17    4.84
   0   2  -2  261.68    4.80
   0  -2   2  257.64    4.93
   0  -2   2  265.40    4.88
   1  -2   2    0.32    0.11
   1  -2   2    0.27    0.09
   1  -2   2    0.62    0.18
   2  -2   2   51.17    1.09
   2  -2   2   50.33    1.26
   2  -2   2   53.06    1.16
  -3   2  -2   81.14    1.95
   3  -2   2   80.31    1.82
   3  -2   2   82.59    1.65
  -4   2  -2   45.72    1.45
   4  -2   2   43.83    1.31
  -5   2  -2    8.35    0.86
   5  -2   2    8.91    0.69
  -6   2  -2    1.55    0.69
   6  -2   2    2.40    0.56
  -7   2  -2    9.04    1.19
   7  -2   2   10.55    1.03
   7   1  -2    3.65    0.70
  -7  -1   2    2.35    0.87
   6   1  -2   41.72    1.56
  -6  -1   2   40.96    1.83
   5   1  -2   45.42    1.49
  -5  -1   2   46.43    1.73
   4   1  -2   10.59    0.62
  -4  -1   2   11.25    0.82
   3   1  -2   18.97    0.70
  -3  -1   2   17.68    0.81
   2   1  -2   83.76    1.81
  -2  -1   2   89.08    1.95
   1   1  -2  256.33    4.53
  -1  -1   2  244.75    4.61
  -1  -1   2  244.46    4.55
   0  -1   2    1.85    0.19
   1  -1   2   20.51    0.55
   1  -1   2   20.77    0.50
   1  -1   2   19.76    0.52
  -2   1  -2  198.47    3.84
   2  -1   2  197.93    3.78
   2  -1   2  202.15    3.66
  -3   1  -2  104.07    2.31
   3  -1   2  100.47    1.97
   3  -1   2   98.63    2.19
  -4   1  -2    6.51    0.68
   4  -1   2    6.22    0.57
  -5   1  -2   14.42    1.01
   5  -1   2   14.10    0.84
  -6   1  -2   12.64    1.22
   6  -1   2   14.15    0.97
  -7   1  -2   11.97    1.34
   7  -1   2   12.46    1.05
   7   0  -2    8.84    0.96
  -7   0   2    7.51    1.11
   6   0  -2   35.82    1.43
  -6   0   2   36.03    1.69
   5   0  -2   10.70    0.74
  -5   0   2   11.02    0.92
   4   0  -2   10.85    0.64
  -4   0   2    9.67    0.77
   3   0  -2  109.65    2.41
  -3   0   2  118.07    2.60
   2   0  -2  104.13    2.16
  -2   0   2  107.77    2.27
  -2   0   2  107.39    1.92
  -1   0   2  199.75    3.68
  -1   0   2  196.38    3.56
   0   0   2   20.84    0.45
   0   0   2   24.09    0.53
  -1   0  -2  127.47    2.39
   1   0   2  125.24    2.44
   1   0   2  127.36    2.38
  -2   0  -2  279.64    5.27
   2   0   2  283.10    5.26
   2   0   2  281.74    5.11
  -3   0  -2   20.81    0.83
   3   0   2   20.67    0.76
   3   0   2   20.24    0.56
  -4   0  -2   10.83    0.80
   4   0   2   11.75    0.69
  -5   0  -2   27.52    1.31
   5   0   2   27.42    1.16
  -6   0  -2   15.36    1.20
   6   0   2   16.30    1.05
  -7   0  -2    5.17    1.02
   7  -1  -2   14.30    1.06
  -7   1   2   14.19    1.47
   6  -1  -2    1.07    0.44
  -6   1   2    0.42    0.53
   5  -1  -2   11.52    0.75
  -5   1   2    9.74    0.90
   4  -1  -2  101.57    2.31
  -4   1   2   97.41    2.49
   3  -1  -2  171.21    3.39
  -3   1   2  167.61    3.53
  -3   1   2  169.74    3.05
   2  -1  -2   13.06    0.49
  -2   1   2   13.49    0.40
  -2   1   2   13.20    0.54
   1  -1  -2   73.51    1.50
  -1   1   2   71.37    1.45
  -1   1   2   71.87    1.46
   0  -1  -2   51.25    0.94
   0   1   2   48.78    1.14
   0   1   2   50.75    1.10
  -1  -1  -2  208.54    3.87
   1   1   2  212.34    3.92
   1   1   2  212.13    3.97
  -2  -1  -2  190.92    3.65
   2   1   2  182.96    3.63
   2   1   2  185.43    3.50
  -3  -1  -2    0.35    0.27
   3   1   2    0.66    0.26
   3   1   2    0.71    0.17
  -4  -1  -2   48.34    1.56
   4   1   2   48.61    1.47
  -5  -1  -2   38.27    1.54
   5   1   2   39.11    1.43
  -6  -1  -2    4.37    0.86
   6   1   2    6.98    0.84
  -7  -1  -2   -0.81    0.72
   7  -2  -2    5.90    0.76
  -7   2   2    3.60    0.87
   6  -2  -2    1.16    0.43
  -6   2   2    0.85    0.56
   5  -2  -2   29.82    1.14
  -5   2   2   31.22    1.37
   4  -2  -2  145.88    3.12
  -4   2   2  146.87    3.35
   3  -2  -2   35.14    1.00
  -3   2   2   34.57    1.10
  -3   2   2   34.49    0.85
   2  -2  -2    5.65    0.36
   2  -2  -2    5.41    0.38
  -2   2   2    5.52    0.35
   1  -2  -2   93.96    1.85
  -1   2   2   92.47    1.92
   0  -2  -2  110.99    2.07
   0   2   2  104.07    2.18
   0   2   2  105.46    2.19
  -1  -2  -2   20.97    0.64
   1   2   2   22.08    0.68
   1   2   2   20.52    0.67
   2   2   2    2.54    0.29
   2   2   2    3.42    0.36
  -3  -2  -2   39.25    1.26
   3   2   2   39.31    1.20
   3   2   2   37.87    1.00
  -4  -2  -2   44.10    1.55
   4   2   2   44.58    1.44
  -5  -2  -2    8.75    0.94
   5   2   2    9.84    0.82
  -6  -2  -2   -0.46    0.62
   6   2   2    0.97    0.53
   7  -3  -2    1.62    0.51
  -7   3   2    1.48    0.74
   6  -3  -2   11.84    0.86
  -6   3   2   13.22    1.11
   5  -3  -2   34.78    1.22
  -5   3   2   35.19    1.45
   4  -3  -2   56.58    1.50
  -4   3   2   53.75    1.68
   3  -3  -2    3.05    0.34
  -3   3   2    2.82    0.33
  -3   3   2    4.03    0.47
   2  -3  -2   88.17    1.93
   2  -3  -2   86.04    1.85
  -2   3   2   85.16    1.87
   1  -3  -2  118.04    2.33
  -1   3   2  114.27    2.41
   0  -3  -2    4.54    0.38
   0   3   2    4.79    0.42
   0   3   2    5.35    0.39
  -1  -3  -2   33.33    0.95
   1   3   2   31.52    0.96
   1   3   2   32.87    0.94
  -2  -3  -2   41.94    1.20
   2   3   2   40.68    1.14
  -3  -3  -2   53.54    1.62
   3   3   2   56.48    1.40
   3   3   2   54.37    1.54
  -4  -3  -2   24.06    1.21
   4   3   2   25.40    1.10
  -5  -3  -2    0.68    0.63
   5   3   2    0.53    0.45
  -6  -3  -2   14.66    1.43
   6   3   2   14.75    1.18
   7  -4  -2   12.47    0.98
  -7   4   2   11.31    1.29
   6  -4  -2   24.38    1.17
  -6   4   2   25.47    1.43
   5  -4  -2   14.94    0.81
  -5   4   2   14.31    1.00
   4  -4  -2    5.37    0.51
  -4   4   2    4.13    0.44
  -4   4   2    4.82    0.64
   3  -4  -2   31.38    0.96
   3  -4  -2   33.20    1.11
  -3   4   2   31.52    0.97
   2  -4  -2  113.56    2.49
   2  -4  -2  115.09    2.40
  -2   4   2  115.61    2.45
   1  -4  -2  212.99    4.15
  -1   4   2  218.33    4.24
   0  -4  -2   41.11    1.14
   0   4   2   41.21    1.14
   0   4   2   42.00    1.19
  -1  -4  -2  112.87    2.50
   1   4   2  113.82    2.49
   1   4   2  111.26    2.43
  -2  -4  -2   94.10    2.28
   2   4   2   93.83    2.20
   2   4   2   96.14    2.23
  -3  -4  -2   34.10    1.33
   3   4   2   36.02    1.24
   3   4   2   34.05    1.12
  -4  -4  -2   -0.57    0.48
   4   4   2    0.02    0.36
  -5  -4  -2   12.58    1.22
   5   4   2   13.87    1.02
   7  -5  -2   12.80    0.95
  -7   5   2   14.07    1.47
   6  -5  -2    8.78    0.78
  -6   5   2    8.07    1.05
   5  -5  -2    0.95    0.35
  -5   5   2    0.68    0.51
   4  -5  -2   32.03    1.07
   4  -5  -2   31.92    1.27
  -4   5   2   31.48    1.09
   3  -5  -2   50.33    1.51
   3  -5  -2   51.02    1.34
  -3   5   2   49.40    1.39
   2  -5  -2   64.68    1.55
   2  -5  -2   63.35    1.64
  -2   5   2   62.81    1.62
   1  -5  -2    4.89    0.44
  -1   5   2    6.28    0.53
   0  -5  -2   73.22    1.80
   0   5   2   71.87    1.82
   0   5   2   70.54    1.74
  -1  -5  -2   91.66    2.26
   1   5   2   88.70    2.13
   1   5   2   93.93    2.22
  -2  -5  -2   40.92    1.43
   2   5   2   40.70    1.28
   2   5   2   39.85    1.32
  -3  -5  -2    0.00    0.49
   3   5   2    0.39    0.33
   3   5   2    0.11    0.32
  -4  -5  -2    7.43    0.97
   4   5   2    6.78    0.73
   5   5   2   20.74    1.23
   7  -6  -2    6.97    0.81
  -7   6   2    8.31    1.21
   6  -6  -2    1.76    0.46
  -6   6   2    1.09    0.58
   5  -6  -2   30.14    1.16
  -5   6   2   31.30    1.44
   4  -6  -2   50.54    1.43
   4  -6  -2   48.13    1.65
  -4   6   2   48.06    1.47
   3  -6  -2   11.00    0.61
   3  -6  -2   10.88    0.76
  -3   6   2   12.11    0.74
   2  -6  -2    2.13    0.41
   2  -6  -2    1.69    0.34
  -2   6   2    2.96    0.46
   1  -6  -2   62.08    1.66
  -1   6   2   64.37    1.73
   0  -6  -2   73.78    1.92
   0   6   2   72.24    1.93
  -1  -6  -2   56.58    1.77
   1   6   2   56.88    1.59
   1   6   2   55.82    1.66
  -2  -6  -2    1.44    0.56
   2   6   2    0.90    0.37
   2   6   2    1.15    0.41
  -3  -6  -2   21.24    1.29
   3   6   2   20.91    1.04
   4   6   2   24.33    1.24
   5   6   2   12.13    1.08
  -7   7   2    0.15    0.65
   6  -7  -2   11.09    0.96
  -6   7   2    8.18    1.03
   5  -7  -2   40.04    1.69
   5  -7  -2   41.48    1.37
   4  -7  -2   45.14    1.37
   4  -7  -2   46.15    1.67
  -4   7   2   46.27    1.51
   3  -7  -2   -0.12    0.36
   3  -7  -2    0.61    0.30
  -3   7   2    0.36    0.40
   2  -7  -2   19.22    0.95
  -2   7   2   17.99    0.94
   1  -7  -2   69.50    1.89
  -1   7   2   71.56    1.96
   0  -7  -2   43.60    1.47
   0   7   2   44.22    1.48
  -1  -7  -2    0.96    0.53
   1   7   2    0.95    0.38
   1   7   2    1.03    0.43
  -2  -7  -2   29.47    1.44
   2   7   2   29.19    1.19
   2   7   2   30.08    1.23
   3   7   2   27.27    1.26
   4   7   2   17.22    1.12
  -6   8   2   10.77    1.20
   5  -8  -2   17.30    1.22
   4  -8  -2    0.66    0.49
  -4   8   2    0.23    0.45
   3  -8  -2    4.56    0.65
  -3   8   2    4.32    0.65
   2  -8  -2   30.60    1.23
  -2   8   2   29.82    1.27
   1  -8  -2   25.48    1.13
  -1   8   2   28.09    1.22
   0  -8  -2    0.56    0.43
   0   8   2    0.92    0.47
  -1  -8  -2   19.57    1.30
   1   8   2   19.82    1.08
   1   8   2   22.79    1.06
   2   8   2   27.55    1.24
   2   8   2   28.19    1.27
   3   8   2   16.29    1.13
   4   8   2    2.90    0.70
  -6   9   2    5.51    0.89
   5  -9  -2    0.80    0.58
   4  -9  -2   20.60    1.24
  -4   9   2   20.78    1.22
   3  -9  -2   24.39    1.22
  -3   9   2   25.30    1.27
   2  -9  -2   31.15    1.33
  -2   9   2   30.00    1.36
   1  -9  -2    2.65    0.54
  -1   9   2    2.23    0.57
   0   9   2   16.97    1.08
   1   9   2   38.52    1.55
   1   9   2   43.70    1.83
   2   9   2   21.64    1.21
   2   9   2   20.91    1.19
   3   9   2    4.58    0.79
   6 -10  -2   -0.30    0.73
   5 -10  -2    9.34    1.10
   4 -10  -2   16.53    1.20
  -4  10   2   17.62    1.19
   3 -10  -2   19.19    1.20
  -3  10   2   21.15    1.26
   2 -10  -2    6.93    0.83
  -2  10   2    5.80    0.81
  -1  10   2   10.71    1.01
   0  10   2   30.72    1.47
   1  10   2   19.76    1.20
   2  10   2    3.17    0.67
   6 -11  -2    1.29    0.82
   5 -11  -2   14.83    1.36
   4 -11  -2    9.09    1.06
  -4  11   2    9.06    1.02
  -3  11   2    1.80    0.67
  -2  11   2    4.57    0.85
  -1  11   2   21.62    1.36
   0  11   2   19.35    1.29
   1  11   2    1.73    0.62
   2  11   2    1.89    0.65
  -4  12   2    4.80    0.88
  -3  12   2    1.40    0.70
  -2  12   2   15.89    1.34
  -1  12   2   11.26    1.14
   0  12   2    2.67    0.74
   1  12   2    0.39    0.59
  -3  13   2    3.49    1.12
   2 -15   3    0.44    0.78
   1  14  -3   11.59    1.42
  -1 -14   3   14.33    1.55
   0  14  -3    9.11    1.06
   0 -14   3    8.34    1.19
  -1  14  -3    0.26    0.65
   1 -14   3   -0.11    0.59
   2 -14   3    4.79    0.96
  -3  14  -3    7.68    1.01
   3 -14   3    9.42    1.26
  -4  14  -3    4.13    0.89
   4 -14   3    4.08    1.04
  -2 -13   3   16.46    1.72
   1  13  -3   15.83    1.28
  -1 -13   3   18.17    1.54
   0  13  -3    0.52    0.59
   0 -13   3    1.26    0.67
  -1  13  -3    9.71    1.01
   1 -13   3   12.92    1.25
  -2  13  -3   14.50    1.24
   2 -13   3   13.85    1.31
  -3  13  -3    4.80    0.82
   3 -13   3    7.34    1.13
  -4  13  -3   -0.85    0.55
   4 -13   3    1.06    0.73
  -5  13  -3   -0.57    0.60
   5 -13   3    1.12    1.25
  -3 -12   3   13.46    1.64
  -2 -12   3   11.45    1.41
   1  12  -3    0.69    0.54
  -1 -12   3    1.63    0.81
   0  12  -3   14.73    1.11
   0 -12   3   14.35    1.30
  -1  12  -3   32.30    1.47
   1 -12   3   32.29    1.71
  -2  12  -3   13.60    1.11
   2 -12   3   13.97    1.25
  -3  12  -3    0.70    0.57
   3 -12   3    1.20    0.66
  -4  12  -3    4.81    0.80
   4 -12   3    4.75    0.93
  -5  12  -3    8.19    0.92
   5 -12   3   10.55    1.32
  -3 -11   3   14.76    1.64
   2  11  -3    3.08    0.84
  -2 -11   3    4.17    0.94
   1  11  -3   -0.18    0.43
  -1 -11   3    0.80    0.68
   0  11  -3   36.29    1.48
   0 -11   3   34.01    1.76
  -1  11  -3   24.62    1.22
   1 -11   3   25.54    1.50
  -2  11  -3    2.02    0.58
   2 -11   3    3.42    0.77
  -3  11  -3   13.84    0.99
   3 -11   3   12.45    1.27
  -4  11  -3   13.80    1.05
   4 -11   3   13.04    1.24
  -5  11  -3    9.12    0.93
   5 -11   3   10.01    1.26
   6 -11   3    0.24    0.73
  -4 -10   3    9.79    1.41
  -3 -10   3    5.02    1.08
   2  10  -3    7.90    0.78
  -2 -10   3    7.61    1.14
   1  10  -3   33.74    1.32
  -1 -10   3   32.37    1.79
   0  10  -3   26.24    1.16
   0 -10   3   25.97    1.51
  -1  10  -3    1.88    0.49
   1 -10   3    1.96    0.63
  -2  10  -3    1.35    0.46
   2 -10   3    1.68    0.62
  -3  10  -3   25.77    1.17
   3 -10   3   24.95    1.40
  -4  10  -3   17.55    1.01
   4 -10   3   17.02    1.27
  -5  10  -3    1.93    0.55
   5 -10   3    3.11    0.84
   6 -10   3    2.57    0.84
  -4  -9   3    0.60    0.82
  -3  -9   3   30.26    1.81
   2   9  -3   41.41    1.41
  -2  -9   3   43.73    1.99
   1   9  -3   53.62    1.64
  -1  -9   3   56.66    2.16
   0   9  -3   17.81    0.90
   0  -9   3   16.97    1.27
  -1   9  -3    9.96    0.73
   1  -9   3   11.82    1.13
  -2   9  -3   96.94    2.39
  -3   9  -3   37.04    1.31
   3  -9   3   36.59    1.57
  -4   9  -3    3.71    0.57
   4  -9   3    6.43    0.90
   5  -9   3    0.76    0.62
   6  -9   3   10.18    1.21
   5   8  -3    5.10    0.69
  -5  -8   3    5.26    1.25
   4   8  -3   -0.04    0.34
  -4  -8   3    0.09    0.73
   3   8  -3   29.24    1.08
  -3  -8   3   29.08    1.68
   2   8  -3   52.70    1.54
   2   8  -3   54.77    1.43
  -2  -8   3   54.33    2.12
   1   8  -3   29.61    1.09
  -1  -8   3   27.15    1.45
   0   8  -3   11.64    0.69
   0  -8   3   12.50    1.11
  -1   8  -3   44.73    1.32
   1  -8   3   47.12    1.72
  -2   8  -3   42.64    1.31
   2  -8   3   41.92    1.58
  -3   8  -3   14.59    0.77
   3  -8   3   14.97    1.00
  -4   8  -3    0.15    0.31
   4  -8   3   -0.07    0.44
   5  -8   3   22.76    1.36
   5   7  -3    1.44    0.49
  -5  -7   3    1.20    0.88
   4   7  -3   51.84    1.59
  -4  -7   3   49.55    2.15
   3   7  -3   30.74    1.07
  -3  -7   3   30.48    1.63
   2   7  -3   17.04    0.68
   2   7  -3   15.45    0.74
  -2  -7   3   17.22    1.24
   1   7  -3    1.50    0.33
   1   7  -3    1.38    0.22
  -1  -7   3    1.48    0.59
   0   7  -3   46.26    1.00
   0   7  -3   47.95    1.30
   0  -7   3   48.50    1.75
   1  -7   3   55.95    1.78
  -2   7  -3   12.10    0.62
   2  -7   3   12.11    0.82
  -3   7  -3    3.85    0.44
   3  -7   3    2.71    0.53
  -4   7  -3   28.44    1.01
   4  -7   3   28.58    1.30
   5  -7   3   29.83    1.43
  -6   7  -3    6.20    0.89
  -7   7  -3    0.90    0.60
   6   6  -3    3.28    0.66
  -6  -6   3    3.17    1.20
   5   6  -3   22.49    1.11
  -5  -6   3   19.30    1.54
   4   6  -3   45.27    1.45
  -4  -6   3   45.80    1.90
   3   6  -3   11.76    0.64
  -3  -6   3   11.79    1.12
   2   6  -3    0.11    0.18
   2   6  -3    0.08    0.23
  -2  -6   3   -0.08    0.56
   1   6  -3  107.59    2.29
   1   6  -3  105.16    2.13
  -1  -6   3  108.89    2.80
   0   6  -3  135.65    2.47
   0   6  -3  133.99    2.77
   0  -6   3  133.28    3.23
  -1   6  -3   26.24    0.83
   1  -6   3   26.80    1.09
  -2   6  -3    1.85    0.27
   2  -6   3    0.72    0.32
   2  -6   3    1.53    0.15
  -3   6  -3   80.89    1.84
   3  -6   3   77.56    1.69
   3  -6   3   80.31    2.15
  -4   6  -3   36.73    1.12
   4  -6   3   36.81    1.09
   4  -6   3   40.80    1.47
   5  -6   3    7.43    0.59
   5  -6   3    6.75    0.81
  -6   6  -3    0.97    0.51
  -7   6  -3    6.25    1.00
   6   5  -3    9.20    0.93
  -6  -5   3    7.11    1.22
   5   5  -3   37.25    1.41
  -5  -5   3   35.25    1.80
   4   5  -3   19.29    0.91
  -4  -5   3   21.09    1.25
   3   5  -3    3.05    0.38
  -3  -5   3    3.86    0.73
   2   5  -3   83.35    1.84
   2   5  -3   82.56    1.80
  -2  -5   3   85.14    2.31
   1   5  -3   90.78    1.92
   1   5  -3   90.81    1.83
  -1  -5   3   90.68    2.37
   0   5  -3    1.94    0.13
   0   5  -3    2.32    0.26
   0  -5   3    2.20    0.50
  -1   5  -3    1.80    0.22
   1  -5   3    2.13    0.37
  -2   5  -3   25.82    0.78
   2  -5   3   24.65    0.62
   2  -5   3   26.27    0.98
  -3   5  -3   88.05    1.94
   3  -5   3   87.10    1.88
   3  -5   3   92.22    2.25
  -4   5  -3   24.40    0.81
   4  -5   3   24.29    0.86
   4  -5   3   25.26    1.12
   5  -5   3    0.25    0.31
   5  -5   3    0.49    0.49
  -6   5  -3   18.68    1.24
   6  -5   3   17.94    0.96
  -7   5  -3    7.20    1.10
   7  -5   3    6.21    0.77
   6   4  -3   17.81    1.09
  -6  -4   3   14.94    1.44
   5   4  -3   11.37    0.85
  -5  -4   3   14.72    1.36
   4   4  -3    1.17    0.35
  -4  -4   3    1.97    0.66
   3   4  -3   88.91    2.07
  -3  -4   3   90.56    2.42
   2   4  -3  186.20    3.55
   2   4  -3  185.20    3.65
  -2  -4   3  194.86    4.07
   1   4  -3   72.24    1.53
   1   4  -3   72.67    1.49
  -1  -4   3   74.25    1.91
   0   4  -3   13.55    0.34
   0   4  -3   14.34    0.48
   0  -4   3   15.78    0.81
  -1   4  -3  103.73    2.07
   1  -4   3  106.43    2.08
   1  -4   3   97.40    1.90
   1  -4   3  104.19    2.30
  -2   4  -3  317.82    5.78
   2  -4   3  318.15    6.02
   2  -4   3  308.83    5.78
   2  -4   3  310.23    5.69
  -3   4  -3   46.81    1.17
   3  -4   3   49.49    1.18
   3  -4   3   52.45    1.46
   3  -4   3   48.42    1.20
  -4   4  -3    3.50    0.33
   4  -4   3    3.40    0.34
   4  -4   3    3.55    0.41
   4  -4   3    3.84    0.56
  -5   4  -3   18.22    1.07
   5  -4   3   16.23    0.83
  -6   4  -3   26.56    1.43
   6  -4   3   26.09    1.17
  -7   4  -3    5.34    1.02
   7  -4   3    4.72    0.72
   6   3  -3    7.86    0.85
  -6  -3   3    6.47    1.04
   5   3  -3    1.07    0.42
  -5  -3   3    0.59    0.62
   4   3  -3   14.45    0.77
  -4  -3   3   14.63    0.96
   3   3  -3  119.68    2.55
  -3  -3   3  115.80    2.81
   2   3  -3  144.58    2.87
   2   3  -3  141.80    2.71
  -2  -3   3  148.12    3.15
   1   3  -3    0.06    0.12
   1   3  -3    0.18    0.11
  -1  -3   3    0.10    0.11
  -1  -3   3    0.38    0.32
   0   3  -3  170.09    2.95
   0   3  -3  156.13    3.03
   0  -3   3  158.45    3.33
   0  -3   3  163.64    3.05
   1  -3   3   52.97    1.11
   1  -3   3   55.24    1.32
   1  -3   3   53.13    1.17
   2  -3   3   24.95    0.81
   2  -3   3   23.90    0.66
   2  -3   3   23.16    0.65
  -3   3  -3    4.08    0.29
   3  -3   3    4.14    0.47
   3  -3   3    3.88    0.30
   3  -3   3    4.33    0.36
  -4   3  -3    3.78    0.31
  -4   3  -3    3.06    0.50
   4  -3   3    3.75    0.43
   4  -3   3    4.05    0.34
  -5   3  -3   75.49    2.23
   5  -3   3   72.86    1.99
  -6   3  -3   10.49    1.10
   6  -3   3   10.50    0.83
  -7   3  -3   -0.50    0.65
   7  -3   3    0.29    0.48
   6   2  -3    0.07    0.41
  -6  -2   3    0.74    0.67
   5   2  -3   21.96    1.03
  -5  -2   3   23.71    1.30
   4   2  -3   79.37    2.00
  -4  -2   3   79.91    2.23
   3   2  -3   39.01    1.12
  -3  -2   3   40.13    1.32
   2   2  -3   32.24    0.71
   2   2  -3   33.89    0.90
  -2  -2   3   33.69    1.05
   1   2  -3   14.76    0.46
  -1  -2   3   13.35    0.39
  -1  -2   3   13.98    0.61
   0  -2   3   33.61    0.94
   0  -2   3   32.61    0.76
   1  -2   3   41.10    0.98
   1  -2   3   39.32    0.92
   1  -2   3   40.37    0.91
   2  -2   3   22.15    0.73
   2  -2   3   22.56    0.66
   2  -2   3   22.51    0.62
  -3   2  -3   41.97    1.24
   3  -2   3   44.63    1.18
   3  -2   3   43.64    1.02
  -4   2  -3   37.41    1.30
   4  -2   3   37.09    1.19
  -5   2  -3   14.16    1.02
   5  -2   3   15.59    0.90
  -6   2  -3   -1.23    0.48
   6  -2   3    0.33    0.39
  -7   2  -3    2.67    0.90
   7  -2   3    2.38    0.63
   7   1  -3    0.04    0.46
  -7  -1   3   -0.49    0.71
   6   1  -3   25.07    1.20
  -6  -1   3   23.14    1.44
   5   1  -3   43.44    1.47
  -5  -1   3   44.23    1.70
   4   1  -3   27.13    1.01
  -4  -1   3   29.22    1.22
   3   1  -3    1.12    0.25
  -3  -1   3    2.21    0.42
   2   1  -3   50.75    1.23
  -2  -1   3   54.56    1.37
  -2  -1   3   52.16    1.02
   1   1  -3 1000.00   18.37
  -1  -1   3  983.13   18.06
  -1  -1   3  994.34   18.67
   0  -1   3  289.54    5.20
   0  -1   3  286.90    5.25
   1  -1   3    3.08    0.27
   1  -1   3    2.72    0.24
   1  -1   3    2.85    0.22
   2  -1   3  175.75    3.30
   2  -1   3  174.61    3.41
  -3   1  -3   75.24    1.87
   3  -1   3   79.44    1.64
   3  -1   3   80.52    1.85
  -4   1  -3   59.75    1.74
   4  -1   3   60.04    1.65
  -5   1  -3   -0.06    0.45
   5  -1   3    0.35    0.35
  -6   1  -3    2.51    0.78
   6  -1   3    2.23    0.58
  -7   1  -3   13.94    1.34
   7  -1   3   16.85    1.53
   7   0  -3    2.44    0.61
  -7   0   3    2.57    0.82
   6   0  -3   25.06    1.18
  -6   0   3   22.24    1.40
   5   0  -3   30.62    1.17
  -5   0   3   27.89    1.34
   4   0  -3    0.39    0.28
  -4   0   3   -0.24    0.34
   3   0  -3   36.03    1.05
  -3   0   3   35.56    1.15
   2   0  -3   79.87    1.75
  -2   0   3   82.74    1.84
  -2   0   3   81.97    1.56
  -1   0   3    5.95    0.30
  -1   0   3    5.39    0.26
   0   0   3   22.10    0.46
   0   0   3   21.10    0.57
  -1   0  -3   10.03    0.34
   1   0   3    9.78    0.38
   1   0   3   10.36    0.45
  -2   0  -3  361.73    6.67
   2   0   3  367.76    6.73
   2   0   3  355.86    6.57
  -3   0  -3   86.16    2.04
   3   0   3   86.42    2.02
   3   0   3   85.53    1.79
  -4   0  -3    3.11    0.58
   4   0   3    3.12    0.48
  -5   0  -3    9.15    0.94
   5   0   3    8.43    0.76
  -6   0  -3   16.33    1.26
   6   0   3   16.80    1.09
  -7   0  -3   11.11    1.31
   7  -1  -3   25.23    1.29
  -7   1   3   22.67    1.58
   6  -1  -3   15.97    0.99
  -6   1   3   15.98    1.22
   5  -1  -3    2.18    0.42
  -5   1   3    2.07    0.60
   4  -1  -3   34.42    1.14
  -4   1   3   34.84    1.32
   3  -1  -3   99.13    2.22
  -3   1   3  100.77    2.35
  -3   1   3  103.84    1.93
   2  -1  -3  101.78    2.12
  -2   1   3  101.38    1.98
  -2   1   3   99.82    2.15
  -1   1   3    1.19    0.17
  -1   1   3    1.11    0.20
   0   1   3    0.32    0.16
  -1  -1  -3  250.54    4.55
   1   1   3  252.97    4.75
   1   1   3  247.39    4.67
  -2  -1  -3   81.16    1.77
   2   1   3   80.91    1.85
   2   1   3   78.38    1.71
  -3  -1  -3    5.67    0.55
   3   1   3    5.08    0.50
   3   1   3    4.45    0.35
  -4  -1  -3   13.26    0.85
   4   1   3   13.34    0.79
  -5  -1  -3   20.84    1.18
   5   1   3   21.05    1.10
  -6  -1  -3   14.86    1.29
   6   1   3   16.01    1.12
   7  -2  -3   13.55    1.00
  -7   2   3   14.47    1.49
   6  -2  -3    1.87    0.51
  -6   2   3    0.83    0.62
   5  -2  -3    8.75    0.69
  -5   2   3    8.59    0.92
   4  -2  -3  150.18    3.26
  -4   2   3  157.49    3.52
   3  -2  -3  177.50    3.60
  -3   2   3  176.18    3.40
  -3   2   3  183.94    3.74
   2  -2  -3    8.94    0.47
  -2   2   3    8.05    0.43
  -2   2   3    9.57    0.45
   1  -2  -3   38.06    0.87
  -1   2   3   38.32    1.01
   0  -2  -3   50.84    1.02
   0   2   3   50.28    1.25
  -1  -2  -3  177.30    3.37
   1   2   3  175.74    3.52
   1   2   3  182.68    3.57
  -2  -2  -3   15.26    0.64
   2   2   3   16.60    0.70
   2   2   3   15.66    0.63
  -3  -2  -3    6.68    0.61
   3   2   3    7.29    0.45
   3   2   3    6.50    0.56
  -4  -2  -3   39.14    1.42
   4   2   3   39.13    1.38
  -5  -2  -3   30.69    1.45
   5   2   3   33.32    1.42
  -6  -2  -3    1.44    0.76
   6   2   3    2.33    0.69
   7  -3  -3    2.04    0.55
  -7   3   3    1.72    0.81
   6  -3  -3    2.17    0.49
  -6   3   3    2.05    0.67
   5  -3  -3   34.76    1.24
  -5   3   3   32.78    1.44
   4  -3  -3   52.47    1.49
  -4   3   3   56.34    1.70
   3  -3  -3    5.16    0.45
  -3   3   3    5.68    0.45
  -3   3   3    5.98    0.49
   2  -3  -3   14.54    0.63
   2  -3  -3   13.60    0.57
  -2   3   3   13.04    0.59
   1  -3  -3   61.34    1.34
  -1   3   3   61.96    1.50
   0  -3  -3   67.53    1.44
   0   3   3   68.07    1.65
  -1  -3  -3    2.53    0.34
   1   3   3    1.95    0.31
   1   3   3    2.43    0.34
  -2  -3  -3   21.53    0.84
   2   3   3   21.41    0.82
   2   3   3   19.66    0.83
  -3  -3  -3   71.25    1.91
   3   3   3   70.63    1.75
   3   3   3   69.98    1.90
  -4  -3  -3   25.29    1.23
   4   3   3   24.30    1.14
  -5  -3  -3    1.49    0.70
   5   3   3    1.26    0.52
   6   3   3    3.93    0.88
   7  -4  -3    2.67    0.61
  -7   4   3    1.77    0.77
   6  -4  -3   15.16    0.93
  -6   4   3   15.50    1.21
   5  -4  -3   33.98    1.25
  -5   4   3   37.54    1.52
   4  -4  -3    7.60    0.60
  -4   4   3    7.42    0.59
  -4   4   3    7.43    0.69
   3  -4  -3   15.76    0.77
   3  -4  -3   16.48    0.73
  -3   4   3   15.79    0.74
   2  -4  -3  133.37    2.83
   2  -4  -3  138.99    2.87
  -2   4   3  133.92    2.88
   1  -4  -3  188.29    3.63
  -1   4   3  185.74    3.80
   0  -4  -3   26.03    0.81
   0   4   3   25.81    0.94
  -1  -4  -3   12.02    0.69
   1   4   3   13.25    0.68
   1   4   3   12.77    0.71
  -2  -4  -3  115.39    2.66
   2   4   3  119.70    2.70
   2   4   3  116.54    2.68
  -3  -4  -3   48.87    1.60
   3   4   3   47.94    1.43
   3   4   3   47.88    1.55
  -4  -4  -3   21.08    1.25
   4   4   3   22.93    1.15
   5   4   3    1.33    0.54
   7  -5  -3   13.73    1.04
  -7   5   3   10.66    1.33
   6  -5  -3   17.48    1.01
  -6   5   3   14.69    1.20
   5  -5  -3    7.64    0.69
  -5   5   3    7.22    0.88
   4  -5  -3    6.13    0.60
  -4   5   3    5.63    0.57
  -4   5   3    5.90    0.67
   3  -5  -3   58.09    1.54
   3  -5  -3   58.66    1.66
  -3   5   3   56.44    1.58
   2  -5  -3   74.81    1.84
  -2   5   3   74.92    1.90
   1  -5  -3    2.73    0.36
  -1   5   3    2.76    0.44
   0  -5  -3    2.33    0.37
   0   5   3    2.45    0.42
  -1  -5  -3   34.11    1.22
   1   5   3   35.51    1.21
   1   5   3   34.74    1.23
  -2  -5  -3  161.07    3.65
   2   5   3  164.25    3.63
   2   5   3  173.45    3.67
   3   5   3   14.72    0.87
   3   5   3   15.66    0.93
   4   5   3    0.31    0.45
   5   5   3   10.77    1.05
   7  -6  -3   14.37    1.06
  -7   6   3   12.04    1.39
   6  -6  -3    3.68    0.60
  -6   6   3    4.44    0.88
   5  -6  -3    1.95    0.44
  -5   6   3    1.98    0.57
   4  -6  -3   48.96    1.66
   4  -6  -3   48.50    1.47
  -4   6   3   49.12    1.53
   3  -6  -3   55.75    1.68
   3  -6  -3   57.01    1.57
  -3   6   3   57.60    1.68
   2  -6  -3   24.14    0.98
  -2   6   3   23.98    1.04
   1  -6  -3   11.06    0.65
  -1   6   3   11.59    0.79
   0  -6  -3   26.16    1.00
   0   6   3   24.34    1.08
  -1  -6  -3   68.58    1.94
   1   6   3   70.72    1.93
   1   6   3   72.21    1.97
   2   6   3   -0.08    0.36
   2   6   3    0.68    0.40
   3   6   3    1.15    0.47
   4   6   3   11.51    1.06
   5   6   3   17.37    1.29
  -7   7   3    1.14    0.73
   6  -7  -3    0.28    0.38
  -6   7   3   -0.04    0.51
   5  -7  -3   14.48    0.89
  -5   7   3   16.50    1.09
   4  -7  -3   76.39    2.26
   4  -7  -3   78.54    2.04
  -4   7   3   80.29    2.18
   3  -7  -3   35.72    1.24
   3  -7  -3   35.06    1.33
  -3   7   3   36.24    1.36
   2  -7  -3    0.98    0.39
  -2   7   3    0.95    0.45
   1  -7  -3   52.12    1.52
  -1   7   3   50.34    1.64
   0  -7  -3   42.81    1.43
   0   7   3   46.06    1.54
   1   7   3   80.46    2.22
   1   7   3   80.52    2.20
   2   7   3    3.25    0.59
   2   7   3    3.47    0.62
   3   7   3    8.34    0.88
   4   7   3   19.62    1.31
  -6   8   3    3.98    0.82
   5  -8  -3   19.31    1.31
   4  -8  -3    3.61    0.65
  -4   8   3    4.71    0.69
   3  -8  -3    0.78    0.40
   3  -8  -3    0.63    0.41
  -3   8   3   -0.17    0.43
   2  -8  -3   20.86    1.04
  -2   8   3   22.76    1.17
  -1   8   3   45.81    1.63
   0   8   3   30.53    1.33
   1   8   3    5.20    0.70
   1   8   3    6.45    0.74
   2   8   3   21.39    1.23
   2   8   3   20.61    1.18
   3   8   3   17.17    1.21
   4   8   3   15.01    1.33
  -6   9   3    9.00    1.12
   5  -9  -3    6.68    0.94
   4  -9  -3    0.86    0.53
  -4   9   3    1.28    0.58
   3  -9  -3    8.23    0.86
  -3   9   3    7.29    0.83
  -2   9   3   43.84    1.68
  -1   9   3    6.42    0.80
   0   9   3    0.49    0.48
   1   9   3   37.51    1.54
   1   9   3   36.87    1.48
   2   9   3   27.66    1.39
   2   9   3   26.87    1.41
   3   9   3    7.68    1.02
  -6  10   3   12.13    1.16
   5 -10  -3    0.78    0.63
   4 -10  -3   14.02    1.71
  -4  10   3   11.24    1.06
  -3  10   3   25.44    1.39
  -2  10   3   19.45    1.28
  -1  10   3    2.03    0.64
   0  10   3    5.54    0.79
   1  10   3   39.81    1.69
   2  10   3   13.60    1.09
  -4  11   3   17.89    1.36
  -3  11   3   17.83    1.32
  -2  11   3   -0.15    0.56
  -1  11   3    2.72    0.71
   0  11   3   17.04    1.24
   1  11   3   14.50    1.19
   2  11   3    0.33    0.56
  -4  12   3   10.13    1.16
  -3  12   3    0.42    0.67
  -2  12   3    4.43    0.85
  -1  12   3    9.76    1.09
   0  12   3   12.54    1.23
   2 -15   4    3.85    1.53
   1  14  -4    9.43    1.10
  -1 -14   4    9.74    1.37
   0  14  -4   15.19    1.28
   0 -14   4   17.73    1.54
  -1  14  -4    4.24    0.84
   1 -14   4    6.26    1.11
  -2  14  -4    0.30    0.61
   2 -14   4    1.72    0.78
  -3  14  -4    6.91    0.95
   3 -14   4    9.54    1.28
  -4  14  -4    7.03    0.95
   4 -14   4    9.15    1.97
  -2 -13   4   11.26    1.47
   1  13  -4   17.34    1.31
  -1 -13   4   19.74    1.59
   0  13  -4   12.12    1.13
   0 -13   4   13.06    1.45
  -1  13  -4   -0.83    0.48
   1 -13   4    0.44    0.63
  -2  13  -4    7.74    0.96
   2 -13   4    7.32    1.10
  -3  13  -4   15.83    1.20
   3 -13   4   15.97    1.42
  -4  13  -4    2.62    0.75
   4 -13   4    3.65    0.92
  -5  13  -4   -1.57    0.52
  -3 -12   4    9.36    1.47
  -2 -12   4   21.34    1.76
   1  12  -4   14.74    1.08
  -1 -12   4   13.46    1.44
   0  12  -4    0.03    0.46
   0 -12   4    0.14    0.60
  -1  12  -4    9.82    0.93
   1 -12   4    9.80    1.15
  -2  12  -4   24.74    1.28
   2 -12   4   24.82    1.53
  -3  12  -4   11.09    0.98
   3 -12   4   10.52    1.20
  -4  12  -4   -1.01    0.46
   4 -12   4   -0.04    0.64
  -5  12  -4    5.77    0.82
   5 -12   4    6.98    1.19
  -3 -11   4   27.83    1.94
  -2 -11   4   11.21    1.36
   1  11  -4   -0.31    0.43
  -1 -11   4    0.41    0.68
   0  11  -4   17.33    1.04
   0 -11   4   18.36    1.41
  -1  11  -4   29.17    1.27
   1 -11   4   29.96    1.63
  -2  11  -4   31.14    1.34
   2 -11   4   32.87    1.66
  -3  11  -4   -0.19    0.40
   3 -11   4    0.05    0.56
  -4  11  -4    4.24    0.66
   4 -11   4    3.62    0.81
  -5  11  -4   12.51    0.99
   5 -11   4   15.32    1.38
   6 -11   4    6.55    1.75
  -4 -10   4   13.14    1.61
  -3 -10   4   18.00    1.61
   2  10  -4    0.04    0.42
  -2 -10   4   -0.01    0.72
   1  10  -4   16.63    0.97
  -1 -10   4   15.30    1.37
   0  10  -4   29.50    1.19
   0 -10   4   28.63    1.61
  -1  10  -4   14.30    0.87
   1 -10   4   14.62    1.14
  -2  10  -4    0.30    0.38
   2 -10   4    1.62    0.60
  -3  10  -4   13.59    0.87
   3 -10   4   12.45    1.10
  -4  10  -4   18.27    1.03
   4 -10   4   15.86    1.24
  -5  10  -4   13.11    0.95
   5 -10   4   13.62    1.25
   6 -10   4    0.92    0.74
  -4  -9   4   23.90    1.81
  -3  -9   4    0.14    0.79
   2   9  -4   21.56    0.99
  -2  -9   4   21.70    1.55
   1   9  -4   70.27    1.89
  -1  -9   4   71.78    2.46
   0   9  -4   43.94    1.39
   0  -9   4   43.43    1.88
  -1   9  -4   -0.17    0.30
   1  -9   4    0.04    0.52
  -2   9  -4   40.62    1.34
  -3   9  -4   39.39    1.33
   3  -9   4   36.95    1.61
  -4   9  -4   23.65    1.07
   4  -9   4   25.85    1.38
  -5   9  -4    1.37    0.51
   5  -9   4    2.35    0.66
   6  -9   4    2.09    0.69
   5   8  -4   10.18    0.85
  -5  -8   4    9.56    1.43
   4   8  -4    4.76    0.58
  -4  -8   4    4.18    1.06
   3   8  -4   12.46    0.70
  -3  -8   4   15.09    1.44
   2   8  -4   51.43    1.47
  -2  -8   4   51.26    2.03
   1   8  -4  134.35    2.91
  -1  -8   4  129.93    3.55
   0   8  -4   15.04    0.74
   0  -8   4   14.69    1.16
  -1   8  -4   19.30    0.82
   1  -8   4   19.60    1.19
  -2   8  -4   46.01    1.34
   2  -8   4   42.96    1.62
  -3   8  -4   26.15    1.01
   3  -8   4   28.05    1.30
  -4   8  -4   10.02    0.70
   4  -8   4    9.23    0.85
   5  -8   4    2.39    0.69
   6  -8   4   11.65    1.23
   5   7  -4    0.30    0.38
  -5  -7   4    0.12    0.83
   4   7  -4   15.25    0.85
  -4  -7   4   14.99    1.41
   3   7  -4   28.92    1.01
  -3  -7   4   30.78    1.65
   2   7  -4   35.45    1.08
   2   7  -4   33.99    1.00
  -2  -7   4   33.13    1.63
   1   7  -4   26.02    0.72
   1   7  -4   26.01    0.90
  -1  -7   4   24.69    1.39
   0   7  -4   18.19    0.72
   0  -7   4   18.01    1.14
  -1   7  -4   74.90    1.78
   1  -7   4   73.35    2.17
  -2   7  -4   58.33    1.49
   2  -7   4   57.24    1.80
  -3   7  -4    1.05    0.30
   3  -7   4    0.58    0.38
  -4   7  -4   10.19    0.64
   4  -7   4   10.36    0.90
   5  -7   4   14.30    1.09
  -6   7  -4   13.52    1.06
  -7   7  -4    0.86    0.69
   6   6  -4    2.18    0.58
  -6  -6   4    1.29    1.51
   5   6  -4    9.22    0.78
  -5  -6   4    9.35    1.23
   4   6  -4   53.58    1.58
  -4  -6   4   53.41    2.14
   3   6  -4   36.26    1.13
  -3  -6   4   37.88    1.69
   2   6  -4    5.88    0.43
   2   6  -4    5.99    0.41
  -2  -6   4    6.77    0.88
   1   6  -4   23.83    0.77
   1   6  -4   22.37    0.64
  -1  -6   4   24.56    1.25
   0   6  -4  123.04    2.24
   0   6  -4  121.83    2.54
   0  -6   4  123.02    3.07
  -1   6  -4   92.88    2.04
   1  -6   4   93.87    2.41
  -2   6  -4   30.02    0.92
   2  -6   4   31.76    1.16
   2  -6   4   28.77    0.71
  -3   6  -4   31.03    0.96
   3  -6   4   30.79    1.21
   3  -6   4   29.66    0.84
  -4   6  -4   43.77    1.22
   4  -6   4   39.90    1.17
   4  -6   4   41.17    1.47
   5  -6   4   32.23    1.44
   5  -6   4   30.40    1.12
  -6   6  -4    4.10    0.75
  -7   6  -4   -0.34    0.57
   6   5  -4    1.83    0.57
  -6  -5   4    2.05    0.88
   5   5  -4   32.37    1.28
  -5  -5   4   27.84    1.65
   4   5  -4   49.73    1.51
  -4  -5   4   50.10    1.95
   3   5  -4    7.24    0.52
  -3  -5   4    8.94    0.98
   2   5  -4   16.17    0.61
   2   5  -4   16.63    0.58
  -2  -5   4   17.03    1.06
   1   5  -4   95.38    2.00
   1   5  -4   96.79    1.92
  -1  -5   4   96.33    2.49
   0   5  -4   65.84    1.27
   0   5  -4   66.78    1.49
   0  -5   4   66.01    1.90
  -1   5  -4   39.27    1.00
   1  -5   4   38.52    1.00
   1  -5   4   37.62    1.24
  -2   5  -4   17.65    0.63
   2  -5   4   16.77    0.52
   2  -5   4   16.23    0.78
   2  -5   4   15.91    0.61
  -3   5  -4   98.49    2.12
   3  -5   4   96.32    2.07
   3  -5   4   96.25    2.37
   3  -5   4   98.60    2.11
  -4   5  -4   41.86    1.17
   4  -5   4   43.56    1.17
   4  -5   4   41.42    1.46
   4  -5   4   39.80    1.20
   5  -5   4   11.56    0.71
   5  -5   4   10.46    0.95
  -6   5  -4    2.16    0.66
   6  -5   4    2.12    0.49
  -7   5  -4    6.52    1.08
   7  -5   4    7.07    0.83
   6   4  -4   17.24    1.07
  -6  -4   4   17.33    1.49
   5   4  -4   42.29    1.48
  -5  -4   4   41.30    1.85
   4   4  -4   18.00    0.86
  -4  -4   4   20.96    1.26
   3   4  -4   37.32    1.11
  -3  -4   4   36.80    1.42
   2   4  -4  113.60    2.35
   2   4  -4  113.56    2.25
  -2  -4   4  114.68    2.76
   1   4  -4  161.17    3.02
   1   4  -4  159.03    3.05
  -1  -4   4  156.93    3.05
  -1  -4   4  159.13    3.49
   0   4  -4    9.07    0.31
   0   4  -4    8.86    0.38
   0  -4   4    8.86    0.39
   0  -4   4    9.30    0.67
  -1   4  -4    0.51    0.16
   1  -4   4    0.78    0.27
   1  -4   4    0.39    0.16
  -2   4  -4  144.78    2.81
   2  -4   4  139.19    2.79
   2  -4   4  138.23    2.98
   2  -4   4  140.34    2.75
  -3   4  -4   79.23    1.79
   3  -4   4   82.75    2.04
   3  -4   4   82.82    1.80
   3  -4   4   81.83    1.82
  -4   4  -4   30.15    0.91
   4  -4   4   30.75    1.03
   4  -4   4   31.95    0.94
   4  -4   4   31.49    1.21
  -5   4  -4    7.07    0.83
   5  -4   4    5.62    0.60
  -6   4  -4   22.41    1.34
   6  -4   4   21.98    1.14
  -7   4  -4    9.61    1.18
   7  -4   4   12.55    1.05
   6   3  -4   25.49    1.24
  -6  -3   4   22.64    1.57
   5   3  -4   10.31    0.77
  -5  -3   4    8.37    0.98
   4   3  -4    6.78    0.59
  -4  -3   4    7.18    0.88
   3   3  -4   92.41    2.10
  -3  -3   4   92.49    2.39
   2   3  -4  252.54    4.77
   2   3  -4  261.94    4.94
  -2  -3   4  258.97    4.78
  -2  -3   4  275.15    5.28
   1   3  -4  171.39    3.20
  -1  -3   4  164.54    3.16
  -1  -3   4  168.56    3.52
   0  -3   4   21.12    0.60
   0  -3   4   19.83    0.81
   1  -3   4   71.26    1.61
   1  -3   4   69.99    1.49
   1  -3   4   67.86    1.49
   2  -3   4  123.13    2.45
   2  -3   4  119.86    2.42
   2  -3   4  119.69    2.55
   3  -3   4   45.56    1.13
   3  -3   4   45.28    1.22
   3  -3   4   45.98    1.33
  -4   3  -4    6.21    0.63
   4  -3   4    7.40    0.46
   4  -3   4    6.91    0.58
  -5   3  -4   27.19    1.27
   5  -3   4   28.25    1.14
  -6   3  -4   17.63    1.22
   6  -3   4   17.26    1.06
  -7   3  -4    3.96    0.93
   7  -3   4    6.14    0.84
   6   2  -4    7.87    0.82
  -6  -2   4    7.56    1.04
   5   2  -4    0.56    0.35
  -5  -2   4    0.63    0.57
   4   2  -4   62.69    1.71
  -4  -2   4   65.52    1.98
   3   2  -4   67.06    1.41
   3   2  -4   69.80    1.69
  -3  -2   4   68.93    1.90
   2   2  -4   87.88    1.89
  -2  -2   4   86.45    1.69
  -2  -2   4   85.89    2.07
   1   2  -4   98.62    2.02
  -1  -2   4   99.92    1.95
  -1  -2   4  100.59    2.21
   0  -2   4  108.86    2.13
   0  -2   4  107.54    2.28
   1  -2   4  103.36    2.14
   1  -2   4  104.68    2.08
   1  -2   4  102.30    2.10
   2  -2   4   22.77    0.67
   2  -2   4   23.10    0.74
   2  -2   4   22.48    0.74
  -3   2  -4    1.97    0.35
   3  -2   4    2.79    0.37
   3  -2   4    1.56    0.24
  -4   2  -4   49.29    1.54
   4  -2   4   45.04    1.39
   4  -2   4   47.85    1.48
  -5   2  -4   35.87    1.45
   5  -2   4   34.29    1.32
  -6   2  -4    3.40    0.77
   6  -2   4    4.81    0.71
  -7   2  -4   -2.04    0.62
   7  -2   4    0.04    0.71
   7   1  -4   15.81    1.14
  -7  -1   4   14.35    1.53
   6   1  -4    1.02    0.45
  -6  -1   4    2.00    0.73
   5   1  -4   40.28    1.39
  -5  -1   4   39.45    1.64
   4   1  -4   55.31    1.56
  -4  -1   4   55.01    1.77
   3   1  -4   48.25    1.31
  -3  -1   4   47.64    1.45
  -3  -1   4   50.11    0.98
   2   1  -4    5.08    0.38
  -2  -1   4    4.89    0.44
  -2  -1   4    4.94    0.24
   1   1  -4  293.20    5.48
  -1  -1   4  291.34    5.50
  -1  -1   4  303.29    5.38
   0  -1   4  177.12    3.43
   0  -1   4  188.48    3.45
   1  -1   4   52.68    1.31
   1  -1   4   53.54    1.15
   1  -1   4   55.03    1.21
   2  -1   4   27.92    0.77
   2  -1   4   26.82    0.86
  -3   1  -4   75.63    1.85
   3  -1   4   76.10    1.86
   3  -1   4   76.30    1.67
  -4   1  -4  116.90    2.77
   4  -1   4  113.93    2.70
  -5   1  -4   26.54    1.27
   5  -1   4   26.50    1.18
  -6   1  -4    0.04    0.56
   6  -1   4    0.23    0.47
  -7   1  -4    3.76    0.97
   7   0  -4    0.44    0.44
  -7   0   4    0.04    0.72
   6   0  -4   13.43    0.92
  -6   0   4   11.40    1.19
   5   0  -4   48.70    1.55
  -5   0   4   51.59    1.84
   4   0  -4   36.32    1.19
  -4   0   4   37.37    1.38
   3   0  -4    3.81    0.39
  -3   0   4    4.79    0.50
  -3   0   4    5.09    0.23
   2   0  -4  253.10    4.90
  -2   0   4  265.23    4.71
  -2   0   4  257.34    4.96
  -1   0   4  165.74    3.09
  -1   0   4  160.18    3.11
   0   0   4  125.02    2.43
   0   0   4  121.15    2.22
  -1   0  -4   15.04    0.43
   1   0   4   15.25    0.63
   1   0   4   15.70    0.54
  -2   0  -4   47.95    1.17
   2   0   4   47.34    1.16
   2   0   4   46.82    1.28
  -3   0  -4   81.56    1.95
   3   0   4   80.19    1.99
   3   0   4   79.76    1.77
  -4   0  -4   55.11    1.69
   4   0   4   54.18    1.64
  -5   0  -4   -0.63    0.41
   5   0   4    0.14    0.39
  -6   0  -4    1.98    0.73
   6   0   4    2.94    0.65
   7  -1  -4   19.12    1.15
  -7   1   4   17.71    1.47
   6  -1  -4   33.78    1.37
  -6   1   4   34.51    1.68
   5  -1  -4   10.40    0.76
  -5   1   4   12.35    0.98
   4  -1  -4    2.34    0.39
  -4   1   4    2.67    0.51
   3  -1  -4   63.64    1.59
  -3   1   4   62.19    1.32
  -3   1   4   63.83    1.69
   2  -1  -4  248.83    4.69
  -2   1   4  238.24    4.65
  -2   1   4  242.10    4.51
  -1   1   4   67.92    1.50
  -1   1   4   68.43    1.41
   0   1   4    0.20    0.17
  -1  -1  -4  126.62    2.41
   1   1   4  130.58    2.63
   1   1   4  128.64    2.74
  -2  -1  -4   84.16    1.81
   2   1   4   83.92    1.97
   2   1   4   79.45    1.82
  -3  -1  -4   59.73    1.58
   3   1   4   59.50    1.43
   3   1   4   55.45    1.60
  -4  -1  -4    3.21    0.57
   4   1   4    2.31    0.47
  -5  -1  -4   16.94    1.14
   5   1   4   16.09    1.05
   6   1   4   16.69    1.21
   7  -2  -4   20.45    1.19
  -7   2   4   18.12    1.50
   6  -2  -4   22.17    1.11
  -6   2   4   22.07    1.39
   5  -2  -4    0.50    0.36
  -5   2   4   -0.50    0.41
   4  -2  -4   23.67    0.95
  -4   2   4   25.35    1.12
   3  -2  -4  166.33    3.46
  -3   2   4  173.86    3.58
  -3   2   4  166.28    3.28
   2  -2  -4  143.33    2.91
  -2   2   4  134.95    2.81
  -2   2   4  137.98    2.80
  -1   2   4   23.56    0.60
  -1   2   4   22.81    0.77
   0   2   4  167.56    3.38
  -1  -2  -4  165.49    3.14
   1   2   4  167.92    3.37
   1   2   4  162.98    3.44
  -2  -2  -4   35.54    1.01
   2   2   4   35.68    1.16
   2   2   4   35.98    1.09
  -3  -2  -4   14.92    0.79
   3   2   4   14.60    0.67
   3   2   4   13.47    0.80
  -4  -2  -4   12.77    0.88
   4   2   4   14.39    0.91
   5   2   4   14.65    1.07
   6   2   4   12.89    1.15
   7  -3  -4   16.91    1.12
  -7   3   4   13.89    1.48
   6  -3  -4    0.78    0.42
  -6   3   4    0.05    0.57
   5  -3  -4   17.54    0.92
  -5   3   4   18.86    1.14
   4  -3  -4   50.53    1.49
  -4   3   4   53.12    1.67
   3  -3  -4   73.94    1.82
  -3   3   4   74.83    1.89
  -3   3   4   72.66    1.74
   2  -3  -4    9.73    0.60
  -2   3   4    7.81    0.45
  -2   3   4    9.18    0.55
   1  -3  -4   34.80    0.84
  -1   3   4   33.08    1.05
   0  -3  -4  146.75    2.75
   0   3   4  146.69    3.10
  -1  -3  -4   71.03    1.59
   1   3   4   68.98    1.80
   1   3   4   68.71    1.77
  -2  -3  -4    4.00    0.48
   2   3   4    3.59    0.46
   2   3   4    3.81    0.48
  -3  -3  -4   24.57    1.05
   3   3   4   25.70    1.11
   3   3   4   25.69    0.99
   4   3   4   60.50    1.93
   5   3   4    8.75    0.94
   7  -4  -4    1.83    0.53
  -7   4   4    0.85    0.75
   6  -4  -4   12.79    0.93
  -6   4   4   11.49    1.11
   5  -4  -4   30.69    1.22
  -5   4   4   31.65    1.43
   4  -4  -4   24.80    1.01
  -4   4   4   25.03    0.95
  -4   4   4   25.56    1.12
   3  -4  -4    1.93    0.39
  -3   4   4    2.82    0.44
  -3   4   4    2.68    0.42
   2  -4  -4    6.34    0.47
  -2   4   4    6.37    0.55
   1  -4  -4  124.59    2.55
  -1   4   4  130.36    2.83
   0  -4  -4   73.84    1.62
   0   4   4   77.44    1.94
  -1  -4  -4    4.94    0.50
   1   4   4    4.96    0.57
   1   4   4    4.53    0.55
   2   4   4   25.96    1.09
   2   4   4   24.53    1.06
   3   4   4  110.40    2.68
   3   4   4  116.41    2.84
   4   4   4   24.41    1.27
   5   4   4    1.58    0.61
   7  -5  -4    4.48    0.70
  -7   5   4    3.78    0.95
   6  -5  -4   23.44    1.15
  -6   5   4   20.98    1.42
   5  -5  -4   28.76    1.19
  -5   5   4   26.78    1.34
   4  -5  -4    4.45    0.55
  -4   5   4    4.97    0.57
  -4   5   4    4.71    0.64
   3  -5  -4   39.15    1.29
   3  -5  -4   38.43    1.28
  -3   5   4   38.59    1.28
   2  -5  -4  116.33    2.57
  -2   5   4  119.56    2.72
   1  -5  -4   54.36    1.37
  -1   5   4   56.48    1.61
   0  -5  -4   22.72    0.79
   0   5   4   23.57    1.03
   1   5   4    0.42    0.38
   1   5   4    0.00    0.34
   2   5   4   29.69    1.24
   2   5   4   31.00    1.23
   3   5   4   56.10    1.74
   3   5   4   56.44    1.85
   4   5   4    2.74    0.64
   7  -6  -4   17.63    1.16
  -7   6   4   16.32    1.46
   6  -6  -4   15.50    1.02
  -6   6   4   14.11    1.22
   5  -6  -4    5.63    0.63
  -5   6   4    5.65    0.84
   4  -6  -4   20.44    1.00
  -4   6   4   20.41    1.03
   3  -6  -4   63.39    1.80
   3  -6  -4   62.73    1.81
  -3   6   4   67.19    1.87
   2  -6  -4   67.35    1.77
  -2   6   4   68.75    1.92
   1  -6  -4    5.58    0.51
  -1   6   4    5.11    0.60
   0   6   4    8.82    0.77
   1   6   4   61.50    1.88
   1   6   4   62.95    1.88
   2   6   4   82.46    2.26
   2   6   4   73.92    2.24
   3   6   4    8.51    0.92
   4   6   4    3.65    0.76
  -7   7   4    6.59    1.10
   6  -7  -4    4.55    0.66
  -6   7   4    3.54    0.82
   5  -7  -4    0.05    0.36
  -5   7   4    0.95    0.46
   4  -7  -4   30.28    1.33
   4  -7  -4   31.96    1.26
  -4   7   4   33.77    1.35
   3  -7  -4   64.09    1.88
   3  -7  -4   63.58    1.89
  -3   7   4   65.94    1.94
   2  -7  -4   15.56    0.91
  -2   7   4   15.09    0.98
  -1   7   4   14.54    0.95
   0   7   4   45.28    1.59
   1   7   4   18.85    1.09
   1   7   4   19.88    1.12
   2   7   4   18.83    1.09
   2   7   4   14.97    1.12
   3   7   4    0.49    0.58
   4   7   4   24.51    1.50
  -6   8   4    0.58    0.55
  -5   8   4   25.47    1.36
   4  -8  -4   17.01    1.07
   4  -8  -4   16.76    1.08
  -4   8   4   16.77    1.07
   3  -8  -4   15.82    1.01
  -3   8   4   18.08    1.10
  -2   8   4    0.17    0.47
  -1   8   4   28.20    1.31
   0   8   4   33.68    1.42
   1   8   4   10.54    0.93
   1   8   4   13.41    1.02
   2   8   4    0.68    0.49
   2   8   4    0.35    0.53
   3   8   4   14.52    1.26
  -6   9   4    6.14    0.95
   5  -9  -4   11.46    1.42
  -4   9   4    2.53    0.64
  -3   9   4    0.58    0.55
  -2   9   4   32.86    1.49
  -1   9   4   36.42    1.55
   0   9   4    8.37    0.92
   1   9   4    0.75    0.55
   2   9   4   16.91    1.20
   2   9   4   17.90    1.32
   3   9   4   22.39    1.57
  -4  10   4    0.48    0.54
  -3  10   4   18.82    1.33
  -2  10   4   27.48    1.46
  -1  10   4    5.33    0.81
   0  10   4   -0.11    0.50
   1  10   4    9.34    0.98
   2  10   4   17.79    1.30
  -4  11   4    7.72    0.99
  -3  11   4   22.99    1.50
  -2  11   4   10.01    1.14
  -1  11   4   -0.20    0.58
   0  11   4    7.85    1.00
   1  11   4   26.32    1.55
  -4  12   4    8.90    1.20
  -3  12   4    8.47    1.17
  -2  12   4   -0.11    0.90
   1  14  -5    1.91    0.76
  -1 -14   5    3.32    1.13
   0  14  -5   20.17    1.37
   0 -14   5   20.60    1.64
  -1  14  -5   12.35    1.16
   1 -14   5   11.26    1.37
  -2  14  -5    0.59    0.64
   2 -14   5    2.71    0.84
  -3  14  -5    1.60    0.69
   3 -14   5    2.00    0.85
  -4  14  -5    5.78    0.93
  -2 -13   5    1.12    0.84
   1  13  -5   14.12    1.18
  -1 -13   5   17.37    1.56
   0  13  -5   25.11    1.35
   0 -13   5   23.02    1.65
  -1  13  -5    6.76    0.89
   1 -13   5    6.56    1.06
  -2  13  -5   -0.32    0.50
   2 -13   5    0.48    0.66
  -3  13  -5   15.68    1.14
   3 -13   5   11.30    1.32
  -4  13  -5    9.43    0.99
   4 -13   5    8.50    1.18
  -5  13  -5    0.92    0.64
  -3 -12   5    2.17    1.19
  -2 -12   5   12.38    1.46
   1  12  -5   31.83    1.44
  -1 -12   5   32.31    1.91
   0  12  -5    8.05    0.86
   0 -12   5    8.81    1.22
  -1  12  -5   -0.12    0.45
   1 -12   5    0.86    0.65
  -2  12  -5   19.49    1.12
   2 -12   5   16.60    1.29
  -3  12  -5   17.82    1.12
   3 -12   5   21.42    1.49
  -4  12  -5    2.22    0.63
   4 -12   5    3.88    0.92
  -5  12  -5    0.56    0.54
   5 -12   5    0.25    0.69
  -3 -11   5   23.80    1.93
  -2 -11   5   25.00    1.77
   1  11  -5    5.06    0.69
  -1 -11   5    7.14    1.17
   0  11  -5   -0.29    0.36
   0 -11   5   -0.28    0.60
  -1  11  -5   12.89    0.88
   1 -11   5   13.85    1.26
  -2  11  -5   57.93    1.80
   2 -11   5   55.70    2.19
  -3  11  -5    7.53    0.79
   3 -11   5    9.28    1.13
  -4  11  -5    0.49    0.41
   4 -11   5   -0.39    0.53
  -5  11  -5    9.46    0.88
   5 -11   5    7.81    1.13
  -4 -10   5   15.92    1.71
  -3 -10   5   26.84    1.84
   2  10  -5   12.38    0.86
  -2 -10   5   12.21    1.37
   1  10  -5    5.30    0.63
  -1 -10   5    4.75    0.97
   0  10  -5   24.16    1.04
   0 -10   5   21.21    1.45
  -1  10  -5   35.06    1.28
   1 -10   5   33.14    1.69
  -2  10  -5    9.78    0.81
   2 -10   5   10.99    1.04
  -3  10  -5    0.07    0.34
   3 -10   5    0.14    0.44
  -4  10  -5    9.05    0.81
   4 -10   5    8.87    1.08
  -5  10  -5   19.32    1.11
   5 -10   5   23.66    1.51
   6 -10   5    2.59    0.83
  -4  -9   5   50.90    2.44
  -3  -9   5   20.79    1.64
   2   9  -5   -0.30    0.32
  -2  -9   5   -0.17    0.66
   1   9  -5   44.05    1.37
  -1  -9   5   42.89    1.90
   0   9  -5   78.29    1.99
   0  -9   5   75.08    2.56
  -1   9  -5   43.39    1.36
   1  -9   5   44.52    1.84
  -2   9  -5    2.61    0.45
   2  -9   5    1.51    0.57
  -3   9  -5   16.99    0.86
   3  -9   5   13.97    1.02
  -4   9  -5   39.67    1.40
   4  -9   5   40.31    1.72
  -5   9  -5    9.45    0.80
   5  -9   5   11.74    1.13
   6  -9   5    0.40    0.66
   5   8  -5   19.08    1.53
  -5  -8   5   18.38    1.76
   4   8  -5   10.92    1.02
  -4  -8   5   10.34    1.32
  -3  -8   5    0.32    0.72
   2   8  -5   26.61    0.98
  -2  -8   5   26.52    1.60
   1   8  -5  139.67    2.97
  -1  -8   5  132.94    3.63
   0   8  -5   64.00    1.67
   0  -8   5   66.15    2.27
  -1   8  -5    0.26    0.26
   1  -8   5    0.12    0.48
  -2   8  -5   18.38    0.80
   2  -8   5   17.08    1.01
  -3   8  -5   49.10    1.43
   3  -8   5   46.39    1.71
  -4   8  -5   37.02    1.26
   4  -8   5   38.66    1.59
   5  -8   5    1.90    0.67
   6  -8   5    2.17    0.75
   5   7  -5   22.09    1.13
  -5  -7   5   19.43    1.69
   4   7  -5   -0.14    0.30
  -4  -7   5    0.21    0.76
   3   7  -5   23.21    0.89
  -3  -7   5   24.17    1.54
   2   7  -5   58.33    1.43
   2   7  -5   59.56    1.50
  -2  -7   5   58.88    2.11
   1   7  -5   53.63    1.23
   1   7  -5   57.10    1.44
  -1  -7   5   55.17    2.04
   0   7  -5    8.67    0.51
   0  -7   5    8.55    0.91
  -1   7  -5   25.46    0.87
   1  -7   5   24.31    1.21
  -2   7  -5   55.50    1.46
   2  -7   5   54.32    1.75
  -3   7  -5   30.68    1.05
   3  -7   5   32.79    1.32
  -4   7  -5    0.05    0.25
   4  -7   5    0.31    0.45
   5  -7   5    3.53    0.73
  -6   7  -5   14.89    1.11
   6   6  -5   15.41    1.05
   5   6  -5    0.73    0.40
  -5  -6   5    1.08    0.85
   4   6  -5   19.33    0.92
  -4  -6   5   17.99    1.42
   3   6  -5   59.52    1.58
  -3  -6   5   63.41    2.22
   2   6  -5   78.25    1.80
   2   6  -5   80.12    1.81
  -2  -6   5   83.85    2.49
   1   6  -5    3.71    0.35
   1   6  -5    3.62    0.28
  -1  -6   5    3.94    0.74
   0   6  -5   53.32    1.07
   0   6  -5   53.53    1.33
   0  -6   5   54.07    1.81
  -1   6  -5  115.20    2.42
   1  -6   5  112.37    2.77
   1  -6   5  113.46    2.41
  -2   6  -5   66.42    1.60
   2  -6   5   69.85    1.89
   2  -6   5   67.86    1.60
   2  -6   5   63.22    1.44
  -3   6  -5   -0.02    0.20
   3  -6   5    0.21    0.24
   3  -6   5    0.06    0.34
   3  -6   5    0.47    0.22
  -4   6  -5   13.76    0.70
   4  -6   5   13.75    0.70
   4  -6   5   12.52    0.67
   4  -6   5   13.57    0.90
   5  -6   5   27.75    1.35
  -6   6  -5   20.97    1.28
  -7   6  -5    1.55    0.75
   6   5  -5    0.69    0.46
  -6  -5   5    1.07    0.89
   5   5  -5   10.42    0.79
  -5  -5   5   10.62    1.26
   4   5  -5   93.65    2.28
  -4  -5   5   88.71    2.72
   3   5  -5   37.50    1.16
  -3  -5   5   39.41    1.61
   2   5  -5    2.02    0.25
   2   5  -5    1.83    0.28
  -2  -5   5    1.57    0.57
   1   5  -5   34.44    0.93
   1   5  -5   34.50    0.86
  -1  -5   5   35.89    1.41
  -1  -5   5   34.20    0.93
   0   5  -5  198.78    3.63
   0   5  -5  197.13    3.81
   0  -5   5  194.70    4.30
   0  -5   5  200.83    3.83
  -1   5  -5  122.33    2.50
   1  -5   5  117.78    2.49
   1  -5   5  123.88    2.80
  -2   5  -5    7.08    0.43
   2  -5   5    7.62    0.45
   2  -5   5    7.29    0.57
   2  -5   5    7.65    0.42
  -3   5  -5   19.36    0.72
   3  -5   5   17.38    0.69
   3  -5   5   17.76    0.70
   3  -5   5   17.58    0.89
  -4   5  -5   35.02    1.08
   4  -5   5   34.97    1.34
   4  -5   5   35.27    1.13
   4  -5   5   35.86    1.09
  -5   5  -5   42.31    1.57
   5  -5   5   36.95    1.30
  -6   5  -5    3.06    0.70
   6  -5   5    2.56    0.52
  -7   5  -5    0.31    0.69
   6   4  -5    6.60    0.79
  -6  -4   5    5.86    1.03
   5   4  -5   42.06    1.46
  -5  -4   5   39.64    1.85
   4   4  -5   73.18    1.91
  -4  -4   5   69.71    2.29
   3   4  -5    7.20    0.53
  -3  -4   5    4.99    0.71
   2   4  -5    7.70    0.36
   2   4  -5    8.33    0.45
  -2  -4   5    8.01    0.38
  -2  -4   5    8.37    0.80
   1   4  -5  250.37    4.67
   1   4  -5  247.01    4.67
  -1  -4   5  256.22    5.18
  -1  -4   5  249.23    4.68
   0  -4   5  207.19    3.89
   0  -4   5  199.86    4.25
   1  -4   5   34.83    0.94
   1  -4   5   35.45    1.09
   2  -4   5   40.88    1.07
   2  -4   5   40.65    1.06
   2  -4   5   39.92    1.19
   3  -4   5   59.79    1.51
   3  -4   5   58.02    1.63
   3  -4   5   61.58    1.47
  -4   4  -5   48.44    1.31
   4  -4   5   52.32    1.34
   4  -4   5   50.64    1.59
   4  -4   5   50.92    1.46
  -5   4  -5    7.89    0.86
   5  -4   5    7.47    0.70
  -6   4  -5   -0.16    0.49
   6  -4   5    1.08    0.48
  -7   4  -5   10.04    1.22
   7  -4   5   12.33    1.10
   6   3  -5   26.08    1.25
  -6  -3   5   22.42    1.59
   5   3  -5   56.13    1.74
  -5  -3   5   56.74    2.13
   4   3  -5    0.84    0.33
  -4  -3   5    1.50    0.61
   3   3  -5   22.44    0.85
  -3  -3   5   22.19    1.12
   2   3  -5   80.97    1.82
   2   3  -5   77.88    1.65
  -2  -3   5   83.81    1.68
  -2  -3   5   83.64    2.13
   1   3  -5  418.24    7.70
  -1  -3   5  423.67    8.06
  -1  -3   5  430.48    7.67
   0  -3   5   20.93    0.63
   0  -3   5   20.59    0.82
   1  -3   5   11.29    0.52
   1  -3   5   10.39    0.50
   1  -3   5   11.30    0.47
   2  -3   5  126.97    2.66
   2  -3   5  128.37    2.61
   2  -3   5  129.58    2.70
   3  -3   5   59.43    1.55
   3  -3   5   60.70    1.45
   3  -3   5   59.91    1.60
  -4   3  -5   32.99    1.25
   4  -3   5   33.92    1.17
   4  -3   5   32.48    0.99
  -5   3  -5    1.40    0.52
   5  -3   5    1.88    0.46
  -6   3  -5   10.97    1.14
   6  -3   5   10.73    0.96
  -7   3  -5   10.94    1.27
   7  -3   5   12.18    1.26
   6   2  -5   42.24    1.58
  -6  -2   5   37.91    1.90
   5   2  -5   22.12    1.04
  -5  -2   5   22.09    1.33
   4   2  -5   41.27    1.32
  -4  -2   5   42.11    1.60
   3   2  -5   53.51    1.43
   3   2  -5   51.36    1.12
  -3  -2   5   55.25    1.66
  -3  -2   5   53.19    1.12
   2   2  -5  180.48    3.56
  -2  -2   5  181.60    3.76
  -2  -2   5  177.00    3.37
   1   2  -5   24.83    0.76
  -1  -2   5   25.05    0.68
  -1  -2   5   25.46    0.89
   0  -2   5    0.22    0.14
   0  -2   5    0.79    0.25
   1  -2   5  119.74    2.37
   1  -2   5  120.26    2.40
   1  -2   5  114.29    2.50
   2  -2   5  151.29    3.03
   2  -2   5  151.06    3.06
   2  -2   5  155.61    3.15
  -3   2  -5    5.33    0.47
   3  -2   5    5.30    0.40
   3  -2   5    5.74    0.51
  -4   2  -5   10.23    0.75
   4  -2   5    8.40    0.68
   4  -2   5    9.57    0.53
  -5   2  -5   20.56    1.16
   5  -2   5   19.70    1.06
  -6   2  -5   15.53    1.19
   6  -2   5   15.64    1.14
   7   1  -5   17.91    1.21
  -7  -1   5   16.95    1.63
   6   1  -5   22.83    1.16
  -6  -1   5   23.83    1.49
   5   1  -5    2.85    0.48
  -5  -1   5    3.13    0.69
   4   1  -5   77.57    1.97
  -4  -1   5   75.98    2.20
   3   1  -5   70.58    1.76
  -3  -1   5   70.99    1.92
  -3  -1   5   72.25    1.45
   2   1  -5  133.07    2.75
  -2  -1   5  130.62    2.84
  -2  -1   5  133.85    2.56
  -1  -1   5   57.02    1.38
  -1  -1   5   56.36    1.26
   0  -1   5   32.77    0.88
   0  -1   5   34.99    0.84
   1  -1   5  312.34    5.80
   1  -1   5  290.08    5.48
   1  -1   5  305.31    5.63
  -2   1  -5   17.88    0.62
   2  -1   5   17.06    0.63
   2  -1   5   17.75    0.74
  -3   1  -5    2.15    0.38
   3  -1   5    2.30    0.31
   3  -1   5    2.17    0.39
  -4   1  -5   54.23    1.64
   4  -1   5   51.26    1.62
  -5   1  -5   38.79    1.55
   5  -1   5   37.46    1.49
  -6   1  -5    5.73    1.01
   6  -1   5    6.65    0.89
   7   0  -5    0.48    0.47
  -7   0   5    0.59    0.72
   6   0  -5   -0.12    0.37
  -6   0   5   -0.50    0.59
   5   0  -5   53.29    1.66
  -5   0   5   54.99    1.93
   4   0  -5   75.44    1.96
  -4   0   5   76.81    2.16
  -3   0   5   33.64    1.17
  -3   0   5   34.50    0.82
   2   0  -5   48.15    1.29
  -2   0   5   47.87    1.29
  -2   0   5   48.16    1.10
  -1   0   5  165.40    3.20
  -1   0   5  165.01    3.18
   0   0   5  127.44    2.57
  -1   0  -5  183.72    3.39
   1   0   5  182.56    3.61
   1   0   5  189.39    3.80
  -2   0  -5    0.34    0.19
   2   0   5   -0.01    0.24
   2   0   5    0.33    0.19
  -3   0  -5   31.28    1.04
   3   0   5   30.51    0.94
   3   0   5   29.65    1.12
  -4   0  -5   93.81    2.39
   4   0   5   91.93    2.43
  -5   0  -5   23.11    1.23
   5   0   5   26.08    1.28
   6   0   5    0.18    0.55
   7  -1  -5    1.10    0.52
  -7   1   5    0.08    0.66
   6  -1  -5   16.60    1.00
  -6   1   5   15.46    1.27
   5  -1  -5   74.99    2.06
  -5   1   5   75.06    2.31
   4  -1  -5   16.02    0.81
  -4   1   5   16.24    0.95
   3  -1  -5    0.47    0.29
  -3   1   5    0.96    0.21
  -3   1   5    0.82    0.34
   2  -1  -5  202.99    4.05
  -2   1   5  197.72    3.96
  -2   1   5  205.06    3.88
  -1   1   5  189.15    3.54
  -1   1   5  191.40    3.71
   0   1   5  126.25    2.63
  -1  -1  -5   28.62    0.66
   1   1   5   29.00    0.91
   1   1   5   29.81    1.04
  -2  -1  -5   28.83    0.85
   2   1   5   28.26    1.05
   2   1   5   29.62    0.94
  -3  -1  -5   38.37    1.18
   3   1   5   35.62    1.09
   3   1   5   35.31    1.26
  -4  -1  -5   41.20    2.07
   4   1   5   45.01    1.57
   5   1   5    0.25    0.47
   6   1   5    7.44    0.96
   7  -2  -5   13.80    1.03
  -7   2   5   13.36    1.49
   6  -2  -5   32.00    1.36
  -6   2   5   33.68    1.67
   5  -2  -5   20.78    1.00
  -5   2   5   19.69    1.18
   4  -2  -5    0.44    0.31
  -4   2   5    0.07    0.37
   3  -2  -5   35.53    1.17
  -3   2   5   37.82    1.20
  -3   2   5   34.30    0.98
   2  -2  -5  232.06    4.60
  -2   2   5  230.87    4.43
  -2   2   5  226.40    4.45
  -1   2   5   67.22    1.39
  -1   2   5   69.16    1.66
   0   2   5    3.26    0.39
  -1  -2  -5   84.62    1.74
   1   2   5   88.12    2.17
   1   2   5   88.71    2.07
  -2  -2  -5   42.15    1.14
   2   2   5   42.12    1.37
   2   2   5   43.91    1.29
   3   2   5   33.15    1.10
   3   2   5   32.70    1.24
   4   2   5    2.69    0.59
   5   2   5   16.24    1.15
   7  -3  -5   26.26    1.32
  -7   3   5   23.46    1.71
   6  -3  -5   24.81    1.18
  -6   3   5   22.25    1.43
   5  -3  -5    2.31    0.47
  -5   3   5    1.66    0.58
   4  -3  -5   14.67    0.82
  -4   3   5   15.65    0.91
   3  -3  -5   84.18    2.08
  -3   3   5   81.23    1.94
  -3   3   5   82.84    2.06
  -2   3   5  117.07    2.47
  -2   3   5  118.16    2.59
  -1   3   5    4.36    0.48
   0   3   5   69.38    1.80
   1   3   5  122.07    2.77
   1   3   5  122.43    2.86
   2   3   5   22.81    1.05
   2   3   5   22.71    0.98
   3   3   5    2.93    0.55
   3   3   5    3.31    0.50
   4   3   5   17.36    1.12
   5   3   5   16.71    1.20
   7  -4  -5   12.09    0.98
  -7   4   5   10.78    1.36
   6  -4  -5    0.18    0.40
  -6   4   5   -1.10    0.48
   5  -4  -5   16.52    0.94
  -5   4   5   16.87    1.10
   4  -4  -5   31.69    1.22
  -4   4   5   32.78    1.15
  -4   4   5   35.50    1.35
   3  -4  -5   47.53    1.48
  -3   4   5   45.52    1.40
  -3   4   5   48.57    1.43
  -2   4   5    0.64    0.36
   1  -4  -5    9.76    0.43
  -1   4   5    9.03    0.68
   0   4   5  104.75    2.51
   1   4   5   80.68    2.14
   1   4   5   80.16    2.17
   2   4   5    0.61    0.38
   2   4   5    0.63    0.41
   3   4   5    5.21    0.63
   3   4   5    5.10    0.73
   4   4   5   35.20    1.57
   5   4   5   12.24    1.22
   7  -5  -5    0.18    0.44
  -7   5   5   -0.80    0.61
   6  -5  -5   16.25    1.01
  -6   5   5   12.71    1.17
   5  -5  -5   27.26    1.20
  -5   5   5   26.55    1.34
   4  -5  -5   20.10    1.01
  -4   5   5   20.79    1.06
  -4   5   5   19.87    1.00
   3  -5  -5    0.95    0.41
  -3   5   5    0.55    0.29
  -3   5   5    0.11    0.39
   2  -5  -5   47.58    1.32
  -2   5   5   50.90    1.56
  -1   5   5   58.53    1.74
   0   5   5   69.96    1.97
   1   5   5    3.79    0.60
   1   5   5    3.72    0.59
   2   5   5    9.06    0.79
   2   5   5    8.92    0.86
   3   5   5   40.91    1.69
   3   5   5   41.39    1.53
   4   5   5   20.74    1.37
   7  -6  -5    4.05    0.73
  -7   6   5    3.44    0.95
   6  -6  -5   23.88    1.26
  -6   6   5   22.63    1.44
   5  -6  -5   31.59    1.33
  -5   6   5   28.47    1.44
   4  -6  -5    1.71    0.47
  -4   6   5    1.73    0.44
  -4   6   5    1.58    0.48
   3  -6  -5   28.44    1.13
   3  -6  -5   25.76    1.20
  -3   6   5   30.34    1.26
  -2   6   5   67.30    1.95
  -1   6   5   62.70    1.89
   0   6   5   17.52    1.02
   1   6   5   34.94    1.44
   1   6   5   35.91    1.43
   2   6   5   17.76    1.14
   2   6   5   16.75    1.08
   3   6   5   30.18    1.53
   4   6   5    0.67    0.64
   6  -7  -5   11.13    0.95
  -6   7   5   10.32    1.19
   5  -7  -5    2.15    0.54
  -5   7   5    3.02    0.65
   4  -7  -5    1.47    0.48
  -4   7   5    2.10    0.57
   3  -7  -5   31.90    1.38
  -3   7   5   32.90    1.35
  -2   7   5   44.27    1.58
  -1   7   5    9.15    0.86
   0   7   5    8.55    0.86
   1   7   5   25.82    1.32
   2   7   5   23.82    1.39
   2   7   5   22.52    1.25
   3   7   5    5.03    0.88
   4  -8  -5   18.23    1.13
  -4   8   5   19.40    1.18
   3  -8  -5   20.36    1.19
  -3   8   5   24.78    1.25
  -2   8   5    4.78    0.70
  -1   8   5    1.66    0.57
   0   8   5   36.59    1.55
   1   8   5   17.23    1.14
   2   8   5    9.51    1.06
   2   8   5    8.87    0.98
   3   8   5    1.63    0.78
  -4   9   5   16.97    1.21
  -3   9   5    4.82    0.76
  -2   9   5    5.44    0.81
  -1   9   5   16.58    1.18
   0   9   5   19.14    1.25
   1   9   5    7.81    0.91
   2   9   5    2.24    0.75
   2   9   5    1.49    0.64
  -4  10   5    3.63    0.76
  -3  10   5    5.98    0.89
  -2  10   5   16.20    1.22
  -1  10   5   20.15    1.32
   0  10   5    2.92    0.72
   1  10   5    0.77    0.61
  -4  11   5    0.59    0.60
  -3  11   5   15.61    1.27
  -2  11   5   18.41    1.36
  -1  11   5    5.13    0.89
   1  14  -6    1.18    0.69
   0  14  -6    6.49    0.92
   0 -14   6    8.24    1.23
  -1  14  -6   13.04    1.14
   1 -14   6   15.40    1.49
  -2  14  -6    7.62    0.92
   2 -14   6   10.33    1.37
  -3  14  -6   -0.70    0.56
   3 -14   6    0.65    0.72
  -4  14  -6    0.72    0.63
  -2 -13   6    1.49    1.04
   1  13  -6    9.13    0.96
  -1 -13   6    9.94    1.37
   0  13  -6   23.59    1.30
   0 -13   6   24.57    1.70
  -1  13  -6   17.87    1.17
   1 -13   6   20.27    1.58
  -2  13  -6    6.55    0.84
   2 -13   6    7.27    1.17
  -3  13  -6    4.53    0.74
   3 -13   6    4.15    0.97
  -4  13  -6    9.84    0.99
   4 -13   6    9.21    1.27
  -5  13  -6    5.17    0.83
  -2 -12   6    1.08    0.82
   1  12  -6   25.76    1.27
  -1 -12   6   27.55    1.81
   0  12  -6   20.95    1.18
   0 -12   6   19.83    1.55
  -1  12  -6   12.67    0.96
   1 -12   6   14.37    1.34
  -2  12  -6    5.66    0.71
   2 -12   6    6.14    1.06
  -3  12  -6   13.77    1.01
   3 -12   6   13.91    1.43
  -4  12  -6   13.72    1.10
   4 -12   6   11.29    1.31
  -5  12  -6    2.05    0.62
   5 -12   6    2.77    0.93
  -3 -11   6    3.32    1.07
  -2 -11   6   28.71    1.89
   1  11  -6   22.30    1.13
  -1 -11   6   21.27    1.64
   0  11  -6    2.25    0.48
   0 -11   6    3.41    0.89
  -1  11  -6    0.55    0.38
   1 -11   6    0.64    0.65
  -2  11  -6   23.47    1.12
   2 -11   6   22.97    1.45
  -3  11  -6   13.31    1.00
   3 -11   6   16.76    1.31
  -4  11  -6    6.31    0.77
   4 -11   6    5.00    0.90
  -5  11  -6    0.86    0.50
   5 -11   6    1.58    0.79
  -4 -10   6    6.75    1.31
  -3 -10   6   26.92    1.87
   2  10  -6   49.64    1.57
  -2 -10   6   49.85    2.33
   1  10  -6    7.64    0.70
  -1 -10   6    7.54    1.10
   0  10  -6    1.86    0.42
   0 -10   6    0.34    0.62
  -1  10  -6   67.09    1.84
   1 -10   6   61.31    2.32
  -2  10  -6   38.36    1.34
   2 -10   6   34.62    1.67
  -3  10  -6    6.15    0.68
   3 -10   6    7.45    0.98
  -4  10  -6    0.56    0.37
   4 -10   6    0.11    0.54
  -5  10  -6   10.36    0.90
   5 -10   6   11.44    1.24
   6 -10   6    6.33    1.07
  -4  -9   6   18.55    1.70
  -3  -9   6   40.86    2.12
   2   9  -6   16.82    0.85
  -2  -9   6   17.73    1.48
   1   9  -6   10.47    0.68
  -1  -9   6   10.74    1.27
   0   9  -6   34.06    1.17
   0  -9   6   33.46    1.71
  -1   9  -6   75.64    1.97
   1  -9   6   78.21    2.52
  -2   9  -6   16.11    0.83
   2  -9   6   16.98    1.15
  -3   9  -6    0.11    0.30
   3  -9   6    0.42    0.43
  -4   9  -6   19.33    0.96
   4  -9   6   20.36    1.27
  -5   9  -6   16.76    0.97
   5  -9   6   20.03    1.34
   6  -9   6    4.42    0.90
  -5  -8   6   20.82    1.85
  -4  -8   6   28.71    1.88
  -3  -8   6   27.38    1.73
   2   8  -6    4.25    0.47
  -2  -8   6    3.58    0.85
   1   8  -6   22.69    0.87
  -1  -8   6   20.50    1.46
   0   8  -6   78.51    1.88
   0  -8   6   73.15    2.47
  -1   8  -6   54.52    1.50
   1  -8   6   55.99    1.99
  -2   8  -6    0.25    0.26
   2  -8   6   -0.30    0.38
  -3   8  -6   30.94    1.11
   3  -8   6   29.91    1.36
  -4   8  -6   40.51    1.34
   4  -8   6   40.62    1.64
   5  -8   6    7.42    0.96
   6  -8   6    1.03    0.63
   5   7  -6   36.50    1.40
  -5  -7   6   35.03    2.09
   4   7  -6   26.33    1.08
  -4  -7   6   24.91    1.70
   3   7  -6   -0.28    0.22
  -3  -7   6    0.10    0.70
   2   7  -6   87.18    1.96
   2   7  -6   88.81    2.02
  -2  -7   6   89.69    2.79
   1   7  -6   65.45    1.59
   1   7  -6   62.77    1.41
  -1  -7   6   64.00    2.22
   0   7  -6   65.24    1.61
   0  -7   6   64.12    2.16
  -1   7  -6    5.04    0.48
   1  -7   6    6.10    0.78
   1  -7   6    5.97    0.50
  -2   7  -6   36.27    1.12
   2  -7   6   35.52    1.38
   2  -7   6   35.07    1.10
  -3   7  -6   48.71    1.43
   3  -7   6   48.25    1.66
   3  -7   6   51.05    1.42
  -4   7  -6   18.11    0.87
   4  -7   6   17.76    0.85
   4  -7   6   16.20    1.05
   5  -7   6    0.12    0.50
  -6   7  -6    3.26    0.66
   6   6  -6   22.21    1.25
   5   6  -6   24.19    1.15
  -5  -6   6   22.43    1.69
   4   6  -6    9.47    0.70
  -4  -6   6   12.78    1.38
   3   6  -6   78.89    1.92
  -3  -6   6   77.60    2.56
   2   6  -6   67.38    1.59
   2   6  -6   65.54    1.57
  -2  -6   6   71.06    2.27
   1   6  -6   21.61    0.66
   1   6  -6   21.15    0.75
  -1  -6   6   22.45    1.28
   0   6  -6    6.68    0.43
   0   6  -6    7.78    0.33
   0  -6   6    6.60    0.45
   0  -6   6    8.27    0.91
  -1   6  -6   15.01    0.64
   1  -6   6   14.78    0.89
   1  -6   6   13.74    0.63
  -2   6  -6   45.78    1.26
   2  -6   6   42.76    1.16
   2  -6   6   47.73    1.28
   2  -6   6   46.50    1.48
  -3   6  -6   34.10    1.10
   3  -6   6   33.17    1.13
   3  -6   6   35.41    1.12
   3  -6   6   34.91    1.30
  -4   6  -6    0.37    0.26
   4  -6   6    0.95    0.43
   4  -6   6    0.32    0.29
   5  -6   6   12.86    1.02
  -6   6  -6   16.29    1.17
   6   5  -6    9.25    0.94
  -6  -5   6    8.71    1.36
   5   5  -6    0.50    0.37
  -5  -5   6    0.21    0.71
   4   5  -6   14.14    0.79
  -4  -5   6   16.07    1.30
   3   5  -6  153.38    3.27
  -3  -5   6  158.57    3.89
   2   5  -6   56.34    1.34
   2   5  -6   56.76    1.41
  -2  -5   6   58.41    1.98
   1   5  -6    0.62    0.20
   1   5  -6    0.43    0.17
  -1  -5   6    0.47    0.19
  -1  -5   6   -0.18    0.44
   0   5  -6   92.53    1.86
   0   5  -6   92.08    1.98
   0  -5   6   85.29    2.37
   0  -5   6   91.88    1.98
   1  -5   6  233.14    4.51
   1  -5   6  234.81    4.78
   2  -5   6   45.61    1.25
   2  -5   6   48.05    1.26
   2  -5   6   49.32    1.44
   3  -5   6    6.40    0.61
   3  -5   6    6.70    0.49
   3  -5   6    6.02    0.52
  -4   5  -6   13.40    0.68
   4  -5   6   13.15    0.87
   4  -5   6   12.20    0.69
   4  -5   6   14.29    0.77
  -5   5  -6   24.61    1.23
   5  -5   6   23.36    1.10
  -6   5  -6   18.04    1.23
   6  -5   6   18.93    1.13
   6   4  -6    0.31    0.40
  -6  -4   6   -1.26    0.67
   5   4  -6    2.16    0.49
  -5  -4   6    2.69    0.83
   4   4  -6   70.29    1.89
  -4  -4   6   70.67    2.34
   3   4  -6   55.64    1.52
  -3  -4   6   58.52    1.96
   2   4  -6    9.77    0.54
   2   4  -6    8.38    0.39
  -2  -4   6    8.94    0.43
  -2  -4   6    9.80    0.87
   1   4  -6   66.40    1.47
  -1  -4   6   63.93    1.46
  -1  -4   6   61.36    1.87
   0  -4   6  229.84    4.73
   0  -4   6  227.50    4.37
   1  -4   6   74.59    1.79
   1  -4   6   70.13    1.65
   2  -4   6   11.31    0.62
   2  -4   6   11.18    0.56
   2  -4   6   12.61    0.65
   3  -4   6    3.72    0.49
   3  -4   6    3.76    0.41
   3  -4   6    4.40    0.49
   4  -4   6   60.47    1.71
   4  -4   6   60.73    1.79
   4  -4   6   57.50    1.53
  -5   4  -6   25.60    1.25
   5  -4   6   27.46    1.21
  -6   4  -6    4.33    0.83
   6  -4   6    4.22    0.72
   6   3  -6   17.89    1.11
  -6  -3   6   16.96    1.37
   5   3  -6   46.09    1.54
  -5  -3   6   44.99    1.93
   4   3  -6   60.86    1.73
  -4  -3   6   63.38    2.10
   3   3  -6    6.39    0.54
  -3  -3   6    6.45    0.36
  -3  -3   6    8.55    0.91
   2   3  -6    1.86    0.30
  -2  -3   6    2.15    0.51
  -2  -3   6    2.19    0.25
   1   3  -6   61.66    1.47
  -1  -3   6   63.29    1.41
  -1  -3   6   62.01    1.74
   0  -3   6  207.73    4.16
   0  -3   6  202.50    3.94
   1  -3   6    8.11    0.46
   1  -3   6    7.65    0.43
   2  -3   6   24.06    0.89
   2  -3   6   25.35    0.82
   2  -3   6   24.17    0.83
   3  -3   6   50.38    1.47
   3  -3   6   55.59    1.53
   3  -3   6   53.37    1.38
  -4   3  -6   11.01    0.75
   4  -3   6    8.93    0.76
   4  -3   6    9.57    0.59
  -5   3  -6    6.81    0.82
   5  -3   6    7.87    0.81
  -6   3  -6   -0.80    0.52
   6  -3   6    0.41    0.53
   6   2  -6   33.85    1.42
  -6  -2   6   33.84    1.81
   5   2  -6   55.08    1.72
  -5  -2   6   57.04    2.10
   4   2  -6    3.89    0.51
  -4  -2   6    4.73    0.76
   3   2  -6   28.87    1.02
  -3  -2   6   30.03    1.24
  -3  -2   6   28.39    0.75
   2   2  -6  247.30    4.84
  -2  -2   6  255.67    4.67
  -2  -2   6  247.67    5.04
  -1  -2   6  238.21    4.76
  -1  -2   6  240.60    4.51
   0  -2   6   68.57    1.56
   0  -2   6   69.77    1.60
   1  -2   6    8.34    0.57
   1  -2   6    8.77    0.46
   1  -2   6    9.12    0.42
   2  -2   6   99.17    2.27
   2  -2   6   93.29    2.07
   2  -2   6   94.69    2.09
  -3   2  -6   67.18    1.71
   3  -2   6   65.39    1.60
   3  -2   6   65.06    1.78
  -4   2  -6    1.11    0.41
   4  -2   6    1.05    0.28
   4  -2   6    1.62    0.47
  -5   2  -6    0.85    0.51
   5  -2   6    1.09    0.52
   6  -2   6    8.70    0.97
  -7  -1   6   16.07    2.45
   6   1  -6   28.90    1.31
  -6  -1   6   31.51    1.72
   5   1  -6   17.45    0.95
  -5  -1   6   16.73    1.20
   4   1  -6   15.17    0.82
  -4  -1   6   15.78    1.02
   3   1  -6   63.02    1.70
  -3  -1   6   70.21    1.92
  -3  -1   6   68.34    1.44
   2   1  -6   25.04    0.88
  -2  -1   6   23.42    0.70
  -2  -1   6   23.29    0.90
  -1  -1   6   41.86    1.04
  -1  -1   6   39.29    1.13
   0  -1   6    0.33    0.17
   0  -1   6    0.42    0.15
   1  -1   6  131.79    2.70
   1  -1   6  127.74    2.50
   1  -1   6  132.83    2.89
  -2   1  -6  131.46    2.69
   2  -1   6  134.20    2.79
   2  -1   6  134.20    2.98
  -3   1  -6    3.91    0.46
   3  -1   6    4.48    0.56
   3  -1   6    5.30    0.46
  -4   1  -6    3.59    0.56
   4  -1   6    5.04    0.67
   5  -1   6   22.47    1.23
   6  -1   6   17.08    1.24
   7   0  -6    8.35    1.02
  -7   0   6    6.15    1.11
   6   0  -6   10.05    0.84
  -6   0   6    9.45    1.13
   5   0  -6    2.31    0.49
  -5   0   6    4.13    0.81
   4   0  -6   51.24    1.55
  -4   0   6   53.31    1.75
   3   0  -6   77.40    1.99
  -3   0   6   81.58    2.10
  -3   0   6   84.81    1.73
   2   0  -6    2.54    0.37
  -2   0   6    3.81    0.43
  -2   0   6    3.98    0.34
  -1   0   6   11.14    0.52
  -1   0   6   12.20    0.52
   0   0   6  101.97    2.20
  -1   0  -6  100.57    1.90
   1   0   6   98.29    2.19
   1   0   6  101.00    2.39
  -2   0  -6   22.32    0.71
   2   0   6   20.88    0.80
   2   0   6   22.12    0.97
  -3   0  -6    4.01    0.49
   3   0   6    3.53    0.54
   3   0   6    4.98    0.48
   4   0   6   23.50    1.17
   5   0   6   24.93    1.34
   6   0   6    6.25    0.94
   7  -1  -6    1.40    0.53
  -7   1   6    1.71    0.90
   6  -1  -6    2.58    0.56
  -6   1   6    3.58    0.87
   5  -1  -6   61.75    1.85
  -5   1   6   62.51    2.10
   4  -1  -6   79.92    2.10
  -4   1   6   84.86    2.29
   3  -1  -6   20.69    0.90
  -3   1   6   19.48    0.88
  -3   1   6   19.81    0.68
   2  -1  -6    7.42    0.61
  -2   1   6    6.40    0.44
  -2   1   6    6.39    0.47
  -1   1   6  113.76    2.45
  -1   1   6  114.63    2.23
   0   1   6  145.43    3.03
   1   1   6   62.40    1.61
   1   1   6   64.20    1.78
   2   1   6    0.62    0.33
   2   1   6    0.33    0.27
   3   1   6   28.74    1.03
   3   1   6   28.51    1.22
   4   1   6   40.83    1.58
   5   1   6    8.03    0.93
   7  -2  -6    0.64    0.45
  -7   2   6   -0.69    0.68
   6  -2  -6   23.43    1.20
  -6   2   6   24.79    1.50
   5  -2  -6   44.12    1.53
  -5   2   6   46.14    1.76
   4  -2  -6   15.90    0.87
  -4   2   6   15.91    0.95
   3  -2  -6    1.09    0.39
  -3   2   6    0.79    0.34
  -3   2   6    0.90    0.28
  -2   2   6   56.19    1.46
  -2   2   6   55.45    1.39
  -1   2   6  107.87    2.42
  -1   2   6  107.66    2.19
   0   2   6   30.41    1.06
   1   2   6    1.05    0.36
   1   2   6    2.11    0.47
   2   2   6   34.50    1.19
   2   2   6   33.02    1.30
   3   2   6   29.14    1.08
   3   2   6   30.18    1.30
   4   2   6    3.91    0.68
   5   2   6    0.23    0.54
   7  -3  -6   13.90    1.08
  -7   3   6   10.77    1.38
   6  -3  -6   31.77    1.39
  -6   3   6   32.99    1.69
   5  -3  -6   15.31    0.93
  -5   3   6   14.01    1.05
   4  -3  -6    0.78    0.41
  -4   3   6    0.56    0.42
   3  -3  -6   45.23    1.48
  -3   3   6   46.89    1.34
  -3   3   6   44.48    1.37
  -2   3   6  137.55    2.99
  -2   3   6  134.45    2.79
  -1   3   6   39.62    1.29
   0   3   6    2.66    0.46
   1   3   6   44.93    1.54
   1   3   6   44.77    1.45
   2   3   6   49.78    1.57
   2   3   6   48.50    1.67
   3   3   6   25.49    1.10
   3   3   6   25.54    1.29
   4   3   6   -0.50    0.46
   5   3   6    8.35    1.03
   7  -4  -6   12.06    1.04
  -7   4   6   12.76    1.47
   6  -4  -6   13.64    0.99
  -6   4   6   12.57    1.19
   5  -4  -6    0.21    0.39
  -5   4   6   -0.50    0.43
   4  -4  -6   18.30    1.01
  -4   4   6   15.73    0.92
  -4   4   6   15.87    0.94
   3  -4  -6   51.16    1.64
  -3   4   6   44.34    1.40
  -3   4   6   49.85    1.50
  -2   4   6    8.86    0.76
  -1   4   6    0.13    0.35
   0   4   6   21.40    1.05
   1   4   6   87.49    2.40
   1   4   6   87.21    2.32
   2   4   6   31.55    1.40
   2   4   6   31.15    1.31
   3   4   6    0.77    0.42
   3   4   6    1.21    0.57
   4   4   6    9.63    1.08
   7  -5  -6    3.19    0.72
  -7   5   6    1.88    0.88
   6  -5  -6    0.13    0.44
  -6   5   6   -0.93    0.52
   5  -5  -6   13.00    1.00
  -5   5   6   13.37    1.07
   4  -5  -6   25.77    1.19
  -4   5   6   24.63    1.09
  -4   5   6   25.33    1.39
   3  -5  -6   28.61    1.28
  -3   5   6   27.97    1.17
  -2   5   6    4.98    0.62
  -1   5   6   25.20    1.15
   0   5   6   53.99    1.74
   1   5   6    0.84    0.47
   1   5   6    1.13    0.52
   2   5   6   -0.24    0.46
   2   5   6    0.80    0.45
   3   5   6    7.37    0.81
   3   5   6    8.36    1.03
   4   5   6   17.71    1.37
   6  -6  -6   14.32    1.09
  -6   6   6    9.86    1.17
   5  -6  -6   35.47    1.49
   4  -6  -6   25.57    1.25
  -4   6   6   26.72    1.21
   3  -6  -6    1.21    0.54
  -3   6   6    1.80    0.52
  -2   6   6   27.85    1.25
  -1   6   6   69.99    2.07
   0   6   6   69.37    2.10
   1   6   6    0.94    0.50
   2   6   6    4.21    0.73
   2   6   6    4.08    0.78
   3   6   6   25.89    1.58
   6  -7  -6   16.30    1.14
   5  -7  -6    4.28    0.68
   4  -7  -6    2.25    0.59
  -4   7   6    2.05    0.58
   3  -7  -6    7.58    0.91
  -3   7   6    9.38    0.92
  -2   7   6   35.44    1.48
  -1   7   6   46.40    1.70
   0   7   6   -0.01    0.46
   1   7   6    7.36    0.83
   2   7   6   15.03    1.11
   2   7   6   16.92    1.28
   3   7   6   14.78    1.42
   5  -8  -6   -0.21    0.47
   4  -8  -6    2.33    0.66
  -4   8   6    3.20    0.66
   3  -8  -6   19.95    1.30
  -3   8   6   22.72    1.31
  -2   8   6   11.94    1.04
  -1   8   6    3.89    0.70
   0   8   6    9.28    0.95
   1   8   6   17.67    1.25
   2   8   6   21.69    1.30
   2   8   6   20.54    1.50
  -4   9   6   14.42    1.14
  -3   9   6   12.90    1.11
  -2   9   6    1.70    0.64
  -1   9   6    3.14    0.70
   0   9   6   18.30    1.25
   1   9   6   12.33    1.14
   2   9   6    4.45    0.83
  -4  10   6   13.30    1.21
  -3  10   6    0.25    0.56
  -2  10   6    4.88    0.86
  -1  10   6   16.09    1.32
   0  10   6    7.64    0.95
   1  14  -7   12.81    1.16
   0  14  -7   -1.50    0.48
   0 -14   7    0.01    0.68
  -1  14  -7    4.64    0.79
   1 -14   7    5.88    1.12
  -2  14  -7   10.73    1.02
   2 -14   7   11.76    1.38
  -3  14  -7    5.39    0.88
   3 -14   7    7.80    1.21
   1  13  -7   -1.06    0.42
  -1 -13   7    0.18    0.72
   0  13  -7    6.47    0.80
   0 -13   7    9.51    1.31
  -1  13  -7   17.12    1.11
   1 -13   7   15.68    1.48
  -2  13  -7   15.16    1.10
   2 -13   7   17.40    1.47
  -3  13  -7    0.14    0.52
   3 -13   7    0.20    0.62
  -4  13  -7    4.41    0.76
   4 -13   7    3.14    0.91
  -5  13  -7    8.02    0.98
  -2 -12   7    6.21    1.18
   1  12  -7   10.23    0.90
  -1 -12   7   11.95    1.39
   0  12  -7   26.94    1.26
   0 -12   7   26.10    1.74
  -1  12  -7   27.03    1.28
   1 -12   7   24.38    1.65
  -2  12  -7    3.91    0.67
   2 -12   7    3.16    0.87
  -3  12  -7    1.28    0.50
   3 -12   7    1.14    0.71
  -4  12  -7   11.27    1.01
   4 -12   7   10.10    1.28
  -5  12  -7    6.44    0.87
   5 -12   7    7.52    1.23
  -3 -11   7    3.46    1.08
  -2 -11   7    4.57    1.05
   1  11  -7   33.84    1.32
  -1 -11   7   36.67    2.02
   0  11  -7   13.92    0.90
   0 -11   7   13.42    1.40
  -1  11  -7    2.06    0.47
   1 -11   7    4.38    0.95
  -2  11  -7    3.11    0.53
   2 -11   7    4.18    0.90
  -3  11  -7    8.58    0.82
   3 -11   7    9.97    1.21
  -4  11  -7   19.00    1.13
   4 -11   7   18.28    1.39
  -5  11  -7    0.46    0.46
   5 -11   7    1.22    0.73
  -4 -10   7   -0.42    0.91
  -3 -10   7    1.82    0.91
   2  10  -7   33.76    1.32
  -2 -10   7   35.04    2.03
   1  10  -7   41.79    1.41
  -1 -10   7   43.30    2.11
   0  10  -7    1.01    0.38
   0 -10   7    0.95    0.71
  -1  10  -7   17.73    0.90
   1 -10   7   15.37    1.28
  -2  10  -7   30.04    1.19
   2 -10   7   28.36    1.52
  -3  10  -7   19.60    1.01
   3 -10   7   20.79    1.32
  -4  10  -7    2.86    0.54
   4 -10   7    4.25    0.83
  -5  10  -7    1.86    0.51
   5 -10   7    2.60    0.77
   6 -10   7    5.73    1.18
  -4  -9   7    1.73    1.01
  -3  -9   7   14.70    1.58
   2   9  -7   89.19    2.20
  -2  -9   7   90.42    3.08
   1   9  -7   15.62    0.80
  -1  -9   7   14.51    1.37
   0   9  -7    3.85    0.46
   0  -9   7    3.82    0.85
  -1   9  -7   48.30    1.44
   1  -9   7   44.44    1.89
  -2   9  -7   38.81    1.30
   2  -9   7   36.53    1.62
  -3   9  -7   13.00    0.80
   3  -9   7   13.86    1.08
  -4   9  -7    4.09    0.57
   4  -9   7    3.32    0.72
  -5   9  -7    8.32    0.76
   5  -9   7    8.21    1.01
   6  -9   7    6.87    1.05
  -5  -8   7   14.70    1.77
  -4  -8   7   19.20    1.69
  -3  -8   7   20.45    1.51
   2   8  -7   25.68    0.95
  -2  -8   7   28.48    1.71
   1   8  -7    8.48    0.56
  -1  -8   7    7.56    1.04
   0   8  -7   26.66    0.96
   0  -8   7   23.11    1.37
  -1   8  -7   77.63    1.92
   1  -8   7   73.41    1.87
   1  -8   7   73.77    2.36
  -2   8  -7   18.27    0.85
   2  -8   7   19.57    0.86
   2  -8   7   20.21    1.14
  -3   8  -7    1.27    0.38
   3  -8   7    1.86    0.55
   3  -8   7    1.50    0.39
  -4   8  -7   18.91    0.97
   4  -8   7   15.82    1.12
   5  -8   7   13.44    1.14
   6  -8   7    2.62    0.79
   5   7  -7   32.01    1.34
  -5  -7   7   33.11    2.08
   4   7  -7   37.46    1.30
  -4  -7   7   36.77    2.01
   3   7  -7   24.32    0.92
  -3  -7   7   22.19    1.49
   2   7  -7    9.03    0.52
   2   7  -7   10.35    0.57
  -2  -7   7   10.57    1.23
   1   7  -7   43.06    1.22
  -1  -7   7   40.44    1.84
   0   7  -7   68.49    1.68
   0  -7   7   67.47    1.68
   0  -7   7   66.56    2.24
  -1   7  -7   59.96    1.58
   1  -7   7   61.53    1.60
   1  -7   7   61.95    1.99
  -2   7  -7    0.54    0.26
   2  -7   7    0.05    0.35
   2  -7   7    0.10    0.25
  -3   7  -7   27.62    1.04
   3  -7   7   27.74    1.24
   3  -7   7   28.65    1.07
  -4   7  -7   31.52    1.16
   4  -7   7   29.89    1.14
   4  -7   7   30.24    1.36
   5  -7   7    4.88    0.81
  -6   7  -7    0.94    0.47
   6   6  -7   15.95    1.07
   5   6  -7   36.55    1.40
  -5  -6   7   37.65    2.08
   4   6  -7   17.72    0.88
  -4  -6   7   17.13    1.46
   3   6  -7    2.89    0.40
  -3  -6   7    3.55    0.89
   2   6  -7   79.08    1.84
   2   6  -7   76.84    1.80
  -2  -6   7   82.07    2.58
   1   6  -7   41.67    1.16
   1   6  -7   42.60    1.09
  -1  -6   7   41.48    1.75
  -1  -6   7   42.07    1.18
   0   6  -7   22.50    0.67
   0   6  -7   21.59    0.78
   0  -6   7   20.38    0.78
   0  -6   7   21.54    1.20
  -1   6  -7    0.16    0.22
   1  -6   7    0.40    0.24
   1  -6   7    0.48    0.38
  -2   6  -7   20.51    0.83
   2  -6   7   20.33    0.96
   2  -6   7   19.88    0.81
  -3   6  -7   44.97    1.33
   3  -6   7   39.36    1.44
   3  -6   7   41.33    1.28
  -4   6  -7   16.73    0.82
   4  -6   7   16.82    0.84
   4  -6   7   16.41    0.99
   5  -6   7    1.12    0.57
  -6   6  -7    5.27    0.86
   6   5  -7   24.09    1.25
  -6  -5   7   25.72    1.88
   5   5  -7   21.31    1.06
  -5  -5   7   22.04    1.62
   4   5  -7    0.30    0.32
  -4  -5   7    0.07    0.68
   3   5  -7   33.32    1.12
  -3  -5   7   33.83    1.65
   2   5  -7   75.22    1.72
   2   5  -7   78.38    1.82
  -2  -5   7   76.64    2.41
  -2  -5   7   76.20    1.74
   1   5  -7   21.93    0.73
   1   5  -7   20.68    0.72
  -1  -5   7   20.88    1.19
  -1  -5   7   21.15    0.75
   0  -5   7    0.20    0.21
   0  -5   7    0.25    0.38
   1  -5   7   64.11    1.76
   1  -5   7   64.23    1.58
   2  -5   7   44.14    1.32
   2  -5   7   46.05    1.28
   2  -5   7   45.96    1.40
   3  -5   7   36.55    1.25
   3  -5   7   38.62    1.20
   3  -5   7   38.90    1.31
   4  -5   7    2.26    0.51
   4  -5   7    2.35    0.48
   4  -5   7    2.17    0.40
  -5   5  -7   16.53    1.03
   5  -5   7   16.70    1.03
  -6   5  -7   16.89    1.27
   6   4  -7    8.66    0.89
  -6  -4   7    6.54    1.13
   5   4  -7    0.78    0.40
  -5  -4   7    0.02    0.69
   4   4  -7    9.60    0.72
  -4  -4   7    9.90    1.10
   3   4  -7  132.77    2.93
  -3  -4   7  133.35    3.42
   2   4  -7  115.72    2.51
  -2  -4   7  111.42    2.38
  -2  -4   7  118.13    3.01
   1   4  -7    0.15    0.21
  -1  -4   7    0.28    0.43
  -1  -4   7    0.40    0.19
   0  -4   7   49.52    1.52
   0  -4   7   50.98    1.29
   1  -4   7   97.27    2.24
   1  -4   7   98.25    2.16
   2  -4   7   52.56    1.45
   2  -4   7   53.74    1.39
   2  -4   7   49.83    1.49
   3  -4   7   12.26    0.79
   3  -4   7   11.44    0.64
   3  -4   7   11.91    0.70
   4  -4   7   17.07    0.92
   4  -4   7   16.10    0.91
   4  -4   7   15.95    0.77
  -5   4  -7   13.41    0.97
   5  -4   7   12.80    0.96
   6  -4   7   16.33    1.21
   6   3  -7    0.26    0.42
  -6  -3   7    0.30    0.72
   5   3  -7   29.73    1.23
  -5  -3   7   26.66    1.57
   4   3  -7   42.98    1.41
  -4  -3   7   44.22    1.78
   3   3  -7   38.24    1.23
  -3  -3   7   37.65    1.53
  -3  -3   7   38.69    1.02
   2   3  -7    3.33    0.41
  -2  -3   7    4.14    0.36
  -2  -3   7    3.33    0.60
   1   3  -7   48.90    1.30
  -1  -3   7   48.01    1.52
  -1  -3   7   48.29    1.22
   0  -3   7   96.74    2.23
   0  -3   7   96.07    2.10
   1  -3   7   54.88    1.38
   1  -3   7   53.84    1.34
   2  -3   7   10.41    0.57
   2  -3   7    9.90    0.57
   2  -3   7   12.22    0.76
   3  -3   7   18.54    0.83
   3  -3   7   17.79    0.92
   3  -3   7   17.58    0.77
  -4   3  -7   24.04    1.07
   4  -3   7   22.92    0.91
   4  -3   7   24.16    1.15
   5  -3   7    6.51    0.82
   6  -3   7    1.65    0.66
   6   2  -7   16.07    1.04
  -6  -2   7   16.21    1.43
   5   2  -7   40.36    1.46
  -5  -2   7   39.28    1.79
   4   2  -7   59.79    1.73
  -4  -2   7   59.60    2.03
  -3  -2   7   13.11    0.52
  -3  -2   7   13.74    0.94
   2   2  -7   60.98    1.59
  -2  -2   7   59.40    1.41
  -2  -2   7   62.13    1.78
  -1  -2   7   88.96    1.93
  -1  -2   7   87.33    2.13
   0  -2   7   79.31    1.76
   0  -2   7   78.54    1.79
   1  -2   7    0.39    0.18
   1  -2   7    0.33    0.22
   2  -2   7   24.85    1.04
   2  -2   7   21.92    0.76
   2  -2   7   20.93    0.81
  -3   2  -7   67.10    1.73
   3  -2   7   69.51    1.93
   3  -2   7   66.00    1.70
   4  -2   7   17.13    1.02
   4  -2   7   16.87    0.78
   5  -2   7    2.12    0.62
   6  -2   7    6.53    0.93
   6   1  -7   24.15    1.21
  -6  -1   7   22.00    1.54
   5   1  -7   41.69    1.48
  -5  -1   7   40.86    1.78
   4   1  -7   14.13    0.83
  -4  -1   7   14.19    1.03
   3   1  -7   19.10    0.88
  -3  -1   7   19.31    0.64
  -3  -1   7   17.82    0.97
   2   1  -7   81.06    2.01
  -2  -1   7   82.50    1.81
  -2  -1   7   82.51    2.05
  -1  -1   7   70.97    1.64
  -1  -1   7   69.53    1.70
   0  -1   7   14.80    0.46
   0  -1   7   14.65    0.61
   1  -1   7   11.18    0.58
   1  -1   7   11.11    0.42
  -2   1  -7   40.75    1.23
   2  -1   7   39.39    1.38
   2  -1   7   37.90    1.17
   3  -1   7   31.94    1.29
   3  -1   7   31.38    1.07
   4  -1   7    1.51    0.40
   4  -1   7    1.73    0.54
   5  -1   7    3.27    0.70
   6  -1   7   14.80    1.27
  -7   0   7   15.92    2.42
   6   0  -7    9.69    0.92
  -6   0   7   10.06    1.22
   5   0  -7    0.75    0.40
  -5   0   7   -0.01    0.52
   4   0  -7    9.62    0.74
  -4   0   7   10.10    0.91
   3   0  -7   49.93    1.51
  -3   0   7   54.71    1.63
  -3   0   7   52.73    1.28
   2   0  -7   44.63    1.42
  -2   0   7   48.89    1.23
  -2   0   7   47.81    1.36
  -1   0   7    8.24    0.49
  -1   0   7    7.67    0.47
   0   0   7   51.18    1.36
   1   0   7   69.96    1.74
   1   0   7   70.46    1.97
   2   0   7   41.17    1.46
   2   0   7   40.60    1.25
   3   0   7    1.74    0.51
   3   0   7    2.44    0.41
   4   0   7    6.15    0.84
   5   0   7   19.03    1.27
  -7   1   7    9.81    1.31
   6  -1  -7    2.18    0.56
  -6   1   7    1.88    0.74
   5  -1  -7   13.23    0.90
  -5   1   7   12.30    1.05
   4  -1  -7   45.58    1.50
  -4   1   7   46.92    1.62
  -3   1   7   54.96    1.38
  -3   1   7   54.59    1.60
  -2   1   7   24.88    0.87
  -2   1   7   23.59    0.86
  -1   1   7   35.81    1.11
   0   1   7  130.33    2.85
   1   1   7   75.07    2.07
   1   1   7   69.74    1.84
   2   1   7    9.61    0.66
   2   1   7    9.90    0.86
   3   1   7    1.97    0.53
   3   1   7    3.55    0.50
   4   1   7    9.35    0.97
   5   1   7   13.65    1.24
  -7   2   7    0.37    0.79
   6  -2  -7    6.65    0.77
  -6   2   7    5.69    0.97
   5  -2  -7   40.11    1.50
  -5   2   7   42.57    1.72
   4  -2  -7   33.32    1.29
  -4   2   7   32.51    1.34
   3  -2  -7    5.98    0.70
  -3   2   7    5.83    0.60
  -3   2   7    5.99    0.52
  -2   2   7    7.17    0.60
  -1   2   7   48.99    1.44
   0   2   7   90.33    2.24
   1   2   7   29.56    1.14
   1   2   7   33.26    1.34
   2   2   7    7.51    0.79
   2   2   7    9.30    0.72
   3   2   7   35.89    1.54
   3   2   7   37.58    1.34
   4   2   7   10.88    1.08
   5   2   7    2.12    0.73
  -7   3   7    0.04    0.78
   6  -3  -7   21.75    1.24
  -6   3   7   21.28    1.42
   5  -3  -7   33.62    1.41
  -5   3   7   35.45    1.58
   4  -3  -7    8.92    0.83
  -4   3   7    7.07    0.76
   3  -3  -7    1.09    0.46
  -3   3   7    1.49    0.40
  -2   3   7   40.97    1.34
  -1   3   7   33.73    1.23
   0   3   7   19.78    0.99
   1   3   7   11.51    0.83
   2   3   7   44.15    1.68
   2   3   7   44.34    1.53
   3   3   7   28.97    1.25
   3   3   7   28.37    1.46
   4   3   7    2.67    0.71
  -7   4   7    5.37    1.10
   6  -4  -7   18.88    1.16
  -6   4   7   16.79    1.33
   5  -4  -7   13.08    0.98
  -5   4   7   12.36    1.11
   4  -4  -7    3.47    0.64
   3  -4  -7   47.49    1.67
  -3   4   7   43.97    1.47
  -2   4   7   28.35    1.17
  -1   4   7   11.68    0.85
   0   4   7    1.32    0.48
   1   4   7   13.61    1.00
   2   4   7   28.33    1.42
   2   4   7   26.32    1.27
   3   4   7    8.52    0.86
   3   4   7   10.13    1.06
   4   4   7    0.31    0.65
   6  -5  -7    3.50    0.67
   5  -5  -7    5.08    0.73
   4  -5  -7   19.94    1.20
  -4   5   7   18.62    1.00
   3  -5  -7   33.93    1.51
  -3   5   7   34.94    1.37
  -2   5   7    4.93    0.67
  -1   5   7    4.25    0.63
   0   5   7   66.97    2.05
   1   5   7   32.54    1.44
   2   5   7    9.19    0.95
   2   5   7   10.85    1.10
   3   5   7    0.38    0.49
   3   5   7   -0.56    0.55
   6  -6  -7    0.00    0.47
   5  -6  -7   12.40    1.11
   4  -6  -7   29.61    1.44
  -4   6   7   31.14    1.34
   3  -6  -7   11.90    1.10
  -3   6   7   13.95    1.03
  -2   6   7    2.39    0.58
  -1   6   7   34.38    1.46
   0   6   7   41.23    1.63
   1   6   7    8.36    0.91
   2   6   7   -0.59    0.48
   2   6   7   -0.57    0.54
   3   6   7    9.96    1.20
   6  -7  -7   16.11    1.26
   5  -7  -7   10.23    1.02
   4  -7  -7   11.68    1.08
  -4   7   7   11.79    0.98
   3  -7  -7    0.94    0.65
  -3   7   7    0.92    0.51
  -2   7   7    6.61    0.80
  -1   7   7   43.80    1.71
   0   7   7   12.51    1.06
   1   7   7    0.66    0.52
   2   7   7    6.67    0.91
   5  -8  -7    4.78    0.81
   4  -8  -7    0.82    0.59
  -4   8   7    0.97    0.58
   3  -8  -7   11.04    1.16
  -3   8   7   13.11    1.15
  -2   8   7   18.45    1.21
  -1   8   7   13.19    1.10
   0   8   7   -0.34    0.50
   1   8   7   12.23    1.16
   2   8   7   12.20    1.20
  -4   9   7    7.19    0.92
  -3   9   7   10.65    1.06
  -2   9   7    6.05    0.86
  -1   9   7    0.31    0.58
   0   9   7    3.21    0.75
   1   9   7   12.69    1.58
  -4  10   7    7.94    0.99
  -3  10   7    7.56    1.01
  -2  10   7    1.38    0.67
   1  14  -8   10.90    1.10
   0  14  -8    5.19    0.84
   0 -14   8    9.44    1.45
  -1  14  -8   -0.37    0.46
   1 -14   8   -0.21    0.68
  -2  14  -8   14.01    1.16
   2 -14   8    9.73    1.32
  -3  14  -8    9.16    1.11
   1  13  -8    8.66    0.94
  -1 -13   8    6.14    1.18
   0  13  -8   -1.07    0.39
   0 -13   8    1.07    0.69
  -1  13  -8    8.89    0.87
   1 -13   8    9.55    1.33
  -2  13  -8   14.98    1.10
   2 -13   8   17.34    1.51
  -3  13  -8    7.04    0.86
   3 -13   8    8.73    1.24
  -4  13  -8   -0.26    0.50
   4 -13   8    0.98    0.76
  -2 -12   8   10.11    1.45
   1  12  -8    0.25    0.41
  -1 -12   8    0.60    0.74
   0  12  -8    6.39    0.73
   0 -12   8    7.38    1.18
  -1  12  -8   39.81    1.52
   1 -12   8   39.48    2.05
  -2  12  -8    9.87    0.88
   2 -12   8    7.87    1.11
  -3  12  -8    1.46    0.51
   3 -12   8    1.06    0.73
  -4  12  -8    3.65    0.67
   4 -12   8    3.20    0.90
  -5  12  -8    8.71    0.95
  -3 -11   8   15.07    1.76
  -2 -11   8    0.84    0.84
   1  11  -8    8.59    0.77
  -1 -11   8    9.88    1.38
   0  11  -8   22.73    1.09
   0 -11   8   22.18    1.61
  -1  11  -8    5.36    0.64
   1 -11   8    5.13    0.99
  -2  11  -8    0.80    0.42
   2 -11   8    1.87    0.67
  -3  11  -8    1.92    0.52
   3 -11   8    2.31    0.73
  -4  11  -8   12.08    1.00
   4 -11   8   12.03    1.31
  -5  11  -8    4.21    0.72
   5 -11   8    6.18    1.07
  -3 -10   8    2.49    1.03
  -2 -10   8   11.85    1.50
   1  10  -8   35.70    1.28
  -1 -10   8   32.85    1.94
   0  10  -8   39.57    1.36
   0 -10   8   40.67    1.98
  -1  10  -8    1.11    0.36
   1 -10   8    1.42    0.70
  -2  10  -8   11.83    0.81
   2 -10   8   10.40    1.14
  -3  10  -8   19.73    1.06
   3 -10   8   20.01    1.32
  -4  10  -8    8.45    0.81
   4 -10   8    9.03    1.07
  -5  10  -8    0.03    0.40
   5 -10   8    0.02    0.58
  -4  -9   8    1.00    0.95
  -3  -9   8    7.11    1.23
   2   9  -8   38.29    1.26
  -2  -9   8   38.05    2.05
   1   9  -8   42.86    1.34
  -1  -9   8   39.82    2.01
   0   9  -8    1.44    0.37
   0  -9   8    0.88    0.60
  -1   9  -8   11.09    0.73
   1  -9   8   11.65    1.21
  -2   9  -8   39.41    1.36
   2  -9   8   39.87    1.68
  -3   9  -8   30.10    1.22
   3  -9   8   29.14    1.46
  -4   9  -8    3.51    0.56
   4  -9   8    4.02    0.79
  -5   9  -8    1.82    0.48
   5  -9   8    1.91    0.67
   6  -9   8    6.88    1.05
  -4  -8   8    6.31    1.20
  -3  -8   8   38.11    2.08
   2   8  -8   18.14    0.80
  -2  -8   8   18.58    1.42
   1   8  -8    8.88    0.59
  -1  -8   8   10.53    1.26
   0   8  -8    7.11    0.57
   0  -8   8    6.93    0.58
   0  -8   8    8.36    1.05
  -1   8  -8   48.23    1.42
   1  -8   8   47.70    1.40
   1  -8   8   44.56    1.78
  -2   8  -8   30.33    1.13
   2  -8   8   30.51    1.12
   2  -8   8   31.57    1.40
  -3   8  -8    4.28    0.54
   3  -8   8    4.26    0.54
   3  -8   8    4.16    0.70
  -4   8  -8    2.33    0.47
   4  -8   8    1.63    0.47
   4  -8   8    2.15    0.61
  -5   8  -8   11.10    1.15
   5  -8   8    7.87    1.01
   6  -8   8    6.39    0.99
   5   7  -8    6.31    0.73
  -5  -7   8    6.52    1.28
   4   7  -8   33.53    1.25
  -4  -7   8   31.48    1.95
   3   7  -8   49.94    1.46
  -3  -7   8   55.11    2.32
   2   7  -8   12.54    0.71
   2   7  -8   10.96    0.60
  -2  -7   8   11.82    1.26
   1   7  -8   12.34    0.63
  -1  -7   8   11.88    1.23
  -1  -7   8   12.61    0.65
   0   7  -8   50.60    1.42
   0  -7   8   51.01    1.94
   0  -7   8   53.34    1.45
  -1   7  -8   55.16    1.53
   1  -7   8   56.15    1.53
   1  -7   8   54.62    1.85
  -2   7  -8    1.92    0.38
   2  -7   8    2.32    0.41
   2  -7   8    1.97    0.49
  -3   7  -8    0.84    0.33
   3  -7   8    0.84    0.44
   3  -7   8    0.68    0.35
  -4   7  -8   21.05    1.01
   4  -7   8   19.61    0.99
   4  -7   8   21.20    1.19
   5  -7   8   14.59    1.15
  -6   7  -8    2.29    0.59
   6   6  -8    3.27    0.65
   5   6  -8   25.11    1.20
  -5  -6   8   24.00    1.80
   4   6  -8   39.65    1.35
  -4  -6   8   38.41    2.01
   3   6  -8    6.53    0.59
  -3  -6   8    5.97    1.01
   2   6  -8    3.31    0.37
   2   6  -8    2.56    0.38
  -2  -6   8    2.80    0.37
  -2  -6   8    2.43    0.80
   1   6  -8   47.05    1.22
   1   6  -8   46.18    1.27
  -1  -6   8   46.97    1.30
  -1  -6   8   41.80    1.82
   0   6  -8   80.74    1.79
   0  -6   8   79.13    1.91
   0  -6   8   81.18    2.38
   1  -6   8    3.28    0.39
   1  -6   8    3.71    0.58
   2  -6   8    4.03    0.56
   2  -6   8    4.16    0.49
   3  -6   8   16.42    0.91
   3  -6   8   18.54    0.86
  -4   6  -8   25.75    1.07
   4  -6   8   25.81    1.20
   4  -6   8   26.53    1.08
   5  -6   8    1.29    0.56
  -6   6  -8    1.72    0.83
   6   5  -8   17.94    1.16
  -6  -5   8   14.92    2.50
   5   5  -8   26.76    1.20
  -5  -5   8   23.84    1.73
   4   5  -8   13.51    0.84
  -4  -5   8   12.73    1.32
   3   5  -8    0.42    0.30
  -3  -5   8    0.52    0.66
   2   5  -8   55.61    1.40
   2   5  -8   55.62    1.50
  -2  -5   8   56.28    1.42
  -2  -5   8   55.92    2.06
   1   5  -8   68.38    1.64
  -1  -5   8   65.51    2.15
  -1  -5   8   67.10    1.63
   0  -5   8   33.21    1.34
   0  -5   8   33.96    1.05
   1  -5   8   27.08    0.94
   1  -5   8   25.54    1.02
   2  -5   8   37.86    1.19
   2  -5   8   38.35    1.26
   3  -5   8   45.85    1.46
   3  -5   8   46.01    1.38
   3  -5   8   45.83    1.53
   4  -5   8    2.56    0.46
   4  -5   8    2.72    0.57
   4  -5   8    2.40    0.55
  -5   5  -8    1.13    0.45
   5  -5   8    0.40    0.51
   6   4  -8   17.23    1.11
  -6  -4   8   17.64    1.63
   5   4  -8    2.54    0.53
  -5  -4   8    1.79    0.84
   4   4  -8    6.68    0.66
  -4  -4   8    6.14    1.00
   3   4  -8   34.14    1.19
  -3  -4   8   34.19    1.65
   2   4  -8   61.56    1.60
  -2  -4   8   58.50    2.04
  -2  -4   8   58.17    1.45
   1   4  -8   30.50    1.01
  -1  -4   8   31.43    1.36
  -1  -4   8   31.74    0.97
   0  -4   8    5.96    0.61
   0  -4   8    6.06    0.47
   1  -4   8   60.85    1.57
   1  -4   8   60.33    1.56
   2  -4   8   69.94    1.76
   2  -4   8   67.93    1.92
   2  -4   8   70.11    1.76
   3  -4   8   42.17    1.31
   3  -4   8   40.64    1.33
   3  -4   8   41.94    1.48
   4  -4   8    1.11    0.50
   4  -4   8    0.64    0.32
   5  -4   8    7.37    0.86
   6  -4   8   12.78    1.15
   6   3  -8    5.99    0.78
  -6  -3   8    7.53    1.19
   5   3  -8    4.90    0.67
  -5  -3   8    3.87    0.90
   4   3  -8   40.38    1.41
  -4  -3   8   43.18    1.81
   3   3  -8   93.14    2.27
  -3  -3   8   90.10    2.07
  -3  -3   8   93.84    2.64
   2   3  -8    1.02    0.36
  -2  -3   8    0.87    0.24
  -2  -3   8    0.15    0.51
   1   3  -8    0.80    0.33
  -1  -3   8    0.90    0.25
  -1  -3   8    0.67    0.41
   0  -3   8   43.45    1.26
   0  -3   8   43.76    1.21
   1  -3   8   70.32    1.65
   1  -3   8   72.30    1.75
   2  -3   8   29.28    0.98
   2  -3   8   33.46    1.30
   2  -3   8   29.87    1.03
   3  -3   8    4.85    0.52
   3  -3   8    5.06    0.68
   4  -3   8   12.61    0.73
   4  -3   8   11.94    0.96
   5  -3   8   11.44    1.03
   6  -3   8    3.19    0.78
   6   2  -8   -0.27    0.39
  -6  -2   8    0.03    0.74
   5   2  -8   24.07    1.16
  -5  -2   8   26.25    1.54
   4   2  -8   79.06    2.12
  -4  -2   8   78.80    2.44
   3   2  -8   49.98    1.51
  -3  -2   8   49.49    1.25
  -3  -2   8   50.34    1.73
   2   2  -8    3.66    0.49
  -2  -2   8    3.95    0.39
  -2  -2   8    3.19    0.60
  -1  -2   8   36.20    1.24
  -1  -2   8   37.19    1.08
   0  -2   8   87.49    2.02
   0  -2   8   88.13    1.90
   1  -2   8   15.14    0.70
   2  -2   8    4.01    0.47
   2  -2   8    4.53    0.64
   3  -2   8   31.87    1.35
   3  -2   8   30.17    1.09
   4  -2   8   27.46    1.38
   4  -2   8   26.81    1.05
   5  -2   8    9.03    1.02
   6  -2   8    0.78    1.06
   6   1  -8    9.80    0.95
  -6  -1   8   10.35    1.28
   5   1  -8   27.42    1.24
  -5  -1   8   27.76    1.51
   4   1  -8   54.83    1.70
  -4  -1   8   55.50    1.93
   3   1  -8    5.91    0.63
  -3  -1   8    5.62    0.42
  -3  -1   8    5.97    0.73
   2   1  -8   32.32    1.19
  -2  -1   8   32.40    0.97
  -2  -1   8   31.47    1.21
  -1  -1   8   72.30    1.75
  -1  -1   8   69.71    1.71
   0  -1   8   38.25    1.15
   1  -1   8    0.50    0.28
   2  -1   8   18.64    1.06
   2  -1   8   15.72    0.79
   3  -1   8   46.39    1.44
   3  -1   8   49.70    1.74
   4  -1   8   16.60    1.16
   4  -1   8   15.94    0.91
   5  -1   8    0.10    0.58
   6   0  -8   17.87    1.11
  -6   0   8   15.93    1.46
   5   0  -8   11.15    0.87
  -5   0   8    9.29    1.04
   4   0  -8    1.73    0.45
  -4   0   8    1.00    0.54
   3   0  -8   29.00    1.17
  -3   0   8   30.05    1.21
  -3   0   8   28.46    0.91
   2   0  -8   73.79    2.04
  -2   0   8   76.24    1.93
  -2   0   8   75.70    1.81
  -1   0   8   46.58    1.31
   0   0   8   22.07    0.87
   1   0   8   24.79    0.97
   2   0   8   44.82    1.41
   2   0   8   45.11    1.65
   3   0   8   18.83    0.93
   3   0   8   20.87    1.23
   4   0   8    1.64    0.61
   5   0   8    5.65    0.92
   6  -1  -8    5.11    0.74
  -6   1   8    6.94    1.09
   5  -1  -8    0.10    0.38
  -5   1   8   -0.71    0.48
   4  -1  -8   19.21    1.03
  -4   1   8   19.22    1.10
   3  -1  -8   57.01    1.76
  -3   1   8   54.82    1.46
  -3   1   8   56.09    2.11
  -2   1   8   37.64    1.17
  -1   1   8    1.90    0.38
   0   1   8   42.99    1.35
   1   1   8   63.46    1.77
   2   1   8   36.06    1.50
   2   1   8   33.99    1.25
   3   1   8    0.36    0.36
   3   1   8    0.08    0.48
   4   1   8    5.23    0.86
   5   1   8   10.62    1.18
  -7   2   8    6.09    1.21
   6  -2  -8    0.44    0.47
  -6   2   8   -1.23    0.58
   5  -2  -8   12.40    0.95
  -5   2   8   11.99    1.10
   4  -2  -8   48.73    1.67
   3  -2  -8   50.08    1.72
  -3   2   8   53.88    1.49
  -2   2   8    1.01    0.37
  -1   2   8   21.89    0.97
   0   2   8   61.39    1.77
   1   2   8   55.36    1.70
   2   2   8    0.48    0.39
   2   2   8    1.75    0.58
   3   2   8   10.15    1.04
   3   2   8   11.21    0.86
   4   2   8    8.53    1.05
   6  -3  -8    5.80    0.82
   5  -3  -8   26.17    1.30
   4  -3  -8   33.76    1.43
   3  -3  -8    2.79    0.62
  -3   3   8    3.04    0.50
  -2   3   8    4.53    0.61
  -1   3   8   37.17    1.37
   0   3   8   61.08    1.86
   1   3   8    4.00    0.62
   2   3   8    6.58    0.85
   2   3   8    7.74    0.82
   3   3   8   21.94    1.40
   3   3   8   21.70    1.15
   4   3   8   10.87    1.22
   6  -4  -8   14.34    1.14
   5  -4  -8   16.05    1.10
   4  -4  -8    3.71    0.69
   3  -4  -8   20.14    1.25
  -3   4   8   17.60    0.97
  -2   4   8   20.64    1.07
  -1   4   8   21.21    1.11
   0   4   8    5.58    0.76
   1   4   8    7.66    0.82
   2   4   8   27.52    1.52
   2   4   8   29.57    1.38
   3   4   8   18.25    1.19
   3   4   8   18.74    1.41
   6  -5  -8   13.80    1.18
   5  -5  -8    2.13    0.62
   4  -5  -8    8.30    0.93
  -4   5   8    6.86    0.81
   3  -5  -8   36.97    1.68
  -3   5   8   36.24    1.45
  -2   5   8   21.89    1.15
  -1   5   8    7.58    0.83
   0   5   8   17.88    1.13
   1   5   8   24.14    1.31
   2   5   8   23.97    1.33
   2   5   8   22.58    1.51
   3   5   8   -0.08    0.66
   3   5   8    1.08    0.55
   6  -6  -8    0.83    0.56
   5  -6  -8    0.60    0.55
   4  -6  -8   18.77    1.30
  -4   6   8   20.67    1.16
   3  -6  -8   27.03    1.56
  -3   6   8   27.40    1.35
  -2   6   8    4.84    0.74
  -1   6   8    1.37    0.55
   0   6   8   29.64    1.43
   1   6   8   24.43    1.37
   2   6   8   11.64    1.15
   5  -7  -8   13.54    1.20
   4  -7  -8   19.93    1.40
  -4   7   8   23.37    1.27
   3  -7  -8    1.88    0.76
  -3   7   8    1.84    0.58
  -2   7   8    0.23    0.49
  -1   7   8   17.84    1.21
   0   7   8   22.60    1.32
   1   7   8   10.09    1.07
   2   7   8    1.94    0.72
   5  -8  -8   12.11    1.21
   4  -8  -8    6.76    1.01
  -4   8   8    7.46    0.91
   3  -8  -8    3.48    0.92
  -3   8   8    2.51    0.66
  -2   8   8    9.40    1.05
  -1   8   8   15.84    1.22
   0   8   8    3.29    0.72
   1   8   8    0.58    0.60
  -4   9   8    1.04    0.61
  -3   9   8    8.63    1.03
  -2   9   8    8.95    1.02
  -1   9   8    3.41    0.88
   1  14  -9    8.52    0.99
   0  14  -9   11.09    1.10
  -1  14  -9    5.14    0.78
   1 -14   9    4.08    1.08
  -2  14  -9    1.74    0.73
   2 -14   9    1.28    0.88
   1  13  -9   12.23    1.06
  -1 -13   9   12.88    1.58
   0  13  -9    7.42    0.87
   0 -13   9    9.60    1.38
  -1  13  -9    1.35    0.51
   1 -13   9    2.36    0.84
  -2  13  -9   12.25    1.02
   2 -13   9   13.31    1.50
  -3  13  -9    9.60    1.01
   3 -13   9    8.66    1.21
  -4  13  -9    1.65    0.63
  -2 -12   9   16.61    1.76
   1  12  -9    5.27    0.69
  -1 -12   9    4.47    1.08
   0  12  -9   -0.20    0.36
   0 -12   9    0.20    0.68
  -1  12  -9    8.56    0.83
   1 -12   9    9.82    1.25
  -2  12  -9   13.68    1.00
   2 -12   9   13.89    1.45
  -3  12  -9    8.09    0.87
   3 -12   9    9.94    1.26
  -4  12  -9    0.53    0.47
   4 -12   9    0.22    0.68
  -5  12  -9    2.21    0.64
  -3 -11   9   24.50    2.01
  -2 -11   9   12.14    1.57
   1  11  -9    0.02    0.34
  -1 -11   9    0.60    0.74
   0  11  -9   24.04    1.13
   0 -11   9   21.30    1.61
  -1  11  -9   25.56    1.20
   1 -11   9   28.82    1.72
  -2  11  -9    6.52    0.72
   2 -11   9    4.55    0.89
  -3  11  -9   -0.08    0.37
   3 -11   9    0.42    0.57
  -4  11  -9    4.84    0.72
   4 -11   9    6.13    1.04
  -5  11  -9    4.52    0.73
   5 -11   9    5.93    1.03
  -3 -10   9    9.48    1.44
  -2 -10   9    0.71    0.81
   1  10  -9   15.78    0.89
  -1 -10   9   15.26    1.48
   0  10  -9   30.11    1.19
   0 -10   9   29.67    1.72
  -1  10  -9   14.02    0.87
   1 -10   9   14.89    1.27
  -2  10  -9   -0.31    0.30
   2 -10   9   -0.26    0.50
  -3  10  -9   19.88    1.08
   3 -10   9   19.36    1.36
  -4  10  -9   11.87    0.93
   4 -10   9   13.63    1.20
  -5  10  -9    5.23    0.74
   5 -10   9    5.43    0.96
  -4  -9   9    9.77    1.49
  -3  -9   9    0.80    0.88
   2   9  -9   15.53    0.79
  -2  -9   9   16.83    1.58
   1   9  -9   30.94    1.16
  -1  -9   9   31.71    1.84
   0   9  -9   22.64    0.98
   0  -9   9   20.84    1.44
  -1   9  -9    0.22    0.30
   1  -9   9    0.82    0.54
   1  -9   9    0.48    0.32
  -2   9  -9   21.07    1.00
   2  -9   9   19.49    1.22
   2  -9   9   17.80    0.95
  -3   9  -9   36.16    1.37
   3  -9   9   35.06    1.34
   3  -9   9   35.54    1.59
  -4   9  -9   12.00    0.89
   4  -9   9   12.68    0.89
   4  -9   9   11.90    1.07
  -5   9  -9    0.10    0.39
   5  -9   9    0.92    0.63
  -4  -8   9    2.64    1.04
  -3  -8   9   23.17    1.80
   2   8  -9   52.54    1.51
  -2  -8   9   56.05    2.38
   1   8  -9   19.68    0.88
  -1  -8   9   19.60    1.47
  -1  -8   9   19.56    0.88
   0   8  -9    0.60    0.28
   0  -8   9    1.07    0.60
   0  -8   9    0.87    0.33
  -1   8  -9   16.17    0.84
   1  -8   9   17.84    1.14
   1  -8   9   15.45    0.83
  -2   8  -9   41.25    1.38
   2  -8   9   41.18    1.37
   2  -8   9   40.23    1.58
  -3   8  -9   18.05    0.96
   3  -8   9   19.16    0.98
   3  -8   9   19.73    1.14
  -4   8  -9    2.33    0.49
   4  -8   9    2.59    0.51
   4  -8   9    1.82    0.62
  -5   8  -9    3.25    0.92
   5  -8   9    2.53    0.68
   5   7  -9    0.65    0.43
  -5  -7   9    1.94    1.06
   4   7  -9   13.84    0.84
  -4  -7   9   13.19    1.53
   3   7  -9   51.83    1.87
  -3  -7   9   52.00    2.34
   2   7  -9   38.02    1.18
  -2  -7   9   39.32    1.20
  -2  -7   9   36.82    1.91
   1   7  -9    0.48    0.27
  -1  -7   9    0.68    0.29
  -1  -7   9   -0.25    0.58
   0   7  -9   11.28    0.69
   0  -7   9   12.55    1.05
   0  -7   9   12.55    0.73
  -1   7  -9   36.24    1.23
   1  -7   9   37.64    1.50
   1  -7   9   36.76    1.21
  -2   7  -9   16.38    0.85
   2  -7   9   16.08    0.84
   2  -7   9   16.32    0.97
  -3   7  -9    4.61    0.57
   3  -7   9    5.36    0.62
   3  -7   9    4.95    0.70
  -4   7  -9    6.30    0.65
   4  -7   9    6.45    0.83
   4  -7   9    6.09    0.66
   5  -7   9   11.04    1.23
   5   6  -9   12.90    0.93
  -5  -6   9   12.49    1.52
   4   6  -9   29.74    1.21
  -4  -6   9   30.67    1.90
   3   6  -9   62.60    1.71
  -3  -6   9   56.49    2.37
   2   6  -9    7.84    0.50
   2   6  -9    8.71    0.61
  -2  -6   9    7.76    1.11
  -2  -6   9    8.15    0.56
   1   6  -9   35.45    1.11
   1   6  -9   36.29    1.10
  -1  -6   9   34.78    1.12
  -1  -6   9   34.85    1.66
   0   6  -9  102.98    2.28
   0  -6   9  103.96    2.38
   0  -6   9  100.80    2.76
   1  -6   9   31.81    1.10
   1  -6   9   30.81    1.25
   2  -6   9    1.23    0.40
   2  -6   9    0.67    0.33
   3  -6   9    2.98    0.49
   3  -6   9    3.53    0.57
   4  -6   9   17.67    1.16
   4  -6   9   19.26    0.96
   6   5  -9    3.10    0.61
   5   5  -9   21.49    1.11
  -5  -5   9   20.30    1.70
   4   5  -9   16.49    0.92
  -4  -5   9   15.11    1.49
   3   5  -9   10.75    0.71
  -3  -5   9   10.00    1.24
   2   5  -9   19.33    0.85
  -2  -5   9   17.45    0.74
  -2  -5   9   15.84    1.27
   1   5  -9   63.54    1.66
  -1  -5   9   65.70    1.66
  -1  -5   9   65.83    2.17
   0  -5   9   68.30    1.76
   0  -5   9   71.70    2.04
   1  -5   9    0.98    0.34
   1  -5   9    1.06    0.35
   2  -5   9    6.44    0.59
   2  -5   9    6.52    0.59
   3  -5   9   55.05    1.59
   3  -5   9   51.88    1.77
   4  -5   9   20.16    0.99
   4  -5   9   20.34    1.21
   6   4  -9   31.33    1.42
  -6  -4   9   24.90    1.93
   5   4  -9   11.29    0.89
  -5  -4   9   12.67    1.45
   4   4  -9    1.73    0.45
  -4  -4   9    2.17    0.81
   3   4  -9    0.96    0.37
  -3  -4   9    2.40    0.77
   2   4  -9   39.60    1.28
  -2  -4   9   36.93    1.63
  -2  -4   9   39.87    1.15
   1   4  -9   52.89    1.50
  -1  -4   9   54.11    1.82
  -1  -4   9   53.02    1.43
   0  -4   9    9.78    0.68
   0  -4   9    8.77    0.59
   1  -4   9   22.81    0.87
   1  -4   9   23.89    0.92
   2  -4   9   45.20    1.39
   3  -4   9   26.48    1.06
   3  -4   9   27.46    1.29
   4  -4   9    3.22    0.51
   4  -4   9    3.65    0.71
   5  -4   9    0.97    0.63
   6  -4   9    6.87    1.00
   6   3  -9   26.27    1.30
  -6  -3   9   19.44    1.76
   5   3  -9    0.87    0.45
  -5  -3   9    0.78    0.73
   4   3  -9   17.27    0.95
  -4  -3   9   16.69    1.29
   3   3  -9  119.52    2.84
  -3  -3   9  127.40    3.11
  -3  -3   9  120.92    3.27
   2   3  -9   68.70    1.87
  -2  -3   9   70.18    2.19
  -2  -3   9   70.64    1.71
  -1  -3   9   24.58    0.89
  -1  -3   9   26.46    1.15
   0  -3   9    9.90    0.61
   1  -3   9   43.64    1.31
   2  -3   9   78.53    2.26
   2  -3   9   75.55    1.95
   3  -3   9    8.61    0.71
   3  -3   9    9.20    0.95
   4  -3   9    2.80    0.69
   4  -3   9    1.77    0.43
   5  -3   9    7.63    0.97
   6   2  -9    3.54    0.67
  -6  -2   9    2.58    0.96
   5   2  -9    4.69    0.65
  -5  -2   9    3.78    0.89
   4   2  -9   37.70    1.40
  -4  -2   9   39.48    1.75
   3   2  -9   61.55    1.83
  -3  -2   9   66.39    2.12
  -3  -2   9   67.29    1.60
   2   2  -9   17.90    0.94
  -2  -2   9   18.11    1.05
  -2  -2   9   17.32    0.73
  -1  -2   9    3.19    0.41
   0  -2   9   73.90    1.85
   1  -2   9   58.55    1.61
   2  -2   9   19.99    0.91
   2  -2   9   21.54    1.20
   3  -2   9    2.04    0.61
   3  -2   9    1.80    0.42
   4  -2   9   15.94    0.91
   4  -2   9   18.50    1.27
   5  -2   9   14.11    1.26
   6   1  -9    1.94    0.58
  -6  -1   9    0.58    0.78
   5   1  -9   16.64    1.04
  -5  -1   9   17.15    1.32
   4   1  -9   46.22    1.60
  -4  -1   9   50.31    1.87
   3   1  -9   12.98    0.87
  -3  -1   9   12.76    0.97
  -3  -1   9   13.10    0.62
   2   1  -9    0.52    0.41
  -2  -1   9    0.54    0.26
  -1  -1   9   86.61    2.07
   0  -1   9   31.14    1.08
   1  -1   9   13.41    0.75
   2  -1   9   -0.15    0.30
   2  -1   9    0.41    0.50
   3  -1   9   29.46    1.19
   3  -1   9   30.37    1.49
   4  -1   9   20.76    1.09
   4  -1   9   21.52    1.38
   5  -1   9    4.85    0.93
   6   0  -9   19.81    1.18
  -6   0   9   18.98    1.50
   5   0  -9   26.44    1.26
  -5   0   9   24.68    1.45
   4   0  -9   12.12    0.89
  -4   0   9   11.67    0.99
   3   0  -9    0.79    0.43
  -3   0   9    1.25    0.31
   2   0  -9   43.80    1.57
  -2   0   9   44.86    1.33
  -1   0   9   90.81    2.21
   0   0   9   15.12    0.80
   1   0   9    0.11    0.32
   2   0   9   33.55    1.51
   2   0   9   30.89    1.21
   3   0   9   47.70    1.87
   3   0   9   44.55    1.52
   4   0   9    7.05    1.00
   5   0   9   -0.46    0.86
   6  -1  -9   17.28    1.15
  -6   1   9   14.03    1.35
   5  -1  -9    9.26    0.91
   4  -1  -9    2.20    0.53
   3  -1  -9   21.19    1.14
  -3   1   9   21.98    0.89
  -2   1   9   86.28    2.13
  -1   1   9    7.35    0.64
   0   1   9    2.22    0.46
   1   1   9   18.45    0.95
   2   1   9   58.27    2.06
   2   1   9   56.90    1.81
   3   1   9    7.99    0.81
   3   1   9    7.58    1.00
   4   1   9   -0.34    0.60
   6  -2  -9    5.47    0.77
   5  -2  -9    0.64    0.48
   4  -2  -9   31.39    1.42
   3  -2  -9   78.45    2.32
  -3   2   9   75.83    1.99
  -2   2   9   43.75    1.43
  -1   2   9    0.14    0.35
   0   2   9   21.11    1.05
   1   2   9   39.09    1.46
   2   2   9   39.21    1.54
   2   2   9   41.41    1.77
   3   2   9    0.16    0.40
   3   2   9    0.41    0.58
   4   2   9    5.48    1.00
   6  -3  -9   -0.28    0.46
   5  -3  -9   11.59    1.01
   4  -3  -9   29.90    1.44
   3  -3  -9   32.32    1.54
  -3   3   9   35.21    1.31
  -2   3   9    0.79    0.40
  -1   3   9   20.42    1.08
   0   3   9   42.43    1.56
   1   3   9   33.32    1.43
   2   3   9    0.25    0.59
   2   3   9    0.99    0.52
   3   3   9    4.72    0.88
   3   3   9    4.85    0.76
   6  -4  -9    4.70    0.83
   5  -4  -9   13.03    1.11
   4  -4  -9   18.38    1.25
   3  -4  -9    1.19    0.66
  -3   4   9    2.87    0.56
  -2   4   9   17.34    1.07
  -1   4   9   34.32    1.48
   0   4   9    1.33    0.57
   1   4   9    0.63    0.50
   2   4   9    8.53    0.95
   3   4   9   11.63    1.09
   3   4   9   10.23    1.20
   5  -5  -9    7.18    0.92
   4  -5  -9    1.76    0.63
   3  -5  -9    5.75    0.92
  -3   5   9    7.15    0.83
  -2   5   9   39.45    1.58
  -1   5   9   35.52    1.53
   0   5   9    2.12    0.64
   1   5   9   11.28    1.12
   2   5   9   23.08    1.42
   3   5   9    5.33    0.86
   5  -6  -9    0.67    0.61
   4  -6  -9    3.99    0.87
  -4   6   9    4.05    0.74
   3  -6  -9   20.35    1.53
  -3   6   9   23.93    1.29
  -2   6   9   24.27    1.32
  -1   6   9    0.35    0.54
   0   6   9    2.88    0.70
   1   6   9   30.63    1.58
   2   6   9   18.66    1.39
   5  -7  -9    3.17    0.80
   4  -7  -9   12.03    1.26
  -4   7   9   15.96    1.20
   3  -7  -9    9.83    1.24
  -3   7   9   12.78    1.09
  -2   7   9    1.37    0.60
  -1   7   9    2.06    0.64
   0   7   9   12.17    1.14
   1   7   9   24.53    1.55
   4  -8  -9   11.34    1.27
  -4   8   9   14.18    1.23
   3  -8  -9    2.76    0.96
  -3   8   9    2.53    0.67
  -2   8   9    1.57    0.66
  -1   8   9    5.61    0.88
   1  13 -10   16.31    1.10
  -1 -13  10   15.62    2.13
   0  13 -10   21.64    1.22
   0 -13  10   20.54    1.73
  -1  13 -10    1.63    0.56
   1 -13  10    0.76    0.76
  -2  13 -10    0.34    0.49
   2 -13  10    0.68    0.75
  -3  13 -10   11.57    1.10
   3 -13  10   11.39    1.42
  -2 -12  10   18.55    1.96
   1  12 -10   21.03    1.15
  -1 -12  10   18.68    1.71
   0  12 -10    5.28    0.69
   0 -12  10    5.10    1.06
  -1  12 -10    2.42    0.54
   1 -12  10    3.78    0.93
  -2  12 -10    8.54    0.84
   2 -12  10    9.28    1.22
  -3  12 -10   12.26    1.01
   3 -12  10   14.25    1.35
  -4  12 -10    2.66    0.64
   4 -12  10    3.11    0.91
  -2 -11  10   14.48    1.64
   1  11 -10    9.62    0.82
  -1 -11  10    9.75    1.32
   0  11 -10    6.28    0.67
   0 -11  10    6.74    1.07
  -1  11 -10   18.29    1.04
   1 -11  10   16.55    1.40
  -2  11 -10   22.35    1.17
   2 -11  10   23.43    1.52
  -3  11 -10    2.52    0.56
   3 -11  10    2.92    0.78
  -4  11 -10    0.58    0.49
   4 -11  10    1.34    0.69
  -5  11 -10    3.29    0.69
   5 -11  10    4.47    1.02
  -3 -10  10   26.46    2.04
  -2 -10  10   10.53    1.46
   1  10 -10    0.04    0.31
  -1 -10  10    0.39    0.71
   0  10 -10   27.28    1.16
   0 -10  10   25.81    1.66
  -1  10 -10   32.53    1.31
   1 -10  10   34.06    1.74
  -2  10 -10    9.59    0.88
   2 -10  10    9.50    0.84
   2 -10  10   12.36    1.26
  -3  10 -10    4.45    0.65
   3 -10  10    4.44    0.66
   3 -10  10    3.27    0.79
  -4  10 -10    6.60    0.79
   4 -10  10    7.58    1.00
  -5  10 -10    7.12    0.84
   5 -10  10    6.24    0.98
  -4  -9  10   21.25    1.98
  -3  -9  10    2.85    1.07
   2   9 -10    0.89    0.37
   1   9 -10   20.41    0.95
  -1  -9  10   19.32    1.56
   0   9 -10   30.86    1.19
   0  -9  10   25.83    1.59
   0  -9  10   30.35    1.18
  -1   9 -10   20.36    1.00
   1  -9  10   21.52    1.32
   1  -9  10   19.62    0.98
  -2   9 -10    0.07    0.33
   2  -9  10    0.16    0.36
   2  -9  10    0.63    0.49
  -3   9 -10   20.76    1.09
   3  -9  10   19.79    1.07
   3  -9  10   18.60    1.21
  -4   9 -10   13.89    1.00
   4  -9  10   13.42    1.11
   4  -9  10   14.45    1.01
  -5   9 -10    7.28    0.83
   5  -9  10    6.87    0.95
  -4  -8  10    8.98    1.46
  -3  -8  10    6.86    1.23
   2   8 -10   29.05    1.07
  -2  -8  10   27.76    1.83
   1   8 -10   53.13    1.55
  -1  -8  10   53.17    1.56
  -1  -8  10   49.92    2.20
   0   8 -10   31.52    1.15
   0  -8  10   30.62    1.15
   0  -8  10   29.94    1.56
  -1   8 -10    0.09    0.29
   1  -8  10    0.88    0.47
   1  -8  10    0.23    0.32
  -2   8 -10   24.81    1.09
   2  -8  10   22.39    1.06
   2  -8  10   21.97    1.16
  -3   8 -10   28.98    1.23
   3  -8  10   29.06    1.23
   3  -8  10   27.99    1.36
  -4   8 -10   13.13    0.90
   4  -8  10   11.99    0.90
   4  -8  10   11.73    1.00
  -5  -7  10   13.64    1.73
  -4  -7  10    0.48    0.90
  -3  -7  10   29.47    1.97
   2   7 -10   61.39    1.64
  -2  -7  10   61.16    1.66
  -2  -7  10   57.61    2.41
   1   7 -10   23.35    0.94
  -1  -7  10   22.47    1.46
  -1  -7  10   24.46    0.97
   0   7 -10    0.38    0.27
   0  -7  10    0.28    0.48
   0  -7  10   -0.05    0.26
   1  -7  10   19.10    0.91
   1  -7  10   19.80    1.09
   2  -7  10   34.33    1.27
   2  -7  10   32.97    1.34
   3  -7  10   17.78    0.95
   3  -7  10   15.56    0.99
  -4   7 -10    0.56    0.38
   4  -7  10    0.67    0.43
   5   6 -10   -0.38    0.35
  -5  -6  10   -0.56    0.90
   4   6 -10   21.69    1.07
  -4  -6  10   20.49    1.72
   3   6 -10   44.83    1.44
  -3  -6  10   43.91    2.20
   2   6 -10   27.47    0.99
   2   6 -10   29.77    1.08
  -2  -6  10   30.17    1.05
  -2  -6  10   27.13    1.64
   1   6 -10    2.14    0.41
  -1  -6  10    1.82    0.36
  -1  -6  10    2.01    0.67
   0  -6  10   32.01    1.38
   0  -6  10   33.59    1.16
   1  -6  10   50.18    1.51
   1  -6  10   50.61    1.61
   2  -6  10   19.27    0.97
   2  -6  10   18.61    1.03
   3  -6  10    0.50    0.37
   4  -6  10   10.13    0.85
   5   5 -10   12.47    0.93
  -5  -5  10   11.42    1.45
   4   5 -10   43.77    1.54
  -4  -5  10   44.80    2.16
   3   5 -10   60.32    1.75
  -3  -5  10   59.02    2.36
   2   5 -10    2.94    0.47
  -2  -5  10    3.26    0.43
  -2  -5  10    4.26    0.90
   1   5 -10   15.80    0.84
  -1  -5  10   17.19    1.15
  -1  -5  10   17.12    0.80
   0  -5  10   65.82    1.76
   0  -5  10   66.92    1.93
   1  -5  10   38.76    1.28
   2  -5  10    1.33    0.39
   3  -5  10    7.30    0.70
   3  -5  10    6.55    0.83
   4  -5  10   20.79    1.06
  -6  -4  10   10.50    2.43
   5   4 -10   25.50    1.25
  -5  -4  10   24.02    1.77
   4   4 -10   17.60    0.99
  -4  -4  10   18.06    1.49
   3   4 -10    3.13    0.52
  -3  -4  10    2.62    0.84
   2   4 -10   19.85    0.97
  -2  -4  10   19.38    0.82
  -2  -4  10   19.71    1.31
   1   4 -10   52.34    1.59
  -1  -4  10   52.89    1.49
  -1  -4  10   52.63    1.76
   0  -4  10   64.56    1.72
   1  -4  10    1.32    0.38
   2  -4  10    8.61    0.69
   3  -4  10   24.68    1.08
   3  -4  10   24.95    1.34
   4  -4  10   18.06    1.27
   4  -4  10   16.99    0.94
   5  -4  10    1.50    0.74
   6   3 -10   26.37    1.48
  -6  -3  10   21.67    1.90
   5   3 -10   20.34    1.12
  -5  -3  10   19.89    1.58
   4   3 -10    7.08    0.77
  -4  -3  10    5.95    1.03
   3   3 -10   35.85    1.33
  -3  -3  10   35.45    1.69
   2   3 -10   71.53    2.02
  -2  -3  10   74.28    1.84
  -2  -3  10   76.41    2.45
  -1  -3  10   66.99    1.75
   0  -3  10    1.98    0.38
   1  -3  10   31.93    1.15
   2  -3  10   38.25    1.32
   3  -3  10   31.06    1.51
   3  -3  10   26.51    1.14
   4  -3  10    6.49    0.69
   4  -3  10    7.88    1.00
   5  -3  10    1.20    0.77
   6   2 -10   19.40    1.21
  -6  -2  10   18.45    1.72
   5   2 -10    6.14    0.78
  -5  -2  10    5.15    1.01
   4   2 -10   10.19    0.84
  -4  -2  10   10.79    1.17
   3   2 -10   48.84    1.65
  -3  -2  10   51.65    1.39
   2   2 -10   63.67    1.89
  -2  -2  10   63.49    1.66
  -1  -2  10   45.87    1.37
   0  -2  10   21.82    0.94
   1  -2  10   33.77    1.21
   2  -2  10   26.28    1.10
   3  -2  10    7.77    0.72
   3  -2  10    7.13    0.93
   4  -2  10    0.83    0.42
   4  -2  10    0.79    0.66
   5  -2  10   11.40    1.29
   6   1 -10    0.14    0.46
  -6  -1  10   -1.00    0.72
   5   1 -10    3.93    0.65
  -5  -1  10    2.97    0.89
   4   1 -10   36.54    1.45
   3   1 -10   33.22    1.36
  -3  -1  10   34.35    1.10
   2   1 -10   14.80    1.03
  -2  -1  10   16.20    0.79
  -1  -1  10    0.94    0.33
   0  -1  10   78.32    2.04
   1  -1  10   29.13    1.15
   2  -1  10    3.91    0.57
   3  -1  10    3.54    0.58
   3  -1  10    2.95    0.75
   4  -1  10   13.41    1.02
   4  -1  10   12.89    1.27
   6   0 -10    3.46    0.71
   5   0 -10   23.77    1.28
   4   0 -10   27.72    1.31
   3   0 -10    6.97    0.78
  -3   0  10    8.15    0.60
  -2   0  10    0.14    0.28
  -1   0  10   68.19    1.88
   0   0  10   52.04    1.62
   1   0  10    9.60    0.77
   2   0  10    1.00    0.41
   3   0  10   18.16    1.37
   3   0  10   17.47    1.05
   4   0  10   11.57    1.26
   6  -1 -10   17.15    1.54
   5  -1 -10   22.08    1.26
   4  -1 -10    2.77    0.63
   3  -1 -10   16.01    1.11
  -3   1  10   16.55    0.83
  -2   1  10   12.28    0.79
  -1   1  10   79.81    2.14
   0   1  10   18.30    0.98
   1   1  10    1.93    0.51
   2   1  10   31.11    1.36
   3   1  10   22.78    1.50
   3   1  10   22.44    1.19
   4   1  10    4.29    0.95
   5  -2 -10   11.67    1.05
   4  -2 -10    3.73    0.75
   3  -2 -10   34.32    1.59
  -3   2  10   31.11    1.23
  -2   2  10   42.38    1.47
  -1   2  10   14.79    0.93
   0   2  10    5.69    0.73
   1   2  10   16.99    1.07
   2   2  10   38.09    1.56
   3   2  10    8.05    1.10
   3   2  10    8.03    0.90
   5  -3 -10    0.18    0.51
   4  -3 -10   28.74    1.52
   3  -3 -10   23.44    1.46
  -3   3  10   22.81    1.10
  -2   3  10   32.69    1.36
  -1   3  10    1.98    0.55
   0   3  10    7.73    0.85
   1   3  10   12.87    1.12
   2   3  10   17.46    1.19
   3   3  10    0.13    0.50
   3   3  10   -0.87    0.63
   5  -4 -10    7.26    0.91
   4  -4 -10   20.03    1.43
   3  -4 -10   10.87    1.21
  -3   4  10   11.77    0.94
  -2   4  10    0.06    0.45
  -1   4  10   36.55    1.57
   0   4  10   17.55    1.16
   1   4  10    9.88    1.04
   2   4  10    0.35    0.56
   3   4  10    2.19    0.67
   5  -5 -10   19.19    1.42
   4  -5 -10    4.49    0.89
   3  -5 -10   -0.16    0.67
  -3   5  10    0.22    0.47
  -2   5  10   15.76    1.15
  -1   5  10   33.22    1.56
   0   5  10    5.94    0.84
   1   5  10   -0.09    0.52
   2   5  10   11.28    1.15
   4  -6 -10    0.06    0.65
   3  -6 -10    1.59    0.85
  -3   6  10    2.53    0.67
  -2   6  10   25.92    1.42
  -1   6  10   14.54    1.19
   0   6  10    1.87    0.66
   1   6  10    4.66    0.87
   4  -7 -10    8.58    1.19
  -4   7  10    8.08    1.24
   3  -7 -10   13.16    1.43
  -3   7  10   14.41    1.20
  -2   7  10   12.00    1.16
  -1   7  10    0.39    0.58
   3  -8 -10    7.96    2.20
   1  13 -11    4.64    0.73
   0  13 -11   22.11    1.27
   0 -13  11   23.64    1.83
  -1  13 -11    9.48    0.96
   1 -13  11    8.99    1.37
  -2  13 -11    0.57    0.54
   2 -13  11    1.42    0.81
   3 -13  11    2.02    1.02
   1  12 -11   15.57    1.03
  -1 -12  11   17.56    1.67
   0  12 -11    9.68    0.91
   0 -12  11    9.88    1.36
  -1  12 -11    0.93    0.44
   1 -12  11    1.56    0.75
  -2  12 -11    1.24    0.50
   2 -12  11    0.38    0.66
  -3  12 -11    9.40    0.95
   3 -12  11   14.18    1.35
   4 -12  11    4.89    1.01
  -2 -11  11   21.53    1.87
   1  11 -11   31.75    1.30
  -1 -11  11   31.44    2.01
   0  11 -11    2.39    0.53
   0 -11  11    1.55    0.78
  -1  11 -11    4.41    0.66
   1 -11  11    3.99    0.90
  -2  11 -11   17.99    1.11
   2 -11  11   17.47    1.35
  -3  11 -11    8.92    0.92
   3 -11  11    8.35    1.08
  -4  11 -11   -0.31    0.44
   4 -11  11    0.13    0.61
  -3 -10  11   28.28    2.15
  -2 -10  11   22.85    1.82
   1  10 -11    6.85    0.71
  -1 -10  11    5.28    1.05
   0  10 -11    3.18    0.57
   0 -10  11    1.87    0.74
   0 -10  11    2.89    0.56
  -1  10 -11   16.43    0.99
   1 -10  11   16.17    1.31
   1 -10  11   16.62    0.98
  -2  10 -11   33.17    1.37
   2 -10  11   30.60    1.57
   2 -10  11   29.97    1.33
  -3  10 -11    2.94    0.59
   3 -10  11    3.49    0.61
   3 -10  11    4.27    0.83
  -4  10 -11    0.51    0.47
   4 -10  11    1.01    0.61
   4 -10  11    0.47    0.49
  -4  -9  11   23.30    3.20
  -3  -9  11   16.65    1.78
  -2  -9  11    7.58    1.25
   1   9 -11    3.57    0.53
  -1  -9  11    3.45    0.90
  -1  -9  11    2.89    0.51
   0   9 -11   24.62    1.10
   0  -9  11   26.98    1.56
   0  -9  11   24.43    1.11
  -1   9 -11   28.39    1.23
   1  -9  11   28.68    1.50
   1  -9  11   26.12    1.19
  -2   9 -11    4.79    0.62
   2  -9  11    4.67    0.63
   2  -9  11    6.11    0.83
  -3   9 -11    1.89    0.51
   3  -9  11    1.28    0.55
   3  -9  11    1.64    0.51
  -4   9 -11    8.32    0.86
   4  -9  11    6.75    0.79
  -5   9 -11    6.82    0.81
  -4  -8  11   34.73    2.29
  -3  -8  11    7.33    1.34
   2   8 -11    3.88    0.50
  -2  -8  11    3.00    0.48
  -2  -8  11    4.17    1.02
   1   8 -11   42.26    1.38
  -1  -8  11   41.16    1.39
  -1  -8  11   38.22    1.96
   0   8 -11   34.97    1.29
   0  -8  11   36.87    1.31
   0  -8  11   33.95    1.63
  -1   8 -11   13.27    0.85
   1  -8  11   13.50    0.99
   1  -8  11   13.35    0.85
  -2   8 -11    1.28    0.41
   2  -8  11    0.46    0.38
   2  -8  11    1.08    0.45
  -3   8 -11   19.75    1.06
   3  -8  11   17.14    1.03
  -4   8 -11   11.96    0.90
   4  -8  11   13.50    0.97
  -4  -7  11    3.83    1.18
  -3  -7  11    0.33    0.84
   2   7 -11   33.56    1.16
  -2  -7  11   31.53    1.17
  -2  -7  11   35.54    1.98
   1   7 -11   60.44    1.70
  -1  -7  11   57.68    2.25
  -1  -7  11   59.94    1.71
   0  -7  11   15.14    0.84
   0  -7  11   17.30    1.13
   1  -7  11    0.05    0.33
   1  -7  11   -0.15    0.32
   2  -7  11   15.76    0.94
   3  -7  11   21.26    1.12
   4  -7  11    3.12    0.57
   5   6 -11   13.55    0.98
  -5  -6  11   13.95    1.71
   4   6 -11    1.94    0.49
  -4  -6  11    1.55    1.00
   3   6 -11   21.61    1.03
  -3  -6  11   19.44    1.63
   2   6 -11   59.68    1.71
  -2  -6  11   58.11    2.33
  -2  -6  11   59.49    1.66
   1   6 -11   28.70    1.10
  -1  -6  11   29.08    1.49
  -1  -6  11   28.49    1.08
   0  -6  11    0.49    0.32
   1  -6  11   20.84    0.98
   2  -6  11   51.63    1.64
   3  -6  11    1.25    0.46
   4  -6  11   -0.18    0.41
   5   5 -11    0.48    0.43
  -5  -5  11   -0.89    0.84
   4   5 -11   17.82    1.04
  -4  -5  11   18.21    1.76
   3   5 -11   42.14    1.45
  -3  -5  11   40.33    2.02
   2   5 -11   20.35    0.99
  -2  -5  11   19.87    0.88
  -2  -5  11   18.49    1.38
   1   5 -11    0.04    0.36
  -1  -5  11    0.13    0.28
   0  -5  11    7.17    0.63
   1  -5  11   57.81    1.71
   2  -5  11   39.99    1.41
   3  -5  11   -0.05    0.34
   4  -5  11    5.18    0.68
   5   4 -11   17.94    1.13
  -5  -4  11   16.67    1.70
   4   4 -11   36.03    1.41
  -4  -4  11   32.48    1.94
   3   4 -11   14.52    0.90
  -3  -4  11   13.81    1.41
   2   4 -11    0.59    0.42
  -2  -4  11    2.15    0.40
   1   4 -11   20.01    1.02
  -1  -4  11   19.32    0.88
   0  -4  11   21.34    0.95
   1  -4  11   37.88    1.33
   2  -4  11    1.18    0.44
   3  -4  11    3.99    0.60
   4  -4  11   14.92    0.95
   4  -4  11   16.04    1.34
   5  -4  11    5.33    1.19
  -6  -3  11    4.70    1.27
   5   3 -11   33.76    1.49
  -5  -3  11   31.29    1.93
   4   3 -11   31.71    1.34
   3   3 -11    0.42    0.42
   2   3 -11   36.64    1.40
  -2  -3  11   35.69    1.20
  -1  -3  11   55.52    1.59
   0  -3  11   27.12    1.08
   1  -3  11    6.34    0.66
   2  -3  11   11.30    0.82
   3  -3  11   20.38    1.05
   3  -3  11   21.16    1.48
   4  -3  11   14.11    0.94
   4  -3  11   13.04    1.28
   5  -3  11   -0.38    0.66
   5   2 -11   19.17    1.16
   4   2 -11    3.80    0.63
   3   2 -11   15.01    1.01
  -3  -2  11   15.50    0.78
   2   2 -11   71.99    2.17
  -2  -2  11   75.13    1.92
  -1  -2  11   32.54    1.18
   0  -2  11   13.86    0.82
   1  -2  11   13.56    0.85
   2  -2  11   18.39    1.03
   3  -2  11   18.08    1.04
   3  -2  11   17.97    1.38
   4  -2  11    2.00    0.52
   4  -2  11    2.91    0.84
   5   1 -11    1.72    0.56
   4   1 -11    4.37    0.68
   3   1 -11   34.98    1.48
  -3  -1  11   35.62    1.19
   2   1 -11   47.22    1.77
  -2  -1  11   49.10    1.50
  -1  -1  11    1.15    0.38
   0  -1  11    6.14    0.68
   1  -1  11   32.32    1.31
   2  -1  11   16.02    0.99
   3  -1  11    1.36    0.50
   3  -1  11    1.76    0.78
   4  -1  11    0.99    0.73
   4  -1  11   -0.12    0.68
   5   0 -11    4.35    0.77
   4   0 -11   19.08    1.23
   3   0 -11   29.17    1.42
  -3   0  11   27.60    1.08
  -2   0  11    2.26    0.45
  -1   0  11    0.37    0.34
   0   0  11   46.59    1.58
   1   0  11   26.19    1.22
   2   0  11    1.53    0.49
   3   0  11    2.17    0.57
   3   0  11    2.75    0.82
   5  -1 -11   18.99    1.25
   4  -1 -11   20.41    1.29
   3  -1 -11    2.25    0.67
  -3   1  11    2.42    0.47
  -2   1  11   13.19    0.89
  -1   1  11   21.35    1.08
   0   1  11   31.57    1.36
   1   1  11    6.17    0.78
   2   1  11    5.57    0.77
   3   1  11    8.57    0.91
   3   1  11    8.36    1.15
   5  -2 -11   14.98    1.21
   4  -2 -11    4.85    0.79
   3  -2 -11    3.52    0.80
  -3   2  11    5.34    0.66
  -2   2  11   22.19    1.13
  -1   2  11   53.72    1.81
   0   2  11    7.37    0.80
   1   2  11    1.19    0.53
   2   2  11   14.64    1.13
   3   2  11   11.45    1.08
   5  -3 -11    3.31    0.76
   4  -3 -11    2.04    0.69
   3  -3 -11   17.20    1.40
  -3   3  11   16.62    1.02
  -2   3  11   22.66    1.21
  -1   3  11    8.40    0.92
   0   3  11   -0.04    0.45
   1   3  11   13.43    1.11
   2   3  11   15.86    1.22
   3   3  11    4.55    0.90
   4  -4 -11   10.55    1.18
   3  -4 -11   15.16    1.48
  -3   4  11   13.21    1.06
  -2   4  11   12.60    1.05
  -1   4  11    3.78    0.72
   0   4  11    8.47    0.94
   1   4  11   14.86    1.20
   2   4  11    2.25    0.75
   4  -5 -11   10.24    1.19
   3  -5 -11    6.18    1.11
  -3   5  11    5.40    0.81
  -2   5  11    1.31    0.61
  -1   5  11    7.71    0.94
   0   5  11   17.77    1.28
   3  -6 -11    0.27    0.87
  -3   6  11    0.12    0.53
  -2   6  11   13.17    1.22
  -1   6  11   10.82    1.11
   0  13 -12    6.66    1.25
   1 -13  12    9.32    1.31
   2 -13  12    6.84    1.34
   1  12 -12    9.67    0.89
  -1 -12  12    6.42    1.21
   0  12 -12   17.12    1.13
   0 -12  12   19.01    1.64
  -1  12 -12    9.46    0.94
   1 -12  12   11.25    1.41
  -2  12 -12    0.00    0.47
   2 -12  12    0.75    0.66
   3 -12  12    3.43    0.91
  -2 -11  12    7.49    1.38
   1  11 -12   18.45    1.08
  -1 -11  12   20.38    1.68
   0  11 -12   14.43    0.98
   0 -11  12   17.00    1.47
  -1  11 -12    1.07    0.46
   1 -11  12    1.65    0.71
  -2  11 -12    3.64    0.68
   2 -11  12    3.55    0.82
   2 -11  12    3.07    0.65
  -3  11 -12   10.78    1.04
   3 -11  12   15.87    1.33
   3 -11  12   11.35    1.05
  -3 -10  12    5.32    1.36
  -2 -10  12   21.79    1.83
   1  10 -12   17.82    1.02
  -1 -10  12   17.86    1.56
   0  10 -12    2.21    0.48
   0 -10  12    3.73    0.87
   0 -10  12    1.57    0.47
  -1  10 -12    3.39    0.57
   1 -10  12    5.74    0.95
   1 -10  12    3.44    0.58
  -2  10 -12   17.35    1.12
   2 -10  12   16.01    1.18
   2 -10  12   16.67    1.11
  -3  10 -12   13.46    1.02
   3 -10  12   11.37    0.99
  -4  10 -12    1.22    0.52
   4 -10  12    0.72    0.53
  -3  -9  12   25.69    2.05
  -2  -9  12   17.21    1.67
   1   9 -12    1.37    0.40
  -1  -9  12    1.87    0.45
  -1  -9  12    1.49    0.76
   0   9 -12   10.20    0.80
   0  -9  12    8.36    0.82
   0  -9  12    9.16    1.15
  -1   9 -12   11.84    0.90
   1  -9  12   11.40    0.92
   1  -9  12   10.79    1.02
  -2   9 -12   17.86    1.06
   2  -9  12   16.65    1.04
  -3   9 -12    3.08    0.58
   3  -9  12    3.12    0.60
  -4   9 -12    1.16    0.49
   4  -9  12    1.57    0.59
  -4  -8  12   15.80    1.91
  -3  -8  12   24.43    1.92
   2   8 -12    5.52    0.59
  -2  -8  12    6.50    0.68
  -2  -8  12    5.89    1.14
   1   8 -12    7.03    0.65
  -1  -8  12    6.85    1.03
  -1  -8  12    6.16    0.66
   0   8 -12   33.21    1.29
   0  -8  12   31.43    1.58
   0  -8  12   33.67    1.32
  -1   8 -12   11.15    0.82
   1  -8  12    9.99    0.81
  -2   8 -12    5.64    0.69
   2  -8  12    5.47    0.70
  -3   8 -12    1.29    0.47
   3  -8  12    1.39    0.51
  -4   8 -12    9.40    0.92
   4  -8  12    8.34    0.91
  -4  -7  12   24.65    2.02
  -3  -7  12    6.46    1.24
   2   7 -12    1.45    0.37
  -2  -7  12    1.82    0.80
  -2  -7  12    2.04    0.43
  -1  -7  12   61.05    2.93
  -1  -7  12   59.03    1.77
   0  -7  12   27.64    1.17
   1  -7  12    8.06    0.77
   2  -7  12    1.58    0.49
   3  -7  12   10.69    0.87
   4  -7  12    8.00    0.87
   5   6 -12   14.04    1.08
  -5  -6  12   13.66    1.81
   4   6 -12    7.28    0.79
  -4  -6  12    5.90    1.31
   3   6 -12    3.57    0.56
  -3  -6  12    3.44    1.01
   2   6 -12   17.64    0.96
  -2  -6  12   19.02    0.92
  -1  -6  12   51.82    1.59
   0  -6  12    9.97    0.75
   1  -6  12    0.08    0.33
   2  -6  12   25.72    1.18
   3  -6  12   14.75    0.97
   4  -6  12    1.77    0.55
   5   5 -12   10.70    1.00
  -5  -5  12    8.28    1.49
   4   5 -12    0.83    0.45
  -4  -5  12    0.84    1.34
   3   5 -12    6.43    0.71
   2   5 -12   31.89    1.29
  -2  -5  12   30.87    1.16
   1   5 -12    9.14    0.84
  -1  -5  12    9.45    0.73
   0  -5  12    0.70    0.37
   1  -5  12   13.25    0.87
   2  -5  12   19.24    1.03
   3  -5  12    4.18    0.64
   4  -5  12    0.36    0.42
   5   4 -12    0.55    0.49
   4   4 -12   37.48    1.49
   3   4 -12   21.06    1.14
   2   4 -12   13.03    0.97
  -2  -4  12   13.36    0.79
   1   4 -12    1.88    0.56
  -1  -4  12    1.79    0.42
   0  -4  12   13.67    0.85
   1  -4  12   33.00    1.30
   2  -4  12   10.21    0.83
   3  -4  12    0.33    0.41
   4  -4  12    4.65    0.69
   4  -4  12    4.88    0.99
   5   3 -12   14.27    1.08
   4   3 -12   25.50    1.27
   3   3 -12   16.34    1.04
   2   3 -12    1.11    0.53
  -2  -3  12    1.39    0.37
  -1  -3  12   35.86    1.28
   0  -3  12   33.24    1.27
   1  -3  12   16.91    0.96
   2  -3  12   -0.13    0.37
   3  -3  12    7.81    0.82
   4  -3  12   13.94    1.45
   4  -3  12   14.08    1.04
   5   2 -12   24.33    1.32
   4   2 -12    7.49    0.83
   3   2 -12    0.77    0.49
   2   2 -12   17.56    1.17
  -2  -2  12   17.46    0.90
  -1  -2  12   33.35    1.26
   0  -2  12   17.43    0.97
   1  -2  12    2.32    0.53
   2  -2  12    8.58    0.85
   3  -2  12   14.89    1.03
   4  -2  12    5.80    1.08
   4  -2  12    5.18    0.74
   5   1 -12    9.41    0.95
   4   1 -12    0.15    0.47
   3   1 -12   13.34    1.09
  -3  -1  12   13.93    0.80
   2   1 -12   27.70    1.45
  -2  -1  12   28.13    1.14
  -1  -1  12   18.53    0.99
   0  -1  12    3.25    0.58
   1  -1  12    9.04    0.85
   2  -1  12   17.24    1.08
   3  -1  12    8.49    0.92
   5   0 -12    0.57    0.55
   4   0 -12    7.97    0.96
   3   0 -12   21.38    1.35
  -3   0  12   22.28    1.03
  -2   0  12    8.36    0.76
  -1   0  12   -0.23    0.33
   0   0  12    8.18    0.83
   1   0  12   15.35    1.05
   2   0  12    8.45    0.89
   3   0  12    1.13    0.54
   5  -1 -12    7.23    1.37
   4  -1 -12   28.67    1.56
   3  -1 -12   14.79    1.27
  -3   1  12   14.12    0.91
  -2   1  12    0.36    0.39
  -1   1  12    8.98    0.86
   0   1  12   26.29    1.32
   1   1  12   12.44    1.03
   2   1  12    0.85    0.52
   3   1  12    1.79    0.63
   4  -2 -12    9.82    1.07
   3  -2 -12    2.32    0.82
  -3   2  12    2.19    0.54
  -2   2  12    7.63    0.82
  -1   2  12   35.51    1.52
   0   2  12   18.39    1.19
   1   2  12    1.31    0.59
   2   2  12    1.11    0.59
   4  -3 -12    1.55    0.73
   3  -3 -12    1.79    0.81
  -3   3  12    2.85    0.61
  -2   3  12   12.90    1.02
  -1   3  12   12.59    1.07
   0   3  12    0.46    0.54
   1   3  12    2.03    0.67
   3  -4 -12    8.84    1.23
  -3   4  12    7.73    0.88
  -2   4  12   21.07    1.34
  -1   4  12    4.84    0.81
   0   4  12    1.02    0.62
  -3   5  12    6.34    0.88
  -2   5  12    2.48    0.68
   1  12 -13    0.27    0.45
  -1 -12  13    0.65    0.93
   0  12 -13    7.60    0.85
   0 -12  13    8.79    1.35
   1 -12  13   18.32    1.56
   2 -12  13    3.43    0.91
  -2 -11  13    0.39    0.89
   1  11 -13    7.74    0.85
  -1 -11  13    7.70    1.32
   0  11 -13   19.27    1.19
   0 -11  13   21.26    1.65
  -1  11 -13    9.32    0.91
   1 -11  13    9.63    1.19
   1 -11  13    8.43    0.86
  -2  11 -13    0.44    0.47
   2 -11  13    0.34    0.51
  -2 -10  13    6.08    1.24
   1  10 -13   11.47    0.89
  -1 -10  13   10.97    1.41
  -1 -10  13   10.95    0.88
   0  10 -13   12.11    0.94
   0 -10  13   11.45    1.33
   0 -10  13   11.86    0.96
  -1  10 -13    0.63    0.43
   1 -10  13    0.83    0.48
  -2  10 -13    3.52    0.69
   2 -10  13    3.27    0.68
  -3  10 -13   14.41    1.21
   3 -10  13    9.46    1.00
  -2  -9  13   23.99    1.89
   1   9 -13   16.01    0.96
  -1  -9  13   15.84    1.38
  -1  -9  13   16.08    0.99
   0   9 -13   -0.15    0.33
   0  -9  13   -0.30    0.38
  -1   9 -13    9.85    0.84
   1  -9  13    8.99    0.88
  -2   9 -13    9.63    0.89
   2  -9  13    7.78    0.83
  -3   9 -13    7.22    0.83
   3  -9  13    5.37    0.74
  -3  -8  13   21.86    1.95
  -2  -8  13   12.04    0.85
   1   8 -13    0.39    0.32
  -1  -8  13   -0.20    0.33
   0   8 -13   10.56    0.80
   0  -8  13    9.18    0.85
   1  -8  13   15.94    0.99
   2  -8  13   14.23    0.99
   3  -8  13    0.07    0.43
  -4   8 -13    1.44    0.54
   4  -8  13    1.14    0.84
  -4  -7  13   12.70    1.98
   2   7 -13    1.57    0.39
  -2  -7  13    1.31    0.43
  -1  -7  13   10.75    0.80
   0  -7  13   25.77    1.17
   1  -7  13   14.21    0.94
   2  -7  13    1.57    0.48
   3  -7  13    3.72    0.63
   4  -7  13    8.23    0.89
  -2  -6  13    3.89    0.55
  -1  -6  13   25.31    1.12
   0  -6  13   20.97    1.06
   1  -6  13    4.64    0.63
   2  -6  13    4.26    0.66
   3  -6  13    6.51    0.77
   4  -6  13    8.38    0.91
   4   5 -13    2.02    0.55
   3   5 -13    4.02    0.64
   2   5 -13   20.76    1.13
  -2  -5  13   19.49    0.96
   1   5 -13   21.32    1.19
  -1  -5  13   21.98    1.05
   0  -5  13    3.69    0.58
   1  -5  13    0.89    0.42
   2  -5  13   11.29    0.90
   3  -5  13    8.12    0.83
   4  -5  13    1.18    0.52
   4   4 -13    3.65    0.65
   3   4 -13   22.36    1.23
   2   4 -13   27.54    1.32
  -2  -4  13   28.70    1.16
   1   4 -13   -0.18    0.49
  -1  -4  13    0.00    0.31
   0  -4  13    6.90    0.72
   1  -4  13   23.51    1.16
   2  -4  13   10.93    0.90
   3  -4  13    3.50    0.65
   4  -4  13    0.20    0.48
   4   3 -13   10.78    1.02
   3   3 -13   26.27    1.37
   2   3 -13   11.28    1.02
  -2  -3  13   10.85    0.75
  -1  -3  13    4.30    0.58
   0  -3  13   17.91    1.01
   1  -3  13   25.53    1.22
   2  -3  13    4.27    0.65
   3  -3  13    0.53    0.48
   4   2 -13   11.91    1.06
   3   2 -13    7.52    0.88
   2   2 -13    1.47    0.67
  -2  -2  13    2.09    0.45
  -1  -2  13   16.34    0.95
   0  -2  13   30.71    1.33
   1  -2  13    6.90    0.77
   2  -2  13    2.77    0.63
   3  -2  13    5.46    0.80
   4   1 -13    9.35    1.07
   3   1 -13    0.09    0.55
  -3  -1  13   -0.09    0.47
   2   1 -13   14.58    1.27
  -2  -1  13   17.76    0.97
  -1  -1  13   15.95    0.99
   0  -1  13   13.45    0.99
   1  -1  13    0.35    0.43
   2  -1  13    8.06    0.92
   3  -1  13    7.34    0.93
   4   0 -13    1.24    0.66
   3   0 -13   14.85    1.33
  -3   0  13   13.84    0.91
  -2   0  13   14.07    0.94
  -1   0  13    6.91    0.79
   0   0  13    0.56    0.47
   1   0  13   13.47    1.06
   2   0  13   10.49    1.05
   4  -1 -13   11.42    1.23
   3  -1 -13   18.47    1.47
  -3   1  13   19.76    1.10
  -2   1  13    3.11    0.58
  -1   1  13    3.03    0.62
   0   1  13   10.45    1.03
   1   1  13   20.28    1.33
   3  -2 -13   13.34    1.38
  -3   2  13   12.59    0.98
  -2   2  13    0.81    0.48
  -1   2  13    3.43    0.72
   0   2  13   16.35    1.22
   1   2  13    8.47    1.30
  -3   3  13    0.47    0.50
  -2   3  13   16.16    1.18
  -1   3  13    8.26    0.97
  -3   4  13    3.07    0.70
   1  11 -14    0.97    0.49
  -1 -11  14    0.98    0.75
   0  11 -14   10.34    1.07
   0 -11  14    9.71    0.97
   1  10 -14    8.77    0.86
  -1 -10  14   10.35    0.95
   0  10 -14   18.40    1.11
   0 -10  14   16.05    1.08
  -1  10 -14    2.54    0.59
   1 -10  14    3.15    0.66
   1   9 -14   18.18    1.04
  -1  -9  14   19.32    1.10
   0  -9  14    6.28    0.77
  -1   9 -14    0.28    0.40
   1  -9  14    0.40    0.44
  -2   9 -14    9.00    0.92
   2  -9  14    7.51    0.89
   1   8 -14   10.91    0.83
  -1  -8  14   11.06    0.87
   0  -8  14    0.43    0.39
   1  -8  14    9.69    0.93
   2  -8  14   12.33    1.00
  -2  -7  14   12.25    0.89
  -1  -7  14   -0.26    0.33
   0  -7  14   11.55    0.92
   1  -7  14   27.30    1.29
   2  -7  14    6.25    0.78
   3  -7  14    0.26    0.87
  -2  -6  14    0.38    0.37
  -1  -6  14    9.81    0.81
   0  -6  14   20.28    1.09
   1  -6  14   23.91    1.21
   2  -6  14    0.77    0.47
   3  -6  14    4.25    0.77
   4   5 -14    8.87    0.92
   3   5 -14    0.28    0.47
   2   5 -14    8.01    0.86
  -2  -5  14    8.28    0.80
   1   5 -14   16.26    1.11
  -1  -5  14   14.99    0.93
   0  -5  14    7.52    0.81
   1  -5  14   -0.19    0.38
   2  -5  14    2.18    0.60
   3  -5  14    6.03    0.99
   4   4 -14    2.12    0.60
   3   4 -14    5.61    0.80
   2   4 -14   34.51    1.56
  -2  -4  14   32.66    1.32
   1   4 -14   11.08    1.07
  -1  -4  14   11.72    0.85
   0  -4  14    0.00    0.36
   1  -4  14    5.18    0.73
   2  -4  14   12.07    1.03
   4   3 -14    2.14    0.66
   3   3 -14   21.56    1.35
   2   3 -14   24.06    1.41
  -2  -3  14   27.70    1.21
  -1  -3  14    2.52    0.52
   0  -3  14    8.32    0.82
   1  -3  14   14.58    1.03
   2  -3  14    7.75    0.86
   4   2 -14   10.09    1.06
   3   2 -14   21.21    1.42
   2   2 -14    1.60    0.70
  -2  -2  14    2.14    0.50
  -1  -2  14    3.92    0.61
   0  -2  14   21.97    1.20
   1  -2  14   16.90    1.13
   2  -2  14    3.10    0.67
   3   1 -14    5.68    0.89
   2   1 -14    0.68    0.71
  -2  -1  14    1.29    0.45
  -1  -1  14   18.85    1.13
   0  -1  14   17.91    1.16
   1  -1  14    3.63    0.69
   3   0 -14    2.30    0.79
  -3   0  14    1.52    0.70
   2   0 -14    8.15    1.16
  -2   0  14    9.86    0.94
  -1   0  14   12.27    1.10
   0   0  14    1.71    0.58
   1   0  14    2.22    0.84
  -3   1  14   14.18    1.03
  -2   1  14   21.22    1.28
  -1   1  14    4.89    0.77
   0   1  14    1.42    0.67
  -3   2  14   12.17    1.07
  -2   2  14    5.76    0.84
   1  10 -15    2.98    0.77
  -1 -10  15    1.14    0.54
   1   9 -15   13.62    0.96
  -1  -9  15   11.43    0.98
   0   9 -15   15.93    1.07
   0  -9  15   13.53    1.05
   1   8 -15   18.53    1.07
  -1  -8  15   16.43    1.09
   0  -8  15    7.08    0.81
   1  -8  15    1.85    0.61
  -2  -7  15   17.11    1.08
  -1  -7  15   12.22    0.95
   0  -7  15   -0.21    0.37
   1  -7  15   15.42    1.07
  -2  -6  15    6.69    0.73
  -1  -6  15   -0.04    0.39
   0  -6  15    7.90    0.84
   1  -6  15   13.31    1.03
   3   5 -15    8.13    0.90
   2   5 -15    0.39    0.60
  -2  -5  15    0.36    0.39
  -1  -5  15    5.74    0.74
   0  -5  15   18.06    1.11
   1  -5  15    6.58    0.84
   3   4 -15    0.44    0.54
   2   4 -15    8.11    0.97
  -2  -4  15    7.72    0.80
  -1  -4  15   21.32    1.15
   0  -4  15    8.12    0.85
   1  -4  15    0.30    0.44
   3   3 -15    4.23    0.80
   2   3 -15   15.41    1.30
  -2  -3  15   17.15    1.05
  -1  -3  15   11.60    0.94
   0  -3  15    1.55    0.54
   3   2 -15   11.56    1.45
   2   2 -15   16.21    1.41
  -2  -2  15   17.03    1.09
  -1  -2  15    1.11    0.47
   0  -2  15    2.78    0.62
   2   1 -15    1.91    0.89
  -2  -1  15    0.74    0.44
  -1  -1  15    2.05    0.60
  -2   0  15    5.66    0.78
  -1  -7  16    9.12    1.14
  -1  -6  16    6.34    0.82
  -2  -5  16    1.81    0.52
  -1  -5  16   -0.16    0.44
   2   4 -16    0.03    0.65
  -2  -4  16   -0.07    0.38
   1   4 -16    5.45    0.99
  -2  -3  16    1.66    0.53
   0   0   0    0.00    0.00
;
_shelx_hkl_checksum              64118
loop_
_space_group_symop_operation_xyz
'x, y, z'
'-x, -y, -z'
loop_
_atom_site_label
_atom_site_type_symbol
_atom_site_fract_x
_atom_site_fract_y
_atom_site_fract_z
_atom_site_U_iso_or_equiv
_atom_site_adp_type
_atom_site_occupancy
_atom_site_site_symmetry_order
_atom_site_calc_flag
_atom_site_refinement_flags_posn
_atom_site_refinement_flags_adp
_atom_site_refinement_flags_occupancy
_atom_site_disorder_assembly
_atom_site_disorder_group
Eu1 Eu 0.37734(4) -0.11414(2) 0.09560(2) 0.02727(15) Uani 1 1 d . . . . .
O2 O 1.3918(8) 0.9041(5) 0.3012(4) 0.0496(12) Uani 1 1 d . . . . .
O3 O 1.0658(8) 0.7922(5) 0.1813(4) 0.0472(12) Uani 1 1 d . . . . .
O4 O 0.2534(8) 0.0727(4) 0.1986(4) 0.0387(10) Uani 1 1 d . . . . .
O5 O 0.4357(7) 0.1035(4) 0.0626(4) 0.0349(10) Uani 1 1 d . . . . .
O6 O -0.0382(7) 0.1471(4) 0.0418(4) 0.0345(9) Uani 1 1 d . . . . .
O7 O -0.1425(8) 0.3160(4) 0.0561(5) 0.0509(12) Uani 1 1 d . . . . .
N1 N 1.0797(17) 0.8693(8) 0.5771(6) 0.098(3) Uani 1 1 d . U . . .
O1 O 0.7349(15) 0.5518(8) 0.4405(6) 0.042(2) Uani 0.565(7) 1 d . . P A 1
C1 C 0.961(2) 0.7511(13) 0.5611(10) 0.041(3) Uani 0.565(7) 1 d . . P A 1
H1 H 0.9394 0.7270 0.6234 0.049 Uiso 0.565(7) 1 calc R U P A 1
C2 C 0.8719(17) 0.6667(10) 0.4506(9) 0.029(2) Uani 0.565(7) 1 d . U P A 1
C3 C 0.937(2) 0.6988(11) 0.3601(9) 0.031(2) Uani 0.565(7) 1 d . . P A 1
H3 H 0.8814 0.6408 0.2856 0.037 Uiso 0.565(7) 1 calc R U P A 1
O1A O 0.4821(19) 0.6551(10) 0.4052(10) 0.049(3) Uani 0.435(7) 1 d . . P A 2
C1A C 0.814(4) 0.8005(17) 0.5394(13) 0.057(5) Uani 0.435(7) 1 d . . P A 2
H1A H 0.7227 0.8072 0.5967 0.069 Uiso 0.435(7) 1 calc R U P A 2
C2A C 0.705(3) 0.7310(14) 0.4280(14) 0.042(4) Uani 0.435(7) 1 d . . P A 2
C3A C 0.832(3) 0.7373(17) 0.3417(14) 0.046(4) Uani 0.435(7) 1 d . . P A 2
H3A H 0.7651 0.6954 0.2647 0.055 Uiso 0.435(7) 1 calc R U P A 2
C4 C 1.0805(14) 0.8145(7) 0.3770(6) 0.0506(19) Uani 1 1 d . . . . .
C5 C 1.1696(13) 0.8888(7) 0.4906(6) 0.054(2) Uani 1 1 d . . . . .
H5 H 1.2999 0.9563 0.5068 0.065 Uiso 1 1 calc R U . . .
C6 C 0.5769(16) 0.4784(8) 0.3500(7) 0.058(2) Uani 1 1 d . . . . .
H6 H 0.7050 0.5252 0.4073 0.070 Uiso 0.435(7) 1 calc R U P A 2
C7 C 0.5501(13) 0.3533(7) 0.2937(6) 0.0472(17) Uani 1 1 d . . . . .
H7 H 0.6576 0.3158 0.3146 0.057 Uiso 1 1 calc R U . . .
C8 C 0.3660(10) 0.2819(6) 0.2065(5) 0.0317(13) Uani 1 1 d . . . . .
C9 C 0.2015(11) 0.3383(6) 0.1775(5) 0.0357(14) Uani 1 1 d . . . . .
C10 C 0.2317(15) 0.4672(7) 0.2361(8) 0.057(2) Uani 1 1 d . . . . .
H10 H 0.1256 0.5060 0.2161 0.069 Uiso 1 1 calc R U . . .
C11 C 0.4192(18) 0.5372(7) 0.3239(8) 0.067(3) Uani 1 1 d . . . . .
H11 H 0.4376 0.6222 0.3644 0.080 Uiso 0.565(7) 1 calc R U P A 1
C12 C 1.1875(11) 0.8397(6) 0.2821(5) 0.0371(15) Uani 1 1 d . . . . .
C13 C 0.3434(9) 0.1440(5) 0.1497(5) 0.0287(12) Uani 1 1 d . . . . .
C14 C -0.0048(11) 0.2631(6) 0.0864(5) 0.0321(13) Uani 1 1 d . . . . .
O1W O 0.7557(7) 0.0114(4) 0.1921(4) 0.0428(11) Uani 1 1 d . . . . .
H1WA H 0.8446 0.0148 0.1432 0.064 Uiso 1 1 d R U . . .
H1WB H 0.8080 -0.0211 0.2359 0.064 Uiso 1 1 d R U . . .
O2W O 0.5866(9) -0.2660(5) 0.0986(5) 0.0594(15) Uani 1 1 d . . . . .
H2WA H 0.5029 -0.3237 0.1176 0.089 Uiso 1 1 d R U . . .
H2WB H 0.7138 -0.2297 0.1477 0.089 Uiso 1 1 d R U . . .
O3W O 0.262(2) 0.4837(11) 0.9591(18) 0.189(6) Uani 1 1 d G . . . .
H3WA H 0.1511 0.4166 0.9343 0.284 Uiso 1 1 d G U . . .
H3WB H 0.2066 0.5468 0.9745 0.284 Uiso 1 1 d G U . . .
loop_
_atom_site_aniso_label
_atom_site_aniso_U_11
_atom_site_aniso_U_22
_atom_site_aniso_U_33
_atom_site_aniso_U_23
_atom_site_aniso_U_13
_atom_site_aniso_U_12
Eu1 0.0251(2) 0.0265(2) 0.0275(2) 0.01019(14) 0.00770(13) 0.00064(13)
O2 0.033(2) 0.066(3) 0.042(3) 0.025(2) 0.007(2) -0.009(2)
O3 0.040(3) 0.056(3) 0.035(3) 0.018(2) 0.005(2) -0.009(2)
O4 0.045(3) 0.033(2) 0.036(2) 0.013(2) 0.017(2) 0.003(2)
O5 0.033(2) 0.035(2) 0.029(2) 0.0054(19) 0.0103(18) 0.0046(19)
O6 0.031(2) 0.022(2) 0.039(2) 0.0041(18) -0.0017(18) 0.0006(17)
O7 0.046(3) 0.030(2) 0.068(3) 0.011(2) 0.001(2) 0.010(2)
N1 0.122(7) 0.071(5) 0.036(4) -0.009(3) 0.032(4) -0.057(5)
O1 0.049(5) 0.034(4) 0.025(4) 0.012(3) -0.013(3) -0.020(4)
C1 0.037(7) 0.050(8) 0.021(6) 0.012(5) -0.002(5) -0.013(6)
C2 0.022(5) 0.024(5) 0.021(5) -0.002(4) -0.004(4) -0.009(4)
C3 0.026(6) 0.036(6) 0.022(5) 0.007(5) -0.002(4) 0.001(5)
O1A 0.043(6) 0.033(6) 0.054(7) 0.002(5) 0.020(5) -0.005(5)
C1A 0.074(13) 0.050(10) 0.021(8) 0.001(7) 0.014(8) -0.016(10)
C2A 0.043(9) 0.024(7) 0.042(9) 0.007(6) 0.002(7) -0.010(6)
C3A 0.043(10) 0.046(10) 0.027(8) 0.003(7) 0.005(7) -0.015(8)
C4 0.061(5) 0.037(4) 0.036(4) 0.006(3) 0.021(3) -0.012(3)
C5 0.060(5) 0.042(4) 0.036(4) 0.008(3) 0.011(3) -0.020(4)
C6 0.064(5) 0.043(4) 0.033(4) -0.003(3) 0.013(3) -0.027(4)
C7 0.044(4) 0.049(4) 0.039(4) 0.016(3) 0.005(3) -0.005(3)
C8 0.028(3) 0.029(3) 0.026(3) 0.003(2) 0.011(2) -0.007(2)
C9 0.039(3) 0.025(3) 0.036(3) 0.004(3) 0.016(3) 0.003(3)
C10 0.051(5) 0.027(4) 0.077(6) 0.002(4) 0.027(4) 0.001(3)
C11 0.076(6) 0.026(4) 0.060(5) -0.015(4) 0.032(5) -0.019(4)
C12 0.037(4) 0.038(4) 0.034(3) 0.015(3) 0.011(3) 0.001(3)
C13 0.022(3) 0.030(3) 0.031(3) 0.009(3) 0.005(2) 0.003(2)
C14 0.034(3) 0.025(3) 0.035(3) 0.010(3) 0.013(3) 0.002(3)
O1W 0.030(2) 0.055(3) 0.037(3) 0.019(2) 0.0068(18) -0.005(2)
O2W 0.046(3) 0.043(3) 0.085(4) 0.024(3) -0.005(3) 0.008(2)
O3W 0.241(16) 0.080(7) 0.233(16) 0.053(10) -0.004(13) 0.042(9)
loop_
_atom_type_symbol
_atom_type_description
_atom_type_scat_dispersion_real
_atom_type_scat_dispersion_imag
_atom_type_scat_source
C C 0.0033 0.0016 'International Tables Vol C Tables 4.2.6.8 and 6.1.1.4'
H H 0.0000 0.0000 'International Tables Vol C Tables 4.2.6.8 and 6.1.1.4'
Eu Eu -0.1578 3.6682 'International Tables Vol C Tables 4.2.6.8 and 6.1.1.4'
N N 0.0061 0.0033 'International Tables Vol C Tables 4.2.6.8 and 6.1.1.4'
O O 0.0106 0.0060 'International Tables Vol C Tables 4.2.6.8 and 6.1.1.4'
loop_
_geom_angle_atom_site_label_1
_geom_angle_atom_site_label_2
_geom_angle_atom_site_label_3
_geom_angle
_geom_angle_site_symmetry_1
_geom_angle_site_symmetry_3
O1W Eu1 O5 79.14(15) . 2_655
O1W Eu1 O2W 76.29(18) . .
O5 Eu1 O2W 85.12(18) 2_655 .
O1W Eu1 O6 147.69(16) . 2
O5 Eu1 O6 80.90(15) 2_655 2
O2W Eu1 O6 126.87(17) . 2
O1W Eu1 O4 84.87(16) . .
O5 Eu1 O4 114.82(14) 2_655 .
O2W Eu1 O4 149.56(19) . .
O6 Eu1 O4 80.80(15) 2 .
O1W Eu1 O3 126.37(15) . 1_445
O5 Eu1 O3 152.85(16) 2_655 1_445
O2W Eu1 O3 91.9(2) . 1_445
O6 Eu1 O3 79.41(15) 2 1_445
O4 Eu1 O3 80.16(16) . 1_445
O1W Eu1 O7 145.96(17) . 2
O5 Eu1 O7 80.55(16) 2_655 2
O2W Eu1 O7 75.01(17) . 2
O6 Eu1 O7 52.25(15) 2 2
O4 Eu1 O7 128.65(16) . 2
O3 Eu1 O7 72.63(17) 1_445 2
O1W Eu1 O2 73.82(15) . 1_445
O5 Eu1 O2 151.24(15) 2_655 1_445
O2W Eu1 O2 79.2(2) . 1_445
O6 Eu1 O2 127.70(15) 2 1_445
O4 Eu1 O2 72.63(16) . 1_445
O3 Eu1 O2 52.55(14) 1_445 1_445
O7 Eu1 O2 117.67(17) 2 1_445
O1W Eu1 O5 73.45(15) . .
O5 Eu1 O5 64.72(16) 2_655 .
O2W Eu1 O5 140.44(17) . .
O6 Eu1 O5 75.13(13) 2 .
O4 Eu1 O5 50.16(13) . .
O3 Eu1 O5 126.64(16) 1_445 .
O7 Eu1 O5 120.82(15) 2 .
O2 Eu1 O5 115.18(15) 1_445 .
O1W Eu1 C14 159.70(17) . 2
O5 Eu1 C14 80.58(16) 2_655 2
O2W Eu1 C14 101.17(18) . 2
O6 Eu1 C14 26.03(16) 2 2
O4 Eu1 C14 104.54(17) . 2
O3 Eu1 C14 73.52(16) 1_445 2
O7 Eu1 C14 26.25(16) 2 2
O2 Eu1 C14 125.94(15) 1_445 2
O5 Eu1 C14 98.52(15) . 2
O1W Eu1 C12 99.67(17) . 1_445
O5 Eu1 C12 170.44(17) 2_655 1_445
O2W Eu1 C12 85.4(2) . 1_445
O6 Eu1 C12 104.03(17) 2 1_445
O4 Eu1 C12 74.34(17) . 1_445
O3 Eu1 C12 26.70(17) 1_445 1_445
O7 Eu1 C12 95.89(19) 2 1_445
O2 Eu1 C12 25.85(17) 1_445 1_445
O5 Eu1 C12 124.24(17) . 1_445
C14 Eu1 C12 100.19(18) 2 1_445
O1W Eu1 C13 76.38(16) . .
O5 Eu1 C13 90.11(15) 2_655 .
O2W Eu1 C13 152.67(17) . .
O6 Eu1 C13 78.53(14) 2 .
O4 Eu1 C13 24.88(15) . .
O3 Eu1 C13 104.01(17) 1_445 .
O7 Eu1 C13 130.70(15) 2 .
O2 Eu1 C13 92.87(17) 1_445 .
O5 Eu1 C13 25.40(14) . .
C14 Eu1 C13 104.56(17) 2 .
C12 Eu1 C13 98.87(17) 1_445 .
O1W Eu1 H1WA 16.8 . .
O5 Eu1 H1WA 62.5 2_655 .
O2W Eu1 H1WA 74.3 . .
O6 Eu1 H1WA 136.9 2 .
O4 Eu1 H1WA 94.1 . .
O3 Eu1 H1WA 142.2 1_445 .
O7 Eu1 H1WA 133.2 2 .
O2 Eu1 H1WA 90.0 1_445 .
O5 Eu1 H1WA 69.3 . .
C14 Eu1 H1WA 142.9 2 .
C12 Eu1 H1WA 115.7 1_445 .
C13 Eu1 H1WA 79.6 . .
O1W Eu1 H1WB 16.8 . .
O5 Eu1 H1WB 89.3 2_655 .
O2W Eu1 H1WB 63.5 . .
O6 Eu1 H1WB 164.5 2 .
O4 Eu1 H1WB 92.6 . .
O3 Eu1 H1WB 113.5 1_445 .
O7 Eu1 H1WB 138.0 2 .
O2 Eu1 H1WB 62.1 1_445 .
O5 Eu1 H1WB 89.9 . .
C14 Eu1 H1WB 162.5 2 .
C12 Eu1 H1WB 87.4 1_445 .
C13 Eu1 H1WB 89.6 . .
H1WA Eu1 H1WB 29.0 . .
C12 O2 Eu1 92.1(4) . 1_665
C12 O3 Eu1 93.7(4) . 1_665
C13 O4 Eu1 99.8(4) . .
C13 O5 Eu1 156.1(4) . 2_655
C13 O5 Eu1 88.6(3) . .
Eu1 O5 Eu1 115.28(16) 2_655 .
C14 O6 Eu1 94.9(4) . 2
C14 O7 Eu1 91.8(4) . 2
C5 N1 C1 118.0(8) . .
C5 N1 C1A 110.5(9) . .
C6 O1 C2 123.3(8) . .
N1 C1 C2 118.8(10) . .
N1 C1 H1 120.6 . .
C2 C1 H1 120.6 . .
O1 C2 C3 124.8(9) . .
O1 C2 C1 116.0(10) . .
C3 C2 C1 119.1(10) . .
C2 C3 C4 121.6(9) . .
C2 C3 H3 119.2 . .
C4 C3 H3 119.2 . .
C11 O1A C2A 121.5(11) . .
C2A C1A N1 124.9(14) . .
C2A C1A H1A 117.6 . .
N1 C1A H1A 117.6 . .
C1A C2A O1A 120.3(15) . .
C1A C2A C3A 117.5(15) . .
O1A C2A C3A 122.1(14) . .
C2A C3A C4 117.5(13) . .
C2A C3A H3A 121.3 . .
C4 C3A H3A 121.3 . .
C3 C4 C5 114.5(7) . .
C3 C4 C12 121.1(7) . .
C5 C4 C12 121.7(6) . .
C5 C4 C3A 120.8(8) . .
C12 C4 C3A 113.9(9) . .
N1 C5 C4 123.4(7) . .
N1 C5 H5 118.3 . .
C4 C5 H5 118.3 . .
O1 C6 C7 125.1(10) . .
O1 C6 C11 112.9(8) . .
C7 C6 C11 121.6(8) . .
C7 C6 H6 119.2 . .
C11 C6 H6 119.2 . .
C6 C7 C8 120.8(8) . .
C6 C7 H7 119.6 . .
C8 C7 H7 119.6 . .
C7 C8 C9 119.3(6) . .
C7 C8 C13 118.2(6) . .
C9 C8 C13 122.4(5) . .
C8 C9 C10 119.2(7) . .
C8 C9 C14 120.9(5) . .
C10 C9 C14 120.0(7) . .
C11 C10 C9 120.4(9) . .
C11 C10 H10 119.8 . .
C9 C10 H10 119.8 . .
O1A C11 C6 105.7(10) . .
O1A C11 C10 135.2(12) . .
C6 C11 C10 118.7(7) . .
C6 C11 H11 120.6 . .
C10 C11 H11 120.6 . .
O2 C12 O3 121.6(6) . .
O2 C12 C4 119.9(6) . .
O3 C12 C4 118.6(6) . .
O2 C12 Eu1 62.0(3) . 1_665
O3 C12 Eu1 59.6(3) . 1_665
C4 C12 Eu1 178.0(5) . 1_665
O4 C13 O5 120.9(5) . .
O4 C13 C8 118.0(5) . .
O5 C13 C8 120.6(5) . .
O4 C13 Eu1 55.3(3) . .
O5 C13 Eu1 66.0(3) . .
C8 C13 Eu1 164.8(4) . .
O6 C14 O7 120.9(6) . .
O6 C14 C9 118.9(6) . .
O7 C14 C9 120.2(6) . .
O6 C14 Eu1 59.1(3) . 2
O7 C14 Eu1 61.9(3) . 2
C9 C14 Eu1 176.4(4) . 2
Eu1 O1W H1WA 109.5 . .
Eu1 O1W H1WB 109.3 . .
H1WA O1W H1WB 109.4 . .
Eu1 O2W H2WA 110.1 . .
Eu1 O2W H2WB 110.1 . .
H2WA O2W H2WB 108.8 . .
H3WA O3W H3WB 109.5 . .
loop_
_geom_bond_atom_site_label_1
_geom_bond_atom_site_label_2
_geom_bond_distance
_geom_bond_site_symmetry_2
Eu1 O1W 2.373(4) .
Eu1 O5 2.384(4) 2_655
Eu1 O2W 2.417(5) .
Eu1 O6 2.435(4) 2
Eu1 O4 2.451(4) .
Eu1 O3 2.460(4) 1_445
Eu1 O7 2.496(5) 2
Eu1 O2 2.515(5) 1_445
Eu1 O5 2.684(4) .
Eu1 C14 2.828(6) 2
Eu1 C12 2.846(6) 1_445
Eu1 C13 2.937(6) .
Eu1 H1WA 2.7754 .
Eu1 H1WB 2.7723 .
O2 C12 1.242(8) .
O2 Eu1 2.515(5) 1_665
O3 C12 1.282(8) .
O3 Eu1 2.460(4) 1_665
O4 C13 1.254(7) .
O5 C13 1.260(7) .
O5 Eu1 2.384(4) 2_655
O6 C14 1.246(7) .
O6 Eu1 2.435(4) 2
O7 C14 1.251(8) .
O7 Eu1 2.496(5) 2
N1 C5 1.317(10) .
N1 C1 1.349(15) .
N1 C1A 1.57(2) .
O1 C6 1.316(11) .
O1 C2 1.372(13) .
C1 C2 1.379(15) .
C1 H1 0.9300 .
C2 C3 1.373(15) .
C3 C4 1.373(13) .
C3 H3 0.9300 .
O1A C11 1.358(13) .
O1A C2A 1.377(19) .
C1A C2A 1.37(2) .
C1A H1A 0.9300 .
C2A C3A 1.38(2) .
C3A C4 1.502(18) .
C3A H3A 0.9300 .
C4 C5 1.380(10) .
C4 C12 1.482(9) .
C5 H5 0.9300 .
C6 C7 1.362(12) .
C6 C11 1.375(14) .
C6 H6 0.9300 .
C7 C8 1.375(10) .
C7 H7 0.9300 .
C8 C9 1.400(9) .
C8 C13 1.501(8) .
C9 C10 1.402(9) .
C9 C14 1.489(9) .
C10 C11 1.389(14) .
C10 H10 0.9300 .
C11 H11 0.9300 .
C12 Eu1 2.847(6) 1_665
C14 Eu1 2.828(6) 2
O1W H1WA 0.8503 .
O1W H1WB 0.8497 .
O2W H2WA 0.8634 .
O2W H2WB 0.8635 .
O3W H3WA 0.8499 .
O3W H3WB 0.8502 .
loop_
_geom_torsion_atom_site_label_1
_geom_torsion_atom_site_label_2
_geom_torsion_atom_site_label_3
_geom_torsion_atom_site_label_4
_geom_torsion
_geom_torsion_site_symmetry_1
C5 N1 C1 C2 -21.4(19) .
C6 O1 C2 C3 -28.4(18) .
C6 O1 C2 C1 156.0(11) .
N1 C1 C2 O1 -174.2(11) .
N1 C1 C2 C3 10.0(19) .
O1 C2 C3 C4 -177.9(11) .
C1 C2 C3 C4 -2.5(19) .
C5 N1 C1A C2A 22(2) .
N1 C1A C2A O1A 167.7(15) .
N1 C1A C2A C3A -10(3) .
C11 O1A C2A C1A -136.8(17) .
C11 O1A C2A C3A 41(2) .
C1A C2A C3A C4 3(3) .
O1A C2A C3A C4 -174.8(15) .
C2 C3 C4 C5 5.8(16) .
C2 C3 C4 C12 167.5(9) .
C2A C3A C4 C5 -8(2) .
C2A C3A C4 C12 -167.2(14) .
C1 N1 C5 C4 26.6(17) .
C1A N1 C5 C4 -26.9(16) .
C3 C4 C5 N1 -18.3(15) .
C12 C4 C5 N1 -179.8(9) .
C3A C4 C5 N1 22.8(18) .
C2 O1 C6 C7 132.4(10) .
C2 O1 C6 C11 -54.9(13) .
O1 C6 C7 C8 173.8(8) .
C11 C6 C7 C8 1.7(11) .
C6 C7 C8 C9 -1.7(10) .
C6 C7 C8 C13 -178.7(6) .
C7 C8 C9 C10 1.7(9) .
C13 C8 C9 C10 178.5(6) .
C7 C8 C9 C14 -177.8(6) .
C13 C8 C9 C14 -0.9(9) .
C8 C9 C10 C11 -1.7(11) .
C14 C9 C10 C11 177.7(7) .
C2A O1A C11 C6 52.6(16) .
C2A O1A C11 C10 -135.1(14) .
C7 C6 C11 O1A 172.1(8) .
O1 C6 C11 C10 -174.6(8) .
C7 C6 C11 C10 -1.6(12) .
C9 C10 C11 O1A -169.8(11) .
C9 C10 C11 C6 1.7(13) .
Eu1 O2 C12 O3 1.7(7) 1_665
Eu1 O2 C12 C4 -179.2(6) 1_665
Eu1 O3 C12 O2 -1.8(7) 1_665
Eu1 O3 C12 C4 179.2(6) 1_665
C3 C4 C12 O2 -140.2(10) .
C5 C4 C12 O2 20.2(12) .
C3A C4 C12 O2 179.0(11) .
C3 C4 C12 O3 38.9(13) .
C5 C4 C12 O3 -160.8(8) .
C3A C4 C12 O3 -2.0(14) .
Eu1 O4 C13 O5 8.2(6) .
Eu1 O4 C13 C8 -163.9(4) .
Eu1 O5 C13 O4 175.7(6) 2_655
Eu1 O5 C13 O4 -7.4(6) .
Eu1 O5 C13 C8 -12.4(13) 2_655
Eu1 O5 C13 C8 164.5(5) .
Eu1 O5 C13 Eu1 -176.9(10) 2_655
C7 C8 C13 O4 81.3(7) .
C9 C8 C13 O4 -95.6(7) .
C7 C8 C13 O5 -90.9(7) .
C9 C8 C13 O5 92.2(7) .
C7 C8 C13 Eu1 21.1(17) .
C9 C8 C13 Eu1 -155.8(12) .
Eu1 O6 C14 O7 3.9(6) 2
Eu1 O6 C14 C9 -176.6(5) 2
Eu1 O7 C14 O6 -3.7(6) 2
Eu1 O7 C14 C9 176.7(5) 2
C8 C9 C14 O6 5.1(9) .
C10 C9 C14 O6 -174.3(6) .
C8 C9 C14 O7 -175.3(6) .
C10 C9 C14 O7 5.2(9) .
