#------------------------------------------------------------------------------
#$Date: 2019-11-24 09:43:58 +0200 (Sun, 24 Nov 2019) $
#$Revision: 237508 $
#$URL: file:///home/coder/svn-repositories/cod/cif/7/23/72/7237238.cif $
#------------------------------------------------------------------------------
#
# This file is available in the Crystallography Open Database (COD),
# http://www.crystallography.net/
#
# All data on this site have been placed in the public domain by the
# contributors.
#
data_7237238
loop_
_publ_author_name
'Usoltsev, Andrey N.'
'Elshobaki, Moneim'
'Adonin, Sergey A.'
'Frolova, Lyubov A.'
'Derzhavskaya, Tatiyana'
'Abramov, Pavel A.'
'Anokhin, Denis V.'
'Korolkov, Ilya V.'
'Luchkin, Sergey Yu.'
'Dremova, Nadezhda N.'
'Stevenson, Keith J.'
'Sokolov, Maxim N.'
'Fedin, Vladimir P.'
'Troshin, Pavel A.'
_publ_section_title
;
 Polymeric iodobismuthates {[Bi3I10]} and {[BiI4]} with N-heterocyclic
 cations: promising perovskite-like photoactive materials for electronic
 devices
;
_journal_issue                   11
_journal_name_full               'Journal of Materials Chemistry A'
_journal_page_first              5957
_journal_paper_doi               10.1039/C8TA09204D
_journal_volume                  7
_journal_year                    2019
_chemical_formula_sum            'C10 H10 Bi I4 N'
_chemical_formula_weight         860.77
_space_group_crystal_system      monoclinic
_space_group_IT_number           15
_space_group_name_Hall           '-I 2ya'
_space_group_name_H-M_alt        'I 1 2/a 1'
_atom_sites_solution_primary     direct
_atom_sites_solution_secondary   difmap
_audit_creation_method           SHELXL-2014/7
_audit_update_record
;
2017-08-03 deposited with the CCDC.
2018-12-06 downloaded from the CCDC.
;
_cell_angle_alpha                90
_cell_angle_beta                 91.060(4)
_cell_angle_gamma                90
_cell_formula_units_Z            4
_cell_length_a                   7.6699(3)
_cell_length_b                   16.3360(7)
_cell_length_c                   13.1719(6)
_cell_measurement_reflns_used    1639
_cell_measurement_temperature    130(2)
_cell_measurement_theta_max      29.3580
_cell_measurement_theta_min      4.0490
_cell_volume                     1650.10(12)
_computing_cell_refinement       'CrysAlisPro 1.171.38.41 (Rigaku OD, 2015)'
_computing_data_collection       'CrysAlisPro 1.171.38.41 (Rigaku OD, 2015)'
_computing_data_reduction        'CrysAlisPro 1.171.38.41 (Rigaku OD, 2015)'
_computing_molecular_graphics    'ShelXle (H\"ubschle, 2011)'
_computing_publication_material  'CIFTAB-2014 (Sheldrick, 2014)'
_computing_structure_refinement  'SHELXL-2014 (Sheldrick, 2014)'
_computing_structure_solution    'SHELXS-2014 (Sheldrick, 2014)'
_diffrn_ambient_temperature      130(2)
_diffrn_detector                 'CCD plate'
_diffrn_detector_area_resol_mean 10.6168
_diffrn_detector_type            AtlasS2
_diffrn_measured_fraction_theta_full 0.997
_diffrn_measured_fraction_theta_max 0.847
_diffrn_measurement_device       'four-circle diffractometer'
_diffrn_measurement_device_type  'New Xcalibur, AtlasS2'
_diffrn_measurement_method       '\w scans'
_diffrn_radiation_monochromator  graphite
_diffrn_radiation_probe          x-ray
_diffrn_radiation_source         'fine-focus sealed tube'
_diffrn_radiation_type           MoK\a
_diffrn_radiation_wavelength     0.71073
_diffrn_reflns_av_R_equivalents  0.0231
_diffrn_reflns_av_unetI/netI     0.0356
_diffrn_reflns_Laue_measured_fraction_full 0.997
_diffrn_reflns_Laue_measured_fraction_max 0.847
_diffrn_reflns_limit_h_max       9
_diffrn_reflns_limit_h_min       -10
_diffrn_reflns_limit_k_max       21
_diffrn_reflns_limit_k_min       -22
_diffrn_reflns_limit_l_max       18
_diffrn_reflns_limit_l_min       -11
_diffrn_reflns_number            3744
_diffrn_reflns_point_group_measured_fraction_full 0.997
_diffrn_reflns_point_group_measured_fraction_max 0.847
_diffrn_reflns_theta_full        25.500
_diffrn_reflns_theta_max         29.433
_diffrn_reflns_theta_min         3.940
_diffrn_source                   'sealed X-ray tube'
_exptl_absorpt_coefficient_mu    18.147
_exptl_absorpt_correction_T_max  1.00000
_exptl_absorpt_correction_T_min  0.17437
_exptl_absorpt_correction_type   multi-scan
_exptl_absorpt_process_details
;
CrysAlisPro 1.171.38.41 (Rigaku Oxford Diffraction, 2015)
Empirical absorption correction using spherical harmonics,
implemented in SCALE3 ABSPACK scaling algorithm.
;
_exptl_crystal_colour            yellow
_exptl_crystal_density_diffrn    3.465
_exptl_crystal_description       prism
_exptl_crystal_F_000             1488
_exptl_crystal_size_max          0.320
_exptl_crystal_size_mid          0.080
_exptl_crystal_size_min          0.080
_refine_diff_density_max         2.843
_refine_diff_density_min         -2.452
_refine_diff_density_rms         0.302
_refine_ls_extinction_method     none
_refine_ls_goodness_of_fit_ref   1.056
_refine_ls_hydrogen_treatment    undef
_refine_ls_matrix_type           full
_refine_ls_number_parameters     88
_refine_ls_number_reflns         1942
_refine_ls_number_restraints     48
_refine_ls_restrained_S_all      1.082
_refine_ls_R_factor_all          0.0333
_refine_ls_R_factor_gt           0.0318
_refine_ls_shift/su_max          0.001
_refine_ls_shift/su_mean         0.000
_refine_ls_structure_factor_coef Fsqd
_refine_ls_weighting_details
'w=1/[\s^2^(Fo^2^)+(0.0384P)^2^+8.2810P] where P=(Fo^2^+2Fc^2^)/3'
_refine_ls_weighting_scheme      calc
_refine_ls_wR_factor_gt          0.0753
_refine_ls_wR_factor_ref         0.0760
_reflns_Friedel_coverage         0.000
_reflns_number_gt                1865
_reflns_number_total             1942
_reflns_threshold_expression     >2\s(I)
_cod_data_source_file            c8ta09204d2.cif
_cod_data_source_block           AU83_a
_cod_original_sg_symbol_H-M      'I 2/a'
_cod_database_code               7237238
_shelx_shelxl_version_number     2014/7
_shelx_space_group_comment
;
The symmetry employed for this shelxl refinement is uniquely defined
by the following loop, which should always be used as a source of
symmetry information in preference to the above space-group names.
They are only intended as comments.
;
_shelx_estimated_absorpt_t_min   0.068
_shelx_estimated_absorpt_t_max   0.325
_shelx_res_file
;

    AU83_a.res created by SHELXL-2014/7


TITL AU83_a.res in I2/a
REM Old TITL AU83 in I2/a
REM SHELXT solution in I2/a
REM R1 0.078,  Rweak 0.008,  Alpha 0.026,  Orientation as input
REM Formula found by SHELXT:  C7 N2 I4 Bi
CELL  0.71073   7.6699  16.3360  13.1719   90.000   91.060   90.000
ZERR   4.000   0.0003   0.0007   0.0006    0.000    0.004    0.000
LATT  2
SYMM 1/2-X, Y, -Z
SFAC C H N I BI
UNIT 40 40 4 16 4
TEMP -143
L.S. 10
BOND $H
LIST 4
FMAP 2
PLAN 20
OMIT 0 180
ACTA 51
SIZE 0.32 0.08 0.08

SIMU 0.01 0.02 C1 C2 C10 C5 C6 C3 C9 N1

WGHT    0.038400    8.281000
FVAR       0.10125
C1    1   -0.250000    0.597640    0.500000    10.50000    0.01501    0.02661 =
         0.03147    0.00000   -0.00640    0.00000
C2    1   -0.186897    0.553960    0.418447    11.00000    0.01685    0.05442 =
         0.02824   -0.00905   -0.00023    0.00283
C3    1   -0.141714    0.314235    0.373631    11.00000    0.02546    0.02790 =
         0.02057    0.00451    0.00411    0.00425
C5    1   -0.250000    0.427931    0.500000    10.50000    0.03088    0.02937 =
         0.08430    0.00000   -0.03817    0.00000
C6    1   -0.133067    0.404603    0.360983    10.50000    0.02005    0.03251 =
         0.03194   -0.00260   -0.00262    0.00876
C9    1   -0.216789    0.292458    0.468452    10.50000    0.01861    0.02056 =
         0.01331    0.00060    0.00054    0.00081
C10   1   -0.184842    0.467802    0.417205    11.00000    0.02691    0.05215 =
         0.06708   -0.03278   -0.02813    0.01567
N1    3   -0.277048    0.342599    0.539114    10.50000    0.01863    0.01705 =
         0.02477   -0.00149   -0.00926    0.00294
I1    4   -0.577382    0.932722    0.360985    11.00000    0.01614    0.01914 =
         0.01361   -0.00321   -0.00473    0.00167
I2    4   -0.105544    0.800739    0.365124    11.00000    0.02324    0.01897 =
         0.01610   -0.00357    0.00416    0.00050
BI1   5   -0.250000    0.922691    0.500000    10.50000    0.01287    0.01379 =
         0.01013    0.00000   -0.00148    0.00000
HKLF 4

REM  AU83_a.res in I2/a
REM R1 =  0.0318 for    1865 Fo > 4sig(Fo)  and  0.0333 for all    1942 data
REM     88 parameters refined using     48 restraints

END

WGHT      0.0384      8.2507

REM Highest difference peak  2.843,  deepest hole -2.452,  1-sigma level  0.302
Q1    1  -0.3536  0.9229  0.5199  11.00000  0.05    2.84
Q2    1  -0.4215  0.9268  0.4332  11.00000  0.05    1.81
Q3    1  -0.2178  0.4332  0.4552  11.00000  0.05    1.77
Q4    1  -0.4729  0.9334  0.3475  11.00000  0.05    1.59
Q5    1  -0.1676  0.4858  0.3834  11.00000  0.05    1.40
Q6    1  -0.2122  0.8017  0.3761  11.00000  0.05    1.34
Q7    1  -0.3959  0.8889  0.4839  11.00000  0.05    1.26
Q8    1  -0.6890  0.9311  0.3777  11.00000  0.05    1.20
Q9    1  -0.2803  0.9312  0.4323  11.00000  0.05    1.20
Q10   1  -0.3905  0.9599  0.4842  11.00000  0.05    1.16
Q11   1  -0.0038  0.7986  0.3528  11.00000  0.05    1.07
Q12   1  -0.4279  0.9683  0.3804  11.00000  0.05    1.03
Q13   1  -0.4203  1.0617  0.4333  11.00000  0.05    0.96
Q14   1  -0.4738  0.9543  0.5128  11.00000  0.05    0.94
Q15   1  -0.4421  0.8956  0.3745  11.00000  0.05    0.93
Q16   1  -0.1360  0.8180  0.2939  11.00000  0.05    0.91
Q17   1  -0.3938  0.9931  0.5405  11.00000  0.05    0.90
Q18   1  -0.4291  0.9224  0.5717  11.00000  0.05    0.89
Q19   1  -0.1600  0.5899  0.3615  11.00000  0.05    0.88
Q20   1  -0.7384  0.9973  0.3990  11.00000  0.05    0.84
;
_shelx_res_checksum              40439
_shelx_hkl_file
;
   0   0   4 1882.21   31.93
   0   0  -4 1922.86   34.79
   0   0   4 1905.96   34.73
   0   0  -6 2724.21   50.31
   0   0   6 2580.58   43.32
   0   0   8 4681.94   69.05
   0   0  -8 5030.68   80.97
   0   0  10  147.40   10.63
   0   0  12   66.07    7.41
   0   0  14 1759.69   43.52
   0   0  16  456.95   22.07
   0   0  18  117.42   11.47
   0  -1  -3  239.95    9.51
   0  -1   3  248.85    7.71
   0   1  -3  262.32    8.58
   0   1  -3  243.43    9.32
   0  -1   3  240.69    9.18
   0   1   5  141.52    8.46
   0   1  -5  155.52    9.63
   0  -1   5  135.90    7.58
   0  -1   5  141.33    8.96
   0  -1  -5  131.93    8.90
   0   1   7 3058.99   51.79
   0   1  -7 3197.76   58.60
   0  -1  -7 3204.74   58.52
   0  -1   7 3095.75   49.44
   0  -1   7 3273.13   57.69
   0  -1   9  406.79   16.73
   0   1   9  384.42   16.95
   0  -1  11   96.34    8.61
   0   1  11   94.69    8.96
   0   1  13  413.97   19.96
   0  -1  13  396.34   18.48
   0   1  15  758.62   28.72
   0  -1  15  780.70   27.73
   0   1  17   10.42    3.90
   0  -1  17   14.27    4.01
   0  -2   2  374.31    6.14
   0   2  -2  360.14    6.27
   0  -2   2  367.28    8.61
   0   2  -2  357.96    8.37
   0  -2   4  403.20   10.08
   0  -2   4  391.31   13.21
   0   2  -4  391.20   11.02
   0   2  -4  387.07   12.95
   0   2  -6  185.23   10.49
   0   2   6  159.91    9.96
   0   2  -6  164.49   10.37
   0  -2   6  158.84    8.13
   0  -2  -6  154.48   10.38
   0  -2   6  162.34   10.37
   0  -2   8   36.46    4.62
   0  -2   8   32.96    5.43
   0   2  -8   34.63    5.61
   0  -2  -8   33.96    5.90
   0   2   8   38.02    5.36
   0   2  10  110.75    9.47
   0  -2  10  117.36    8.88
   0  -2  12  282.91   14.73
   0   2  12  283.40   16.34
   0  -2  14  101.64    9.29
   0   2  14  109.41   10.72
   0  -2  16    8.29    2.75
   0   2  16    8.85    3.40
   0   2  18   37.12    6.78
   0   3  -1   60.63    2.34
   0  -3   1   64.31    2.52
   0   3  -3  329.98    7.08
   0  -3   3  346.69    6.86
   0   3  -3  335.58    9.58
   0  -3   3  338.04    9.94
   0  -3   5  210.27   10.62
   0   3  -5  199.46    9.94
   0  -3   5  205.16    7.20
   0   3  -5  197.90    7.99
   0  -3   7   39.24    5.45
   0  -3  -7   45.45    5.97
   0   3   7   41.71    5.79
   0   3  -7   56.83    5.98
   0  -3   7   43.93    4.27
   0   3  -7   45.53    5.84
   0  -3   9    1.86    1.78
   0   3   9    5.38    2.64
   0  -3   9    5.41    1.84
   0   3  11   98.92    9.54
   0  -3  11  100.15    8.15
   0  -3  13    3.97    1.96
   0   3  13    5.63    2.79
   0  -3  15   31.02    5.15
   0   3  15   37.06    6.62
   0   3  17    1.60    2.27
   0  -4   0   32.31    1.73
   0  -4   2  129.83    4.85
   0   4  -2  132.52    3.59
   0   4  -2  131.53    4.57
   0  -4   4  300.20    7.13
   0   4  -4  282.46    9.95
   0   4  -4  291.83    7.54
   0  -4   4  290.89   10.53
   0  -4   6  102.02    8.11
   0   4  -6  100.79    6.11
   0   4  -6  107.02    7.71
   0  -4   6  103.62    5.33
   0  -4   8   27.69    3.44
   0   4   8   25.46    4.91
   0   4  -8   27.60    4.86
   0  -4  -8   26.18    4.77
   0   4  -8   33.80    4.68
   0  -4   8   25.39    4.54
   0   4  10   61.63    8.05
   0  -4  10   59.13    5.79
   0  -4  10   70.28    8.78
   0  -4  12   66.27    6.69
   0   4  12   55.09    7.53
   0  -4  14   14.50    3.38
   0   4  14   15.43    4.19
   0   4  16    8.82    3.41
   0  -4  16    6.30    2.26
   0  -5   1  124.34    4.21
   0   5  -1  124.93    4.07
   0   5  -3  936.42   13.53
   0   5  -3  946.55   16.65
   0  -5   3  945.93   17.78
   0   5  -5  565.62   12.22
   0  -5   5  546.58   16.82
   0   5  -5  545.91   15.70
   0  -5   5  555.33   11.25
   0  -5   7   27.46    2.86
   0   5  -7   29.88    3.56
   0  -5   7   24.32    4.50
   0   5  -7   27.22    4.29
   0  -5   9   99.59    6.65
   0  -5   9  109.35   10.02
   0   5   9  113.42   10.31
   0   5  -9  121.12    9.23
   0  -5  11  500.58   24.23
   0  -5  11  441.49   16.26
   0   5  11  453.66   21.95
   0   5  13  152.35   13.03
   0  -5  13  141.99    9.93
   0  -5  15    8.40    2.80
   0   5  15   10.67    3.69
   0  -6   0 1903.65   23.22
   0   6  -2  548.21   10.91
   0  -6   2  573.55   11.81
   0  -6   4  153.66    7.51
   0   6  -4  157.38    5.19
   0   6  -4  152.39    6.91
   0   6  -6  893.15   17.88
   0   6  -6  932.50   22.83
   0  -6   6  923.81   16.56
   0  -6   6  918.97   24.46
   0  -6  -8  725.55   24.02
   0   6  -8  795.03   20.64
   0  -6   8  803.29   26.54
   0   6  -8  801.09   24.86
   0  -6   8  794.49   17.77
   0  -6  10   99.70   10.11
   0   6  10   97.95   10.20
   0  -6  10   87.83    6.41
   0  -6  12  190.67   15.77
   0  -6  12  181.75   10.37
   0   6  12  162.79   13.79
   0  -6  14  476.97   18.49
   0   6  14  478.03   24.47
   0   6  16  133.57   13.79
   0  -7   1 3147.99   36.71
   0   7  -3  460.30   11.18
   0  -7   3  468.90   12.23
   0   7  -3  456.11    9.31
   0   7  -5   19.84    2.82
   0  -7   5   18.52    3.13
   0   7  -5   22.90    2.23
   0  -7   7 3502.50   58.14
   0   7  -7 3515.89   54.53
   0   7  -7 3432.21   46.08
   0   7  -9  464.74   16.47
   0  -7   9  459.63   21.02
   0  -7   9  462.70   13.63
   0   7  11  248.94   17.38
   0  -7  11  280.10   18.03
   0  -7  11  267.47   11.70
   0  -7  13  374.11   23.22
   0   7  13  351.49   21.29
   0  -7  13  328.49   14.37
   0   7  15 1054.07   38.53
   0  -8   0 5573.69   58.79
   0  -8   2  149.43    6.17
   0   8  -2  136.43    5.54
   0   8  -4  898.35   15.08
   0   8  -4  870.38   18.08
   0  -8   4  929.00   20.45
   0  -8   6 1167.57   27.78
   0   8  -6 1152.68   25.43
   0   8  -6 1178.84   20.30
   0  -8   8 1959.74   43.44
   0   8  -8 1905.55   32.48
   0  -8  10  133.86   11.84
   0  -8  10  141.68    7.72
   0   8 -10  145.28    9.61
   0  -8  12   43.41    4.78
   0   8  12   52.35    8.54
   0  -8  12   53.95    8.29
   0   8  14  970.21   37.48
   0  -8  14 1150.56   42.88
   0  -9   1  189.53    6.92
   0   9  -3   32.23    2.95
   0  -9   3   30.37    3.22
   0  -9   5   35.54    4.22
   0   9  -5   34.91    3.75
   0   9  -5   31.36    2.67
   0  -9   7  400.22   17.13
   0   9  -7  385.43   14.98
   0   9  -7  385.14   11.52
   0  -9   9   13.63    3.61
   0   9  -9   14.84    2.66
   0  -9  11   10.69    3.83
   0   9  11   15.25    5.22
   0   9  13  106.00   12.79
   0  -9  13  124.27   13.15
   0   9  15   79.63   11.22
   0 -10   0  282.27    8.54
   0 -10   2    2.88    1.02
   0  10  -4  103.27    4.86
   0  10  -4  108.03    5.97
   0 -10   4  111.65    7.03
   0  10  -6   51.92    3.74
   0  10  -6   47.77    4.80
   0 -10   6   56.25    6.06
   0 -10   8  249.91   14.68
   0  10  -8  231.90    9.42
   0 -10  10    3.46    2.59
   0  10 -10    1.89    1.12
   0  10  12   43.89    8.40
   0 -10  12   53.34    8.27
   0 -10  14   25.24    6.51
   0  10  14   19.67    5.99
   0 -11  -1  248.64    8.36
   0 -11   1  257.04    9.05
   0 -11   3   58.46    4.91
   0 -11   5   57.63    5.64
   0  11  -5   57.22    3.86
   0  11  -5   58.90    4.90
   0 -11   7  153.94   10.73
   0  11  -7  152.42    7.09
   0  11  -9   74.33    5.69
   0 -11   9   74.19    8.59
   0 -11  11   16.11    4.55
   0 -11  13   64.16    9.57
   0  11  13   62.49   10.40
   0 -12   0   73.99    4.83
   0 -12   2  326.40   11.34
   0  12  -4  607.04   15.81
   0 -12   4  639.13   18.55
   0  12  -4  606.42   13.89
   0  12  -6  206.86    7.93
   0 -12   6  218.16   12.21
   0 -12   8   86.95    8.86
   0  12  -8   68.01    5.03
   0 -12  10  243.28   16.76
   0  12  12  254.45   20.90
   0 -12  12  225.80   17.61
   0 -12  14   43.21    8.50
   0 -13   1  272.98   10.26
   0 -13  -1  263.37    9.53
   0 -13   3  329.33   12.73
   0  13  -5  264.49    9.14
   0 -13   5  300.79   13.79
   0  13  -7  170.69    7.63
   0 -13   7  174.45   11.87
   0 -13   9  159.66   13.05
   0 -13  11  205.81   16.40
   0 -13  13  198.28   17.71
   0 -14   0 1325.45   25.18
   0 -14  -2  148.22    7.38
   0 -14   2  146.22    8.22
   0  14  -4   26.85    2.96
   0 -14   4   25.64    3.83
   0 -14   6  489.71   19.42
   0  14  -6  451.30   12.74
   0 -14   8  686.67   26.37
   0 -14  10    5.37    2.91
   0 -14  12    2.80    2.89
   0  14  12    5.81    4.48
   0 -15  -1 1005.82   21.87
   0 -15   1 1004.68   22.91
   0 -15  -3  421.24   13.46
   0 -15   3  426.51   15.66
   0  15  -5   26.63    3.06
   0 -15   5   36.57    5.17
   0 -15   7 1237.55   34.90
   0 -15   9   81.71    9.58
   0 -15  11  287.29   19.92
   0 -15  13   95.72   12.44
   0 -16   0  444.51   14.91
   0 -16  -2   12.26    2.35
   0 -16   2   14.49    2.87
   0 -16   4  332.21   15.07
   0 -16   6  102.34    9.13
   0 -16   8  175.74   13.60
   0 -16  10  101.14   11.64
   0 -16  12   20.05    5.49
   0 -17  -1   44.00    4.60
   0 -17   1   41.31    4.78
   0 -17   3   12.73    2.90
   0 -17  -3   12.79    2.43
   0 -17   5    2.19    1.57
   0 -17   7   19.96    4.59
   0 -17   9   57.30    8.58
   0 -17  11    6.67    3.43
   0 -18   0  346.35   14.13
   0 -18  -2   80.85    6.49
   0 -18   2   89.08    7.54
   0 -18   4    7.70    2.59
   0 -18  -4    4.83    1.79
   0 -18   6  132.35   11.30
   0 -18   8  240.64   16.88
   0 -18  10   27.61    6.22
   0 -19   1  150.19    9.86
   0 -19  -1  134.83    8.89
   0 -19  -3  164.56    9.66
   0 -19   3  173.27   11.50
   0 -19   5  157.01   12.08
   0 -19  -5  146.84    9.36
   0 -19   7   99.01   10.37
   0 -20   0   28.84    4.24
   0 -20   2  121.06    9.44
   0 -20  -2  113.51    8.35
  -1   0  17   17.85    4.11
  -1   0  15    0.75    1.91
  -1   0  13   13.75    3.69
  -1   0  11    3.81    2.23
  -1   0   9   -0.24    1.75
  -1   0   9    0.64    1.02
   1   0  -7    3.57    1.16
  -1   0   7    3.10    1.59
  -1   0   7   -0.64    2.02
  -1   0   5    1.06    1.16
   1   0  -5    4.23    1.17
   1   0  -3    6.65    1.51
  -1   0   3    6.18    1.59
   1   0   3    1.32    1.30
  -1   0  -3    3.57    1.28
  -1   0  -5    5.32    2.30
   1   0   5    7.15    2.17
  -1   0  -5    5.76    1.93
   1   0   7   -0.31    1.86
  -1   0  -7   -0.99    1.00
  -1   0  -7   -0.76    1.37
   1   0   9    1.45    2.03
   1   0  11    1.61    1.69
   1   0  13    2.06    1.89
   1   0  15    0.83    1.98
   1   0  17    4.08    3.08
  -1   1  16   40.03    6.79
  -1  -1  16   37.98    5.99
  -1  -1  14  295.05   15.72
  -1   1  14  273.78   16.07
  -1   1  12   59.17    7.03
  -1  -1  12   52.78    6.23
  -1  -1  10    3.56    2.16
  -1   1  10    5.05    2.25
  -1  -1  10    3.54    1.83
  -1   1   8  265.58   13.09
   1  -1  -8  304.28   17.62
  -1  -1   8  263.80   14.73
  -1  -1   8  266.65   11.98
   1   1  -8  292.58   16.35
   1  -1  -6  620.76   22.32
  -1  -1   6  562.95   18.98
  -1  -1   6  570.76   16.13
   1   1  -6  583.46   19.86
  -1   1   6  589.68   20.01
   1  -1  -4    7.46    2.05
  -1  -1   4    6.92    1.66
  -1   1   4    8.07    1.94
   1   1  -4    8.17    1.91
  -1  -1   2    5.55    0.99
   1   1  -2    5.03    0.96
   1  -1  -2    5.91    1.20
  -1   1   2    5.54    1.25
   1   1   2  442.47   11.85
   1  -1   2  424.45    8.96
  -1   1  -2  434.79    9.01
  -1  -1  -2  419.20   11.32
  -1   1  -4    5.81    2.17
   1   1   4    2.24    2.02
  -1  -1  -4    2.78    1.14
  -1   1  -4    7.69    1.87
   1  -1   4    3.46    1.46
   1   1   6   18.75    3.73
  -1   1  -6   25.74    3.95
  -1  -1  -6   20.03    3.45
  -1   1  -6   19.24    3.60
   1  -1   6   19.59    3.39
  -1   1  -8  466.33   20.87
   1   1   8  447.12   19.04
  -1  -1  -8  430.78   19.08
   1  -1   8  430.61   17.07
  -1   1  -8  476.71   20.14
   1  -1  10  183.25   11.97
   1   1  10  180.60   12.78
   1   1  12    1.37    2.12
   1  -1  12    4.64    2.17
   1   1  14   56.23    7.86
   1  -1  14   50.63    7.07
   1   1  16  149.40   13.15
   1  -1  16  148.74   12.59
   1  -1  18   29.68    6.09
  -1   2  17  120.55   11.76
  -1   2  15  231.24   15.50
  -1  -2  15  233.27   13.91
  -1  -2  13   54.44    6.36
  -1   2  13   57.75    7.32
  -1   2  11   65.47    7.39
  -1  -2  11   70.44    6.82
  -1  -2  11   79.34    9.36
  -1  -2   9  463.34   16.41
  -1   2   9  432.59   18.27
  -1  -2   9  466.45   20.71
   1   2  -7  464.62   18.59
  -1  -2   7  466.17   14.60
  -1  -2   7  467.13   18.20
   1  -2  -5  222.78   12.37
  -1  -2   5  213.34    7.99
   1   2  -5  213.85   10.13
  -1  -2   5  223.16   10.35
  -1  -2   3  545.95    9.62
   1  -2  -3  543.26   15.24
   1   2  -3  541.85   12.30
  -1  -2   3  562.82   12.43
  -1   2   3  550.54   14.33
   1  -2  -1 1024.39   14.05
   1   2  -1 1056.04   14.01
  -1  -2   1 1088.10   14.21
   1   2   1  665.82   14.73
  -1  -2  -1  685.80   15.08
  -1   2  -1  669.12   10.39
  -1   2  -1  643.03   10.34
   1   2   3  476.34   15.72
  -1   2  -3  469.71   10.40
  -1   2  -3  468.92   13.43
   1  -2   3  470.45   10.39
   1   2   5  650.68   21.17
  -1   2  -5  640.02   16.39
   1  -2   5  659.51   16.00
  -1   2  -5  665.29   20.36
  -1  -2  -7  327.36   15.09
   1  -2   7  362.77   13.83
  -1   2  -7  374.02   17.60
   1   2   7  369.22   16.72
  -1   2  -7  344.95   14.68
  -1   2  -9  205.93   13.42
   1  -2   9  199.12   11.65
   1   2   9  201.46   13.33
   1  -2  11  266.92   14.57
   1   2  11  274.44   16.45
   1  -2  13  141.89   11.18
   1   2  13  148.08   12.75
   1  -2  15   41.17    6.32
   1   2  15   59.45    8.64
   1  -2  17   82.11    9.31
   1   2  17   90.51   10.75
  -1   3  18  383.40   21.80
  -1   3  16  556.71   25.65
  -1   3  14   35.60    5.97
  -1  -3  14   35.50    5.09
  -1  -3  12   68.55    9.24
  -1  -3  12   59.76    6.22
  -1   3  12   59.70    7.47
  -1   3  10 2560.91   52.00
  -1  -3  10 2646.43   56.00
  -1  -3  10 2697.81   44.63
  -1  -3   8  642.56   17.33
   1   3  -8  606.57   22.51
  -1  -3   8  577.40   21.98
  -1  -3   6  397.48   15.27
  -1  -3   6  423.60   11.43
   1   3  -6  393.77   15.04
  -1  -3   4 1464.02   25.23
  -1  -3   4 1457.80   18.24
   1  -3  -4 1460.46   30.38
   1   3  -4 1461.96   25.11
   1   3  -2 5942.29   60.61
   1  -3  -2 5746.29   64.77
  -1  -3   2 5896.42   60.68
   1   3   0   12.23    1.61
  -1   3  -2  166.02    5.68
   1   3   2  158.82    8.84
   1  -3   2  163.68    6.59
  -1   3  -2  162.97    5.05
   1  -3   2  161.65    5.04
   1  -3   4 4165.83   58.87
  -1   3  -4 4055.20   55.43
   1  -3   4 4128.59   47.87
   1   3   4 4144.43   62.68
  -1   3  -4 4181.60   48.34
   1   3   6 2274.39   45.67
  -1   3  -6 2207.11   36.20
   1  -3   6 2196.22   35.07
  -1   3  -6 2331.80   44.08
  -1   3  -8  225.28   11.97
   1   3   8  215.91   13.41
  -1  -3  -8  205.63   12.46
  -1   3  -8  220.29   14.06
   1  -3   8  220.27   10.91
   1  -3  10  151.39   10.12
   1   3  10  139.22   11.49
  -1   3 -10  159.08   12.50
   1   3  12 2261.21   52.17
   1  -3  12 2058.35   44.46
   1   3  14  195.44   15.08
   1  -3  14  183.77   12.89
   1   3  16   52.83    8.16
   1  -3  16   46.48    6.82
  -1   4  17  952.22   35.86
  -1   4  15   38.22    6.78
  -1  -4  15   45.81    5.74
  -1  -4  13  243.21   12.63
  -1   4  13  208.22   14.99
  -1   4  11 1186.01   35.32
  -1  -4  11 1255.63   38.13
  -1  -4  11 1266.57   28.06
  -1  -4   9 2620.20   53.04
  -1  -4   9 2742.32   41.21
   1  -4  -7  344.07   17.55
  -1  -4   7  305.17   14.25
   1   4  -7  312.07   14.27
  -1  -4   7  328.73    9.99
  -1  -4   5   83.56    5.96
   1  -4  -5   91.33    7.75
   1   4  -5   87.02    6.04
  -1  -4   5   91.83    3.52
  -1  -4   3 6758.95   71.98
   1   4  -3 6733.39   71.46
   1   4  -1 1887.10   23.47
  -1  -4   1 1904.24   23.71
   1  -4   1 2377.27   26.01
  -1   4  -1 2330.79   24.22
  -1   4  -3  616.38   11.78
   1  -4   3  584.83   15.29
   1  -4   3  607.45   11.86
  -1   4  -3  605.30   13.47
   1  -4   5 6483.72   71.11
  -1   4  -5 6459.59   71.53
   1  -4   5 6580.10   85.19
  -1   4  -5 6378.17   79.88
   1   4   5 6386.64   89.47
   1  -4   7   38.34    5.61
  -1   4  -7   39.35    5.52
   1  -4   7   31.51    3.67
   1   4   7   35.35    5.57
  -1   4  -7   30.42    3.82
   1   4   9  525.14   22.25
   1  -4   9  512.99   17.41
  -1   4  -9  524.73   19.54
   1   4  11 1504.47   41.11
   1  -4  11 1460.30   34.19
   1   4  13 1491.23   43.15
   1  -4  13 1389.13   35.63
   1  -4  15   81.15    8.65
   1   4  15   95.69   11.01
   1  -4  17    6.41    2.69
  -1   5  16  278.96   18.95
  -1  -5  14    4.04    2.01
  -1   5  14    6.40    3.34
  -1  -5  14    4.83    2.02
  -1  -5  12    2.44    2.08
  -1  -5  12    4.21    1.83
  -1   5  12    5.87    2.63
  -1  -5  10  820.21   19.86
  -1  -5  10  766.67   28.06
   1  -5  -8  360.54   18.67
  -1  -5   8  363.33   10.62
  -1  -5   8  337.13   16.15
   1   5  -8  333.63   15.69
   1  -5  -6  104.71    8.73
  -1  -5   6   99.17    7.27
  -1  -5   6  107.84    4.15
   1   5  -6  103.70    7.29
   1   5  -4  314.77   10.26
   1   5  -4  321.48    6.78
  -1  -5   4  324.19   10.71
   1   5  -2 1964.04   26.04
  -1  -5   2 2016.03   26.74
  -1  -5   0   33.17    2.30
   1  -5   0   31.85    1.51
   1  -5   2   26.44    2.34
  -1   5  -2   26.41    2.12
  -1   5  -2   32.77    2.11
   1  -5   4 1353.33   21.03
  -1   5  -4 1319.74   20.80
  -1   5  -4 1335.48   24.03
   1  -5   4 1330.29   27.30
   1  -5   6  681.11   22.59
   1  -5   6  661.96   15.66
  -1   5  -6  632.93   15.80
  -1   5  -6  647.44   19.88
   1   5   6  668.58   24.55
  -1   5  -8   64.89    5.89
   1   5   8   74.04    8.44
   1  -5   8   68.77    7.95
   1  -5   8   70.55    5.62
  -1   5  -8   61.82    7.12
  -1   5 -10   90.79    8.36
   1   5  10   86.70    9.47
   1  -5  10   84.51    7.06
   1   5  12  719.93   28.76
   1  -5  12  728.19   23.74
   1   5  14   46.61    7.80
   1  -5  14   43.30    6.12
   1  -5  16   10.29    3.42
   1   5  16   14.73    4.42
  -1   6  15  105.53   11.65
  -1  -6  13   30.41    4.14
  -1  -6  13   22.83    5.82
  -1   6  13   24.70    5.53
  -1  -6  11   50.24    7.35
  -1  -6  11   43.30    4.32
  -1  -6   9    9.78    1.79
  -1  -6   9    9.46    3.15
  -1  -6   7  328.74    8.16
  -1  -6   7  303.36   14.04
   1  -6  -7  300.17   15.52
   1   6  -7  311.43   13.82
  -1  -6   5   45.70    4.47
   1   6  -5   40.75    4.04
   1   6  -5   43.47    2.77
   1   6  -3   52.91    3.73
   1   6  -3   50.89    1.96
  -1  -6   3   58.50    4.01
  -1  -6   1   94.34    4.37
   1  -6   1  474.48    8.95
  -1   6  -1  478.80    8.01
  -1   6  -3   32.36    2.61
   1  -6   3   29.33    2.95
  -1   6  -3   25.72    2.28
  -1   6  -5   14.75    2.03
   1  -6   5   21.45    3.55
  -1   6  -5   16.68    2.67
   1  -6   7   62.97    4.83
  -1   6  -7   60.45    4.98
  -1   6  -7   61.09    6.37
   1  -6   7   79.20    8.06
   1   6   7   64.84    8.23
  -1   6  -9  143.93    9.23
   1   6   9  171.21   13.47
   1  -6   9  175.44   13.64
   1  -6   9  147.32    8.63
   1   6  11   10.28    4.22
   1  -6  11    7.14    2.22
   1  -6  13   13.80    3.38
   1   6  13    9.92    3.77
   1  -6  15   15.77    3.85
   1   6  15   19.12    5.09
  -1   7  16   24.57    6.09
  -1  -7  14   14.93    5.15
  -1   7  14   13.80    4.62
  -1  -7  12   11.57    2.40
  -1  -7  12    9.47    3.27
  -1   7  12   13.38    4.30
  -1  -7  10  163.03    7.32
  -1  -7  10  157.27   12.50
   1  -7  -8    7.96    2.71
  -1  -7   8    7.62    2.47
  -1  -7   8    6.81    1.31
  -1  -7   6   19.45    3.35
   1   7  -6   16.92    2.87
   1   7  -6   16.98    2.07
   1   7  -4  156.35    4.22
  -1  -7   4  153.65    7.65
   1   7  -4  149.60    7.13
  -1  -7   2  321.89    9.36
   1   7  -2  311.90    8.97
  -1  -7   0    2.74    0.80
   1  -7   0    2.33    0.61
   1  -7   2    3.86    1.19
  -1   7  -2    3.10    0.75
   1  -7   4  254.57   10.69
  -1   7  -4  247.27    8.61
  -1   7  -4  255.05    8.07
  -1   7  -6  114.21    6.21
   1  -7   6  127.07    9.32
  -1   7  -6  114.37    7.49
   1  -7   8   10.05    2.24
   1  -7   8    9.69    2.91
   1   7   8    9.54    4.04
  -1   7  -8    9.35    2.29
  -1   7  -8    8.70    2.65
   1  -7  10    4.45    2.19
   1  -7  10    8.03    2.22
  -1   7 -10    5.86    2.14
   1   7  10    7.45    3.86
   1  -7  12   90.45    7.86
   1   7  12   95.10   10.65
   1  -7  14   13.48    3.29
   1   7  14    9.31    4.03
  -1  -8  15  123.82   13.97
  -1   8  15  110.21   13.22
  -1  -8  13  142.63   13.78
  -1   8  13  155.52   14.70
  -1  -8  11   30.28    5.75
  -1  -8  11   18.70    2.54
  -1  -8   9   77.18    8.28
   1  -8  -7  374.58   16.60
   1   8  -7  416.41   11.68
  -1  -8   7  415.51   16.82
   1   8  -5  272.75    6.67
  -1  -8   5  275.59   11.49
   1   8  -5  258.74   10.52
   1   8  -3   36.50    3.26
  -1  -8   3   37.23    3.48
  -1  -8   1  201.61    7.27
   1  -8   1  565.65   11.21
  -1   8  -3  160.46    6.05
   1  -8   3  166.73    7.56
  -1   8  -3  172.15    6.56
   1  -8   5   41.26    4.86
  -1   8  -5   46.01    4.05
  -1   8  -5   46.05    3.60
  -1   8  -7  251.37   10.09
  -1   8  -7  250.09   12.16
   1  -8   7  260.19   14.62
   1   8   9  318.37   19.44
   1  -8   9  351.36   19.19
  -1   8  -9  296.85   13.04
   1  -8   9  304.43   12.17
  -1   8 -11   58.71    6.62
   1  -8  11   57.86    5.84
   1  -8  11   69.32    9.46
   1   8  11   67.05    9.12
   1  -8  13   34.27    5.03
   1   8  13   45.38    8.09
   1   8  15  109.78   12.86
  -1   9  14  295.65   21.24
  -1  -9  14  292.35   20.80
  -1  -9  12  124.46   12.52
  -1  -9  10   88.96    9.65
  -1  -9   8  436.18   18.61
   1   9  -8  450.56   13.43
   1   9  -6  559.52   11.38
   1   9  -6  565.10   17.30
  -1  -9   6  593.44   18.93
   1   9  -4  173.77    5.04
   1   9  -4  166.53    7.85
  -1  -9   4  175.22    8.55
  -1  -9   2  251.35    9.05
   1  -9   0  858.49   14.31
  -1  -9   0  820.19   16.18
   1  -9   2  649.28   14.32
   1  -9   4  193.21    9.46
  -1   9  -4  181.58    7.14
  -1   9  -4  179.36    7.22
   1  -9   6  258.14   13.40
  -1   9  -6  235.43   10.51
  -1   9  -6  245.05    9.30
   1   9   8  454.80   23.47
   1  -9   8  470.01   21.07
  -1   9  -8  440.70   14.53
   1  -9  10  296.39   18.66
   1   9  10  275.72   18.99
  -1   9 -10  244.82   12.28
   1   9  12  120.42   12.93
   1  -9  12  124.65   13.41
   1  -9  12  111.57    8.33
   1   9  14  151.64   14.78
  -1 -10  13    8.94    3.64
  -1  10  13    7.58    4.06
  -1 -10  11  318.55   19.26
  -1 -10   9  767.25   27.28
  -1 -10   7   68.98    6.99
   1  10  -7   69.19    4.10
   1  10  -5   76.82    3.61
   1  10  -5   72.95    5.61
  -1 -10   5   80.29    6.42
  -1 -10   3 1405.36   26.19
   1  10  -3 1388.96   24.75
   1 -10  -1  841.84   14.65
  -1 -10   1  836.66   17.57
  -1 -10  -1    8.15    1.49
   1 -10   1   12.61    1.79
  -1  10  -3  356.80    9.69
   1 -10   3  369.75   12.01
  -1  10  -5 1386.62   25.25
  -1  10  -5 1393.55   24.15
   1 -10   5 1445.04   30.86
   1 -10   7  218.48   13.47
  -1  10  -7  196.60   10.35
  -1  10  -7  196.42    8.86
   1 -10   9   13.13    3.89
  -1  10  -9   12.83    2.45
   1  10   9   19.87    6.37
   1 -10  11  478.43   24.91
   1  10  11  442.15   25.27
   1  10  13  455.53   26.31
  -1 -11  14   99.38   12.22
  -1  11  14  104.99   13.68
  -1 -11  12   12.83    4.16
  -1 -11  10 1681.15   44.43
   1  11  -8  182.39    7.34
  -1 -11   8  206.00   13.07
   1  11  -6  582.51   11.92
  -1 -11   6  602.31   20.03
  -1 -11   4  608.31   17.59
   1  11  -4  582.97   11.44
   1  11  -4  584.51   16.06
  -1 -11   2 2925.67   41.43
   1 -11   0   65.98    3.97
  -1 -11   0   68.30    4.68
   1 -11   2  302.66   10.16
  -1  11  -4 2007.32   30.15
  -1  11  -4 1978.71   30.58
   1 -11   4 2077.28   35.95
   1 -11   6 1068.83   28.81
  -1  11  -6 1012.17   20.91
  -1  11  -6 1015.21   22.73
   1 -11   8  378.32   19.04
  -1  11  -8  345.90   12.76
   1  11  10   30.76    7.03
   1 -11  10   22.83    5.26
   1  11  12 1448.41   49.12
   1 -11  12 1561.01   48.58
  -1 -12  13  155.75   15.02
  -1 -12  11  220.57   16.42
  -1 -12   9  676.67   26.24
  -1 -12   7  164.62   11.24
   1  12  -7  144.68    5.92
   1  12  -5   79.99    4.06
  -1 -12   5   88.15    7.19
  -1 -12   3 1620.50   30.34
  -1 -12   1  372.42   12.06
   1 -12  -1  369.14   10.06
  -1 -12  -1  720.14   16.84
   1 -12   1  745.56   16.34
   1 -12   3  109.38    6.84
  -1  12  -5 1598.32   28.05
  -1  12  -5 1585.54   27.44
   1 -12   7    6.19    2.65
  -1  12  -7    7.43    1.81
   1 -12   9  265.95   16.99
   1  12   9  283.00   20.89
   1  12  11  415.70   26.08
   1 -12  11  435.44   24.14
   1  12  13  326.06   23.58
   1 -12  13  395.55   24.93
  -1 -13  12   36.82    7.07
  -1 -13  10    2.43    2.72
  -1 -13   8   29.30    5.08
   1  13  -6   18.11    2.06
  -1 -13   6   21.94    4.06
   1  13  -4   39.95    3.06
  -1 -13   4   40.84    4.71
  -1 -13   2   16.21    2.71
   1 -13  -2    5.74    1.36
  -1 -13   0    2.73    1.24
   1 -13   0    1.32    0.92
   1 -13   2   12.97    2.22
  -1 -13  -2   12.71    2.29
  -1  13  -4    0.88    0.80
   1 -13   4    4.80    1.62
   1 -13   6    4.80    1.74
  -1  13  -6    2.99    1.27
  -1  13  -6    5.16    1.46
   1 -13   8   16.41    4.12
   1 -13  10    0.38    2.41
   1  13  10    2.67    3.19
   1 -13  12    7.70    3.17
   1  13  12    6.65    4.25
  -1 -14  13   -0.31    2.66
  -1 -14  11  172.87   14.93
  -1 -14   9  102.59   10.45
  -1 -14   7   18.99    4.07
   1  14  -5   18.62    2.15
  -1 -14   5   20.92    3.85
  -1 -14   3  354.65   13.95
   1 -14  -3  352.89   10.91
   1 -14  -1   85.85    5.27
  -1 -14   1   81.52    6.04
  -1 -14  -1    8.98    2.06
   1 -14   1   10.87    2.08
   1 -14   3   77.73    6.27
   1 -14   5  270.23   13.65
  -1  14  -5  253.88   10.25
  -1  14  -5  267.07   10.65
   1 -14   7   16.46    4.18
   1  14   9    5.46    3.26
   1 -14   9    4.22    2.23
   1  14  11   91.61   12.82
   1 -14  11   82.31   10.58
   1 -14  13  143.83   15.12
  -1 -15  12   68.71   10.10
  -1 -15  10  143.11   13.41
  -1 -15   8  118.78   10.85
  -1 -15   6  106.19    9.16
   1  15  -4  161.04    6.83
  -1 -15   4  182.70   10.75
  -1 -15   2  203.66   10.42
   1 -15  -2  198.76    8.36
   1 -15   0  132.89    7.17
  -1 -15   0  120.56    7.62
  -1 -15  -2  119.26    7.27
   1 -15   2  117.02    7.51
   1 -15   4  180.56   10.63
   1 -15   6  160.56   11.35
   1 -15   8  110.40   10.77
   1 -15  10  101.01   11.33
   1  15  10   97.92   13.59
   1 -15  12  117.08   13.48
  -1 -16  11   41.45    7.77
  -1 -16   9   94.65   10.54
  -1 -16   7  367.19   18.69
  -1 -16   5  226.43   13.08
   1 -16  -3   58.89    4.76
  -1 -16   3   53.27    5.75
  -1 -16   1  236.24   11.30
   1 -16  -1  255.84   10.25
  -1 -16  -1  530.13   16.61
   1 -16   1  549.72   16.57
   1 -16   3  197.52   10.77
  -1 -16  -3  189.73    9.76
   1 -16   5   62.77    6.85
   1 -16   7  232.42   15.15
   1  16   9  326.34   25.43
   1 -16   9  285.91   18.57
   1 -16  11   78.57   10.62
  -1 -17  10   96.76   11.43
  -1 -17   8  118.27   11.49
  -1 -17   6   86.77    8.71
  -1 -17   4  122.87    9.55
   1 -17  -4  116.12    7.18
  -1 -17   2  229.35   12.08
   1 -17  -2  225.81    9.94
  -1 -17   0  149.75    9.12
   1 -17   0  164.32    8.79
  -1 -17  -2   83.71    6.60
   1 -17   2  100.36    7.48
   1 -17   4  174.87   11.10
  -1 -17  -4  170.69    9.69
   1 -17   6  182.30   12.75
   1 -17   8   69.17    8.85
   1 -17  10   54.51    8.60
  -1 -18   9  363.03   21.52
  -1 -18   7   26.76    5.33
   1 -18  -5    5.11    1.56
  -1 -18   5    8.61    2.93
   1 -18  -3  644.42   18.02
  -1 -18   3  624.06   21.81
   1 -18  -1  195.70    9.73
  -1 -18   1  196.96   11.15
   1 -18   1  129.78    8.50
  -1 -18  -1  133.94    8.82
  -1 -18  -3   57.25    5.68
   1 -18   3   60.64    6.37
   1 -18   5  646.39   23.87
  -1 -18  -5  623.87   20.27
  -1 -19   8   15.69    4.54
  -1 -19   6  371.40   19.72
  -1 -19   4   65.33    7.47
  -1 -19   2  532.42   20.16
  -1 -19   0  118.01    8.65
  -1 -19  -2  230.67   12.06
  -1 -19  -4  351.60   15.19
  -1 -19  -6  145.71   10.05
  -1 -20   7   60.33    8.67
  -1 -20   5   91.49    9.56
  -1 -20   3   37.76    5.69
  -1 -20   1    2.69    1.23
  -1 -20  -1  163.62   10.66
  -1 -20  -3    5.34    2.35
  -1 -20  -5   51.69    5.96
  -1 -20  -7   40.50    5.66
  -1 -21   4  130.87   11.31
  -1 -21   2  109.94    9.58
  -1 -21   0   16.19    3.67
  -1 -21  -2   28.90    4.95
  -1 -21  -4  102.15    8.59
  -2   0  16  157.87   11.94
  -2   0  14  312.48   16.24
  -2   0  12 2296.10   44.97
  -2   0  10   10.77    3.26
  -2   0  10   18.34    3.65
   2   0  -8  386.39   18.64
  -2   0   8  376.98   17.18
  -2   0   6 3586.73   54.34
   2   0  -6 3531.46   55.03
   2   0  -4 4201.57   52.57
  -2   0   4 4290.00   53.07
   2   0  -2 1058.70   15.79
  -2   0   2 1088.76   16.06
   2   0   0  179.06    5.20
  -2   0   0  183.06    5.40
  -2   0  -2 9853.92  100.19
   2   0   2 9999.00  100.00
   2   0   4 1575.46   28.62
  -2   0  -4 1561.85   28.47
   2   0   6 1276.58   29.44
  -2   0  -6 1176.78   28.30
  -2   0  -8  853.34   26.85
  -2   0  -8  938.51   29.21
   2   0   8  889.25   27.11
   2   0  10 3692.41   66.04
   2   0  12    7.53    2.75
   2   0  14  138.19   12.33
   2   0  16  899.88   33.57
  -2  -1  15    8.06    3.11
  -2   1  15    1.91    1.53
  -2   1  13  664.15   24.03
  -2  -1  13  707.61   23.46
  -2   1  11  768.19   24.82
  -2  -1  11  788.53   29.82
  -2  -1  11  789.09   22.98
  -2  -1   9   63.06    7.39
  -2  -1   9   48.59    5.17
  -2   1   9   55.65    7.10
  -2  -1   7  109.56    8.45
  -2   1   7  114.10    8.80
   2   1  -7   95.13    8.12
   2  -1  -7  107.19    9.24
   2   1  -5 3271.98   46.85
   2  -1  -5 3211.03   48.69
  -2  -1   5 3262.04   46.33
  -2   1   5 3204.17   48.28
  -2   1   3  654.20   14.02
   2   1  -3  638.21   13.39
   2  -1  -3  638.90   13.43
  -2  -1   3  647.01   13.41
   2   1  -1  478.74    8.88
   2  -1  -1  476.41    7.70
  -2   1   1  470.56    7.82
  -2  -1   1  510.09    9.07
  -2  -1   1  468.93    8.40
  -2   1  -1  673.54   12.36
   2  -1   1  670.12   12.23
  -2  -1  -1  661.50   13.10
   2   1   1  664.58   12.77
  -2   1  -3 2482.11   33.74
   2   1   3 2424.29   36.73
  -2  -1  -3 2364.15   36.65
   2  -1   3 2443.28   33.68
   2  -1   5   15.83    2.81
  -2   1  -5   10.01    2.16
   2   1   5   16.51    3.18
  -2  -1  -5   11.06    2.66
  -2   1  -7   11.84    2.93
   2  -1   7    9.69    2.28
  -2  -1  -7    5.29    2.28
   2   1   7    3.01    1.60
  -2   1  -7    9.14    2.87
   2   1   9 1786.22   42.58
   2  -1   9 1815.73   40.44
  -2   1  -9 1804.71   42.73
   2  -1  11  610.88   23.92
   2   1  11  620.58   25.65
   2  -1  13   51.71    7.31
   2   1  13   53.53    7.79
   2   1  15  120.60   12.04
   2  -1  15  109.13   11.22
   2   1  17  597.79   27.95
   2  -1  17  579.78   26.92
  -2   2  16   67.91    8.76
  -2  -2  14    7.77    2.74
  -2   2  14   11.61    3.62
  -2  -2  12  102.64    8.13
  -2   2  12  111.76    9.88
  -2  -2  12  107.08   11.12
  -2  -2  10  481.48   21.75
  -2  -2  10  556.33   17.61
   2   2  -8  100.61    8.90
  -2  -2   8  106.54    6.90
   2  -2  -8  113.69   10.69
  -2  -2   8  114.22    9.21
  -2   2   8  121.72   10.13
   2   2  -6    3.64    1.65
  -2   2   6    4.28    1.80
  -2  -2   6    5.50    1.90
   2  -2  -6    5.95    2.18
   2  -2  -4  256.90   10.25
   2   2  -4  260.07    9.40
  -2  -2   4  269.64    9.43
  -2   2   4  246.61   10.15
   2   2  -2  624.27   12.00
  -2   2   2  634.32   11.94
  -2  -2   2  627.13   11.93
   2  -2  -2  606.48   10.80
  -2  -2   2  632.23    9.04
  -2   2   0  149.44    2.96
   2   2   0  156.43    4.96
  -2  -2   0  145.50    5.30
   2  -2   2  172.14    6.20
  -2   2  -2  168.43    6.17
  -2  -2  -2  153.31    7.50
   2   2   2  158.80    7.50
   2  -2   4  427.50   12.26
   2   2   4  416.83   15.81
  -2   2  -4  430.31   12.19
  -2   2  -4  385.46   13.44
  -2  -2  -4  421.60   15.92
   2  -2   6  210.68   10.31
  -2   2  -6  207.80   11.72
   2   2   6  226.55   13.21
  -2   2  -6  210.14   10.22
  -2  -2  -6  215.87   13.51
  -2   2  -8   56.74    6.26
   2  -2   8   47.81    5.71
   2   2   8   50.75    6.77
  -2   2  -8   52.98    6.81
   2  -2  10   79.63    8.08
   2   2  10   87.56    9.46
   2  -2  12  128.21   10.78
   2   2  12  126.98   11.75
   2   2  14  106.19   11.37
   2  -2  14  101.17   10.26
   2   2  16   62.94    9.14
   2  -2  16   61.10    8.31
  -2   3  17   62.09    8.56
  -2   3  15    7.50    3.51
  -2  -3  13   87.20    7.34
  -2   3  13   73.18    8.63
  -2  -3  13   72.81    9.56
  -2  -3  11    2.29    1.90
  -2  -3  11    4.25    1.52
  -2  -3   9  184.32    9.12
  -2  -3   9  169.57   11.95
  -2  -3   7    1.07    1.17
   2   3  -7    4.49    1.70
   2  -3  -7    3.35    2.39
  -2  -3   7    4.82    1.32
  -2  -3   5   63.33    5.15
   2   3  -5   68.68    5.29
   2  -3  -5   59.74    6.11
  -2  -3   5   61.39    3.46
  -2   3   5   65.00    5.83
   2  -3  -3  219.89    8.17
  -2   3   3  220.06    8.54
   2   3  -3  223.77    7.69
  -2  -3   3  229.30    7.74
   2   3  -1  324.98    6.28
  -2  -3   1  318.85    7.81
   2  -3  -1  307.36    4.76
  -2  -3   1  323.25    7.83
  -2   3   1  297.56    6.17
   2   3   1   62.93    4.43
  -2   3  -1   66.13    3.61
  -2  -3  -1   67.20    4.92
  -2  -3  -3   40.63    4.88
  -2   3  -3   45.39    3.42
   2  -3   3   38.74    3.20
   2   3   3   38.60    4.90
  -2   3  -3   35.87    3.52
  -2   3  -5  245.87    9.75
   2  -3   5  242.21    9.58
  -2  -3  -5  259.80   14.77
  -2   3  -5  233.42   11.64
   2   3   5  250.91   14.25
  -2   3  -7  108.30    7.66
   2   3   7  104.64    9.77
   2  -3   7  105.55    7.39
  -2   3  -7  112.93    9.41
   2  -3   9   26.63    4.46
   2   3   9   16.79    3.80
  -2   3  -9   24.88    4.42
   2  -3  11   -2.00    1.82
   2   3  11    2.20    1.62
   2   3  13   49.75    8.00
   2  -3  13   43.24    6.40
   2  -3  15    1.07    1.80
   2   3  15    2.58    2.64
   2  -3  17   11.09    3.74
  -2   4  16   33.28    6.41
  -2  -4  14    7.21    3.78
  -2  -4  14    8.22    2.28
  -2   4  14   10.21    3.76
  -2  -4  12   14.43    4.59
  -2  -4  12   15.51    3.02
  -2  -4  10   87.02    6.04
  -2  -4  10   68.35    7.97
  -2  -4   8   78.73    7.56
  -2  -4   8   80.93    4.91
   2  -4  -8   88.25   10.01
   2   4  -6   30.37    3.91
   2  -4  -6   32.83    5.22
  -2  -4   6   30.26    2.19
  -2  -4   6   27.13    3.76
   2   4  -4  123.33    6.40
   2  -4  -4  111.61    7.65
  -2  -4   4  121.32    6.30
   2   4  -2  273.72    4.34
   2   4  -2  281.94    8.14
   2  -4  -2  281.21    7.53
  -2  -4   2  288.21    8.38
   2   4   0  118.41    5.68
  -2  -4   0  112.84    4.59
  -2   4  -2   22.76    2.31
  -2   4  -2   21.86    2.08
   2   4   2   25.82    3.99
  -2   4  -4  110.20    5.81
   2   4   4  112.66    9.23
  -2   4  -4  107.37    6.89
   2  -4   4  114.62    5.94
   2  -4   6  188.10    9.01
  -2   4  -6  189.04    9.05
  -2   4  -6  206.13   11.77
   2   4   6  195.14   13.34
  -2   4  -8   59.13    5.93
  -2   4  -8   66.97    7.64
   2  -4   8   64.17    6.04
   2   4   8   66.00    8.18
   2  -4  10   24.16    4.29
   2   4  10   21.80    4.82
   2  -4  12   37.83    5.63
   2   4  12   46.27    7.40
   2  -4  14   36.68    6.00
   2   4  14   44.51    7.65
   2   4  16   17.48    5.40
   2  -4  16   15.47    4.22
  -2   5  17  227.21   17.05
  -2   5  15   75.09    9.75
  -2  -5  15   84.47   11.40
  -2  -5  13    3.36    1.43
  -2   5  13    5.41    3.28
  -2  -5  11  210.23   14.78
  -2  -5  11  222.93    9.49
  -2  -5   9  678.68   14.68
  -2  -5   9  630.31   23.18
  -2  -5   7   66.40    6.32
  -2  -5   7   64.70    2.99
   2   5  -7   68.83    6.46
   2  -5  -7   82.83    9.09
  -2  -5   5   12.71    2.35
   2  -5  -5   12.49    3.11
   2   5  -5   12.72    2.34
  -2  -5   3  734.43   15.65
   2   5  -3  736.96   15.71
   2  -5  -3  709.69   18.40
   2   5  -1  947.92   16.47
  -2  -5   1  895.63   15.89
   2   5   1   63.08    5.85
  -2   5  -3  154.52    6.33
   2   5   3  135.81   10.47
  -2   5  -3  163.50    6.66
  -2   5  -5  781.56   17.58
   2   5   5  752.26   26.70
   2  -5   5  774.28   17.73
  -2   5  -5  773.71   20.54
   2  -5   7  323.05   12.52
  -2   5  -7  325.94   15.54
   2   5   7  327.45   18.09
  -2   5  -7  312.61   12.45
   2  -5   9   28.02    4.15
  -2   5  -9   26.82    4.28
   2   5   9   30.57    5.60
   2  -5  11  131.95    9.91
   2   5  11  140.34   12.89
   2  -5  13  247.51   14.77
   2   5  13  288.10   19.10
   2   5  15   86.23   10.93
   2  -5  15   70.97    8.51
   2  -5  17   19.07    4.76
  -2   6  16   40.75    7.56
  -2   6  14   83.47   10.35
  -2  -6  14   66.27    9.54
  -2  -6  12  576.79   15.45
  -2  -6  12  514.22   24.63
  -2  -6  10  367.30   18.59
  -2  -6  10  393.36   10.52
   2  -6  -8   64.34    8.61
  -2  -6   8   56.02    2.73
  -2  -6   8   54.39    6.23
   2   6  -6  540.70   17.00
  -2  -6   6  532.50   16.97
   2   6  -4 1408.00   25.40
   2  -6  -4 1413.36   31.84
  -2  -6   4 1384.83   25.47
   2  -6  -2  285.39    9.67
  -2  -6   2  295.26    9.32
   2   6  -2  314.35    7.62
   2   6  -2  306.36    9.32
   2   6   0  199.96   10.65
  -2  -6   0  197.18    6.88
  -2   6  -2 1388.77   22.46
  -2   6  -2 1362.65   17.20
   2  -6   2 1358.99   24.24
   2   6   2 1372.41   35.13
  -2   6  -4  884.81   18.36
   2   6   4  847.32   29.27
  -2   6  -4  842.30   17.59
   2  -6   4  892.36   24.88
  -2   6  -6   82.56    6.86
   2   6   6   98.94   10.13
  -2   6  -6   87.09    5.85
   2  -6   6   91.88    6.13
  -2   6  -8  387.92   14.86
  -2   6  -8  381.95   17.75
   2  -6   8  371.94   14.16
   2   6   8  395.63   20.76
   2   6  10  835.76   31.71
   2  -6  10  721.90   22.61
   2  -6  12  148.73   10.81
   2   6  12  177.53   15.20
   2  -6  14   57.47    7.34
   2   6  14   57.40    8.89
   2  -6  16  252.81   16.20
  -2  -7  15   12.60    4.73
  -2   7  15    5.36    3.27
  -2  -7  13  961.71   35.35
  -2  -7  11  708.00   27.79
  -2  -7  11  701.16   14.31
  -2  -7   9  214.40   13.26
  -2  -7   7  156.47    9.83
   2  -7  -7  168.06   13.02
   2  -7  -5 4012.89   64.08
   2   7  -5 3978.09   54.01
  -2  -7   5 3892.90   53.96
   2   7  -3  276.80    9.67
  -2  -7   3  273.72    9.78
   2  -7  -3  277.13   11.38
  -2  -7   1  680.31   14.54
   2  -7  -1  688.86    9.01
   2   7   1 1417.59   36.17
   2  -7   1 1527.95   20.74
  -2   7  -3 3396.16   43.47
   2  -7   3 3488.79   49.86
   2   7   3 3333.90   64.18
  -2   7  -3 3452.64   39.19
  -2   7  -5   85.14    5.40
   2   7   5   91.91    9.87
   2  -7   5  100.88    8.64
  -2   7  -5   86.31    5.87
   2   7   7   74.40    9.01
  -2   7  -7   63.06    5.38
   2  -7   7   59.43    5.31
   2  -7   7   82.18    9.22
  -2   7  -7   69.33    6.69
   2  -7   9 2039.92   38.71
   2   7   9 2290.75   54.38
   2   7  11  813.53   32.33
   2  -7  11  691.98   22.73
   2  -7  13  136.77   10.75
   2   7  13  143.89   14.13
   2  -7  15   77.66    8.58
   2   7  15   82.28   11.14
  -2  -8  14  102.14   11.79
  -2   8  14   98.42   12.19
  -2  -8  12 1185.92   38.54
  -2  -8  10    5.11    2.63
  -2  -8   8  330.63   15.71
   2  -8  -8  376.20   20.22
   2  -8  -6 1502.24   37.42
  -2  -8   6 1499.65   31.29
   2   8  -4 1971.55   32.41
  -2  -8   4 1978.97   32.97
   2  -8  -4 1947.57   36.90
  -2  -8   2  544.19   13.82
   2  -8   0    9.06    0.96
  -2  -8   0    7.32    1.56
  -2   8  -2 4167.65   42.68
   2  -8   2 4121.23   50.34
   2  -8   4  524.25   18.02
  -2   8  -4  489.56   13.36
  -2   8  -4  487.25   12.01
  -2   8  -6  710.81   18.08
  -2   8  -6  731.84   19.60
  -2   8  -8  372.85   14.32
   2   8   8  407.05   22.36
  -2   8  -8  378.17   16.57
   2  -8  10 1710.90   36.09
   2   8  10 1837.20   50.27
   2   8  12   16.80    5.30
   2  -8  12   10.18    2.91
   2  -8  14   84.13    8.62
   2   8  14  110.67   12.93
  -2   9  15   11.81    4.51
  -2  -9  13   31.10    6.99
  -2  -9  11  186.32   14.41
  -2  -9   9    1.67    1.85
  -2  -9   7    3.09    1.98
   2  -9  -7    6.83    3.24
  -2  -9   5  376.77   13.86
   2  -9  -5  358.67   15.64
  -2  -9   3  151.79    7.76
   2   9  -3  159.55    7.72
   2  -9  -1   65.28    2.74
  -2  -9   1   61.68    4.43
   2  -9   1   51.27    3.19
  -2   9  -3  296.26    7.79
  -2   9  -3  306.34   10.44
   2  -9   3  309.39   11.72
   2   9   3  317.03   18.96
  -2   9  -5    4.20    1.22
   2  -9   5    5.66    2.43
  -2   9  -5    2.02    0.88
   2   9   5    3.27    2.82
   2  -9   7    1.51    1.61
  -2   9  -7    3.25    1.28
  -2   9  -7    0.44    0.65
   2   9   7    2.51    3.52
   2  -9   9  333.82   20.29
   2   9   9  283.40   19.25
   2   9  11   78.21   10.29
   2  -9  13   14.69    3.65
   2   9  13   10.55    4.55
  -2 -10  14   96.94   11.79
  -2 -10  12   54.45    8.13
  -2 -10  10   91.77    9.48
   2 -10  -8    3.95    2.48
  -2 -10   8    3.13    1.96
  -2 -10   6  387.62   15.41
   2 -10  -6  351.22   16.62
   2  10  -4   36.58    1.81
  -2 -10   4   38.74    4.23
  -2 -10   2  153.62    7.63
   2 -10   0   11.57    1.40
  -2 -10   0   11.68    1.99
   2 -10   2  241.70    8.82
  -2  10  -4    1.38    0.91
   2 -10   4    2.72    1.85
  -2  10  -4    1.55    0.75
   2  10   4    5.17    4.31
   2 -10   6   64.26    7.19
  -2  10  -6   46.78    4.40
  -2  10  -6   51.75    4.66
   2  10   6   57.73    8.96
  -2  10  -8   54.62    5.92
   2 -10   8   71.04    8.92
   2  10   8   66.65    9.63
   2  10  10  142.83   14.16
   2  10  12   -0.89    2.49
  -2 -11  13  125.34   13.25
  -2 -11  11   82.95    9.91
  -2 -11   9   14.45    3.95
   2 -11  -7   68.16    7.64
  -2 -11   7   71.29    7.26
  -2 -11   5  201.25   10.54
   2  11  -5  162.70    3.88
  -2 -11   3   67.50    5.51
  -2 -11   1   50.13    4.37
   2 -11  -1   49.30    2.92
   2 -11   1  220.71    7.48
  -2 -11  -1  208.20    8.77
  -2  11  -3  214.78    9.39
   2 -11   3  217.50    9.79
  -2  11  -5   43.95    4.28
  -2  11  -5   49.35    4.01
   2 -11   5   53.71    6.14
   2 -11   7   40.16    6.11
  -2  11  -7   42.89    4.54
   2  11   7   44.83    8.73
   2  11   9  119.66   13.20
   2 -11   9  139.95   12.86
   2  11  11   79.58   10.87
   2  11  13   29.75    7.17
  -2 -12  12   46.60    7.95
  -2 -12  10  300.77   17.86
  -2 -12   8  269.73   15.19
   2 -12  -6   60.02    6.69
  -2 -12   6   70.09    6.77
  -2 -12   4  240.65   11.37
   2  12  -4  222.34    5.82
   2 -12  -2  685.96   12.96
  -2 -12   2  667.21   18.03
  -2 -12   0  265.55   10.39
   2 -12   0  268.64    8.05
   2 -12   2   64.67    4.73
   2 -12   4  298.41   13.29
  -2  12  -4  297.85    9.21
   2  12   6  562.80   29.51
   2 -12   6  519.24   21.05
   2 -12   8  181.17   14.01
   2  12   8  155.65   15.73
   2  12  10   90.52   12.17
   2 -12  10  111.46   12.35
   2  12  12  199.74   18.06
  -2 -13  11  252.28   17.90
  -2 -13   9  278.99   16.83
   2 -13  -7   88.47    8.68
  -2 -13   7  107.36    9.22
   2  13  -5  161.58    4.77
  -2 -13   5  165.57   10.14
  -2 -13   3  420.80   15.16
   2 -13  -3  438.74   10.78
   2 -13  -1  292.17    8.62
  -2 -13   1  285.76   11.49
  -2 -13  -1  158.74    8.20
   2 -13   1  146.32    6.78
   2 -13   3  291.76   11.87
   2 -13   5  344.37   15.85
  -2  13  -5  323.80   10.76
   2 -13   7  159.73   12.23
  -2  13  -7  146.20    8.49
   2  13   7  178.45   17.01
   2  13   9  155.64   16.24
   2 -13   9  170.90   14.23
   2  13  11  210.39   19.20
  -2 -14  12  361.00   22.57
  -2 -14  10   42.21    6.88
  -2 -14   8   11.83    3.50
  -2 -14   6  503.93   19.72
   2  14  -4  747.73   13.42
  -2 -14   4  794.89   22.79
   2 -14  -2    7.01    1.42
  -2 -14   2    3.30    1.42
   2 -14   0   20.80    2.50
  -2 -14   0   20.77    3.15
   2 -14   2 1057.19   22.51
  -2 -14  -2 1040.35   23.87
   2 -14   4  326.86   14.29
  -2  14  -6   24.36    3.18
   2 -14   6   30.20    5.04
   2 -14   8  192.18   14.45
   2  14   8  195.86   18.82
   2  14  10  756.92   37.66
   2 -14  10  781.42   32.62
  -2 -15  11  234.19   17.71
  -2 -15   9  281.56   17.56
  -2 -15   7   14.21    3.92
  -2 -15   5 1384.21   33.71
  -2 -15   3   13.93    3.01
   2 -15  -3   15.36    2.12
  -2 -15   1  528.89   17.17
   2 -15  -1  530.79   13.43
   2 -15   1  496.93   14.18
  -2 -15  -1  495.09   16.04
   2 -15   3 1165.39   26.69
  -2 -15  -3 1160.33   26.25
   2 -15   5  170.54   11.34
   2 -15   7  114.77   10.68
   2  15   7  145.84   16.73
   2  15   9  975.40   43.80
   2 -15   9  907.36   34.22
   2 -15  11  265.33   19.75
  -2 -16  10   -1.76    3.09
  -2 -16   8  167.45   13.08
  -2 -16   6   88.86    8.73
   2 -16  -4  204.80    8.40
  -2 -16   4  198.30   11.88
  -2 -16   2  205.20   11.23
   2 -16  -2  216.18    8.51
   2 -16   0   71.69    5.11
  -2 -16   0   75.88    6.58
  -2 -16  -2  318.76   13.28
   2 -16   2  327.01   12.69
   2 -16   4    5.81    1.89
   2  16   6  351.11   26.86
   2 -16   6  274.12   15.77
   2 -16   8   25.48    5.51
   2  16   8   29.59    8.29
   2  16  10  247.29   22.58
  -2 -17   9    0.58    2.21
  -2 -17   7   92.06    9.71
  -2 -17   5   45.54    6.25
  -2 -17   3    2.78    1.60
  -2 -17   1   15.75    3.18
  -2 -17  -1   60.43    5.85
  -2 -17  -3   24.21    3.79
   2  17   5   20.63    7.67
   2  17   7   21.30    7.22
   2  17   9   25.97    8.30
  -2 -18   8   27.17    5.70
  -2 -18   6  295.29   16.99
  -2 -18   4  139.38   10.64
  -2 -18   2    3.22    1.43
  -2 -18   0   79.60    7.19
  -2 -18  -2  303.37   14.06
  -2 -18  -4   71.61    6.99
   2  18   6   15.13    6.70
   2  18   8  137.46   18.41
  -2 -19   7   61.47    8.27
  -2 -19   5   96.33    9.62
  -2 -19   3  161.44   11.44
  -2 -19   1  154.85   10.71
  -2 -19  -1  127.41    9.31
  -2 -19  -3  128.13    9.36
   2  19   5  222.34   24.21
  -2 -19  -5  144.33   10.39
   2  19   7  164.30   20.47
  -2 -20   6   24.27    5.47
  -2 -20   4   76.09    8.64
  -2 -20   2  234.96   14.01
  -2 -20   0   79.32    7.64
  -2 -20  -2   24.00    4.18
  -2 -20  -4  118.57    9.45
   2  20   4  192.35   23.28
   2  20   6  238.46   25.59
  -2 -20  -6  157.64   11.41
  -2 -21   5  126.69   11.60
  -2 -21   3   57.04    7.24
  -2 -21   1    7.65    2.62
  -2 -21  -1   58.10    6.85
  -2 -21  -3  131.71   10.27
  -2 -21  -5   22.35    4.30
   2  21   5   44.79   12.68
  -2 -22   2   77.49    8.53
  -2 -22   0    7.32    2.30
  -2 -22  -2  295.95   15.98
  -3   0  15    0.69    2.06
  -3   0  13    1.67    2.64
  -3   0  13    3.97    2.33
  -3   0  11    0.43    1.59
  -3   0  11    0.70    1.53
  -3   0   9    0.49    2.65
  -3   0   7    3.31    1.78
   3   0  -7    1.46    0.98
  -3   0   5    4.15    1.63
   3   0  -5    1.07    0.90
  -3   0   3   -0.04    0.57
   3   0  -3    4.16    1.09
  -3   0   1    2.80    0.81
  -3   0   1    1.46    0.55
   3   0   1    0.46    0.75
  -3   0  -1    0.99    0.61
   3   0   3    4.07    1.49
  -3   0  -3    2.24    1.25
   3   0   5    4.41    1.86
  -3   0  -5    1.84    1.53
   3   0   7    0.31    1.49
  -3   0  -7    4.20    1.81
   3   0   9    1.31    1.54
   3   0  11    0.10    1.94
   3   0  13    1.34    1.70
   3   0  15    0.53    1.71
  -3  -1  14   41.30    5.58
  -3  -1  14   36.24    7.04
  -3   1  14   37.46    5.65
  -3  -1  12  420.03   16.58
  -3  -1  12  420.08   21.99
  -3   1  12  411.83   18.40
  -3   1  12  467.30   23.75
  -3  -1  10   57.06    7.25
  -3  -1  10   63.78    6.14
  -3   1  10   61.13    7.69
   3   1  -8   12.38    2.82
  -3  -1   8   18.64    3.90
   3  -1  -8   17.46    3.77
  -3   1   8   19.20    4.03
  -3  -1   6  269.44   11.86
   3   1  -6  271.89   11.88
   3  -1  -6  277.91   12.34
  -3   1   6  295.97   12.90
  -3   1   4  688.50   16.37
   3  -1  -4  642.43   15.01
   3   1  -4  654.03   15.36
  -3  -1   4  673.09   15.68
  -3  -1   2    3.23    0.97
  -3   1   2    3.56    0.89
   3   1  -2    4.33    1.06
   3  -1  -2    5.96    1.00
  -3  -1   2    3.84    0.86
  -3   1   0    9.80    1.14
  -3  -1   0   10.36    1.32
   3   1   0    9.34    1.38
  -3   1   0   10.31    1.64
  -3  -1   0    9.63    1.52
   3  -1   2  428.62   11.84
  -3   1  -2  462.88   12.26
   3   1   2  453.40   12.50
  -3  -1  -2  455.50   13.01
   3   1   4  282.82   12.01
   3  -1   4  295.32   11.41
  -3   1  -4  304.94   11.35
  -3  -1  -4  306.07   12.50
   3  -1   6    5.30    1.88
   3   1   6    4.55    2.26
  -3   1  -6    4.75    1.94
  -3  -1  -6    4.57    2.17
   3  -1   8   40.44    5.52
  -3   1  -8   30.82    4.84
   3   1   8   34.79    5.60
   3  -1  10  257.81   15.44
   3   1  10  273.34   16.81
   3   1  12   90.84   10.23
   3  -1  12   82.58    9.27
   3  -1  14    6.87    3.69
   3   1  14    3.45    2.43
   3  -1  16   34.96    6.75
   3   1  16   47.91    8.04
  -3   2  15   76.39    8.63
  -3  -2  13  406.63   16.16
  -3   2  13  384.23   18.96
  -3  -2  13  386.53   21.72
  -3  -2  11   75.81    8.91
  -3  -2  11   73.57    6.28
  -3   2   9   13.53    3.60
  -3  -2   9   14.00    3.45
  -3  -2   9   15.13    2.81
  -3  -2   7  491.38   17.34
  -3   2   7  484.70   18.73
   3   2  -7  475.57   17.38
   3  -2  -7  453.33   18.31
   3   2  -5  776.75   18.80
  -3   2   5  783.77   20.37
  -3  -2   5  787.19   18.85
   3  -2  -3  101.67    4.62
  -3  -2   3   96.46    3.84
   3   2  -3  107.55    5.42
  -3  -2   3  103.68    5.28
  -3   2   3  108.72    5.50
   3   2  -1  255.54    6.70
  -3  -2   1  257.83    7.53
  -3  -2   1  257.42    7.50
  -3   2   1  250.81    5.87
  -3  -2  -1 1231.45   22.39
  -3   2  -1 1208.88   20.68
   3   2   1 1206.55   20.79
   3  -2   3  510.77   13.75
  -3   2  -3  521.57   13.82
   3   2   3  491.18   15.59
  -3  -2  -3  526.51   16.48
   3  -2   5  125.40    7.66
  -3   2  -5  115.51    7.29
  -3  -2  -5  118.34    8.80
   3   2   5  118.64    8.97
   3  -2   7  420.37   16.52
   3   2   7  462.94   20.39
  -3   2  -7  449.01   17.02
  -3  -2  -7  478.10   20.94
  -3   2  -7  444.99   18.10
   3   2   9  427.36   21.14
   3  -2   9  407.98   18.34
   3  -2  11   73.91    8.47
   3   2  11   77.97    9.34
   3  -2  13   80.20    9.34
   3   2  13   89.04   10.29
   3  -2  15  160.75   13.85
   3   2  15  179.16   15.39
  -3   3  16  290.63   17.57
  -3   3  14  761.39   28.70
  -3  -3  14  785.63   32.58
  -3  -3  12    8.49    3.38
  -3  -3  12    6.64    1.96
  -3  -3  10    9.50    2.94
  -3  -3  10    8.29    1.91
  -3  -3   8 2143.90   42.57
  -3  -3   8 2234.08   33.63
   3  -3  -8 2093.43   47.84
  -3  -3   6 1186.51   26.17
  -3   3   6 1212.27   28.87
   3   3  -6 1238.54   26.78
  -3  -3   4  290.91    6.33
  -3  -3   4  304.91   10.31
   3   3  -4  314.03   10.56
   3  -3  -4  285.19    9.59
  -3   3   4  300.83   11.34
   3  -3  -2  461.11    8.51
  -3   3   2  463.30   10.16
  -3  -3   2  472.40   11.40
  -3  -3   2  459.60    9.81
   3   3  -2  469.72   11.45
  -3  -3   0 4948.63   57.63
   3   3   0 4849.55   53.95
  -3   3   0 4865.06   46.99
  -3   3   0 4913.26   56.20
  -3  -3   0 4903.73   53.72
  -3   3  -2  243.80    8.70
   3   3   2  255.65   10.24
  -3  -3  -2  248.18   10.85
  -3   3  -4  229.82   10.13
  -3   3  -4  228.69    9.43
   3   3   4  240.28   12.55
  -3  -3  -4  237.74   12.46
   3  -3   4  226.03    9.52
   3  -3   6 1668.55   32.84
  -3   3  -6 1704.93   32.81
   3   3   6 1703.58   41.14
  -3   3  -6 1652.71   35.70
  -3  -3  -6 1787.94   42.39
  -3   3  -8 2118.38   46.03
   3  -3   8 1979.00   40.47
   3   3   8 2140.14   49.99
   3  -3  10   32.60    5.21
   3   3  10   29.82    6.02
   3  -3  12   14.26    3.98
   3   3  12   10.05    3.56
   3  -3  14 1187.21   37.63
   3   3  14 1273.74   42.11
   3  -3  16  279.44   18.54
  -3   4  17   22.42    4.88
  -3   4  15 1023.28   35.26
  -3  -4  15 1028.55   38.72
  -3  -4  13  158.08   13.86
  -3  -4  11  282.78   10.89
  -3  -4  11  250.29   15.78
  -3  -4   9  735.70   16.28
  -3  -4   9  664.10   23.53
  -3  -4   7 3066.83   36.50
  -3  -4   7 3094.29   50.10
   3   4  -5   41.05    4.17
  -3  -4   5   33.96    1.65
  -3   4   5   45.29    4.95
  -3  -4   5   42.09    4.29
   3  -4  -5   42.36    4.48
   3   4  -3  307.32    9.93
  -3   4   3  285.46    9.71
  -3  -4   3  312.65    9.89
   3  -4  -3  291.75    7.85
  -3  -4   3  291.09    6.98
   3   4  -1 4092.37   43.81
  -3  -4   1 4017.61   46.95
  -3  -4   1 4049.84   49.31
  -3   4   1 4004.81   41.51
   3   4   1 2408.95   35.89
  -3   4  -1 2499.05   34.25
  -3  -4  -1 2382.44   39.22
  -3   4  -3  931.95   19.29
  -3   4  -3  858.56   18.87
   3   4   3  896.91   24.64
  -3  -4  -3  930.17   26.14
   3  -4   3  945.92   19.43
  -3   4  -5   47.64    5.20
  -3   4  -5   56.35    4.90
   3   4   5   46.88    6.41
   3  -4   5   55.09    4.82
  -3  -4  -5   45.10    6.32
   3  -4   7 3950.11   58.78
  -3   4  -7 3951.94   58.72
   3   4   7 4055.90   73.23
  -3   4  -7 4069.30   66.15
   3   4   9  272.98   17.77
   3  -4   9  236.86   13.09
   3   4  11  406.58   22.59
   3  -4  11  356.34   17.82
   3  -4  13  530.54   23.37
   3   4  13  542.50   26.89
   3  -4  15 1079.59   35.84
   3   4  15 1157.56   41.46
  -3   5  16   37.38    6.96
  -3  -5  14  377.67   22.21
  -3   5  14  360.44   21.06
  -3  -5  12   28.92    3.20
  -3  -5  12   22.81    5.04
  -3  -5  10   11.69    3.74
  -3  -5  10   12.14    1.75
   3  -5  -8  582.65   25.18
  -3  -5   8  573.14   20.06
  -3  -5   8  531.38    9.36
   3   5  -6  682.56   19.41
   3  -5  -6  637.78   21.66
  -3  -5   6  654.34   18.99
  -3  -5   4   51.81    4.35
   3   5  -4   48.84    4.29
   3  -5  -4   50.50    4.12
   3  -5  -2   47.91    2.09
  -3  -5   2   50.46    3.86
   3   5  -2   51.48    2.36
  -3  -5   2   49.98    3.56
   3   5   0 1658.51   26.01
  -3  -5   0 1674.96   31.63
  -3  -5   0 1693.06   25.29
  -3   5  -2  207.33    8.30
   3   5   2  221.41   11.34
  -3   5  -2  207.68    6.64
  -3  -5  -2  226.70   12.57
  -3   5  -4   74.08    5.23
   3  -5   4   66.13    5.11
   3   5   4   58.15    7.19
  -3   5  -4   72.02    5.55
   3  -5   6  485.13   15.81
   3   5   6  481.55   22.82
  -3   5  -6  529.32   19.14
  -3   5  -6  494.63   15.79
   3   5   8  742.17   29.92
  -3   5  -8  765.75   26.57
   3  -5   8  741.10   22.32
   3  -5  10   20.11    3.95
   3   5  10   17.52    5.08
   3  -5  12    7.40    2.72
   3   5  12   10.85    4.36
   3  -5  14  407.68   20.93
   3   5  14  445.49   25.18
   3  -5  16  101.79   10.97
  -3  -6  15    9.20    3.88
  -3   6  15    8.98    3.63
  -3  -6  13  159.84   13.96
  -3  -6  11   48.07    6.98
  -3  -6  11   55.17    3.26
  -3  -6   9  105.19    8.94
   3  -6  -7    4.54    2.55
  -3  -6   7    5.29    2.11
   3   6  -5  458.04   14.85
   3  -6  -5  410.64   15.72
  -3  -6   5  439.14   14.49
   3   6  -3   28.73    3.19
  -3  -6   3   25.05    3.01
   3  -6  -3   23.90    2.24
   3   6  -1   90.75    4.50
  -3  -6   1  102.93    5.46
  -3   6  -1  120.63    6.47
   3   6   1  122.94    7.98
  -3   6  -3  343.99    9.51
  -3   6  -3  341.63   11.36
   3   6   3  331.87   17.04
  -3   6  -5    2.60    1.38
  -3   6  -5    0.28    0.64
   3   6   5    3.96    2.52
   3  -6   7    3.52    0.94
  -3   6  -7    4.27    1.87
   3   6   7    5.59    2.54
   3  -6   9   73.34    7.01
   3   6   9   83.86   10.00
   3  -6  11   57.41    7.07
   3   6  11   67.52    9.52
   3  -6  13    2.43    1.96
   3   6  13    3.01    2.72
   3  -6  15   -0.78    1.67
  -3   7  16   87.08   11.27
  -3  -7  14   24.92    5.94
  -3  -7  12   32.02    6.19
  -3  -7  10    6.09    2.46
  -3  -7   8  206.14   12.13
   3  -7  -8  212.05   15.66
   3  -7  -6    9.27    2.80
  -3  -7   6   10.86    2.57
   3   7  -4   29.21    3.51
  -3  -7   4   30.27    3.52
   3  -7  -4   40.24    4.08
   3   7  -2  134.80    4.49
  -3  -7   2  143.29    7.03
  -3  -7   0  277.56    9.55
   3   7   0  291.18   11.62
  -3   7  -2    2.48    1.17
  -3   7  -2    2.06    0.43
   3   7   2    4.94    2.35
  -3   7  -4    1.29    0.99
   3   7   4    0.52    2.37
  -3   7  -4    3.07    1.26
  -3   7  -6  169.19    9.65
  -3   7  -6  159.91    8.72
   3   7   6  178.40   14.79
   3   7   8   73.86    9.71
   3  -7   8   63.96    6.28
  -3   7  -8   67.17    7.27
   3  -7  10    4.93    2.04
   3   7  10   -0.75    4.03
   3  -7  12    8.75    2.98
   3   7  12   12.04    4.92
   3  -7  14   43.26    6.71
   3   7  14   47.97    8.67
   3  -7  16    6.71    3.03
  -3   8  15    8.60    3.89
  -3  -8  13  132.00   12.93
  -3  -8  11  168.88   13.32
  -3  -8   9   16.52    3.61
   3  -8  -7   76.30    9.19
  -3  -8   7   70.94    6.76
   3  -8  -5  419.25   17.61
  -3  -8   5  443.91   15.07
   3   8  -3  215.97    4.08
  -3  -8   3  237.82    9.85
   3  -8  -3  219.95    8.10
   3   8  -1   22.98    2.84
  -3  -8   1   22.41    2.80
   3   8   1  171.68   11.70
  -3   8  -3  421.37    8.51
   3   8   3  414.76   21.43
  -3   8  -3  446.11   13.65
  -3   8  -5  110.29    6.97
   3   8   5  110.77   11.74
  -3   8  -5  107.25    6.29
  -3   8  -7   40.54    5.02
   3   8   7   45.73    8.09
   3   8   9  199.52   16.82
   3  -8   9  196.26   11.48
   3   8  11  209.12   17.29
   3  -8  11  185.10   12.31
   3  -8  13   42.34    6.28
   3   8  13   52.85    9.25
   3  -8  15   35.87    6.22
  -3  -9  14  144.13   14.13
  -3  -9  12  387.40   21.35
  -3  -9  10  106.69    9.96
  -3  -9   8   53.93    6.37
   3  -9  -8   55.87    8.43
   3  -9  -6  515.92   22.88
  -3  -9   6  548.38   18.25
  -3  -9   4  627.44   17.80
   3  -9  -4  592.77   19.36
   3  -9  -2   77.84    2.20
   3  -9  -2   72.12    3.14
  -3  -9   2   90.73    5.92
   3   9  -2   94.19    4.88
  -3  -9   0  192.62    8.38
   3   9   0  213.52   12.35
  -3   9  -2  847.14   20.11
   3   9   2  733.11   29.10
   3   9   4  375.34   22.21
  -3   9  -4  414.29   13.79
  -3   9  -4  403.13    9.82
   3   9   6   93.58   11.23
  -3   9  -6   92.30    6.34
   3   9   8  252.20   18.91
  -3   9  -8  249.23   13.04
   3   9  10  403.00   24.55
   3   9  12  144.70   14.93
   3  -9  14   77.93    8.83
  -3 -10  13  232.00   17.57
  -3 -10  11    9.21    2.87
  -3 -10   9  161.82   11.92
   3 -10  -7  949.60   34.07
  -3 -10   7  921.57   26.50
  -3 -10   5  218.00   11.02
   3 -10  -5  197.78   13.10
  -3 -10   3   17.52    2.93
   3  10  -3   16.12    1.52
   3 -10  -3   13.95    2.43
  -3 -10   1  822.51   19.46
   3  10  -1  908.40   24.48
   3  10   1 1013.49   34.17
  -3 -10  -1 1062.78   22.04
   3  10   3   20.16    5.17
  -3  10  -3   25.33    1.86
   3  10   5   86.36   11.37
  -3  10  -5   84.51    4.96
   3  10   7 1119.35   41.23
  -3  10  -7  992.80   24.13
   3  10   9  412.65   25.26
   3  10  11    8.75    2.88
   3  10  13  199.47   18.29
  -3 -11  12   46.40    7.60
  -3 -11  10   16.74    3.89
   3 -11  -8 1606.27   47.46
  -3 -11   8 1459.99   36.50
  -3 -11   6  507.51   18.42
   3 -11  -6  516.62   23.72
  -3 -11   4  483.89   16.58
   3 -11  -4  492.90   19.11
   3 -11  -2  155.52    3.96
  -3 -11   2  163.78    8.64
   3  11  -2  158.94    8.60
  -3 -11   0 2620.33   40.32
   3  11   0 2687.25   57.20
   3 -11   2   29.31    3.57
   3  11   2   28.36    6.54
  -3  11  -4  375.37    9.07
   3  11   4  381.86   24.39
  -3  11  -6  924.60   19.94
   3  11   6 1017.88   40.21
  -3  11  -8 1102.89   27.28
   3  11   8 1387.02   47.15
   3  11  10  113.84   13.64
   3  11  12    8.44    4.00
  -3 -12  11  164.47   13.81
  -3 -12   9   84.69    9.00
   3 -12  -7  879.40   33.21
  -3 -12   7  824.76   25.87
  -3 -12   5   25.43    4.00
   3 -12  -5   29.04    5.17
   3 -12  -3  171.67    9.89
   3  12  -3  171.08    7.31
  -3 -12   3  170.77    9.44
   3 -12  -3  180.86    5.24
  -3 -12   1  953.34   22.14
   3  12  -1 1009.63   30.88
  -3 -12  -1  594.45   17.01
   3 -12   1  549.96   13.25
   3  12   1  563.72   28.94
   3  12   3  366.85   24.83
   3 -12   3  415.79   16.10
  -3  12  -5    5.29    1.33
   3 -12   5    8.66    3.05
   3  12   5    8.69    5.56
  -3  12  -7 1080.67   24.02
   3  12   7 1336.87   47.67
   3  12   9   48.29    9.07
   3  12  11  252.26   21.02
  -3 -13  12   11.25    3.90
  -3 -13  10   58.46    7.93
  -3 -13   8   10.43    3.33
  -3 -13   6   66.14    6.86
  -3 -13   4   11.18    2.62
   3 -13  -4    9.39    2.80
   3  13  -4    6.02    0.86
  -3 -13   2  105.40    7.50
   3 -13  -2   98.96    3.78
   3  13  -2  109.08    8.71
   3 -13  -2  105.42    6.71
   3 -13   0    4.74    0.98
  -3 -13   0    5.90    1.82
   3  13   0    7.16    4.22
  -3 -13  -2   18.54    3.01
   3  13   2   11.36    4.68
   3 -13   4   37.47    5.28
   3  13   4   37.24    8.81
   3  13   6   23.20    7.00
   3  13   8    0.57    3.57
   3  13  10    5.82    3.64
  -3 -14  11   -0.52    2.52
  -3 -14   9  231.61   15.42
  -3 -14   7  135.48   10.77
  -3 -14   5   29.54    4.60
  -3 -14   3   18.67    3.31
   3 -14  -3   17.30    1.77
   3  14  -3   16.00    2.88
  -3 -14   1  344.63   13.72
   3 -14  -1  312.00    7.66
  -3 -14  -1   68.53    5.92
   3 -14   1   63.43    4.50
   3  14   1   76.62   11.80
  -3 -14  -3    6.17    1.98
   3 -14   3    8.33    2.44
   3  14   3    4.63    3.96
   3  14   5   98.50   14.02
   3 -14   5   94.63    9.13
   3  14   7  226.49   20.88
   3  14   9   10.39    4.93
   3  14  11    2.37    2.96
  -3 -15  10   73.18    9.38
  -3 -15   8  137.45   11.58
  -3 -15   6  142.27   10.84
  -3 -15   4   96.23    8.18
  -3 -15   2  135.92    9.03
   3  15  -2  167.14   12.84
  -3 -15   0  168.32    9.84
   3  15   0  176.98   17.55
  -3 -15  -2  107.48    7.77
   3  15   2  106.06   15.04
   3  15   4  130.70   17.01
   3  15   6  172.05   19.03
   3  15   8  162.52   18.04
   3  15  10   85.55   12.91
  -3 -16   9   26.11    5.43
  -3 -16   7  104.13    9.92
  -3 -16   5  425.31   18.70
  -3 -16   3  193.46   11.60
  -3 -16   1   43.42    5.27
   3  16  -1   42.28    8.32
   3  16   1  219.95   21.47
  -3 -16  -1  215.99   11.45
  -3 -16  -3  447.45   17.00
   3  16   3  503.80   34.27
   3  16   5  147.66   18.75
   3  16   7   70.26   12.93
   3  16   9  246.13   23.00
  -3 -17   8   64.22    8.51
  -3 -17   6  184.06   13.18
  -3 -17   4  106.14    9.15
  -3 -17   2   51.35    5.99
  -3 -17   0  202.62   11.51
   3  17   0  222.60   21.37
  -3 -17  -2  209.32   11.68
   3  17   2  225.24   23.55
   3  17   4   75.42   14.09
  -3 -17  -4   53.47    6.04
   3  17   6  117.86   16.87
   3  17   8  246.01   23.92
  -3 -18   7  447.04   21.96
  -3 -18   5    1.80    1.57
  -3 -18   3   42.23    5.80
  -3 -18   1  381.88   16.96
  -3 -18  -1  310.24   14.81
   3  18   1  391.00   30.96
  -3 -18  -3   66.68    6.82
   3  18   3   98.95   16.05
  -3 -18  -5    2.94    1.82
   3  18   5    5.27    5.51
   3  18   7  641.04   40.49
  -3 -19   6   47.59    7.17
  -3 -19   4  310.87   16.95
  -3 -19   2    1.71    1.64
  -3 -19   0  503.89   19.81
  -3 -19  -2   19.08    3.99
   3  19   2   17.66    8.34
  -3 -19  -4  256.12   14.24
   3  19   4  389.13   33.47
   3  19   6  225.83   24.91
  -3 -19  -6  152.22   11.52
  -3 -20   3  110.44   10.13
  -3 -20   1    9.20    2.78
  -3 -20  -1   16.44    3.61
  -3 -20  -3  103.97    9.12
   3  20   5   36.22   10.71
  -3 -21   0   92.77    9.13
  -4   0  14  107.81   12.12
  -4   0  14   94.41    8.40
  -4   0  12  123.51   11.77
  -4   0  10 2111.86   47.55
  -4   0   8  133.40    9.89
  -4   0   6  414.88   14.91
   4   0  -6  409.23   14.37
   4   0  -4 1786.89   28.58
  -4   0   4 1826.38   29.51
  -4   0   2 4030.97   48.39
  -4   0   2 3955.41   46.55
  -4   0   0  128.91    5.13
  -4   0   0  149.06    6.88
   4   0   2   11.06    1.99
  -4   0  -2   16.84    2.59
  -4   0  -4 5109.60   67.84
   4   0   4 4989.68   66.61
   4   0   6 1619.96   35.93
   4   0   8  495.84   21.52
   4   0  10  168.03   13.44
   4   0  12 2121.04   53.94
   4   0  14   61.74    8.98
  -4  -1  15   95.94   11.60
  -4   1  13   12.63    4.36
  -4  -1  13    5.71    2.62
  -4  -1  13   14.71    3.12
  -4   1  13    9.26    2.84
  -4  -1  11  408.19   20.38
  -4   1  11  413.31   20.89
  -4   1   9  987.49   29.97
  -4  -1   9  961.36   28.94
   4   1  -7    7.35    2.32
   4  -1  -7    5.12    1.78
  -4   1   7    4.61    2.09
  -4  -1   7    7.38    2.06
  -4   1   5    9.38    2.07
  -4  -1   5    9.25    2.17
   4   1  -5   12.09    2.28
   4  -1  -5    8.91    1.88
   4   1  -3 2242.10   31.81
   4  -1  -3 2219.66   30.28
  -4  -1   3 2191.20   31.96
  -4   1   3 2241.59   31.42
  -4  -1   3 2207.52   30.45
  -4   1   1 1076.98   20.19
  -4  -1   1 1057.05   18.18
  -4  -1   1 1070.14   19.77
  -4   1   1 1059.36   16.90
   4   1   1  254.25    9.20
  -4   1  -1  278.27   10.04
  -4  -1  -1  270.29   10.20
   4  -1   1  257.03    9.41
   4  -1   3  151.25    8.06
   4   1   3  133.56    7.84
  -4   1  -3  152.86    8.25
  -4  -1  -3  143.87    8.50
   4  -1   5 1858.99   36.33
   4   1   5 1839.23   37.55
  -4   1  -5 1917.96   36.43
  -4  -1  -5 1842.83   38.22
   4  -1   7  113.57    9.13
   4   1   7   86.03    8.45
   4  -1   9   23.43    4.70
   4   1   9   28.39    5.64
   4  -1  11  710.30   28.25
   4   1  11  672.88   28.58
   4  -1  13  588.24   27.11
   4   1  13  600.85   28.15
   4  -1  15   10.98    4.08
   4   1  15    1.17    2.93
  -4   2  14  139.88   11.64
  -4  -2  14  147.00   13.78
  -4  -2  12    9.72    3.44
  -4   2  12   14.76    4.70
  -4  -2  12    8.98    2.27
  -4   2  10   60.12    7.96
  -4  -2  10   51.84    6.83
  -4  -2   8  651.14   21.74
  -4   2   8  693.08   23.68
   4  -2  -8  635.77   22.40
  -4  -2   6  113.25    7.58
   4   2  -6  117.31    7.73
   4  -2  -6  110.56    7.26
  -4   2   6  109.21    7.86
  -4   2   4   32.10    3.43
   4   2  -4   32.83    3.39
   4  -2  -4   34.20    3.11
  -4  -2   4   30.67    3.48
  -4  -2   4   31.59    2.70
  -4  -2   2  276.83    8.74
  -4  -2   2  262.45    8.80
  -4   2   2  260.91    7.66
  -4   2   2  276.13    9.70
  -4  -2   0  675.70   14.08
   4   2   0  659.88   14.49
  -4   2   0  673.58   11.55
  -4   2   0  683.28   16.12
  -4  -2   0  689.49   16.36
   4  -2   2   44.24    4.07
   4   2   2   48.80    4.46
  -4   2  -2   45.92    4.20
  -4  -2  -2   50.58    4.85
   4  -2   4   58.51    5.25
  -4   2  -4   53.17    5.07
   4   2   4   53.41    5.64
  -4  -2  -4   56.34    6.12
   4  -2   6  372.51   15.37
   4   2   6  357.90   17.13
   4  -2   8  120.61    9.74
   4   2   8  132.25   11.59
   4  -2  10    5.48    2.21
   4   2  10   10.59    4.02
   4  -2  12  109.11   11.24
   4   2  12   94.71   11.09
   4  -2  14  129.02   12.80
   4   2  14  119.69   12.77
  -4   3  15   81.33    9.22
  -4  -3  15   98.23   11.59
  -4  -3  13    9.50    3.53
  -4  -3  11  118.06    7.19
  -4  -3  11  111.12   10.65
  -4   3   9   -0.01    2.10
  -4  -3   9    1.06    1.24
  -4   3   7  221.60   12.70
  -4  -3   7  225.31   11.60
   4  -3  -7  215.94   11.59
   4  -3  -5    2.12    1.14
  -4   3   5    2.00    1.38
  -4  -3   5    4.25    1.00
   4   3  -5    0.77    0.84
  -4  -3   5    2.69    1.39
  -4   3   3   86.28    5.07
  -4  -3   3   94.79    4.77
  -4  -3   3   93.22    5.58
   4  -3  -3   90.53    4.23
   4   3  -3   92.79    5.67
  -4   3   1  157.21    7.54
   4   3  -1  149.01    5.92
  -4  -3   1  156.60    6.72
  -4  -3   1  163.90    7.35
  -4   3   1  162.73    5.04
   4   3   1  221.35    8.80
  -4  -3  -1  233.82   10.41
  -4   3  -1  229.30    9.28
   4  -3   3   51.73    4.68
  -4   3  -3   51.32    4.56
   4   3   3   51.73    5.32
  -4  -3  -3   52.42    5.66
   4  -3   5   13.97    2.77
   4   3   5   20.89    4.17
  -4   3  -5   19.14    3.16
  -4  -3  -5   17.16    3.70
   4   3   7  137.26   11.73
  -4   3  -7  128.33    9.57
   4  -3   7  153.69   10.19
   4  -3   9   44.67    6.20
   4   3   9   50.49    7.84
   4  -3  11   16.14    4.34
   4   3  11   13.24    4.37
   4  -3  13    3.20    2.41
   4   3  13   -0.10    2.16
   4  -3  15   18.54    4.97
  -4   4  16   22.30    5.43
  -4  -4  14   38.80    7.13
  -4  -4  12    5.18    1.71
  -4  -4  10   17.76    4.16
  -4  -4  10   12.17    1.99
  -4  -4   8   84.24    7.64
  -4  -4   8   78.91    4.49
   4  -4  -8   74.67    7.64
  -4   4   8   90.86    8.71
  -4  -4   6   79.67    3.55
  -4   4   6   89.67    7.63
   4  -4  -6   71.62    5.87
  -4  -4   6   79.56    6.53
   4   4  -4   25.96    3.26
   4  -4  -4   22.69    2.51
  -4  -4   4   25.18    2.23
  -4  -4   4   25.60    3.10
  -4   4   4   23.86    3.24
  -4  -4   2   87.72    5.32
  -4   4   2   89.15    4.38
  -4  -4   2   84.05    5.07
  -4  -4   0  213.11    7.96
  -4   4   0  199.38    8.78
   4   4   0  212.53    7.90
  -4   4   0  196.08    4.67
  -4  -4   0  219.62   10.01
  -4   4  -2   68.91    5.25
   4   4   2   77.59    5.97
  -4  -4  -2   71.07    6.52
   4  -4   4   14.66    2.70
  -4   4  -4   14.42    2.47
   4   4   4   23.44    4.83
  -4   4  -4   11.96    2.50
  -4  -4  -4   13.92    3.57
   4  -4   6   65.90    6.21
   4   4   6   65.73    7.94
  -4   4  -6   62.96    6.33
  -4   4  -8  108.21    9.45
   4  -4   8  104.36    8.77
   4   4   8  121.75   11.94
   4  -4  10   34.00    5.61
   4   4  10   31.38    6.47
   4  -4  12   13.55    4.24
   4   4  12    9.39    4.14
   4  -4  14   24.75    5.58
   4   4  14   27.36    6.11
  -4   5  15  325.50   20.35
  -4  -5  13   97.77   10.77
  -4  -5  11   12.06    3.45
  -4  -5   9  146.74    3.85
  -4  -5   9  130.84    4.08
   4  -5  -7  683.07   21.70
  -4  -5   7  754.43   22.03
  -4  -5   5   38.38    2.26
   4  -5  -5   39.36    3.68
  -4  -5   5   41.98    4.34
  -4   5   5   42.06    4.75
  -4  -5   3    4.35    1.43
   4   5  -3    6.41    1.70
  -4   5   3    8.43    1.75
  -4  -5   3    6.41    1.45
  -4  -5   1  670.88   15.65
   4   5  -1  698.45   13.75
  -4  -5   1  659.19   17.62
  -4   5   1  638.31   10.60
  -4   5  -1  659.21    8.79
  -4   5  -1  692.34   17.50
   4   5   1  676.59   17.32
  -4  -5  -1  693.25   21.12
  -4   5  -1  640.55   11.41
  -4   5  -3   19.29    2.89
  -4   5  -3   18.39    2.63
  -4  -5  -3   19.04    3.99
  -4   5  -5  108.45    7.72
   4  -5   5  101.59    7.39
   4   5   5   95.82    9.50
  -4  -5  -5  116.06   10.87
   4  -5   7  536.86   19.04
   4   5   7  511.05   24.56
  -4   5  -7  567.03   21.28
   4   5   9  169.47   14.80
   4  -5   9  160.36   11.23
   4  -5  11   16.58    3.90
   4   5  11   23.69    5.44
   4  -5  13  115.09   11.32
   4   5  13  128.32   13.88
   4  -5  15  134.11   13.00
  -4   6  16  223.85   17.65
  -4  -6  14   62.92    9.15
  -4  -6  12   28.65    5.97
  -4  -6  10  439.11   20.00
  -4  -6   8  578.03   20.47
   4  -6  -8  492.44   21.09
   4  -6  -6   50.89    5.05
  -4  -6   6   52.63    5.33
   4  -6  -4  212.09    6.97
  -4  -6   4  219.89    9.88
  -4  -6   2 1322.76   24.66
   4   6  -2 1341.59   18.66
  -4  -6   2 1301.32   25.21
  -4  -6   0  428.67   12.49
  -4   6   0  456.64   14.49
   4   6   0  435.46   12.49
  -4  -6   0  453.20   16.94
  -4   6  -2   48.82    4.55
  -4   6  -2   47.00    2.71
   4   6   2   48.85    5.34
  -4  -6  -2   43.71    6.17
   4   6   4  658.57   24.85
  -4   6  -4  699.86   18.14
   4   6   6  827.38   31.80
  -4   6  -6  905.66   25.53
   4  -6   6  865.02   23.43
   4  -6   8   78.41    7.44
   4   6   8   84.89   10.54
  -4   6  -8   86.98    8.63
   4  -6  10   99.06    9.34
   4   6  10   93.69   11.36
   4  -6  12  490.48   22.46
   4   6  12  578.72   29.55
   4  -6  14  172.26   14.17
   4   6  14  221.56   18.53
  -4  -7  13   33.63    6.26
  -4  -7  11  641.96   26.11
  -4  -7   9 1008.52   29.84
   4  -7  -7   72.85    7.20
  -4  -7   7   77.77    7.12
  -4  -7   5   12.48    2.48
   4  -7  -5   12.19    1.98
   4  -7  -3 2648.91   28.44
  -4  -7   3 2790.82   41.06
  -4  -7   1  697.11   16.99
   4   7  -1  707.41   14.64
  -4   7  -1  448.92   14.74
   4   7   1  443.46   15.25
  -4  -7  -1  429.49   12.91
   4   7   3  421.61   19.01
  -4   7  -3  455.05    9.99
   4   7   5 2383.00   57.03
  -4   7  -5 2714.60   42.24
  -4   7  -7   20.34    3.79
   4   7   7   23.25    5.62
   4  -7   9  107.08    9.20
   4   7   9  133.92   13.87
   4  -7  11  875.72   29.40
   4   7  11 1005.49   39.41
   4  -7  13  670.11   27.38
   4   7  13  808.15   35.96
   4  -7  15   24.94    5.46
  -4  -8  12   29.95    5.95
  -4  -8  10 1095.79   32.87
   4  -8  -8   65.36    7.85
  -4  -8   8   75.20    7.58
  -4  -8   6  330.48   14.09
   4  -8  -6  279.89   12.35
  -4  -8   4  682.44   18.85
   4  -8  -4  625.90   12.01
  -4  -8   2 1942.01   33.19
   4   8  -2 1973.12   25.18
  -4  -8   0   99.27    6.18
   4   8   0  119.46    7.00
   4   8   2   77.75    7.68
   4   8   4 1968.35   50.53
  -4   8  -4 2207.88   29.59
   4   8   6  715.03   31.68
  -4   8  -6  768.48   20.58
  -4   8  -8  349.30   16.45
   4   8   8  316.69   21.97
   4  -8  10   58.12    7.12
   4   8  10   66.28   10.20
   4  -8  12 1054.23   33.62
   4   8  12 1205.70   44.65
   4  -8  14   15.46    3.98
  -4  -9  13   17.15    4.99
  -4  -9  11   -0.55    2.20
  -4  -9   9  260.21   14.94
   4  -9  -7   15.28    3.59
  -4  -9   7   21.89    4.16
  -4  -9   5   32.83    4.28
   4  -9  -5   26.69    2.98
  -4  -9   3  194.01    9.59
   4   9  -3  180.34    4.21
  -4  -9   1  264.95   10.77
   4   9  -1  262.84    9.34
   4   9   1   33.53    4.71
  -4  -9  -1   37.95    3.90
  -4   9  -3    3.18    0.53
   4   9   3    3.86    2.34
   4   9   5  246.46   18.41
  -4   9  -5  283.61    9.48
  -4   9  -7   29.00    4.16
   4   9   7   24.22    5.83
   4   9   9    8.23    4.74
   4   9  11  125.75   14.38
   4   9  13  109.10   13.77
  -4 -10  12  102.34   11.08
  -4 -10  10   75.00    8.59
  -4 -10   8  123.83    9.90
   4 -10  -6    5.14    1.88
  -4 -10   6   10.07    2.61
  -4 -10   4  381.45   14.52
   4 -10  -4  333.36    7.67
  -4 -10   2   34.73    4.15
   4  10  -2   37.29    2.83
  -4 -10   0  162.03    8.52
   4  10   0  156.47    9.27
   4  10   2   14.08    3.97
  -4  10  -4  183.03    5.30
   4  10   4  171.41   15.58
  -4  10  -6    2.76    0.78
   4  10   6   -4.87    5.41
   4  10   8   14.11    4.57
   4  10  10   70.95   11.14
   4  10  12   67.10   10.96
  -4 -11  11  123.93   11.63
  -4 -11   9   87.12    8.95
  -4 -11   7   11.95    3.21
  -4 -11   5   57.43    5.94
   4 -11  -5   45.86    3.95
   4  11  -3  167.16    4.45
  -4 -11   3  175.03    9.65
  -4 -11   1   62.98    5.55
   4  11  -1   68.94    5.34
  -4 -11  -1   30.69    3.77
   4  11   1   33.17    5.43
   4  11   3  139.79   13.88
  -4  11  -5  163.48    5.99
   4  11   5  132.26   14.69
   4  11   7   40.39    7.88
   4  11   9   28.61    7.05
   4  11  11   85.79   12.53
  -4 -12  10   41.16    6.68
  -4 -12   8  351.25   17.58
  -4 -12   6  298.69   14.74
   4 -12  -4   37.12    1.68
  -4 -12   4   40.20    5.06
   4 -12  -4   31.24    1.84
  -4 -12   2  178.10    9.89
   4  12  -2  172.37    7.06
  -4 -12   0  533.98   16.89
   4  12   0  564.38   20.53
   4  12   2  185.44   15.48
  -4 -12  -2  190.44    9.99
   4  12   4   37.50    7.72
   4  12   6  219.68   20.03
   4  12   8  385.85   26.96
   4  12  10   86.97   12.59
  -4 -13  11   30.26    5.90
  -4 -13   9  288.69   17.05
  -4 -13   7  354.97   17.33
  -4 -13   5   48.84    5.89
   4  13  -3   89.69    3.66
  -4 -13   3   96.25    7.52
  -4 -13   1  456.93   16.40
   4  13  -1  454.63   16.03
  -4 -13  -1  231.15   11.30
   4  13   1  275.73   17.67
   4  13   3   58.82    9.65
  -4 -13  -3   57.58    5.65
   4  13   5  210.55   20.07
   4  13   7  374.54   27.39
   4  13   9   95.84   13.83
   4  13  11   82.63   12.64
  -4 -14  10  369.52   20.73
  -4 -14   8  122.44   10.79
  -4 -14   6   16.02    3.73
  -4 -14   4  226.47   12.65
  -4 -14   2  815.78   23.34
   4  14  -2  778.39   18.04
  -4 -14   0   32.02    4.30
   4  14   0   30.29    5.34
  -4 -14  -2    6.43    2.18
   4  14   2    7.62    3.89
   4  14   4  482.79   30.96
   4  14   6  478.98   31.88
   4  14   8    9.69    4.35
   4  14  10   42.74    9.61
  -4 -15   9  369.49   20.30
  -4 -15   7  150.94   11.72
  -4 -15   5    6.78    2.53
  -4 -15   3  987.74   27.23
  -4 -15   1  113.68    8.49
   4  15  -1  122.65    9.19
  -4 -15  -1  353.31   15.01
   4  15   1  377.33   23.00
  -4 -15  -3  138.21    9.48
   4  15   3   93.69   13.69
   4  15   5  863.40   44.14
   4  15   7   12.61    5.93
   4  15   9  173.60   19.62
  -4 -16   8    9.40    3.51
  -4 -16   6  158.70   11.93
  -4 -16   4   20.22    4.03
  -4 -16   2  210.63   12.24
  -4 -16   0   71.99    6.96
   4  16   0   71.21    8.98
  -4 -16  -2  124.46    9.19
   4  16   2  121.87   14.91
   4  16   4  106.98   15.60
  -4 -16  -4  163.39   10.97
   4  16   6   53.97   11.25
   4  16   8  207.00   22.25
  -4 -17   7    3.83    1.95
  -4 -17   5  108.76    9.80
  -4 -17   3   58.06    6.94
  -4 -17   1    6.55    2.20
  -4 -17  -1    7.19    2.33
  -4 -17  -3   75.76    7.42
   4  17   3   73.06   12.57
  -4 -17  -5   12.13    3.15
   4  17   5   16.69    5.13
   4  17   7   -4.58    5.45
  -4 -18   4  261.57   15.37
  -4 -18   2  125.52   10.01
  -4 -18   0    1.64    1.29
  -4 -18  -2   64.18    6.94
  -4 -18  -4  228.77   13.85
   4  18   4  198.00   22.43
   4  18   6   59.61   13.18
  -4 -19   3   92.13    9.01
  -4 -19   1  137.72   10.81
  -4 -19  -1  129.75   10.28
  -4 -19  -3   78.56    8.31
   4  19   5   95.32   15.90
  -5   0  15   -3.12    2.81
  -5   0  13    1.11    1.65
  -5   0  11    0.11    1.55
  -5   0   9    4.64    2.33
  -5   0   7    0.07    1.30
  -5   0   5    0.60    0.88
   5   0  -5    1.66    0.74
  -5   0   5    1.51    0.93
  -5   0   3    1.37    0.96
  -5   0   3    2.30    1.29
  -5   0   1    0.15    0.81
  -5   0   1    1.19    0.90
  -5   0  -1    0.98    0.59
   5   0   1    0.95    0.73
  -5   0  -1    2.70    1.43
   5   0   3    1.54    0.91
  -5   0  -3    5.56    1.86
   5   0   5    2.56    1.70
   5   0   7    0.34    2.10
   5   0   9    0.94    1.40
   5   0  11    0.31    2.53
   5   0  13    1.21    1.91
  -5  -1  14   16.89    4.97
  -5   1  14   13.42    4.78
  -5  -1  12   13.50    4.36
  -5   1  12   20.61    4.87
  -5   1  10  461.47   21.11
  -5  -1  10  434.57   20.32
  -5  -1   8   70.69    7.12
  -5   1   8   77.37    7.90
  -5  -1   6   41.60    4.74
   5   1  -6   41.77    4.59
   5  -1  -6   44.46    4.53
  -5   1   6   40.59    4.77
   5   1  -4  222.84    9.38
  -5   1   4  211.64    9.37
   5  -1  -4  217.75    8.59
  -5  -1   4  213.92    8.70
  -5  -1   4  215.18    9.37
  -5   1   4  210.95    9.23
  -5  -1   2  624.17   16.14
  -5   1   2  607.82   16.36
  -5  -1   2  603.81   14.66
  -5   1   2  601.80   13.86
  -5  -1   0    2.00    0.84
  -5   1   0    3.52    1.47
  -5  -1   0    3.75    1.14
   5  -1   2   10.92    2.30
   5   1   2    9.86    2.19
  -5   1  -2   15.18    2.79
  -5  -1  -2    9.38    2.23
   5   1   4  315.30   13.95
   5  -1   4  308.95   13.22
   5   1   6  173.06   11.75
   5  -1   6  171.01   11.26
   5  -1   8    2.51    1.77
   5   1   8    3.35    2.14
   5  -1  10   23.22    5.16
   5   1  10   25.10    5.38
   5  -1  12  146.24   13.64
   5   1  12  168.30   15.05
   5  -1  14   26.73    6.46
   5   1  14   38.21    7.42
  -5   2  13   48.70    8.23
  -5  -2  13   32.73    6.13
  -5   2  11  443.86   22.24
  -5  -2  11  422.14   20.93
  -5   2   9  130.10   10.69
  -5  -2   9  118.73    9.88
  -5   2   7   11.09    3.11
  -5  -2   7   10.07    1.82
  -5  -2   7    6.88    1.91
   5  -2  -7   10.20    2.46
   5   2  -5  381.61   13.49
   5  -2  -5  373.89   12.08
  -5  -2   5  376.06   11.28
  -5   2   5  361.02   13.45
  -5  -2   5  375.52   13.64
  -5   2   3  912.73   21.21
  -5  -2   3  918.33   19.41
  -5  -2   3  910.74   19.86
  -5   2   3  920.24   18.71
  -5   2   1   65.47    5.33
  -5  -2   1   63.82    4.54
  -5  -2   1   64.26    5.13
  -5   2   1   61.69    3.70
  -5  -2  -1   75.13    6.24
   5   2   1   68.07    5.22
  -5  -2  -1   70.63    4.65
  -5   2  -1   67.71    3.82
   5   2   3  899.79   23.35
  -5  -2  -3  914.53   25.30
   5  -2   3  885.86   22.26
   5  -2   5  395.40   16.04
   5   2   5  391.19   17.09
   5  -2   7   19.35    4.05
   5   2   7   16.87    4.29
   5  -2   9  211.27   14.55
   5   2   9  223.37   16.30
   5  -2  11  356.31   20.33
   5   2  11  387.45   23.19
   5  -2  13   42.12    7.43
   5   2  13   44.33    8.04
  -5  -3  14  165.27   14.64
  -5  -3  12  750.89   29.39
  -5  -3  10   46.20    6.54
  -5   3  10   49.34    7.18
  -5  -3   8   10.59    3.10
  -5   3   8   11.12    2.78
  -5  -3   8   11.59    1.86
  -5  -3   6 1322.79   22.08
  -5   3   6 1298.43   30.29
  -5  -3   6 1332.21   29.00
   5  -3  -4 1431.83   23.50
  -5  -3   4 1481.43   24.93
  -5   3   4 1420.85   27.00
  -5  -3   4 1464.03   27.98
   5   3  -4 1497.48   28.29
  -5   3   2   77.54    5.84
  -5  -3   2   79.43    5.34
  -5  -3   2   79.84    5.57
  -5   3   2   74.13    4.31
  -5  -3   0   66.31    4.62
   5   3   0   65.92    4.71
  -5   3   0   66.43    5.49
  -5   3   0   73.98    3.67
  -5  -3   0   68.40    5.76
   5   3   2 2741.03   43.25
  -5  -3  -2 2792.90   48.20
  -5   3  -2 2750.39   43.72
   5  -3   4  528.78   17.53
   5   3   4  507.41   18.75
   5  -3   6  118.52    9.06
   5   3   6  134.13   11.03
   5  -3   8  468.54   20.17
   5   3   8  468.97   23.30
   5  -3  10 1326.40   38.63
   5   3  10 1406.40   44.06
   5  -3  12   16.68    4.59
   5   3  12   18.04    4.91
   5  -3  14    6.43    2.96
  -5  -4  13  726.88   30.22
  -5  -4  11  318.92   18.12
  -5  -4   9  162.83   11.33
  -5   4   9  178.62   13.07
  -5  -4   7  238.18    7.54
  -5   4   7  249.68   13.73
   5  -4  -7  205.03   10.38
  -5  -4   7  238.72   12.37
  -5  -4   5 2624.53   34.49
  -5  -4   5 2565.14   41.86
  -5   4   5 2546.03   43.01
  -5   4   3   60.14    4.47
  -5  -4   3   64.20    4.84
  -5  -4   3   60.81    5.08
   5   4  -1  303.87    9.64
  -5   4   1  312.55   12.30
  -5  -4   1  322.03   11.01
  -5  -4   1  300.05   12.20
  -5   4   1  312.93    7.88
   5   4   1 1577.62   29.08
  -5  -4  -1 1560.00   34.47
  -5  -4  -1 1559.66   27.20
   5   4   3 2066.02   39.55
  -5  -4  -3 2093.27   43.82
   5  -4   5  173.96   10.32
   5   4   5  156.34   11.60
  -5   4  -5  152.20    9.16
   5  -4   7   16.40    3.61
   5   4   7   19.62    4.86
  -5   4  -7   14.15    3.43
   5  -4   9 1786.38   42.90
   5   4   9 1793.71   50.62
   5  -4  11  398.05   20.97
   5   4  11  411.68   24.55
   5  -4  13  157.53   14.14
   5   4  13  162.13   15.87
  -5  -5  12  323.78   19.13
  -5  -5  10   89.54    8.90
   5  -5  -8   18.63    3.56
  -5  -5   8   20.31    1.56
  -5  -5   8   19.10    3.83
   5  -5  -6  240.40    9.79
  -5  -5   6  256.95    7.52
  -5   5   6  274.96   13.57
  -5  -5   6  270.91   12.65
   5  -5  -4  778.80   14.62
  -5   5   4  766.61   19.63
  -5  -5   4  799.63   17.38
  -5  -5   4  787.56   20.47
  -5   5   2    7.86    1.44
  -5  -5   2   12.21    2.49
  -5  -5   2   12.00    2.25
  -5  -5   0    4.02    1.22
  -5   5   0    4.97    0.77
   5   5   0    5.28    1.51
  -5  -5   0    6.00    2.42
   5   5   2  852.65   22.20
  -5  -5  -2  869.70   26.88
   5   5   4  350.58   16.64
  -5   5  -4  331.47   12.70
   5  -5   6   43.48    5.53
  -5   5  -6   34.82    4.79
   5   5   6   38.01    6.48
   5   5   8   96.49   11.11
   5  -5   8  100.84    9.19
  -5   5  -8  104.26    9.47
   5  -5  10  518.41   22.71
   5   5  10  530.10   27.90
   5  -5  12   20.09    5.20
   5   5  12   18.66    5.91
   5  -5  14    4.40    3.03
  -5  -6  13   27.37    6.05
  -5  -6  11  151.24   12.44
  -5  -6   9  103.42    9.24
   5  -6  -7  108.10    7.25
  -5  -6   7  130.80    9.42
  -5  -6   5    2.78    1.58
   5  -6  -5    2.72    0.98
  -5  -6   5    0.77    0.47
  -5  -6   3  456.88   14.80
  -5  -6   3  442.01   13.77
   5   6  -1   24.37    2.69
  -5  -6   1   21.95    3.07
  -5  -6   1   22.97    3.74
   5   6   1  101.24    6.73
  -5  -6  -1  101.35    9.05
  -5  -6  -1   99.71    6.39
   5   6   3   88.11    7.71
  -5  -6  -3   92.11    9.58
  -5   6  -3   90.99    5.63
   5   6   5  229.44   15.16
  -5   6  -5  231.18   11.59
  -5   6  -7    6.67    2.40
   5  -6   7    2.30    1.53
   5   6   7    2.57    2.81
   5  -6   9   -0.34    1.37
   5   6   9    7.65    4.32
   5  -6  11   68.69    8.57
   5   6  11   78.31   11.32
   5  -6  13   25.08    5.64
   5   6  13   23.50    6.46
  -5  -7  12   39.50    6.83
  -5  -7  10   36.69    5.85
  -5  -7   8    4.39    2.31
   5  -7  -8    7.03    2.08
   5  -7  -6  185.57    8.01
  -5  -7   6  207.70   11.47
   5  -7  -4   12.62    1.39
  -5  -7   4   14.79    2.75
   5   7  -2   30.92    2.61
  -5  -7   2   30.60    3.81
  -5  -7   0   91.70    6.20
   5   7   0   93.04    5.88
  -5  -7   0  102.24    8.86
   5   7   2  183.25   10.60
  -5  -7  -2  195.57   14.12
  -5   7  -4    2.12    1.05
   5   7   4    2.25    2.38
  -5   7  -6    1.11    1.15
   5   7   6    0.09    1.57
   5   7   8   84.53   11.03
  -5   7  -8  100.02    9.14
   5  -7  10   35.34    5.93
   5   7  10   31.76    7.26
   5  -7  12    4.79    2.99
   5   7  12    1.60    2.74
  -5  -8  11  156.83   12.81
  -5  -8   9  196.54   13.04
   5  -8  -7    9.75    2.17
  -5  -8   7    8.01    2.66
  -5  -8   5   46.77    5.28
   5  -8  -5   49.65    3.20
  -5  -8   3  389.37   14.24
  -5  -8   1  193.57    9.52
   5   8  -1  195.97    7.76
  -5  -8  -1   12.11    2.31
   5   8   1   16.85    3.09
   5   8   3  120.30    9.96
  -5   8  -3  100.29    2.77
   5   8   5  281.05   18.36
  -5   8  -5  319.89   11.39
  -5   8  -7   77.10    7.12
   5   8   7   67.26    9.85
   5   8   9   31.44    7.20
   5   8  11  124.38   14.57
   5  -8  13  100.26   10.94
  -5  -9  12   99.02   10.86
  -5  -9  10  510.58   22.96
  -5  -9   8  111.03    9.46
  -5  -9   6   14.51    3.09
  -5  -9   4  492.07   17.25
   5   9  -2  617.11   12.46
  -5  -9   2  604.29   18.28
  -5  -9   0   42.07    4.43
   5   9   0   42.15    4.22
   5   9   2  115.67    9.13
  -5  -9  -2  117.60    7.64
   5   9   4  606.62   26.32
  -5   9  -4  637.45   10.54
   5   9   6  221.47   17.92
   5   9   8   30.39    6.80
   5   9  10  183.66   17.96
   5   9  12  274.81   22.19
  -5 -10  11  306.83   18.54
  -5 -10   9   21.94    4.54
  -5 -10   7   50.31    6.26
  -5 -10   5  713.09   22.27
  -5 -10   3  387.62   14.99
   5  10  -1    8.12    1.54
  -5 -10   1    7.77    2.07
  -5 -10  -1  325.42   13.05
   5  10   1  321.68   14.12
   5  10   3  883.53   30.55
   5  10   5   61.92    9.47
   5  10   7   12.13    4.90
   5  10   9  495.97   30.04
   5  10  11  401.15   27.44
  -5 -11  10    4.72    2.78
  -5 -11   8   40.95    6.07
  -5 -11   6  888.52   26.49
  -5 -11   4  695.55   21.75
   5  11  -2  220.88    7.18
  -5 -11   2  220.06   11.41
  -5 -11   0   10.45    2.36
   5  11   0    9.35    2.10
   5  11   2 1587.14   39.50
  -5 -11  -2 1669.78   33.45
   5  11   4  159.67   14.46
   5  11   6  204.10   18.35
   5  11   8  238.85   20.97
   5  11  10  931.95   42.89
  -5 -12   9  113.74   10.70
  -5 -12   7   13.25    3.47
  -5 -12   5  645.25   22.04
  -5 -12   3    8.59    2.33
  -5 -12   1  155.87    9.69
   5  12  -1  150.84    7.45
  -5 -12  -1  358.99   14.46
   5  12   1  316.16   15.14
   5  12   3  502.54   24.79
  -5 -12  -3  548.89   18.81
   5  12   5   77.08   11.03
   5  12   7    9.03    4.05
   5  12   9  553.26   33.48
  -5 -13   8   53.42    7.19
  -5 -13   6   30.48    4.99
  -5 -13   4   70.67    7.07
  -5 -13   2    0.21    1.05
  -5 -13   0  128.48    8.86
   5  13   0  110.29    7.83
  -5 -13  -2    0.20    1.29
   5  13   2   -0.16    1.78
   5  13   4   36.89    7.50
   5  13   6   16.08    6.06
   5  13   8   44.22   10.00
   5  13  10   20.02    7.41
  -5 -14   7  197.90   13.63
  -5 -14   5  138.71   10.64
  -5 -14   3   31.18    4.71
  -5 -14   1   11.09    2.93
  -5 -14  -1  274.42   13.45
   5  14   1  252.09   14.59
  -5 -14  -3   51.79    6.06
   5  14   3   41.87    7.65
   5  14   5    4.83    3.63
   5  14   7   45.48    9.93
   5  14   9  117.09   16.52
  -5 -15   6  133.61   10.86
  -5 -15   4  134.35   10.36
  -5 -15   2   76.75    7.59
  -5 -15   0   96.58    8.32
  -5 -15  -2  133.04    9.69
   5  15   2  103.12   11.00
   5  15   4   67.71   11.01
  -5 -15  -4   87.68    8.34
   5  15   6   48.04   10.19
   5  15   8   79.03   13.83
  -5 -16   5   69.31    8.06
  -5 -16   3  351.18   17.12
  -5 -16   1  166.22   11.20
  -5 -16  -1   28.54    4.48
  -5 -16  -3  181.10   11.97
   5  16   3  162.24   16.13
   5  16   5  253.24   23.43
  -5 -16  -5  343.80   17.31
   5  16   7   61.62   11.97
  -5 -17   4  224.00   14.22
  -5 -17   2  115.89    9.76
  -5 -17   0   16.56    3.56
  -5 -17  -2  133.92   10.41
  -5 -17  -4  245.54   14.60
   5  17   4  208.64   20.76
   5  17   6   27.49    9.01
  -6   0  14  360.49   22.09
  -6   0  12   31.20    6.01
  -6   0  10   20.28    4.43
  -6   0   8 1464.88   35.70
  -6   0   6  376.52   15.21
  -6   0   6  358.12   13.56
  -6   0   4  223.65   10.50
  -6   0   4  224.19   10.13
  -6   0   2  580.73   17.79
  -6   0   2  585.93   15.34
  -6   0   0 2717.70   38.05
  -6   0   0 2682.32   45.21
   6   0   2   30.92    4.12
   6   0   4   36.13    4.93
   6   0   6 1753.33   41.06
   6   0   8 1207.71   37.05
   6   0  10   95.53   11.01
   6   0  12   11.23    4.03
  -6  -1  13  160.89   14.14
  -6   1  13  181.13   15.21
  -6   1  11   11.70    3.45
  -6  -1  11    8.13    2.80
  -6  -1   9  169.19   12.14
  -6   1   9  160.46   12.12
  -6  -1   7  877.09   21.40
  -6  -1   7  924.13   26.13
  -6   1   7  907.85   25.98
  -6   1   5   57.53    5.42
  -6   1   5   49.15    5.05
  -6  -1   5   53.78    4.96
   6  -1  -5   52.82    4.77
  -6  -1   3   11.92    2.29
  -6   1   3   15.38    2.48
  -6   1   3   21.09    3.26
  -6  -1   3   16.71    2.82
  -6   1   1 1059.76   25.44
  -6  -1   1 1050.99   21.52
  -6  -1   1 1021.88   24.79
  -6   1   1 1065.81   20.23
  -6  -1  -1  994.25   20.45
  -6   1  -1 1043.17   19.53
   6   1   1  995.62   23.45
   6  -1   3   67.63    6.36
   6   1   3   55.03    5.70
   6  -1   5    9.98    2.75
   6   1   5   15.78    3.64
   6  -1   7 1011.34   31.27
   6   1   7  982.91   32.15
   6  -1   9  217.85   15.65
   6   1   9  204.88   15.64
   6  -1  11   27.92    6.15
   6   1  11   28.07    6.47
  -6   2  12  221.15   16.20
  -6  -2  12  182.08   14.60
  -6   2  10    8.77    2.99
  -6  -2  10    9.40    3.24
  -6  -2   8   19.63    4.03
  -6   2   8   16.09    3.78
   6  -2  -6  605.53   17.33
  -6  -2   6  628.69   17.03
  -6   2   6  628.24   20.21
  -6  -2   6  652.29   20.38
  -6  -2   4  131.97    7.74
  -6  -2   4  139.45    8.25
  -6   2   4  129.40    7.59
  -6  -2   2   68.99    5.98
  -6  -2   2   55.60    4.75
  -6   2   2   57.36    4.28
  -6  -2   0  156.44    7.70
  -6   2   0  171.85    6.97
  -6  -2   0  170.18   10.03
   6   2   2  558.44   17.78
  -6   2  -2  585.27   13.60
   6  -2   4   22.31    3.91
   6   2   4   22.93    3.99
   6  -2   6   12.34    3.18
   6   2   6   10.15    3.19
   6  -2   8  263.37   16.06
   6   2   8  252.96   17.06
   6  -2  10   93.39   10.59
   6   2  10  104.81   12.04
   6  -2  12    2.94    1.95
   6   2  12    3.83    3.51
  -6  -3  13   86.42   10.51
  -6   3  11   31.05    6.16
  -6  -3  11   23.85    5.25
  -6   3   9  135.13   11.15
  -6  -3   9  112.57    9.78
  -6  -3   7    5.06    2.10
   6  -3  -7    4.20    1.50
  -6  -3   7    1.46    1.00
  -6   3   7    3.68    1.93
   6  -3  -5  219.44    9.10
  -6  -3   5  227.22    9.80
  -6   3   5  220.90   11.01
  -6  -3   5  218.25   11.12
  -6  -3   3    2.83    1.47
  -6   3   3    2.13    1.04
  -6  -3   3    0.40    0.76
  -6  -3   1   84.66    5.89
  -6  -3   1   86.36    7.10
  -6   3   1   88.10    4.82
  -6  -3  -1   89.60    5.93
   6   3   1   79.54    6.16
  -6   3  -1   91.28    4.68
  -6  -3  -1   82.23    7.47
   6   3   3  131.51    9.04
   6  -3   5   37.37    5.13
   6   3   5   29.46    4.95
   6  -3   7    6.94    2.53
   6   3   7    5.56    1.71
   6  -3   9   88.88    9.50
   6   3   9   71.06    9.72
   6  -3  11   20.50    5.13
   6   3  11   18.62    5.51
  -6  -4  12   45.26    7.26
  -6  -4  10    8.48    2.95
  -6   4  10    7.41    2.71
  -6  -4   8    6.45    2.20
  -6   4   8    4.82    2.09
   6  -4  -6   67.13    5.12
  -6  -4   6   70.53    5.01
  -6  -4   6   77.99    7.05
  -6   4   6   70.43    6.83
  -6  -4   4   81.01    6.03
  -6   4   4   77.76    6.10
  -6  -4   4   86.79    6.68
  -6  -4   2   18.11    3.16
  -6   4   2   18.22    2.29
  -6  -4   2   15.68    2.69
  -6  -4   0   49.58    4.51
   6   4   0   45.54    4.37
  -6   4   0   51.82    3.32
  -6  -4   0   48.13    5.71
  -6   4  -2  129.12    5.41
   6   4   2  125.75    8.31
  -6  -4  -2  122.82    7.19
   6   4   4   42.68    5.59
   6  -4   6   11.08    3.24
   6   4   6    5.37    2.64
  -6   4  -6    8.56    2.40
   6  -4   8   45.75    6.75
   6   4   8   43.80    7.56
   6  -4  10   59.76    8.22
   6   4  10   65.03   10.01
   6  -4  12   17.36    5.08
   6   4  12   13.34    4.56
  -6  -5  11  106.02   10.76
  -6   5   9   31.75    5.65
  -6  -5   9   28.43    5.04
   6  -5  -7  127.11    7.66
  -6   5   7  153.52   10.95
  -6  -5   7  144.89   10.14
  -6   5   5  715.60   21.48
  -6  -5   5  761.18   18.38
  -6  -5   5  738.83   21.69
   6  -5  -5  720.02   15.82
  -6  -5   3   34.44    4.15
  -6  -5   3   34.99    4.30
  -6   5   3   35.03    3.61
  -6   5   1    9.64    1.52
  -6  -5   1    7.23    1.85
  -6  -5   1    9.53    2.62
  -6  -5  -1  475.20   15.05
   6   5   1  489.84   15.89
  -6   5  -1  507.56   10.09
  -6  -5  -1  478.27   20.26
   6   5   3  456.10   17.70
  -6   5  -5    6.95    2.16
   6   5   5    8.02    2.43
   6  -5   7   58.52    7.12
  -6   5  -7   58.90    6.70
   6   5   7   59.89    8.73
   6  -5   9  353.75   19.09
   6   5   9  353.47   22.89
   6  -5  11   78.29    9.71
   6   5  11   76.47   11.41
  -6  -6  12  124.49   12.19
  -6  -6  10   14.57    3.59
  -6  -6   8  291.86   15.50
   6  -6  -6  627.45   15.25
  -6  -6   6  694.56   22.08
  -6  -6   4   73.59    6.46
  -6  -6   4   70.61    5.62
  -6   6   4   73.24    5.72
  -6   6   2   53.22    3.68
  -6  -6   2   68.86    5.85
  -6  -6   2   54.76    5.82
  -6  -6   0  818.11   20.08
   6   6   0  837.21   19.22
  -6  -6   0  810.97   26.22
  -6   6  -2  508.02    9.28
   6   6   2  484.23   17.27
  -6   6  -2  458.03   12.08
  -6  -6  -2  487.78   15.63
  -6   6  -4   14.13    2.62
   6   6   4   12.63    3.30
   6   6   6  220.08   16.16
  -6   6  -6  220.91   12.26
   6   6   8  619.67   29.86
   6  -6  10  104.63   10.84
   6   6  10   83.70   11.46
   6  -6  12   19.45    5.36
  -6  -7  11   18.09    4.46
  -6  -7   9  346.49   17.92
  -6  -7   7 1018.18   28.98
  -6  -7   5    7.24    2.03
  -6  -7   3   18.59    3.28
  -6  -7   3   21.18    3.25
   6   7  -1 1421.74   25.05
  -6  -7   1 1411.09   29.31
  -6  -7   1 1381.84   35.00
  -6  -7  -1  778.13   20.72
   6   7   1  818.89   21.37
  -6  -7  -1  838.13   29.88
  -6   7  -3  122.98    3.98
   6   7   3  123.72    9.54
  -6   7  -3  136.05    6.09
   6   7   5   58.15    7.85
   6   7   7 1186.47   41.35
   6   7   9  104.94   13.12
   6   7  11   73.35   11.75
  -6  -8  10    1.95    1.62
  -6  -8   8  804.58   26.94
  -6  -8   6  195.37   11.87
  -6  -8   4  188.35   10.78
  -6  -8   2  189.66   10.28
  -6  -8   0 1330.54   28.53
   6   8   0 1328.87   26.14
  -6  -8  -2    6.27    1.79
   6   8   2    9.89    2.45
   6   8   4   95.33    9.56
   6   8   6  661.89   29.55
   6   8   8  560.70   30.12
   6   8  10   56.69   10.01
  -6  -9  11   12.21    3.90
  -6  -9   9    8.96    3.16
  -6  -9   7  216.21   13.18
  -6  -9   5   77.40    7.29
  -6  -9   3   42.43    5.08
   6   9  -1   55.83    4.30
  -6  -9   1   70.52    6.27
  -6  -9  -1  274.75   12.40
   6   9   1  259.38   11.95
  -6  -9  -3    4.10    1.80
   6   9   3    3.94    1.52
   6   9   5   18.56    4.97
   6   9   7  117.92   13.51
   6   9   9   52.87    9.93
  -6 -10  10   86.44    9.56
  -6 -10   8  122.28   10.51
  -6 -10   6  101.03    8.88
  -6 -10   4   12.26    3.11
   6  10  -2  287.27    8.71
  -6 -10   2  300.64   13.79
  -6 -10   0   30.00    4.27
   6  10   0   28.48    3.42
  -6 -10  -2  134.74    8.91
   6  10   2  114.34    9.02
   6  10   4    5.89    2.74
   6  10   6  102.41   12.69
   6  10   8    4.10    2.22
   6  10  10    8.33    4.52
  -6 -11   9  119.03   11.02
  -6 -11   7   93.41    9.02
  -6 -11   5   11.11    3.01
  -6 -11   3   37.04    4.96
   6  11  -1  135.36    6.85
  -6 -11   1  133.17    9.16
  -6 -11  -1   58.39    5.95
   6  11   1   53.32    5.53
  -6 -11  -3   24.31    3.99
   6  11   3   20.96    4.58
   6  11   5   73.37   10.12
   6  11   7   81.87   11.79
   6  11   9   20.09    6.05
  -6 -12   8   20.90    4.59
  -6 -12   6  316.40   16.48
  -6 -12   4  263.74   14.10
  -6 -12   2   29.10    4.45
  -6 -12   0  125.35    9.09
   6  12   0  114.93    7.25
  -6 -12  -2  386.76   16.24
   6  12   2  366.99   17.09
   6  12   4  114.27   11.99
  -6 -12  -4  121.51    9.45
   6  12   6   15.10    5.21
   6  12   8  126.17   15.91
  -6 -13   7  228.13   14.70
  -6 -13   5  387.61   18.15
  -6 -13   3   33.61    4.91
  -6 -13   1   43.47    5.46
  -6 -13  -1  411.09   17.07
   6  13   1  360.37   15.38
  -6 -13  -3  211.26   12.51
   6  13   3  189.74   14.18
   6  13   5   17.17    5.61
   6  13   7  105.06   14.47
   6  13   9  204.00   21.48
  -6 -14   6  200.33   13.68
  -6 -14   4   10.09    2.77
  -6 -14   2   63.92    6.90
  -6 -14   0  642.92   22.33
  -6 -14  -2   90.39    8.27
   6  14   2   82.52    8.50
  -6 -14  -4   13.71    3.07
   6  14   4   13.65    4.23
   6  14   6  160.10   17.38
   6  14   8  310.25   26.46
  -6 -15   3   37.72    5.57
  -6 -15   1  504.07   20.26
  -6 -15  -1  204.08   12.83
  -6 -15  -3  168.72   11.67
   6  15   3  136.32   12.64
   6  15   5    9.89    4.57
   6  15   7  377.38   28.84
  -6 -16   0  164.15   11.71
   6  16   6   31.93    8.08
  -7   0  13   -0.40    2.35
  -7   0  11   -3.41    3.15
  -7   0   9    2.12    1.71
  -7   0   7    2.40    1.73
  -7   0   5   -0.39    1.06
  -7   0   3    0.55    0.74
  -7   0   1    4.57    1.42
  -7   0  -1    8.91    1.99
   7   0   3    1.24    1.81
   7   0   5    4.17    2.17
   7   0   7    1.00    1.71
   7   0   9    3.66    2.84
   7   0  11    1.38    2.78
  -7   1  12   26.52    5.88
  -7  -1  12   12.79    4.32
  -7  -1  10    2.05    1.51
  -7   1  10    8.27    3.38
  -7  -1   8  415.66   18.72
  -7   1   8  404.47   18.93
  -7   1   6   82.00    7.41
  -7  -1   6   90.74    7.82
  -7  -1   4   55.38    5.45
  -7   1   4   52.46    5.21
  -7  -1   2  125.02    7.68
  -7   1   2  125.36    7.30
  -7  -1   0  453.16   14.46
  -7   1   0  455.49   13.60
  -7  -1  -2    0.69    0.80
  -7   1  -2    2.38    1.08
   7  -1   4    9.78    3.05
   7   1   4    9.80    2.80
   7  -1   6  183.55   13.10
   7   1   6  185.94   13.45
   7  -1   8   97.24   10.45
   7   1   8  102.71   11.01
   7  -1  10    0.65    1.95
   7   1  10    6.12    3.23
  -7   2  13   -0.51    2.64
  -7  -2  11    8.92    3.46
  -7   2  11    8.57    3.59
  -7  -2   9  365.91   18.54
  -7   2   9  386.84   19.50
  -7  -2   7  174.74   11.50
  -7   2   7  178.88   11.88
  -7  -2   5   16.58    3.00
  -7  -2   5   16.54    3.12
  -7   2   5   18.91    3.47
  -7  -2   3  194.87   10.97
  -7  -2   3  195.53   10.18
  -7   2   3  191.25    9.30
  -7  -2   1  803.11   20.53
  -7   2   1  789.98   18.37
  -7  -2  -1   63.53    5.27
  -7   2  -1   64.27    4.72
  -7   2  -3   15.03    2.35
   7   2   3   10.68    3.06
   7  -2   5  491.56   20.43
   7   2   5  488.94   20.99
   7  -2   7  341.52   18.53
   7   2   7  323.74   19.19
   7  -2   9    7.24    3.26
   7   2   9    4.81    3.27
   7  -2  11   74.89   10.28
   7   2  11   68.65   10.40
  -7  -3  12   74.92    9.49
  -7   3  12   88.28   10.85
  -7   3  10  640.32   26.63
  -7  -3  10  597.68   25.38
  -7  -3   8  139.68   10.90
  -7   3   8  124.74   10.52
  -7  -3   6   12.73    3.27
  -7   3   6   13.49    3.37
  -7   3   4  539.51   17.32
  -7  -3   4  542.31   18.38
  -7  -3   4  548.81   18.50
  -7  -3   2 1172.71   26.24
  -7  -3   2 1145.10   29.55
  -7   3   2 1147.72   23.02
  -7   3   0   11.06    1.93
  -7  -3   0    8.26    2.14
  -7  -3  -2    7.31    1.69
  -7   3  -2    9.43    1.79
   7   3   4 1097.70   30.66
   7  -3   6  563.02   23.01
   7   3   6  534.74   23.74
   7  -3   8   29.32    5.92
   7   3   8   37.52    7.13
   7  -3  10   89.72   10.66
   7   3  10   90.03   11.52
  -7   4  11  571.26   26.61
  -7  -4  11  475.81   23.72
  -7  -4   9  422.13   20.41
  -7   4   9  435.62   21.08
  -7   4   7   38.24    5.59
  -7  -4   7   44.55    5.98
  -7   4   5   57.37    6.05
  -7  -4   5   48.47    5.62
  -7   4   3 1506.44   28.65
  -7  -4   3 1468.74   33.47
  -7  -4   3 1492.67   31.73
  -7  -4   1  242.11   11.27
  -7  -4   1  249.48   14.05
  -7   4   1  251.27    9.00
  -7  -4  -1  140.67    8.37
   7   4   1  139.68    8.84
  -7   4  -1  149.42    6.43
   7   4   3  393.42   16.85
  -7  -4  -3  405.65   14.52
   7   4   5 1233.05   35.56
   7  -4   7    7.90    3.33
   7   4   7   12.21    4.06
   7  -4   9   37.58    6.71
   7   4   9   39.12    7.79
  -7  -5  10  234.13   15.62
  -7  -5   8  182.59   12.69
  -7   5   8  185.62   13.10
  -7   5   6   12.73    3.26
  -7  -5   6   16.38    3.59
  -7  -5   4   79.49    7.08
  -7   5   4   71.97    6.18
  -7   5   2  611.52   15.26
  -7  -5   2  612.39   19.17
  -7  -5   2  602.34   22.14
  -7  -5   0   35.42    4.35
  -7   5   0   36.36    2.89
  -7   5  -2   19.92    2.18
  -7  -5  -2   18.40    3.05
   7   5   2   19.08    3.60
   7   5   4  308.04   16.16
   7   5   6  346.38   19.65
   7   5   8    3.91    2.60
   7  -5  10   17.32    4.99
   7   5  10    8.45    3.95
  -7  -6  11   52.44    7.76
  -7  -6   9  117.42   10.72
  -7  -6   7  141.17   10.87
  -7   6   5  101.33    7.73
  -7  -6   5  100.59    8.44
  -7   6   3    6.57    1.61
  -7  -6   3    6.24    2.04
  -7  -6   1  318.41   13.65
  -7   6   1  316.02    9.07
  -7  -6   1  321.13   16.96
   7   6   1   26.14    3.78
  -7  -6  -1   22.11    3.45
  -7   6  -1   23.38    1.99
  -7   6  -3   93.45    4.41
   7   6   3   81.36    7.89
  -7  -6  -3   78.11    6.62
   7   6   5   43.76    6.50
   7   6   7  143.61   13.83
   7   6   9    0.89    2.70
  -7  -7  10   45.65    7.10
  -7  -7   8   32.42    5.41
  -7  -7   6    4.22    1.93
  -7  -7   4  174.45   11.05
  -7  -7   2   14.14    3.09
   7   7   0   21.54    3.26
  -7  -7   0   24.12    3.78
  -7  -7  -2   51.70    5.40
   7   7   2   49.98    5.71
   7   7   4   99.34    9.42
   7   7   6    0.14    2.32
   7   7   8   -1.07    3.72
   7   7  10   42.45    8.63
  -7  -8   9  142.03   12.00
  -7  -8   7  174.69   12.37
  -7  -8   5    8.36    2.50
  -7  -8   3   28.73    4.36
  -7  -8   1  252.12   12.65
  -7  -8  -1  122.46    8.60
   7   8   1  126.53    8.39
  -7  -8  -3    6.86    2.01
   7   8   3    4.35    1.62
   7   8   5   63.07    8.26
   7   8   7  165.07   15.49
   7   8   9   33.60    7.84
  -7  -9   8  513.19   22.76
  -7  -9   6  112.58    9.64
  -7  -9   4    6.84    2.19
  -7  -9   2  326.99   14.96
   7   9   0  472.33   15.28
  -7  -9   0  505.18   18.38
  -7  -9  -2   24.65    3.88
   7   9   2   27.50    4.27
   7   9   4   59.75    7.46
  -7  -9  -4   51.66    5.98
   7   9   6  373.83   22.56
   7   9   8  141.57   15.81
  -7 -10   7   58.26    7.36
  -7 -10   5   11.15    3.19
  -7 -10   3  434.24   18.05
  -7 -10   1  446.59   17.70
  -7 -10  -1   14.93    3.09
   7  10   1    9.47    2.46
  -7 -10  -3   78.49    7.47
   7  10   3   76.06    7.80
   7  10   5  541.91   25.84
   7  10   7  121.88   14.11
   7  10   9    7.81    3.85
  -7 -11   6   38.33    5.77
  -7 -11   4  380.51   17.84
  -7 -11   2  589.41   21.44
  -7 -11   0   39.51    5.26
  -7 -11  -2   12.74    3.13
   7  11   2   12.89    2.99
   7  11   4  658.25   26.94
  -7 -11  -4  774.88   25.17
   7  11   6  239.64   19.01
   7  11   8   63.33   10.78
  -7 -12   5    3.40    2.02
  -7 -12   3  356.98   17.04
  -7 -12   1   67.77    7.15
  -7 -12  -1   71.18    7.25
  -7 -12  -3   78.65    7.67
   7  12   3   58.70    7.26
   7  12   5  316.55   20.74
  -7 -12  -5  383.57   18.39
   7  12   7    5.14    3.11
  -7 -13   4   56.94    7.14
  -7 -13   2   46.41    6.12
  -7 -13   0    9.21    3.00
  -7 -13  -2  105.20    9.09
  -7 -13  -4    3.78    2.21
   7  13   4    2.78    2.66
   7  13   6   39.48    7.88
  -7 -14   1   13.16    3.64
   7  14   5   29.26    6.48
   7  14   7    2.92    2.32
  -8   0  12  291.43   19.47
  -8   0  10    2.74    1.56
  -8   0   8    4.48    2.03
  -8   0   6  770.16   24.98
  -8   0   4  490.27   17.90
  -8   0   2   48.49    5.10
  -8   0   0  113.41    7.49
  -8   0  -2 1290.34   27.00
  -8   0  -4  176.58    9.51
   8   0   6   17.83    4.46
   8   0   8  457.11   24.52
  -8   1  11  194.04   15.38
  -8  -1  11  188.34   15.27
  -8  -1   9    2.17    2.12
  -8   1   9    3.12    1.60
  -8  -1   7   62.01    7.37
  -8   1   7   47.82    6.36
  -8   1   5  616.55   20.92
  -8  -1   5  610.55   21.31
  -8  -1   3  164.65   10.01
  -8   1   3  154.95    9.25
  -8  -1   1   13.14    2.75
  -8   1   1   16.96    2.85
  -8  -1  -1  330.94   13.22
  -8   1  -1  352.12   12.82
  -8  -1  -3  668.98   19.37
  -8   1  -3  684.00   18.50
   8   1   5    6.65    3.41
   8  -1   7   11.67    3.76
   8   1   7   13.14    4.59
   8   1   9  403.44   24.20
  -8   2  10  231.87   16.09
  -8  -2  10  216.03   15.81
  -8  -2   8    5.27    2.53
  -8   2   8    2.55    1.53
  -8   2   6    0.07    1.64
  -8  -2   6    5.39    2.34
  -8   2   4  453.36   16.71
  -8  -2   4  441.22   17.50
  -8  -2   2  148.17    9.39
  -8   2   2  146.88    8.43
  -8  -2   0   50.10    5.16
  -8   2   0   53.92    4.76
  -8  -2  -2   66.97    5.99
  -8   2  -2   73.41    5.56
   8   2   4  397.12   18.76
  -8  -2  -4  371.81   14.72
  -8   2  -4  401.01   13.68
   8   2   6   19.71    5.00
   8  -2   8    5.98    3.51
   8   2   8    3.16    3.10
  -8  -3  11   70.84    9.39
  -8  -3   9   36.23    6.24
  -8  -3   7  103.47    9.62
  -8   3   7   97.39    9.10
  -8   3   5    5.44    2.05
  -8  -3   5    6.99    2.42
  -8  -3   3  174.94   10.76
  -8   3   3  162.63    9.21
  -8   3   1    2.54    1.15
  -8  -3   1    1.32    1.26
  -8  -3  -1   56.94    5.65
  -8   3  -1   62.98    4.82
  -8  -3  -3   35.72    4.48
  -8   3  -3   38.88    3.87
   8   3   3   32.37    5.16
   8   3   5   70.31    8.34
   8   3   7   22.15    5.50
   8   3   9    7.64    4.07
  -8  -4  10   43.07    7.19
  -8  -4   8    8.85    3.01
  -8  -4   6    3.37    2.17
  -8  -4   4   51.13    6.07
  -8  -4   2   59.58    6.21
  -8  -4   0   11.69    2.77
  -8  -4  -2   24.40    3.93
   8   4   2   20.41    3.87
   8   4   4   69.09    7.81
  -8  -4  -4   63.13    6.25
   8   4   6   31.21    6.17
   8   4   8    7.90    3.78
  -8  -5   9  131.47   11.93
  -8  -5   7   25.72    4.91
  -8  -5   5   75.11    7.69
  -8  -5   3  566.12   20.33
  -8  -5   1   36.20    4.74
  -8  -5  -1   10.82    2.59
  -8  -5  -3  242.67   12.43
   8   5   3  261.99   14.45
   8   5   5  277.50   17.01
   8   5   7    8.89    3.83
  -8  -6   8   11.80    3.80
  -8  -6   6  147.58   11.45
  -8  -6   4  580.14   21.59
  -8  -6   2  106.52    8.49
  -8  -6   0    7.72    2.24
  -8  -6  -2  391.60   16.15
   8   6   2  383.02   16.66
   8   6   4  402.15   19.43
  -8  -6  -4  400.37   16.80
   8   6   6   15.83    4.54
   8   6   8   56.24    9.33
  -8  -7   7  124.82   10.99
  -8  -7   5  716.39   25.27
  -8  -7   3   52.74    6.27
  -8  -7   1   23.14    3.95
   8   7   1  469.69   17.30
  -8  -7  -1  480.29   18.20
  -8  -7  -3  614.49   20.97
   8   7   3  597.01   22.40
   8   7   5   12.84    4.30
   8   7   7    3.38    2.00
  -8  -8   8    8.05    3.07
  -8  -8   6  392.59   19.18
  -8  -8   4  262.63   14.82
  -8  -8   2   42.23    5.44
  -8  -8   0   23.19    4.03
  -8  -8  -2  651.22   21.96
   8   8   2  608.90   21.25
   8   8   4   75.54    8.52
  -8  -8  -4   72.83    7.36
   8   8   6   37.88    6.98
   8   8   8  144.70   15.72
  -8  -9   5  109.05    9.93
  -8  -9   3  118.48    9.71
  -8  -9   1   22.93    4.05
   8   9   1    7.47    2.25
  -8  -9  -1    4.97    2.15
  -8  -9  -3  176.83   11.60
   8   9   3  155.14   11.41
  -8  -9  -5    6.55    2.49
   8   9   5    3.18    1.53
   8   9   7   27.53    6.39
  -8 -10   4   50.17    6.68
  -8 -10   2   14.47    3.31
  -8 -10   0  176.36   11.63
  -8 -10  -2   25.87    4.57
   8  10   2   25.91    4.34
  -8 -10  -4   76.55    7.96
   8  10   4   69.84    8.39
   8  10   6    3.30    2.15
  -8 -11   3    1.97    1.70
  -8 -11   1   20.95    4.13
  -8 -11  -1   90.82    8.48
  -8 -11  -3   48.78    6.38
   8  11   3   36.37    5.57
   8  11   5   18.16    4.81
   8  11   7   35.43    7.75
   8  12   6   70.07   10.32
  -9   0   5    1.16    1.44
  -9   0   3   -2.42    1.77
  -9   0   1   -0.39    1.45
  -9   0  -1    1.80    1.43
  -9   0  -3    1.16    1.20
  -9   0  -5   -0.73    1.00
  -9  -1   8   -3.19    2.48
  -9  -1   6  295.27   16.29
  -9  -1   4   83.43    8.01
  -9  -1   2   38.55    5.20
  -9  -1   0   53.17    5.73
  -9   1   0   51.08    5.21
  -9  -1  -2  265.63   12.78
  -9  -1  -4    4.06    1.60
   9   1   6    8.55    3.39
  -9  -2   9    6.70    2.98
  -9  -2   7  256.93   16.04
  -9  -2   5  212.32   13.54
  -9  -2   3    9.13    2.79
  -9  -2   1   65.16    6.53
  -9  -2  -1  517.34   18.51
  -9  -2  -3   66.45    6.48
  -9  -2  -5    2.59    1.00
   9   2   5    4.28    3.04
  -9  -3   8  365.07   20.27
  -9  -3   6  203.46   13.98
  -9  -3   4    6.23    2.59
  -9  -3   2  154.34   10.60
  -9  -3   0  654.25   21.69
  -9  -3  -2   63.07    6.46
  -9  -3  -4    6.28    2.08
   9   3   6  338.29   20.49
  -9  -4   7  359.79   19.50
  -9  -4   5    7.10    2.57
  -9  -4   3    9.45    2.78
  -9  -4   1  613.12   21.59
  -9  -4  -1  287.16   14.21
  -9  -4  -3   23.21    3.95
   9   4   5   62.38    8.40
  -9  -4  -5   66.75    7.00
  -9  -5   8  116.61   11.55
  -9  -5   6  208.50   14.53
  -9  -5   4    0.64    1.55
  -9  -5   2   11.28    2.95
  -9  -5   0  315.90   15.41
  -9  -5  -2   81.45    7.63
  -9  -5  -4   15.36    3.39
   9   5   4   15.62    4.20
   9   5   6   79.89   10.10
  -9  -5  -6   82.23    8.25
  -9  -6   7   64.35    8.26
  -9  -6   5  141.13   11.50
  -9  -6   3   50.40    6.53
  -9  -6   1   13.22    3.29
  -9  -6  -1  193.42   12.07
  -9  -6  -3   23.37    3.90
   9   6   3   23.35    4.54
  -9  -6  -5   47.53    6.18
   9   6   5   48.81    7.52
  -9  -7   6   17.91    4.34
  -9  -7   4    1.17    1.46
  -9  -7   2  105.66    9.37
  -9  -7   0   11.78    3.23
  -9  -7  -2   11.16    3.13
  -9  -7  -4   22.08    4.07
   9   7   4   18.12    4.35
   9   7   6   57.28    8.59
  -9  -8   3    8.79    3.02
  -9  -8   1   14.68    3.34
  -9  -8  -1  152.74   11.08
  -9  -8  -3   69.46    7.55
   9   8   3   83.28    8.50
   9   8   5    6.78    3.20
  -9  -9   2    1.44    1.40
  -9  -9   0  169.08   11.98
   9   9   4   15.30    4.04
 -10  -3   3    6.42    2.76
 -10  -3   1   99.88    9.04
 -10  -3  -1    4.59    2.15
 -10  -3  -3   31.68    5.03
 -10  -4   4    0.08    1.81
 -10  -4   2   29.76    5.31
 -10  -4   0   42.71    5.83
 -10  -4  -2    2.52    1.23
 -10  -4  -4    8.61    2.68
 -10  -5   3   29.24    5.31
 -10  -5   1  330.93   17.27
 -10  -5  -1   33.35    5.35
 -10  -5  -3    8.08    2.48
 -10  -6   2  347.74   18.24
 -10  -6   0  112.37    9.87
   0   0   0    0.00    0.00


TITL AU83 in I2/a
REM I2/a (#15 in standard setting)
CELL 0.71073   7.669934  16.336010  13.171861  90.0000  91.0597  90.0000
ZERR   23.00   0.000346   0.000652   0.000638   0.0000   0.0044   0.0000
LATT  2
SYMM -x+1/2, y,-z
SFAC C H N I Bi
UNIT 23.00 23.00 23.00 23.00 23.00
TREF
HKLF 4
END
_computing_structure_solution     'SHELXT 2014/5 (Sheldrick, 2014)'
;
_shelx_hkl_checksum              17728
loop_
_space_group_symop_operation_xyz
'x, y, z'
'-x+1/2, y, -z'
'x+1/2, y+1/2, z+1/2'
'-x+1, y+1/2, -z+1/2'
'-x, -y, -z'
'x-1/2, -y, z'
'-x+1/2, -y+1/2, -z+1/2'
'x, -y+1/2, z+1/2'
loop_
_atom_site_label
_atom_site_type_symbol
_atom_site_fract_x
_atom_site_fract_y
_atom_site_fract_z
_atom_site_U_iso_or_equiv
_atom_site_adp_type
_atom_site_occupancy
_atom_site_site_symmetry_order
_atom_site_calc_flag
_atom_site_refinement_flags_posn
_atom_site_refinement_flags_adp
_atom_site_refinement_flags_occupancy
C1 C -0.2500 0.5976(7) 0.5000 0.024(2) Uani 1 2 d S TU P
C2 C -0.1869(10) 0.5540(6) 0.4184(7) 0.0332(17) Uani 1 1 d . U .
C3 C -0.1417(9) 0.3142(5) 0.3736(5) 0.0246(15) Uani 1 1 d . U .
C5 C -0.2500 0.4279(7) 0.5000 0.049(3) Uani 1 2 d S TU P
C6 C -0.1331(19) 0.4046(10) 0.3610(12) 0.028(3) Uani 0.5 1 d . U P
C9 C -0.2168(17) 0.2925(9) 0.4685(10) 0.017(2) Uani 0.5 1 d . U P
C10 C -0.1848(11) 0.4678(6) 0.4172(8) 0.049(2) Uani 1 1 d . U .
N1 N -0.2770(15) 0.3426(7) 0.5391(9) 0.020(2) Uani 0.5 1 d . U P
I1 I -0.57738(6) 0.93272(2) 0.36099(3) 0.01636(12) Uani 1 1 d . . .
I2 I -0.10554(6) 0.80074(3) 0.36512(3) 0.01939(13) Uani 1 1 d . . .
Bi1 Bi -0.2500 0.92269(2) 0.5000 0.01229(11) Uani 1 2 d S T P
loop_
_atom_site_aniso_label
_atom_site_aniso_U_11
_atom_site_aniso_U_22
_atom_site_aniso_U_33
_atom_site_aniso_U_23
_atom_site_aniso_U_13
_atom_site_aniso_U_12
C1 0.015(4) 0.027(5) 0.031(5) 0.000 -0.006(4) 0.000
C2 0.017(3) 0.054(4) 0.028(4) -0.009(4) 0.000(3) 0.003(3)
C3 0.025(3) 0.028(4) 0.021(3) 0.005(3) 0.004(3) 0.004(3)
C5 0.031(5) 0.029(5) 0.084(7) 0.000 -0.038(5) 0.000
C6 0.020(5) 0.033(6) 0.032(6) -0.003(5) -0.003(5) 0.009(5)
C9 0.019(5) 0.021(5) 0.013(5) 0.001(4) 0.001(4) 0.001(4)
C10 0.027(3) 0.052(4) 0.067(5) -0.033(4) -0.028(4) 0.016(3)
N1 0.019(4) 0.017(4) 0.025(5) -0.001(4) -0.009(4) 0.003(4)
I1 0.0161(2) 0.0191(2) 0.0136(2) -0.00321(16) -0.00473(17) 0.00167(15)
I2 0.0232(2) 0.0190(2) 0.0161(2) -0.00357(17) 0.00416(17) 0.00050(17)
Bi1 0.01287(18) 0.01379(17) 0.01013(17) 0.000 -0.00148(13) 0.000
loop_
_atom_type_symbol
_atom_type_description
_atom_type_scat_dispersion_real
_atom_type_scat_dispersion_imag
_atom_type_scat_source
C C 0.0033 0.0016 'International Tables Vol C Tables 4.2.6.8 and 6.1.1.4'
H H 0.0000 0.0000 'International Tables Vol C Tables 4.2.6.8 and 6.1.1.4'
N N 0.0061 0.0033 'International Tables Vol C Tables 4.2.6.8 and 6.1.1.4'
I I -0.4742 1.8119 'International Tables Vol C Tables 4.2.6.8 and 6.1.1.4'
Bi Bi -4.1077 10.2566 'International Tables Vol C Tables 4.2.6.8 and 6.1.1.4'
loop_
_geom_angle_atom_site_label_1
_geom_angle_atom_site_label_2
_geom_angle_atom_site_label_3
_geom_angle
_geom_angle_site_symmetry_1
_geom_angle_site_symmetry_3
C2 C1 C2 117.9(11) . 2_456
C1 C2 C10 121.9(9) . .
N1 C3 C9 34.0(7) 2_456 .
N1 C3 C6 77.5(9) 2_456 .
C9 C3 C6 111.4(10) . .
C10 C5 C10 123.3(12) . 2_456
C10 C5 N1 96.5(6) . 2_456
C10 C5 N1 140.1(9) 2_456 2_456
C10 C5 N1 140.2(9) . .
C10 C5 N1 96.5(6) 2_456 .
N1 C5 N1 43.7(9) 2_456 .
C10 C6 C3 133.7(14) . .
C10 C6 N1 84.7(11) . 2_456
C3 C6 N1 49.0(7) . 2_456
N1 C9 C9 94.2(13) 2_456 2_456
N1 C9 N1 56.9(15) 2_456 .
C9 C9 N1 38.3(7) 2_456 .
N1 C9 C3 70.8(13) 2_456 .
C9 C9 C3 164.2(11) 2_456 .
N1 C9 C3 127.5(11) . .
C6 C10 C5 101.0(11) . .
C6 C10 C2 141.5(13) . .
C5 C10 C2 117.5(9) . .
C9 N1 N1 84.8(13) 2_456 2_456
C9 N1 C9 47.5(14) 2_456 .
N1 N1 C9 38.3(7) 2_456 .
C9 N1 C3 75.2(13) 2_456 2_456
N1 N1 C3 159.6(8) 2_456 2_456
C9 N1 C3 122.5(10) . 2_456
C9 N1 C5 152.4(16) 2_456 .
N1 N1 C5 68.2(5) 2_456 .
C9 N1 C5 106.2(9) . .
C3 N1 C5 131.1(9) 2_456 .
C9 N1 C6 128.4(16) 2_456 2_456
N1 N1 C6 145.5(7) 2_456 2_456
C9 N1 C6 175.9(11) . 2_456
C3 N1 C6 53.5(7) 2_456 2_456
C5 N1 C6 77.7(7) . 2_456
Bi1 I1 Bi1 92.258(12) . 5_476
I2 Bi1 I2 93.32(2) . 2_456
I2 Bi1 I1 89.363(13) . .
I2 Bi1 I1 94.820(13) 2_456 .
I2 Bi1 I1 94.821(13) . 2_456
I2 Bi1 I1 89.364(13) 2_456 2_456
I1 Bi1 I1 173.909(19) . 2_456
I2 Bi1 I1 176.169(13) . 5_476
I2 Bi1 I1 89.427(13) 2_456 5_476
I1 Bi1 I1 87.743(12) . 5_476
I1 Bi1 I1 87.875(12) 2_456 5_476
I2 Bi1 I1 89.425(13) . 6_675
I2 Bi1 I1 176.171(13) 2_456 6_675
I1 Bi1 I1 87.876(12) . 6_675
I1 Bi1 I1 87.742(12) 2_456 6_675
I1 Bi1 I1 87.961(17) 5_476 6_675
loop_
_geom_bond_atom_site_label_1
_geom_bond_atom_site_label_2
_geom_bond_distance
_geom_bond_site_symmetry_2
C1 C2 1.384(10) .
C1 C2 1.384(10) 2_456
C2 C10 1.408(13) .
C3 N1 1.397(13) 2_456
C3 C9 1.430(14) .
C3 C6 1.487(18) .
C5 C10 1.372(13) .
C5 C10 1.372(13) 2_456
C5 N1 1.502(15) 2_456
C5 N1 1.502(15) .
C6 C10 1.335(18) .
C6 N1 1.81(2) 2_456
C9 N1 0.826(16) 2_456
C9 C9 0.98(3) 2_456
C9 N1 1.329(16) .
N1 C9 0.826(16) 2_456
N1 N1 1.12(2) 2_456
N1 C3 1.397(13) 2_456
N1 C6 1.81(2) 2_456
I1 Bi1 3.0846(4) .
I1 Bi1 3.2824(5) 5_476
I2 Bi1 2.9027(5) .
Bi1 I2 2.9027(5) 2_456
Bi1 I1 3.0846(5) 2_456
Bi1 I1 3.2824(5) 5_476
Bi1 I1 3.2824(5) 6_675
