#------------------------------------------------------------------------------
#$Date: 2019-11-24 11:22:03 +0200 (Sun, 24 Nov 2019) $
#$Revision: 237781 $
#$URL: file:///home/coder/svn-repositories/cod/cif/7/23/75/7237572.cif $
#------------------------------------------------------------------------------
#
# This file is available in the Crystallography Open Database (COD),
# http://www.crystallography.net/
#
# All data on this site have been placed in the public domain by the
# contributors.
#
data_7237572
loop_
_publ_author_name
'Sun, Tiancheng'
'Wang, Ping'
'Fan, Ruiqing'
'Chen, Wei'
'Hao, Sue'
'Yang, Yulin'
_publ_section_title
;
 Functional microscale single-phase white emission lanthanide MOF for
 tunable fluorescent sensing and water quality monitoring
;
_journal_issue                   12
_journal_name_full               'Journal of Materials Chemistry C'
_journal_page_first              3598
_journal_paper_doi               10.1039/C8TC05968C
_journal_volume                  7
_journal_year                    2019
_chemical_formula_sum            'C14 H12 Gd N O10'
_chemical_formula_weight         511.50
_space_group_crystal_system      triclinic
_space_group_IT_number           2
_space_group_name_Hall           '-P 1'
_space_group_name_H-M_alt        'P -1'
_atom_sites_solution_hydrogens   mixed
_audit_creation_method           SHELXL-2014/7
_audit_update_record
;
2018-10-12 deposited with the CCDC.	2019-02-19 downloaded from the CCDC.
;
_cell_angle_alpha                110.206(2)
_cell_angle_beta                 94.086(2)
_cell_angle_gamma                103.083(2)
_cell_formula_units_Z            2
_cell_length_a                   5.9791(9)
_cell_length_b                   11.7581(18)
_cell_length_c                   12.574(2)
_cell_measurement_reflns_used    2776
_cell_measurement_temperature    293(2)
_cell_measurement_theta_max      24.997
_cell_measurement_theta_min      2.983
_cell_volume                     797.2(2)
_computing_structure_refinement  'SHELXL-2014/7 (Sheldrick, 2014)'
_diffrn_ambient_temperature      293(2)
_diffrn_measured_fraction_theta_full 0.993
_diffrn_measured_fraction_theta_max 0.993
_diffrn_measurement_device_type  'Bruker Smart APEX CCD area detector'
_diffrn_measurement_method       'phi and omega scans'
_diffrn_radiation_type           MoK\a
_diffrn_radiation_wavelength     0.71073
_diffrn_reflns_av_R_equivalents  0.0264
_diffrn_reflns_av_unetI/netI     0.0442
_diffrn_reflns_Laue_measured_fraction_full 0.993
_diffrn_reflns_Laue_measured_fraction_max 0.993
_diffrn_reflns_limit_h_max       7
_diffrn_reflns_limit_h_min       -6
_diffrn_reflns_limit_k_max       13
_diffrn_reflns_limit_k_min       -13
_diffrn_reflns_limit_l_max       14
_diffrn_reflns_limit_l_min       -14
_diffrn_reflns_number            5439
_diffrn_reflns_point_group_measured_fraction_full 0.993
_diffrn_reflns_point_group_measured_fraction_max 0.993
_diffrn_reflns_theta_full        24.999
_diffrn_reflns_theta_max         24.999
_diffrn_reflns_theta_min         3.038
_diffrn_source                   'fine-focus sealed tube'
_exptl_absorpt_coefficient_mu    4.218
_exptl_absorpt_correction_T_max  0.411
_exptl_absorpt_correction_T_min  0.389
_exptl_absorpt_correction_type   multi-scan
_exptl_absorpt_process_details   '(SADABS; Sheldrick, 2003)'
_exptl_crystal_colour            colorless
_exptl_crystal_density_diffrn    2.131
_exptl_crystal_description       flake
_exptl_crystal_F_000             494
_exptl_crystal_size_max          0.300
_exptl_crystal_size_mid          0.280
_exptl_crystal_size_min          0.240
_refine_diff_density_max         1.663
_refine_diff_density_min         -0.936
_refine_diff_density_rms         0.126
_refine_ls_extinction_method     none
_refine_ls_goodness_of_fit_ref   0.883
_refine_ls_hydrogen_treatment    constr
_refine_ls_matrix_type           full
_refine_ls_number_parameters     276
_refine_ls_number_reflns         2776
_refine_ls_number_restraints     0
_refine_ls_restrained_S_all      0.883
_refine_ls_R_factor_all          0.0371
_refine_ls_R_factor_gt           0.0302
_refine_ls_shift/su_max          0.078
_refine_ls_shift/su_mean         0.002
_refine_ls_structure_factor_coef Fsqd
_refine_ls_weighting_details
'w=1/[\s^2^(Fo^2^)+(0.0628P)^2^] where P=(Fo^2^+2Fc^2^)/3'
_refine_ls_weighting_scheme      calc
_refine_ls_wR_factor_gt          0.0760
_refine_ls_wR_factor_ref         0.0787
_reflns_Friedel_coverage         0.000
_reflns_number_gt                2472
_reflns_number_total             2776
_reflns_threshold_expression     'I > 2\s(I)'
_cod_data_source_file            c8tc05968c2.cif
_cod_data_source_block           S_CCDC1
_cod_database_code               7237572
_shelx_shelxl_version_number     2014/7
_shelx_space_group_comment
;
The symmetry employed for this shelxl refinement is uniquely defined
by the following loop, which should always be used as a source of
symmetry information in preference to the above space-group names.
They are only intended as comments.
;
_shelx_estimated_absorpt_t_min   0.364
_shelx_estimated_absorpt_t_max   0.431
_shelx_res_file
;

    S.res created by SHELXL-2014/7


TITL S P-1
CELL 0.71073 5.9791 11.7581 12.574 110.206 94.086 103.083
ZERR 2 0.0009 0.0018 0.002 0.002 0.002 0.002
LATT 1
SFAC C H Gd N O
UNIT 28 24 2 2 20

L.S. 5
PLAN  -20
BOND $H
CONF
fmap 2
acta
OMIT 0 50
size 0.30 0.28 0.24
omit 0 0 1
omit 0 1 0
omit 0 -1 1

WGHT    0.062800
FVAR       0.14110   0.61511
GD1   3    0.876897    0.886859    0.096300    11.00000    0.02272    0.02340 =
         0.02416    0.01075    0.00694    0.00290
O1W   5    1.253121    1.012431    0.191036    11.00000    0.02721    0.05410 =
         0.03353    0.02060    0.00790    0.00107
AFIX   7
H1WA  2    1.352701    0.998612    0.144950    11.00000   -1.50000
H1WB  2    1.291900    0.994574    0.249574    11.00000   -1.50000
AFIX   0
O2    5    0.891439    0.906586    0.301337    11.00000    0.02986    0.06072 =
         0.03579    0.02548    0.00445   -0.00401
O2W   5    1.085870    0.736591    0.102783    11.00000    0.04171    0.03638 =
         0.07440    0.01760   -0.00165    0.01029
AFIX   3
H2WA  2    0.983995    0.653196    0.066522    11.00000   -1.50000
H2WB  2    1.215585    0.745203    0.062674    11.00000   -1.50000
AFIX   0
O3    5    0.565200    0.795065    0.182240    11.00000    0.03140    0.05112 =
         0.03257    0.02145    0.00735   -0.00531
O4    5   -0.645702    0.315863    0.053593    11.00000    0.04463    0.02895 =
         0.06019    0.01155   -0.00074    0.01465
O5    5   -0.539746    0.147462    0.040941    11.00000    0.02646    0.01841 =
         0.03379    0.00498   -0.00110    0.00180
O6    5   -0.065894    0.104100    0.060792    11.00000    0.02855    0.03220 =
         0.02909    0.00664    0.01095    0.00659
O7    5   -0.246023    0.073596    0.198085    11.00000    0.03961    0.02706 =
         0.03377    0.01477    0.01428    0.00590
N1    4    0.586350    0.866649    0.579216    11.00000    0.12888    0.06591 =
         0.03045   -0.00822    0.02840   -0.05421
PART   1
O1    5    0.230631    0.552893    0.441172    21.00000    0.04593    0.03004 =
         0.02241    0.01012   -0.01354   -0.01929
C1    1    0.457535    0.749980    0.561124    21.00000    0.04126    0.03979 =
         0.01508    0.00540    0.00549   -0.01285
AFIX  43
H1    2    0.430255    0.725186    0.622765    21.00000   -1.20000
AFIX   0
C2    1    0.367228    0.668314    0.451298    21.00000    0.02531    0.02407 =
         0.01899    0.00253   -0.00169   -0.00660
C3    1    0.433023    0.698732    0.359088    21.00000    0.02493    0.02544 =
         0.01679    0.00447    0.00291   -0.00034
AFIX  43
H3    2    0.376194    0.641509    0.284386    21.00000   -1.20000
AFIX   0
PART   2
O1A   5   -0.021607    0.655462    0.408153   -21.00000    0.04488    0.02135 =
         0.05050    0.00152    0.01590   -0.00714
C1A   1    0.306891    0.802127    0.542173   -21.00000    0.06498    0.03043 =
         0.01947   -0.00389    0.02076   -0.00667
AFIX  43
H1A   2    0.211837    0.812947    0.598287   -21.00000   -1.20000
AFIX   0
C2A   1    0.208847    0.731580    0.428708   -21.00000    0.03789    0.02802 =
         0.03209    0.00660    0.00482    0.00126
C3A   1    0.328052    0.738512    0.342966   -21.00000    0.05711    0.03050 =
         0.02071    0.00120    0.00377   -0.00999
AFIX  43
H3A   2    0.258594    0.699084    0.266241   -21.00000   -1.20000
AFIX   0
PART   0
C4    1    0.583803    0.814738    0.378643    11.00000    0.04872    0.03202 =
         0.03300    0.00745    0.01705   -0.00512
C5    1    0.671119    0.887949    0.491234    11.00000    0.06012    0.03791 =
         0.03766    0.00754    0.01468   -0.01616
AFIX  43
H5    2    0.798140    0.957144    0.507158    11.00000   -1.20000
AFIX   0
C6    1   -0.089004    0.537878    0.321268    11.00000    0.06406    0.02579 =
         0.05521   -0.00875    0.02246   -0.01061
AFIX  43
PART   1
H6    2   -0.072260    0.623136    0.360690    21.00000   -1.20000
AFIX   0
PART   0
C7    1   -0.271350    0.466560    0.235032    11.00000    0.04406    0.02458 =
         0.07032    0.00193    0.01772   -0.00058
AFIX  43
H7    2   -0.378972    0.504835    0.215161    11.00000   -1.20000
AFIX   0
C8    1   -0.302138    0.339008    0.175877    11.00000    0.02870    0.02261 =
         0.03187    0.00594    0.01036    0.00156
C9    1   -0.137343    0.281859    0.204733    11.00000    0.02449    0.02768 =
         0.02017    0.00515    0.00975   -0.00605
C10   1    0.049346    0.353570    0.291578    11.00000    0.03728    0.04018 =
         0.02980    0.01477    0.00114   -0.00801
AFIX  43
H10   2    0.159894    0.316935    0.311484    11.00000   -1.20000
AFIX   0
C11   1    0.069996    0.479188    0.348081    11.00000    0.06342    0.04465 =
         0.02313   -0.00050    0.01321   -0.03052
AFIX  43
PART   2
H11   2    0.195699    0.526545    0.406587   -21.00000   -1.20000
AFIX   0
PART   0
C12   1    0.686279    0.841599    0.282492    11.00000    0.03270    0.03295 =
         0.02888    0.01363    0.01001    0.00384
C13   1   -0.506755    0.262656    0.084878    11.00000    0.02607    0.02445 =
         0.03441    0.00901    0.01232    0.00488
C14   1   -0.157365    0.144433    0.149076    11.00000    0.01883    0.02591 =
         0.02213    0.00709    0.00468    0.00226
AFIX   6
O3W   5    0.243342    0.518109    0.041371    11.00000    0.20497    0.10484 =
         0.24241    0.07710    0.03155    0.05807
H3WA  2    0.143523    0.509310    0.084786    11.00000   -1.50000
H3WB  2    0.295027    0.453502    0.019614    11.00000   -1.50000

AFIX   0
HKLF 4

REM  S P-1
REM R1 =  0.0302 for    2472 Fo > 4sig(Fo)  and  0.0371 for all    2776 data
REM    276 parameters refined using      0 restraints

END

WGHT      0.0404      0.0000

REM Highest difference peak  1.663,  deepest hole -0.936,  1-sigma level  0.126
Q1    1   0.9572  0.8449  0.1136  11.00000  0.05    1.66
Q2    1   0.7807  0.9388  0.0811  11.00000  0.05    1.55
Q3    1   0.7193  0.8384  0.0793  11.00000  0.05    0.79
Q4    1   0.8075  0.7999  0.0564  11.00000  0.05    0.77
Q5    1   1.0096  0.9209  0.1999  11.00000  0.05    0.65
Q6    1   1.0748  0.9184  0.1261  11.00000  0.05    0.63
Q7    1   1.1731  0.7643  0.1798  11.00000  0.05    0.60
Q8    1   0.6360  0.9804  0.0793  11.00000  0.05    0.55
Q9    1   1.2399  0.7487  0.1407  11.00000  0.05    0.54
Q10   1  -0.0082  0.5192  0.3543  11.00000  0.05    0.53
Q11   1   0.7525  0.8011  0.1436  11.00000  0.05    0.48
Q12   1   0.5150  0.8982 -0.0530  11.00000  0.05    0.46
Q13   1  -0.1847  0.4803  0.2761  11.00000  0.05    0.42
Q14   1   0.9538  0.9798  0.1397  11.00000  0.05    0.42
Q15   1   0.6348  0.8954 -0.0054  11.00000  0.05    0.42
Q16   1   0.8444  0.9270  0.1353  11.00000  0.05    0.41
Q17   1   0.6336  0.7238  0.3310  11.00000  0.05    0.39
Q18   1   0.5458  0.8371  0.2293  11.00000  0.05    0.38
Q19   1   0.4335  0.7361  0.1205  11.00000  0.05    0.37
Q20   1   0.7332  0.6695 -0.0066  11.00000  0.05    0.37
;
_shelx_res_checksum              39580
_shelx_hkl_file
;
  -1   0   0  103.17    2.46
   1   0   0  103.36    2.50
   1   0   0  107.36    2.46
  -2   0   0    0.62    0.32
   2   0   0    0.25    0.29
   2   0   0    0.22    0.26
  -3   0   0   60.90    1.92
   3   0   0   60.84    1.95
   3   0   0   60.01    1.80
  -4   0   0   88.81    2.80
   4   0   0   91.77    2.86
   4   0   0   88.27    2.59
  -5   0   0   57.51    2.40
   5   0   0   58.46    2.41
   6   0   0    1.48    0.91
   7   0   0    7.56    1.47
   7  -1   0    0.45    1.10
   6  -1   0   21.99    1.87
   5  -1   0   60.37    2.12
   5  -1   0   62.57    2.48
  -5   1   0   59.83    2.38
   4  -1   0   57.25    2.12
   4  -1   0   57.22    1.91
  -4   1   0   59.43    2.02
   3  -1   0    0.29    0.37
   3  -1   0    0.13    0.31
  -3   1   0    0.26    0.34
   2  -1   0   15.91    0.74
   2  -1   0   14.79    0.67
  -2   1   0   16.05    0.63
   1  -1   0  128.62    2.99
   1  -1   0  134.46    3.07
   0  -1   0   -0.02    0.03
   0  -1   0    0.07    0.04
   0   1   0    0.05    0.04
   0   1   0   -0.02    0.04
  -1  -1   0    0.30    0.27
   1   1   0   -0.16    0.15
   1   1   0    0.33    0.23
  -2  -1   0   16.61    0.87
   2   1   0   15.74    0.77
   2   1   0   16.18    0.76
  -3  -1   0  235.01    5.82
   3   1   0  236.48    5.70
   3   1   0  236.56    5.85
  -4  -1   0   45.10    1.97
   4   1   0   45.14    1.69
   4   1   0   45.90    1.89
  -5  -1   0    2.87    0.99
   5   1   0    2.83    0.84
   6   1   0   10.56    1.43
   7   1   0   18.73    2.11
   7  -2   0   10.33    1.60
   6  -2   0   77.58    3.13
   5  -2   0   34.23    1.51
   5  -2   0   36.60    1.88
  -5   2   0   34.39    2.03
   4  -2   0    0.36    0.42
   4  -2   0    0.38    0.50
  -4   2   0   -0.16    0.44
   3  -2   0   81.12    2.28
   3  -2   0   82.34    2.43
  -3   2   0   83.29    2.20
   2  -2   0    3.46    0.44
   2  -2   0    3.85    0.47
   1  -2   0  586.99   13.48
   1  -2   0  605.66   13.23
   1  -2   0  578.58   13.48
   0  -2   0    1.42    0.22
   0  -2   0    1.41    0.24
   0   2   0    1.64    0.23
   0   2   0    1.95    0.22
  -1  -2   0   44.84    1.38
   1   2   0   44.15    1.33
   1   2   0   43.85    1.23
  -2  -2   0  188.87    4.68
   2   2   0  191.06    4.62
   2   2   0  184.83    4.59
  -3  -2   0   86.60    2.65
   3   2   0   86.37    2.55
   3   2   0   83.70    2.47
  -4  -2   0    2.25    0.86
   4   2   0    1.82    0.65
   4   2   0    2.11    0.67
  -5  -2   0   15.00    1.73
   5   2   0   14.83    1.48
   6   2   0   34.24    2.19
   7   2   0    9.45    1.70
   7  -3   0   25.63    2.32
   6  -3   0   29.55    2.04
   5  -3   0    2.67    0.81
   5  -3   0    3.75    0.67
   4  -3   0   39.88    1.54
   4  -3   0   40.94    1.74
  -4   3   0   39.66    1.42
   3  -3   0  294.86    7.08
   3  -3   0  291.98    6.99
  -3   3   0  293.00    6.79
   2  -3   0  136.38    3.43
   2  -3   0  137.56    3.44
   2  -3   0  136.47    3.29
   1  -3   0   39.06    1.18
   1  -3   0   40.39    1.24
   0  -3   0  155.96    3.76
   0  -3   0  157.77    3.76
   0   3   0  161.68    3.64
   0   3   0  148.13    3.72
  -1  -3   0  167.48    4.12
   1   3   0  166.80    4.09
   1   3   0  163.49    3.93
  -2  -3   0  198.74    5.09
   2   3   0  208.08    5.08
   2   3   0  201.81    4.94
  -3  -3   0   13.95    1.26
   3   3   0   14.56    0.98
   3   3   0   13.80    1.14
  -4  -3   0   15.63    1.57
   4   3   0   13.92    1.23
  -5  -3   0   57.25    2.63
   5   3   0   54.90    2.42
   6   3   0   32.11    2.17
   7  -4   0   16.32    1.91
   6  -4   0    1.83    0.95
   5  -4   0    6.83    0.92
   5  -4   0    7.48    1.05
   4  -4   0  110.74    3.19
   4  -4   0  117.24    3.39
  -4   4   0  110.08    2.95
   3  -4   0   28.85    1.25
   3  -4   0   28.17    1.00
   3  -4   0   28.50    1.19
   2  -4   0    9.56    0.64
   2  -4   0    8.82    0.59
   2  -4   0    8.81    0.65
   1  -4   0   63.77    1.84
   1  -4   0   62.04    1.77
   0  -4   0  187.72    4.52
   0  -4   0  181.81    4.52
   0   4   0  191.22    4.35
   0   4   0  181.40    4.50
  -1  -4   0  114.95    3.05
   1   4   0  112.40    3.01
   1   4   0  109.32    2.79
  -2  -4   0   36.91    1.59
   2   4   0   38.56    1.34
   2   4   0   36.83    1.55
  -3  -4   0   27.70    1.62
   3   4   0   26.41    1.30
   3   4   0   28.52    1.64
  -4  -4   0   62.44    2.60
   4   4   0   62.38    2.34
  -5  -4   0   42.50    2.40
   5   4   0   41.74    2.14
  -6  -4   0    1.66    1.23
   6   4   0    0.05    0.90
   7  -5   0    0.15    1.12
   6  -5   0    9.34    1.09
   6  -5   0    6.15    1.23
   5  -5   0   42.72    1.83
   5  -5   0   45.81    2.13
   4  -5   0   78.12    2.53
   4  -5   0   83.50    2.72
   3  -5   0    8.32    0.77
   3  -5   0    8.45    0.83
   3  -5   0    8.15    0.62
   2  -5   0   14.50    0.81
   2  -5   0   14.24    0.85
   1  -5   0  368.22    8.60
   1  -5   0  370.23    8.69
   0  -5   0  378.32    8.88
   0  -5   0  379.29    8.86
   0   5   0  391.92    8.63
   0   5   0  364.77    8.86
  -1  -5   0   14.62    0.99
   1   5   0   14.47    0.69
   1   5   0   14.58    0.88
  -2  -5   0    5.87    0.86
   2   5   0    5.45    0.64
   2   5   0    5.52    0.83
  -3  -5   0   64.56    2.50
   3   5   0   63.52    2.16
   3   5   0   62.55    2.53
  -4  -5   0   59.50    2.62
   4   5   0   58.91    2.31
  -5  -5   0   23.04    2.10
   5   5   0   20.50    1.70
  -6  -5   0    4.22    1.38
   7  -6   0    3.74    1.34
   6  -6   0   33.45    2.25
   6  -6   0   34.42    1.81
   5  -6   0   62.14    2.57
   5  -6   0   59.87    2.28
   4  -6   0    6.60    0.93
   4  -6   0    5.92    0.81
   3  -6   0    1.93    0.55
   3  -6   0    2.12    0.49
   3  -6   0    1.89    0.56
   2  -6   0   80.34    2.41
   2  -6   0   83.78    2.51
   1  -6   0  140.75    3.77
   1  -6   0  140.29    3.69
   0  -6   0    6.67    0.77
   0  -6   0    6.70    0.72
   0   6   0    5.99    0.65
   0   6   0    7.00    0.53
  -1  -6   0    0.83    0.54
   1   6   0    1.15    0.49
   1   6   0    0.49    0.29
  -2  -6   0   42.10    1.89
   2   6   0   41.98    1.53
   2   6   0   43.60    1.95
  -3  -6   0   94.86    3.23
   3   6   0   92.61    2.83
   3   6   0   88.80    3.32
  -4  -6   0   17.06    1.83
  -5  -6   0    2.49    1.21
   7  -7   0   14.14    1.89
   6  -7   0   37.90    2.00
   6  -7   0   39.20    2.46
   5  -7   0   10.04    1.23
   5  -7   0    8.79    1.23
   4  -7   0    5.82    0.87
   4  -7   0    5.46    0.92
   3  -7   0   43.65    1.74
   3  -7   0   46.91    1.83
   2  -7   0   70.23    2.28
   2  -7   0   72.04    2.37
   1  -7   0   37.38    1.54
   1  -7   0   35.24    1.46
  -1   7   0   28.54    1.41
  -1   7   0   37.52    1.54
   0  -7   0   12.28    1.03
   0  -7   0   14.25    1.04
   0   7   0   13.23    0.96
   0   7   0   13.29    0.71
  -1  -7   0   38.32    1.75
   1   7   0   41.38    1.75
  -2  -7   0   50.10    2.19
   2   7   0   52.76    2.28
  -3  -7   0    0.57    0.83
  -4  -7   0    4.16    1.20
  -5  -7   0   28.08    2.37
   7  -8   0    9.42    1.73
   6  -8   0    4.31    1.27
   6  -8   0    7.85    1.19
   5  -8   0    1.57    0.94
   5  -8   0    2.17    0.83
   4  -8   0   26.60    1.60
   3  -8   0  110.97    3.39
   3  -8   0  114.65    3.48
   2  -8   0   32.48    1.60
   2  -8   0   34.52    1.56
   1  -8   0   15.98    1.14
   1  -8   0   15.81    1.21
  -1   8   0   16.98    1.15
   0  -8   0   63.29    2.30
   0   8   0   66.68    2.35
  -1  -8   0   69.03    2.52
   1   8   0   69.84    2.55
  -2  -8   0   59.33    2.50
   2   8   0   61.60    2.62
  -3  -8   0    0.65    0.91
  -4  -8   0   17.53    2.01
   7  -9   0    0.92    1.43
   7  -9   0    5.43    1.47
   6  -9   0   -1.12    1.06
   6  -9   0    2.85    0.96
   5  -9   0   12.27    1.41
   4  -9   0   39.72    2.01
   3  -9   0    9.80    1.15
   3  -9   0    8.39    1.19
   2  -9   0    2.20    0.66
   2  -9   0    1.59    0.70
   1  -9   0   39.12    1.92
   1  -9   0   36.83    1.76
  -1   9   0   40.76    1.85
   0  -9   0   68.60    2.52
   0   9   0   71.25    2.62
  -1  -9   0   25.75    1.67
   1   9   0   24.18    1.63
  -2  -9   0    2.04    0.90
   2   9   0    0.60    0.90
  -3  -9   0   13.48    1.75
  -4  -9   0   29.61    2.37
   6 -10   0   17.73    1.78
   5 -10   0   17.46    1.64
   4 -10   0   20.47    1.68
   3 -10   0    0.97    0.75
   3 -10   0    1.33    0.69
   2 -10   0   23.25    1.73
   2 -10   0   22.59    1.48
  -2  10   0   27.73    1.60
   1 -10   0   66.67    2.54
   1 -10   0   69.67    2.77
  -1  10   0   69.50    2.68
   0 -10   0   14.00    1.36
   0  10   0   12.23    1.31
  -1 -10   0    1.54    0.81
   1  10   0    1.52    0.87
  -2 -10   0   15.46    1.72
  -3 -10   0   18.55    1.99
   6 -11   0   19.80    1.93
   5 -11   0   17.91    1.76
   4 -11   0    0.62    0.87
   3 -11   0   14.12    1.66
   2 -11   0   36.02    2.20
   2 -11   0   35.23    1.89
  -2  11   0   36.00    2.00
   1 -11   0   39.21    2.02
   1 -11   0   41.06    2.33
  -1  11   0   39.21    2.13
   0 -11   0    2.02    0.86
   0  11   0    2.19    0.91
  -1 -11   0   13.39    1.57
   1  11   0   10.82    1.54
  -2 -11   0   24.48    1.99
   5 -12   0    0.20    0.96
   4 -12   0    7.08    1.39
   3 -12   0   21.77    2.04
  -3  12   0   20.14    1.64
   2 -12   0   17.04    1.53
   2 -12   0   15.44    1.92
  -2  12   0   14.19    1.62
   1 -12   0    1.15    0.78
  -1  12   0    0.09    0.77
   0 -12   0    8.41    1.25
   0  12   0    7.57    1.37
  -1 -12   0   24.27    1.93
   1  12   0   20.97    2.10
   4 -13   0   17.49    2.18
  -4  13   0   16.18    1.83
   3 -13   0   10.63    1.70
  -3  13   0   10.92    1.55
   2 -13   0    1.09    0.79
   2 -13   0   -0.97    1.04
  -2  13   0    0.73    0.82
   1 -13   0    6.87    1.16
  -1  13   0    7.92    1.44
   0 -13   0   20.11    1.90
   0  13   0   15.73    1.96
   1 -14   0    7.51    1.25
   0  14  -1    1.72    1.15
  -1  14  -1   12.50    1.72
   1 -14   1   14.15    1.67
  -2  14  -1   12.80    1.68
   2 -14   1   11.85    1.80
  -1 -13   1    6.62    1.32
   0  13  -1   14.04    1.78
   0 -13   1   19.95    1.74
  -1  13  -1   23.69    1.91
   1 -13   1   23.10    1.75
  -2  13  -1    6.28    1.20
   2 -13   1    3.93    1.28
  -3  13  -1    1.74    0.82
   3 -13   1    2.69    1.25
   4 -13   1   17.49    1.98
  -2 -12   1    3.22    1.14
   1  12  -1   16.51    1.96
  -1 -12   1   19.99    1.77
   0  12  -1   25.19    1.88
   0 -12   1   25.86    1.83
  -1  12  -1    8.83    1.28
   1 -12   1    8.39    1.41
   1 -12   1    7.90    1.13
  -2  12  -1    2.33    0.86
   2 -12   1    3.62    0.84
   2 -12   1    3.60    1.17
   3 -12   1    8.72    1.43
   4 -12   1   19.61    1.87
   5 -12   1    3.19    1.19
  -2 -11   1   19.59    1.89
   1  11  -1   23.72    1.85
  -1 -11   1   24.84    1.84
   0  11  -1   16.69    1.50
   0 -11   1   16.81    1.50
  -1  11  -1    7.34    1.11
   1 -11   1    7.30    1.21
   1 -11   1    6.94    1.03
  -2  11  -1   25.34    1.67
   2 -11   1   28.13    1.92
   2 -11   1   27.86    1.62
   3 -11   1   40.81    2.22
   4 -11   1   11.21    1.51
   5 -11   1    2.58    1.10
   6 -11   1   16.20    1.87
  -3 -10   1   24.42    2.07
  -2 -10   1   45.49    2.40
   1  10  -1   12.73    1.35
  -1 -10   1   12.33    1.48
   0  10  -1    2.48    0.74
   0 -10   1    2.00    0.76
  -1  10  -1   47.39    2.09
   1 -10   1   47.85    2.04
   1 -10   1   52.86    2.28
   2 -10   1   46.08    1.97
   2 -10   1   50.80    2.24
   3 -10   1   45.77    2.19
   4 -10   1    2.44    0.92
   5 -10   1   12.98    1.58
   6 -10   1   19.24    1.85
  -4  -9   1   19.26    2.15
  -3  -9   1   40.68    2.41
   2   9  -1   12.28    1.74
  -2  -9   1   15.36    1.60
   1   9  -1    1.54    0.67
  -1  -9   1    1.16    0.76
   0   9  -1   40.20    1.80
   0  -9   1   39.88    1.82
   0  -9   1   42.73    1.90
  -1   9  -1   42.68    1.83
   1  -9   1   44.25    1.96
   1  -9   1   41.32    1.78
   2  -9   1   37.43    1.65
   2  -9   1   35.47    1.75
   3  -9   1    0.51    0.63
   4  -9   1   26.92    1.69
   5  -9   1   19.44    1.63
   6  -9   1   15.04    1.62
   7  -9   1    1.59    0.96
  -5  -8   1   12.22    2.32
  -4  -8   1   42.52    2.57
  -3  -8   1   54.49    2.63
   2   8  -1    0.86    0.71
  -2  -8   1    0.33    0.79
   1   8  -1   56.54    2.13
  -1  -8   1   54.60    2.21
   0   8  -1  102.22    2.83
   0   8  -1  103.22    3.11
   0  -8   1  100.58    3.09
   0  -8   1  104.42    3.14
  -1   8  -1   47.60    1.99
   1  -8   1   45.73    1.76
   1  -8   1   44.55    1.82
   2  -8   1    6.09    0.85
   2  -8   1    5.67    0.73
   3  -8   1   61.84    2.27
   3  -8   1   57.43    2.11
   4  -8   1   48.76    2.09
   5  -8   1   20.42    1.63
   5  -8   1   16.49    1.81
   6  -8   1   -0.20    1.04
   6  -8   1    1.52    0.87
   7  -8   1   12.25    1.68
   7  -8   1    7.78    1.66
  -5  -7   1   24.37    2.34
  -4  -7   1   33.63    2.32
   3   7  -1    1.42    0.71
  -3  -7   1    2.41    0.98
   2   7  -1   24.52    1.50
   2   7  -1   23.91    1.20
  -2  -7   1   24.60    1.62
   1   7  -1  128.99    3.37
   1   7  -1  129.43    3.63
  -1  -7   1  126.72    3.70
   0   7  -1   95.40    2.60
   0   7  -1   93.68    2.75
   0  -7   1   91.73    2.77
   0  -7   1   90.08    2.76
   1  -7   1    5.22    0.70
   1  -7   1    5.43    0.71
   2  -7   1   24.67    1.15
   2  -7   1   24.02    1.24
   3  -7   1   50.88    1.93
   3  -7   1   48.09    1.72
   4  -7   1   27.03    1.69
   4  -7   1   26.04    1.49
   5  -7   1   12.02    1.27
   5  -7   1   10.28    1.33
   6  -7   1   16.02    1.51
   6  -7   1   15.23    2.01
   7  -7   1   17.85    2.44
  -6  -6   1   17.99    2.38
   5   6  -1   12.92    1.92
  -5  -6   1   16.38    2.02
   4   6  -1    0.22    0.60
  -4  -6   1    1.61    1.05
   3   6  -1   26.52    1.39
  -3  -6   1   26.64    1.84
   2   6  -1   55.30    1.85
   2   6  -1   54.39    2.08
  -2  -6   1   54.70    2.19
   1   6  -1   75.43    2.29
   1   6  -1   73.48    2.12
  -1  -6   1   73.80    2.40
   0   6  -1    2.20    0.43
   0   6  -1    3.59    0.51
   0  -6   1    2.31    0.47
   0  -6   1    1.96    0.52
   1  -6   1   61.43    1.87
   1  -6   1   62.52    1.98
   2  -6   1  173.26    4.39
   2  -6   1  178.93    4.57
   3  -6   1   49.63    1.85
   3  -6   1   46.09    1.77
   3  -6   1   45.34    1.50
   4  -6   1    0.31    0.51
   4  -6   1    0.46    0.67
   5  -6   1    8.91    1.22
   5  -6   1    7.86    1.02
   6  -6   1   26.54    1.72
   6  -6   1   26.99    2.13
   7  -6   1   15.42    1.92
   6   5  -1   17.78    1.90
  -6  -5   1   20.98    2.35
   5   5  -1    0.98    0.76
  -5  -5   1    1.34    1.12
   4   5  -1   40.79    1.88
  -4  -5   1   40.90    2.28
   3   5  -1   71.52    2.39
   3   5  -1   77.52    2.61
  -3  -5   1   73.02    2.73
   2   5  -1  119.50    3.38
   2   5  -1  119.91    3.23
  -2  -5   1  120.65    3.49
   1   5  -1    3.50    0.50
   1   5  -1    2.63    0.41
  -1  -5   1    3.45    0.61
   0   5  -1   90.52    2.34
   0   5  -1   77.41    2.31
   0  -5   1   85.93    2.36
   0  -5   1   86.78    2.39
   1  -5   1  322.55    7.54
   1  -5   1  314.37    7.40
   2  -5   1  238.95    5.69
   2  -5   1  222.36    5.48
   3  -5   1    8.09    0.88
   3  -5   1    6.47    0.49
   3  -5   1    6.30    0.75
   4  -5   1   17.63    1.16
   4  -5   1   17.58    1.35
   5  -5   1   49.74    2.31
   5  -5   1   46.68    2.01
   6  -5   1   28.36    1.67
   6  -5   1   28.06    2.14
   7  -5   1    3.80    1.40
   6   4  -1    2.64    1.03
  -6  -4   1    3.97    1.40
   5   4  -1   17.08    1.54
  -5  -4   1   17.12    1.97
   4   4  -1   89.18    2.95
  -4  -4   1   89.20    3.23
   3   4  -1   73.43    2.37
   3   4  -1   74.35    2.39
  -3  -4   1   73.21    2.65
   2   4  -1   27.00    1.12
   2   4  -1   25.64    1.17
  -2  -4   1   26.03    1.38
   1   4  -1   28.22    1.02
   1   4  -1   28.04    1.01
  -1  -4   1   29.57    1.22
   0   4  -1   64.54    1.82
   0  -4   1   62.15    1.75
   0  -4   1   60.18    1.79
   1  -4   1  360.20    8.37
   1  -4   1  361.57    8.23
   2  -4   1  119.49    3.11
   2  -4   1  115.05    2.88
   2  -4   1  119.93    3.12
   3  -4   1   56.15    1.89
   3  -4   1   54.92    1.84
  -4   4  -1   58.60    1.75
   4  -4   1   59.34    2.21
   4  -4   1   59.59    2.07
   5  -4   1   26.13    1.49
   5  -4   1   28.56    1.78
   6  -4   1    8.14    1.12
   6  -4   1    6.13    1.24
   7  -4   1    2.17    1.28
   6   3  -1    1.93    0.96
  -6  -3   1    3.62    1.37
   5   3  -1   61.50    2.53
  -5  -3   1   57.33    2.76
   4   3  -1   82.47    2.77
  -4  -3   1   84.82    3.03
   3   3  -1   66.56    2.17
   3   3  -1   65.27    2.04
  -3  -3   1   68.63    2.39
   2   3  -1  110.68    3.00
   2   3  -1  116.53    2.98
  -2  -3   1  115.08    3.18
   1   3  -1   76.08    2.01
   1   3  -1   75.07    2.03
  -1  -3   1   78.39    2.18
   0   3  -1   94.78    2.46
   0  -3   1   93.19    2.34
   0  -3   1   95.38    2.39
   1  -3   1  269.89    6.05
   1  -3   1  261.92    6.19
   2  -3   1   18.66    0.86
   2  -3   1   17.86    0.59
   2  -3   1   18.14    0.84
  -3   3  -1  131.20    3.17
   3  -3   1  129.75    3.46
   3  -3   1  131.60    3.54
  -4   3  -1   72.35    2.13
   4  -3   1   75.16    2.51
   4  -3   1   72.75    2.35
   5  -3   1    7.93    1.04
   5  -3   1    6.65    1.03
   6  -3   1    6.19    1.25
   7  -3   1   20.98    2.30
   7   2  -1    2.00    1.20
   6   2  -1   30.04    2.08
  -6  -2   1   28.62    2.33
   5   2  -1   60.57    2.51
  -5  -2   1   61.56    2.70
   4   2  -1   22.76    1.35
  -4  -2   1   23.34    1.65
   3   2  -1   14.69    0.94
   3   2  -1   14.17    0.80
  -3  -2   1   15.64    1.17
   2   2  -1  299.44    7.21
   2   2  -1  309.06    7.08
  -2  -2   1  313.13    7.31
   1   2  -1  129.15    3.15
   1   2  -1  129.78    3.07
  -1  -2   1  129.50    3.22
   0   2  -1  118.32    3.05
   0  -2   1  132.60    2.95
   0  -2   1  127.10    2.96
   1  -2   1    2.27    0.35
   1  -2   1    2.21    0.32
  -2   2  -1  155.64    3.55
   2  -2   1  152.32    3.78
   2  -2   1  153.25    3.81
  -3   2  -1  114.99    2.92
   3  -2   1  117.37    3.20
   3  -2   1  116.91    3.12
  -4   2  -1   41.79    1.59
   4  -2   1   44.04    1.82
   4  -2   1   43.11    1.68
   5  -2   1    0.64    0.70
   5  -2   1    0.55    0.58
   6  -2   1   35.47    2.26
   7  -2   1   17.47    2.22
   7   1  -1   10.61    1.60
   6   1  -1   35.02    2.18
   5   1  -1    9.47    1.31
  -5  -1   1    9.97    1.31
   4   1  -1    1.25    0.45
   4   1  -1    0.68    0.51
  -4  -1   1    1.33    0.75
   3   1  -1  181.63    4.46
   3   1  -1  188.17    4.75
  -3  -1   1  188.13    4.76
   2   1  -1  122.32    2.96
   2   1  -1  122.65    3.16
  -2  -1   1  125.21    3.18
   1   1  -1   15.66    0.60
  -1  -1   1   16.33    0.64
   0   1  -1   -0.41    0.07
   0  -1   1   -0.37    0.03
   1  -1   1  393.64    8.86
   1  -1   1  392.38    8.86
  -2   1  -1  123.42    2.95
   2  -1   1  119.96    3.09
   2  -1   1  123.75    3.12
  -3   1  -1   34.36    1.26
   3  -1   1   36.54    1.41
   3  -1   1   35.02    1.32
  -4   1  -1    4.33    0.72
   4  -1   1    4.08    0.72
   4  -1   1    3.68    0.68
   5  -1   1   38.76    1.78
   5  -1   1   43.35    2.09
   6  -1   1   30.83    2.12
   7  -1   1    4.47    1.38
   7   0  -1   18.04    2.02
   6   0  -1   19.97    1.78
   5   0  -1    6.09    0.97
  -5   0   1    5.37    1.06
   4   0  -1   52.26    1.70
   4   0  -1   55.14    2.04
  -4   0   1   55.20    2.04
   3   0  -1  200.95    5.00
   3   0  -1  190.64    4.72
  -3   0   1  204.25    4.94
   2   0  -1   68.48    1.76
   2   0  -1   70.63    1.95
  -2   0   1   69.63    1.88
   1   0  -1    0.47    0.15
   1   0  -1    0.54    0.12
  -1   0   1    0.34    0.13
   0   0  -1   -0.02    0.03
   0   0   1   -0.06    0.05
  -1   0  -1  454.79   10.20
   1   0   1  446.66   10.24
   1   0   1  469.33   10.32
  -2   0  -1  102.19    2.63
   2   0   1  105.41    2.73
   2   0   1  104.79    2.71
  -3   0  -1    6.64    0.80
   3   0   1    5.51    0.73
   3   0   1    5.89    0.72
  -4   0  -1   49.49    1.94
   4   0   1   49.31    1.97
   4   0   1   49.73    1.86
  -5   0  -1   79.52    2.85
   5   0   1   78.98    2.67
   5   0   1   82.79    2.95
   6   0   1   25.12    2.02
   7   0   1   -0.54    1.10
   7  -1  -1    7.97    1.44
   6  -1  -1    8.55    1.30
   5  -1  -1   32.74    1.82
  -5   1   1   31.48    1.77
   4  -1  -1  133.19    3.75
   4  -1  -1  125.33    3.39
  -4   1   1  134.46    3.62
   3  -1  -1  104.99    2.81
   3  -1  -1  111.72    3.06
  -3   1   1  116.67    2.93
   2  -1  -1    4.53    0.47
   2  -1  -1    3.52    0.38
  -2   1   1    3.22    0.38
   1  -1  -1  166.63    3.87
   1  -1  -1  163.69    3.86
   1  -1  -1  170.38    3.85
   0  -1  -1  371.98    8.33
   0   1   1  360.66    8.25
  -1  -1  -1  202.35    4.69
   1   1   1  205.76    4.78
   1   1   1  194.13    4.62
  -2  -1  -1   70.19    2.02
   2   1   1   72.24    2.10
   2   1   1   71.40    2.00
  -3  -1  -1   38.26    1.51
   3   1   1   37.14    1.47
   3   1   1   38.68    1.51
  -4  -1  -1   50.55    2.05
   4   1   1   48.13    1.93
   4   1   1   52.42    2.04
  -5  -1  -1   22.11    1.71
   5   1   1   21.88    1.66
   6   1   1   -0.42    0.89
   7   1   1    6.47    1.50
   7  -2  -1   -0.79    0.99
   6  -2  -1   39.81    2.26
   5  -2  -1   51.45    2.18
   5  -2  -1   46.81    1.76
  -5   2   1   47.92    1.98
   4  -2  -1   71.07    2.39
   4  -2  -1   68.24    2.10
  -4   2   1   70.93    2.16
   3  -2  -1    2.92    0.42
   3  -2  -1    2.24    0.46
  -3   2   1    2.28    0.37
   2  -2  -1   75.30    2.06
   2  -2  -1   76.15    2.01
   2  -2  -1   75.45    1.97
   1  -2  -1  108.58    2.70
   1  -2  -1  106.17    2.55
   1  -2  -1  107.64    2.65
   0  -2  -1  118.89    2.82
   0   2   1  110.47    2.82
  -1  -2  -1    1.87    0.39
   1   2   1    2.05    0.27
   1   2   1    2.46    0.44
  -2  -2  -1  111.95    3.00
   2   2   1  113.40    3.10
   2   2   1  110.18    2.90
  -3  -2  -1   62.61    2.14
   3   2   1   62.87    2.06
   3   2   1   64.41    2.18
  -4  -2  -1   24.87    1.61
   4   2   1   23.87    1.45
   4   2   1   25.55    1.54
  -5  -2  -1    1.50    0.93
   5   2   1    1.12    0.78
   6   2   1   17.08    1.86
   7  -3  -1   15.96    2.09
   6  -3  -1   31.35    2.03
   5  -3  -1   38.66    1.91
   5  -3  -1   33.28    1.46
  -5   3   1   35.79    1.59
   4  -3  -1    7.18    0.72
   4  -3  -1    6.72    0.83
  -4   3   1    7.23    0.70
   3  -3  -1   77.52    2.22
   3  -3  -1   78.91    2.34
   3  -3  -1   78.85    2.15
   2  -3  -1  150.23    3.72
   2  -3  -1  148.63    3.68
   2  -3  -1  149.23    3.68
   1  -3  -1  166.47    3.90
   1  -3  -1  169.78    4.10
   1  -3  -1  169.36    4.11
   0  -3  -1    1.70    0.37
   0   3   1    1.80    0.33
  -1  -3  -1   97.06    2.62
   1   3   1   97.22    2.70
   1   3   1   96.43    2.39
  -2  -3  -1  175.03    4.52
   2   3   1  174.84    4.36
   2   3   1  182.21    4.68
  -3  -3  -1   47.25    1.92
   3   3   1   47.77    2.03
   3   3   1   45.41    1.72
  -4  -3  -1    2.47    0.89
   4   3   1    2.50    0.71
   4   3   1    2.97    0.94
  -5  -3  -1    7.32    1.22
   5   3   1    6.54    1.08
   6   3   1   33.17    2.25
   7  -4  -1   25.69    2.23
   6  -4  -1   16.11    1.76
   5  -4  -1    2.35    0.58
   5  -4  -1    1.80    0.76
   4  -4  -1   38.89    1.71
   4  -4  -1   35.94    1.46
  -4   4   1   37.44    1.35
   3  -4  -1  108.67    2.96
   3  -4  -1  106.85    2.85
   3  -4  -1  107.30    3.00
   2  -4  -1   86.26    2.45
   2  -4  -1   89.26    2.36
   2  -4  -1   89.34    2.47
   1  -4  -1   30.81    1.15
   1  -4  -1   31.21    1.16
   0  -4  -1  136.83    3.50
   0   4   1  137.33    3.54
  -1  -4  -1  197.06    4.93
   1   4   1  194.71    4.62
   1   4   1  201.26    5.03
  -2  -4  -1   62.53    2.12
   2   4   1   63.16    1.88
   2   4   1   63.54    2.28
  -3  -4  -1    0.43    0.70
   3   4   1   -0.66    0.83
   3   4   1    0.48    0.48
  -4  -4  -1    9.52    1.23
   4   4   1    8.50    1.93
   4   4   1    8.79    1.15
  -5  -4  -1   46.59    2.46
   5   4   1   44.52    2.25
   7  -5  -1   10.69    1.63
   6  -5  -1   -0.51    0.81
   5  -5  -1   19.89    1.24
   5  -5  -1   21.35    1.59
   4  -5  -1   66.53    2.06
   4  -5  -1   66.61    2.35
   4  -5  -1   63.48    2.18
   3  -5  -1   22.67    1.14
   3  -5  -1   23.94    1.10
   3  -5  -1   25.82    1.18
   2  -5  -1   35.08    1.35
   2  -5  -1   32.64    1.34
   2  -5  -1   34.48    1.22
   1  -5  -1   20.50    1.02
   1  -5  -1   19.61    0.99
  -1   5   1   22.77    1.02
   0  -5  -1  168.26    4.32
   0   5   1  171.16    4.38
  -1  -5  -1  115.41    3.25
   1   5   1  120.02    3.35
   1   5   1  113.82    2.87
  -2  -5  -1    8.45    0.94
   2   5   1    8.48    1.20
   2   5   1    8.30    0.72
  -3  -5  -1   40.12    1.96
   3   5   1   41.63    1.66
   3   5   1   37.81    2.22
  -4  -5  -1   28.80    1.97
   4   5   1   29.21    1.86
  -5  -5  -1   29.53    2.18
   7  -6  -1   -1.37    1.01
   6  -6  -1   17.48    1.33
   6  -6  -1   17.33    1.88
   5  -6  -1   58.43    2.46
   5  -6  -1   52.62    2.10
   4  -6  -1   53.97    1.88
   4  -6  -1   50.79    1.96
   4  -6  -1   53.22    2.10
   3  -6  -1    3.38    0.61
   3  -6  -1    3.22    0.62
   3  -6  -1    3.21    0.61
   2  -6  -1   14.18    0.95
   2  -6  -1   14.77    1.00
   1  -6  -1  157.26    4.26
   1  -6  -1  159.47    4.18
  -1   6   1  160.10    4.22
   0  -6  -1   70.18    2.24
   0   6   1   70.88    2.29
  -1  -6  -1   40.51    1.71
   1   6   1   43.80    1.82
   1   6   1   44.66    1.37
  -2  -6  -1    3.44    0.79
   2   6   1    4.40    0.98
  -3  -6  -1   25.82    1.75
   3   6   1   21.79    2.03
  -4  -6  -1   25.42    1.97
  -5  -6  -1    3.33    1.20
   7  -7  -1   -0.31    1.14
   6  -7  -1   32.31    1.80
   6  -7  -1   31.83    2.24
   5  -7  -1   43.93    2.22
   5  -7  -1   44.71    1.98
   4  -7  -1    6.96    0.99
   4  -7  -1    6.68    0.96
   4  -7  -1    7.00    0.85
   3  -7  -1   19.94    1.24
   3  -7  -1   20.66    1.32
   2  -7  -1   57.62    2.08
   2  -7  -1   57.01    2.09
   1  -7  -1   45.62    1.77
   1  -7  -1   46.43    1.84
  -1   7   1   42.69    1.75
   0  -7  -1    5.78    0.80
   0   7   1    6.14    0.84
  -1  -7  -1    0.68    0.60
   1   7   1    0.64    0.63
  -2  -7  -1  128.38    3.96
   2   7   1  134.29    4.23
  -3  -7  -1   33.57    2.02
   3   7   1   27.29    2.30
  -4  -7  -1    6.83    1.29
  -5  -7  -1    6.70    1.41
   7  -8  -1    8.01    1.68
   6  -8  -1   10.05    1.54
   6  -8  -1   13.60    1.43
   5  -8  -1   11.55    1.33
   5  -8  -1   10.13    1.34
   4  -8  -1    1.66    0.73
   3  -8  -1   47.10    2.00
   3  -8  -1   43.08    1.97
   2  -8  -1   64.17    2.38
   2  -8  -1   59.67    2.26
  -2   8   1   61.55    2.31
   1  -8  -1    2.29    0.68
   1  -8  -1    1.69    0.67
  -1   8   1    2.07    0.63
   0  -8  -1   13.76    1.20
   0   8   1   14.17    1.19
  -1  -8  -1   34.44    1.80
   1   8   1   34.90    1.88
  -2  -8  -1   36.06    1.99
   2   8   1   33.58    2.13
  -3  -8  -1    9.68    1.36
  -4  -8  -1    3.72    1.20
   6  -9  -1    2.16    0.92
   5  -9  -1    2.20    0.88
   4  -9  -1   48.01    2.25
   3  -9  -1   37.71    1.94
   3  -9  -1   37.89    1.92
   2  -9  -1   21.78    1.45
   2  -9  -1   22.79    1.60
  -2   9   1   17.49    1.38
   1  -9  -1    8.90    1.27
   1  -9  -1   10.03    1.20
  -1   9   1   10.46    1.16
   0  -9  -1   22.63    1.54
   0   9   1   23.55    1.58
  -1  -9  -1   54.35    2.36
   1   9   1   55.88    2.51
  -2  -9  -1    8.09    1.21
   2   9   1    5.54    1.35
  -3  -9  -1    1.18    1.00
  -4  -9  -1   12.40    2.68
   6 -10  -1    3.49    1.07
   5 -10  -1   15.01    1.69
   4 -10  -1   21.56    1.75
   3 -10  -1   12.87    1.38
   3 -10  -1   10.84    1.49
  -3  10   1    9.32    1.22
   2 -10  -1    0.41    0.80
   2 -10  -1    1.81    0.72
  -2  10   1    1.16    0.70
   1 -10  -1   55.43    2.37
  -1  10   1   58.81    2.51
   0 -10  -1   37.19    2.00
   0  10   1   38.78    2.12
  -1 -10  -1   11.89    1.48
   1  10   1   11.89    1.57
  -2 -10  -1    2.75    1.00
   2  10   1    0.19    1.20
  -3 -10  -1   16.64    1.96
   6 -11  -1    9.88    1.55
   5 -11  -1   23.53    2.00
   4 -11  -1    4.73    1.16
   3 -11  -1    1.71    0.79
   3 -11  -1    0.32    0.93
  -3  11   1   -0.12    0.69
   2 -11  -1   29.59    1.84
   2 -11  -1   30.73    2.17
  -2  11   1   31.36    1.99
   1 -11  -1   27.85    1.77
  -1  11   1   25.68    1.87
   0 -11  -1    8.19    1.22
   0  11   1    8.87    1.39
  -1 -11  -1    0.71    0.81
   1  11   1    0.00    1.00
  -2 -11  -1   13.35    1.76
   5 -12  -1    6.71    1.43
   4 -12  -1    0.77    1.08
  -4  12   1    0.88    0.78
   3 -12  -1    7.14    1.45
  -3  12   1    8.70    1.34
   2 -12  -1   28.13    2.31
   2 -12  -1   30.23    1.93
  -2  12   1   28.33    2.04
   1 -12  -1   11.25    1.46
  -1  12   1    8.34    1.40
   0 -12  -1    1.46    0.91
   0  12   1    0.15    0.96
  -1 -12  -1   14.80    1.78
   1  12   1    8.83    1.70
   3 -13  -1   17.27    2.26
  -3  13   1   17.73    1.89
   2 -13  -1    4.88    1.07
  -2  13   1    4.98    1.29
   1 -13  -1    1.88    0.88
  -1  13   1    0.65    0.98
   0 -13  -1    5.81    1.32
   0  13   1    6.85    1.55
   2 -14  -1    1.66    0.96
   0  14  -2    0.21    0.92
   0 -14   2    2.39    0.92
  -1  14  -2    3.54    1.10
   1 -14   2    5.03    1.06
  -2  14  -2   13.24    1.59
   2 -14   2   15.12    2.04
  -3  14  -2   12.77    1.52
   3 -14   2    9.55    1.68
  -1 -13   2    1.40    0.91
   0  13  -2    7.03    1.30
   0 -13   2   11.16    1.48
  -1  13  -2   34.39    2.08
   1 -13   2   35.29    2.01
   1 -13   2   36.25    2.38
  -2  13  -2   17.53    1.57
   2 -13   2   14.06    1.93
   3 -13   2    0.07    0.97
   4 -13   2    3.95    1.23
  -2 -12   2    5.17    1.25
  -1 -12   2    3.51    1.04
   0  12  -2   25.23    1.81
   0 -12   2   27.96    1.82
  -1  12  -2   37.80    2.04
   1 -12   2   34.41    2.18
   1 -12   2   33.93    1.88
  -2  12  -2    2.88    0.80
   2 -12   2    2.35    1.03
   3 -12   2    1.51    0.96
   4 -12   2   27.30    2.12
   5 -12   2   10.68    1.58
  -3 -11   2    5.01    1.27
  -2 -11   2    3.09    1.06
   1  11  -2   22.01    1.65
  -1 -11   2   23.55    1.80
   0  11  -2   58.36    2.44
   0 -11   2   59.83    2.46
   0 -11   2   57.59    2.54
  -1  11  -2    5.17    0.93
   1 -11   2    3.65    0.81
   1 -11   2    3.75    0.97
   2 -11   2    6.21    1.12
   2 -11   2    8.30    1.07
   3 -11   2   24.59    1.80
   4 -11   2   25.14    1.88
   5 -11   2    1.81    0.99
   6 -11   2    3.73    1.21
  -3 -10   2    3.66    1.17
  -2 -10   2   43.15    2.33
   1  10  -2   21.75    1.47
  -1 -10   2   19.75    1.64
   0  10  -2   12.44    1.13
   0 -10   2   10.24    1.26
   0 -10   2   11.71    1.24
  -1  10  -2    7.84    1.02
   1 -10   2    9.70    1.23
   1 -10   2    9.21    1.07
   2 -10   2   29.21    1.74
   2 -10   2   29.26    1.50
   3 -10   2  100.26    3.39
   4 -10   2    5.99    1.09
   5 -10   2    2.84    1.04
   6 -10   2   14.29    1.71
  -4  -9   2    3.31    1.30
  -3  -9   2   36.71    2.37
  -2  -9   2   45.98    2.33
   1   9  -2   16.23    1.22
  -1  -9   2   16.19    1.47
   0   9  -2    4.31    0.74
   0   9  -2    5.43    1.04
   0  -9   2    5.12    0.86
   0  -9   2    5.15    0.83
  -1   9  -2   47.84    2.10
   1  -9   2   41.19    1.72
   1  -9   2   41.63    1.85
   2  -9   2   46.26    1.80
   2  -9   2   47.82    2.02
   3  -9   2   29.60    1.66
   4  -9   2    3.01    0.87
   5  -9   2   18.11    1.66
   6  -9   2   19.09    1.88
   7  -9   2    4.30    1.20
  -5  -8   2    0.51    1.28
  -4  -8   2   22.08    2.20
  -3  -8   2  133.34    4.36
   2   8  -2   23.39    1.28
   2   8  -2   22.51    1.77
  -2  -8   2   21.46    1.70
   1   8  -2    0.51    0.44
   1   8  -2    0.20    0.44
  -1  -8   2    0.39    0.67
   0   8  -2   86.01    2.56
   0   8  -2   74.33    2.47
   0  -8   2   79.56    2.59
   0  -8   2   81.85    2.60
  -1   8  -2   47.63    2.20
   1  -8   2   47.90    1.75
   1  -8   2   48.96    1.87
   2  -8   2   57.66    2.13
   2  -8   2   56.99    1.92
   3  -8   2    1.17    0.60
   4  -8   2   26.99    1.66
   5  -8   2   45.37    2.24
   6  -8   2    6.12    1.45
   6  -8   2    7.07    1.20
   7  -8   2    3.19    1.03
   7  -8   2   -0.23    1.35
  -5  -7   2    9.57    1.64
   4   7  -2   28.20    1.71
  -4  -7   2   27.19    2.19
   3   7  -2   26.80    1.46
  -3  -7   2   26.16    1.95
   2   7  -2    0.25    0.44
   2   7  -2    0.10    0.53
  -2  -7   2    0.66    0.77
   1   7  -2   42.28    1.59
   1   7  -2   41.56    1.57
   0   7  -2  213.49    5.38
   0   7  -2  214.99    5.37
   0  -7   2  214.89    5.41
   0  -7   2  212.31    5.39
   1  -7   2   14.73    0.94
   1  -7   2   15.38    0.90
   2  -7   2    3.17    0.49
   2  -7   2    2.66    0.59
   3  -7   2   26.91    1.40
   4  -7   2   60.10    2.31
   5  -7   2   26.36    1.94
   5  -7   2   27.58    1.74
   6  -7   2    1.31    0.82
   6  -7   2   -0.33    1.03
   7  -7   2   13.96    1.68
   7  -7   2    7.39    1.67
   6   6  -2   15.07    1.93
  -6  -6   2   14.21    1.99
   5   6  -2   22.99    1.78
  -5  -6   2   22.25    2.26
   4   6  -2   37.56    1.87
  -4  -6   2   37.98    2.35
   3   6  -2   -0.22    0.45
  -3  -6   2    0.63    0.85
   2   6  -2   17.08    1.04
   2   6  -2   16.18    1.08
  -2  -6   2   17.31    1.41
   1   6  -2  154.11    4.07
   1   6  -2  160.49    4.10
  -1  -6   2  165.28    4.31
   0   6  -2   28.55    1.27
   0  -6   2   29.14    1.25
   0  -6   2   28.04    1.14
   1  -6   2    4.83    0.61
   1  -6   2    4.88    0.58
   2  -6   2   23.28    1.14
   2  -6   2   24.27    0.95
   3  -6   2   67.16    2.24
   3  -6   2   64.73    1.84
   4  -6   2   28.30    1.71
   4  -6   2   28.39    1.54
   5  -6   2    0.07    0.63
   5  -6   2   -0.07    0.82
   6  -6   2   12.66    1.47
   6  -6   2   11.24    1.57
   7  -6   2   12.43    1.85
   6   5  -2   29.56    2.15
  -6  -5   2   30.49    2.64
   5   5  -2   15.47    1.55
  -5  -5   2   15.37    1.79
   4   5  -2    0.23    0.58
  -4  -5   2    0.17    1.00
   3   5  -2   30.04    1.47
  -3  -5   2   32.76    1.91
   2   5  -2   77.01    2.33
   2   5  -2   79.13    2.36
  -2  -5   2   79.08    2.64
   1   5  -2  203.13    5.03
   1   5  -2  210.48    5.13
  -1  -5   2  214.28    5.29
   0   5  -2   12.47    0.89
   0  -5   2   11.23    0.65
   0  -5   2   11.32    0.78
   1  -5   2   85.23    2.26
   1  -5   2   88.54    2.44
   2  -5   2  179.01    4.35
   2  -5   2  157.89    4.00
   3  -5   2  103.25    3.04
   3  -5   2  107.08    3.10
   4  -5   2    1.46    0.60
   4  -5   2    0.96    0.66
   5  -5   2   11.14    1.27
   5  -5   2   13.28    1.50
   6  -5   2   32.26    1.92
   6  -5   2   32.73    2.29
   7  -5   2   10.77    1.68
   6   4  -2   11.28    1.48
  -6  -4   2   10.81    1.74
   5   4  -2   -0.27    0.66
  -5  -4   2   -1.02    1.06
   4   4  -2   35.50    1.76
  -4  -4   2   37.69    2.19
   3   4  -2  132.38    4.01
   3   4  -2  132.83    3.71
  -3  -4   2  134.28    3.95
   2   4  -2  119.05    3.23
   2   4  -2  118.42    3.11
  -2  -4   2  124.18    3.45
   1   4  -2    2.40    0.32
   1   4  -2    1.64    0.37
  -1  -4   2    1.68    0.51
   0   4  -2   50.07    1.72
   0  -4   2   51.83    1.48
   0  -4   2   51.52    1.56
   1  -4   2  174.69    4.07
   1  -4   2  174.14    4.27
   2  -4   2  234.53    5.70
   3  -4   2    5.75    0.71
   3  -4   2    6.53    0.77
   4  -4   2   16.60    1.20
   4  -4   2   19.09    1.37
   5  -4   2   34.15    1.77
   5  -4   2   37.12    2.03
   6  -4   2   22.27    1.59
   6  -4   2   19.13    1.94
   7  -4   2    0.62    1.19
   6   3  -2    0.02    0.82
  -6  -3   2   -0.25    1.27
   5   3  -2   14.18    1.46
  -5  -3   2   14.47    1.64
   4   3  -2   73.62    2.60
  -4  -3   2   76.95    2.88
   3   3  -2  120.36    3.06
   3   3  -2  120.21    3.40
  -3  -3   2  122.80    3.59
   2   3  -2   57.95    1.57
   2   3  -2   53.66    1.75
  -2  -3   2   56.86    1.94
   1   3  -2   18.55    0.63
   1   3  -2   18.29    0.85
  -1  -3   2   20.44    0.97
   0   3  -2  142.34    3.95
   0  -3   2  161.71    3.78
   0  -3   2  169.57    3.75
   1  -3   2   93.41    2.42
   2  -3   2   58.31    1.77
   2  -3   2   54.99    1.73
   3  -3   2   28.01    1.26
   3  -3   2   28.49    1.28
   4  -3   2   35.84    1.70
   4  -3   2   36.11    1.63
   5  -3   2   42.64    2.11
   5  -3   2   43.72    1.97
   6  -3   2    1.74    0.77
   6  -3   2   -0.27    0.94
   7  -3   2    1.99    1.31
   7   2  -2   -0.29    1.05
   6   2  -2    5.39    1.12
  -6  -2   2    6.06    1.51
   5   2  -2   40.20    2.04
  -5  -2   2   42.37    2.35
   4   2  -2   59.47    2.23
  -4  -2   2   62.10    2.46
   3   2  -2    1.30    0.30
   3   2  -2    0.53    0.38
  -3  -2   2    1.66    0.61
   2   2  -2   36.87    1.30
  -2  -2   2   37.47    1.39
   1   2  -2   90.87    2.37
  -1  -2   2   90.15    2.37
   0   2  -2  245.89    6.33
   0  -2   2  284.88    6.15
   0  -2   2  281.65    6.13
   1  -2   2   -0.06    0.27
   2  -2   2   52.45    1.65
   2  -2   2   54.26    1.66
  -3   2  -2   84.61    2.22
   3  -2   2   85.89    2.55
   3  -2   2   87.32    2.53
  -4   2  -2   47.34    1.67
   4  -2   2   49.39    1.98
   4  -2   2   48.74    1.89
   5  -2   2   11.29    1.28
   5  -2   2   11.80    1.29
   6  -2   2    1.57    1.06
   7  -2   2   12.11    1.79
   7   1  -2    5.08    1.32
   6   1  -2   48.62    2.48
  -6  -1   2   45.51    2.69
   5   1  -2   51.55    2.27
  -5  -1   2   53.03    2.49
   4   1  -2   11.36    1.04
  -4  -1   2   12.12    1.24
   3   1  -2   16.59    0.95
   3   1  -2   15.82    0.65
  -3  -1   2   17.35    1.03
   2   1  -2   86.97    2.41
  -2  -1   2   89.07    2.40
   1   1  -2  250.96    5.83
   0   1  -2    0.38    0.11
   0   1  -2    0.49    0.23
   0  -1   2    0.47    0.17
   1  -1   2   20.04    0.75
   1  -1   2   20.40    0.84
  -2   1  -2  196.70    4.50
   2  -1   2  194.71    4.77
   2  -1   2  191.61    4.72
  -3   1  -2  106.19    2.75
   3  -1   2  105.15    2.98
   3  -1   2  105.68    2.98
  -4   1  -2    4.96    0.74
   4  -1   2    5.41    0.86
   4  -1   2    5.74    0.83
   5  -1   2   18.88    1.42
   5  -1   2   18.84    1.64
   6  -1   2   16.48    1.91
   7  -1   2    9.40    1.63
   7   0  -2    9.10    1.44
   6   0  -2   40.09    2.26
  -6   0   2   33.85    2.37
   5   0  -2   12.40    1.30
  -5   0   2   14.02    1.50
   4   0  -2   10.73    1.01
   4   0  -2   10.38    0.65
  -4   0   2   10.83    1.07
   3   0  -2  106.16    2.97
   3   0  -2  103.15    2.62
  -3   0   2  108.44    2.90
   2   0  -2  102.25    2.69
   2   0  -2  103.75    2.44
  -2   0   2  101.55    2.64
   1   0  -2  194.49    4.51
   1   0  -2  188.58    4.48
   1   0  -2  194.18    4.37
  -1   0   2  195.15    4.37
   0   0  -2   21.79    0.69
   0   0   2   21.41    0.72
  -1   0  -2  126.53    2.92
   1   0   2  123.72    3.12
   1   0   2  118.17    2.95
  -2   0  -2  267.54    6.14
   2   0   2  262.73    6.36
   2   0   2  262.61    6.25
  -3   0  -2   21.14    1.03
   3   0   2   21.57    1.19
   3   0   2   20.18    1.09
  -4   0  -2   12.01    1.15
   4   0   2   12.34    1.20
   4   0   2   11.77    1.21
   5   0   2   34.68    2.00
   5   0   2   34.22    1.80
   6   0   2   19.12    1.96
   7   0   2    5.55    1.51
   7  -1  -2   18.45    1.98
   6  -1  -2    1.66    0.90
   5  -1  -2   11.37    1.30
  -5   1   2   11.64    1.29
   4  -1  -2   99.39    3.01
   4  -1  -2   93.75    2.61
  -4   1   2  101.41    2.89
   3  -1  -2  168.74    4.28
   3  -1  -2  159.75    3.98
  -3   1   2  169.04    4.16
   2  -1  -2   13.94    0.58
   2  -1  -2   14.15    0.66
   2  -1  -2   14.31    0.70
   1  -1  -2   73.64    1.94
   1  -1  -2   73.68    1.85
   1  -1  -2   74.48    1.87
  -1   1   2   74.47    1.86
   0  -1  -2   55.83    1.51
   0   1   2   54.17    1.54
  -1  -1  -2  213.72    4.91
   1   1   2  205.18    4.82
   1   1   2  207.01    5.08
  -2  -1  -2  192.47    4.67
   2   1   2  197.58    4.91
   2   1   2  187.15    4.66
  -3  -1  -2    0.09    0.47
   3   1   2    0.04    0.41
   3   1   2    0.53    0.60
  -4  -1  -2   51.85    2.03
   4   1   2   53.17    2.09
   4   1   2   51.73    2.14
   5   1   2   46.88    2.25
   5   1   2   43.31    2.12
   6   1   2    6.13    1.29
   7   1   2   -2.21    1.14
   7  -2  -2    7.99    1.45
   6  -2  -2    0.99    0.84
   5  -2  -2   33.16    1.82
  -5   2   2   32.24    1.61
   4  -2  -2  161.80    4.31
   4  -2  -2  147.48    3.91
  -4   2   2  156.79    4.08
   3  -2  -2   43.67    1.38
   3  -2  -2   44.57    1.56
  -3   2   2   43.09    1.43
   2  -2  -2    4.55    0.46
   2  -2  -2    4.48    0.46
   2  -2  -2    4.60    0.43
   1  -2  -2  100.97    2.64
   1  -2  -2  100.81    2.40
   1  -2  -2  101.98    2.56
  -1   2   2   98.24    2.53
   0  -2  -2  116.51    2.92
   0   2   2  113.80    2.95
  -1  -2  -2   24.38    0.98
   1   2   2   24.06    0.79
   1   2   2   24.93    1.15
  -2  -2  -2    2.59    0.52
   2   2   2    3.38    0.72
   2   2   2    2.37    0.41
  -3  -2  -2   40.76    1.66
   3   2   2   41.84    1.93
   3   2   2   40.59    1.59
  -4  -2  -2   49.38    2.04
   4   2   2   46.62    2.20
   4   2   2   47.85    1.99
  -5  -2  -2   11.20    1.46
   5   2   2    9.51    1.23
   6   2   2   -0.12    1.01
   7  -3  -2    0.67    1.05
   6  -3  -2   11.37    1.53
   5  -3  -2   38.34    1.54
   5  -3  -2   41.01    1.96
  -5   3   2   40.42    1.70
   4  -3  -2   63.56    2.22
   4  -3  -2   58.87    1.93
  -4   3   2   62.18    1.97
   3  -3  -2    2.90    0.46
   3  -3  -2    2.65    0.43
   3  -3  -2    2.51    0.47
   2  -3  -2   85.13    2.38
   2  -3  -2   87.07    2.35
   2  -3  -2   85.29    2.28
   1  -3  -2  116.01    2.79
   1  -3  -2  119.39    3.08
   1  -3  -2  122.25    3.14
  -1   3   2  119.33    3.06
   0  -3  -2    6.44    0.61
   0   3   2    7.38    0.61
  -1  -3  -2   29.62    1.18
   1   3   2   30.19    1.34
   1   3   2   29.12    0.91
  -2  -3  -2   39.58    1.54
   2   3   2   41.49    1.38
   2   3   2   41.40    1.84
  -3  -3  -2   57.27    2.11
   3   3   2   54.52    1.95
   3   3   2   57.64    2.43
  -4  -3  -2   27.25    1.70
   4   3   2   25.17    1.94
   4   3   2   27.23    1.56
  -5  -3  -2    1.51    0.92
   5   3   2   -0.23    0.76
   6   3   2   16.97    2.01
   7  -4  -2   15.73    2.06
   6  -4  -2   29.87    1.99
   5  -4  -2   18.50    1.46
   5  -4  -2   17.96    1.09
  -5   4   2   20.44    1.18
   4  -4  -2    2.88    0.66
   4  -4  -2    3.53    0.58
   3  -4  -2   33.36    1.33
   3  -4  -2   33.13    1.30
   3  -4  -2   33.86    1.31
   2  -4  -2  130.20    3.37
   2  -4  -2  124.83    3.40
   2  -4  -2  124.35    3.18
   1  -4  -2  243.32    5.93
   1  -4  -2  247.67    5.94
  -1   4   2  239.49    5.91
   0  -4  -2   36.01    1.36
   0   4   2   36.81    1.39
  -1  -4  -2  109.22    3.05
   1   4   2  114.59    3.25
   1   4   2  107.33    2.67
  -2  -4  -2   95.13    2.87
   2   4   2   95.35    2.59
   2   4   2   97.44    3.19
  -3  -4  -2   39.94    1.87
   3   4   2   40.37    1.62
   3   4   2   39.32    2.25
  -4  -4  -2   -0.81    0.75
   4   4   2   -0.25    0.57
   4   4   2   -0.93    1.07
  -5  -4  -2   19.77    1.86
   7  -5  -2   13.20    1.69
   6  -5  -2   10.52    1.42
   5  -5  -2    0.54    0.68
   5  -5  -2    0.71    0.47
  -5   5   2    0.61    0.44
   4  -5  -2   34.73    1.48
   4  -5  -2   32.61    1.45
   4  -5  -2   35.04    1.63
   3  -5  -2   58.02    2.00
   3  -5  -2   59.37    1.99
   3  -5  -2   58.48    1.93
   2  -5  -2   71.29    2.31
   2  -5  -2   71.34    2.00
   2  -5  -2   73.22    2.26
   1  -5  -2    8.29    0.78
   1  -5  -2    6.95    0.71
  -1   5   2    6.85    0.67
   0  -5  -2   74.20    2.28
   0   5   2   71.12    2.31
  -1  -5  -2   89.03    2.72
   1   5   2   86.13    2.24
   1   5   2   96.76    2.95
  -2  -5  -2   43.83    1.87
   2   5   2   47.33    2.21
   2   5   2   44.85    1.77
  -3  -5  -2   -0.34    0.72
   3   5   2   -0.77    1.04
  -4  -5  -2    9.17    1.26
   4   5   2    7.55    2.23
  -5  -5  -2   28.90    2.15
   7  -6  -2    9.51    1.58
   6  -6  -2    0.62    0.88
   5  -6  -2   32.08    1.85
   5  -6  -2   29.89    1.52
   4  -6  -2   53.09    2.01
   4  -6  -2   53.04    2.02
   4  -6  -2   54.92    2.11
   3  -6  -2   15.52    1.06
   3  -6  -2   13.97    1.14
   3  -6  -2   15.37    1.03
   2  -6  -2    4.72    0.70
   2  -6  -2    4.90    0.76
  -2   6   2    2.97    0.61
   1  -6  -2   61.13    2.16
   1  -6  -2   63.81    2.15
  -1   6   2   64.11    2.15
   0  -6  -2   74.45    2.42
   0   6   2   74.62    2.49
  -1  -6  -2   55.23    2.11
   1   6   2   60.98    2.32
  -2  -6  -2    2.66    0.78
   2   6   2    2.54    0.98
  -3  -6  -2   21.53    1.73
   3   6   2   19.18    2.11
  -4  -6  -2   26.16    2.01
  -5  -6  -2   20.71    2.19
   7  -7  -2   -0.60    1.10
   6  -7  -2    7.65    1.34
   6  -7  -2    9.58    1.18
   5  -7  -2   47.41    2.07
   5  -7  -2   50.38    2.31
   4  -7  -2   59.89    2.33
   4  -7  -2   61.76    2.32
   4  -7  -2   59.33    2.26
   3  -7  -2    1.80    0.68
   3  -7  -2    1.47    0.59
   2  -7  -2   18.59    1.28
   2  -7  -2   18.91    1.33
  -2   7   2   20.36    1.25
   1  -7  -2   76.11    2.56
   1  -7  -2   78.70    2.65
  -1   7   2   76.84    2.59
   0  -7  -2   49.74    2.01
   0   7   2   52.42    2.10
  -1  -7  -2    2.58    0.71
   1   7   2    2.37    0.81
  -2  -7  -2   27.99    1.76
   2   7   2   29.86    2.06
  -3  -7  -2   31.32    2.04
   3   7   2   25.90    2.43
  -4  -7  -2   23.42    2.08
  -5  -7  -2    2.82    1.23
   7  -8  -2    1.06    1.34
   6  -8  -2   10.28    1.88
   6  -8  -2   12.52    1.41
   5  -8  -2   26.97    1.72
   4  -8  -2    0.65    0.67
   4  -8  -2    0.39    0.64
   3  -8  -2    4.36    0.89
   3  -8  -2    4.40    0.90
  -3   8   2    5.50    0.91
   2  -8  -2   35.74    1.82
   2  -8  -2   34.01    1.77
  -2   8   2   36.40    1.76
   1  -8  -2   35.94    1.74
  -1   8   2   33.46    1.72
   0  -8  -2    1.02    0.67
   0   8   2    1.80    0.75
  -1  -8  -2   15.67    1.40
   1   8   2   16.41    1.56
  -2  -8  -2   30.60    1.95
   2   8   2   31.79    2.26
  -3  -8  -2   19.26    1.90
   3   8   2   14.05    2.18
  -4  -8  -2    6.62    1.34
   6  -9  -2    8.66    1.28
   5  -9  -2    3.23    0.97
   4  -9  -2   20.44    1.68
   4  -9  -2   21.14    1.68
   3  -9  -2   29.44    1.83
   3  -9  -2   29.96    1.89
  -3   9   2   29.08    1.70
   2  -9  -2   38.31    1.96
   2  -9  -2   40.22    2.13
  -2   9   2   39.44    2.01
   1  -9  -2    5.30    0.94
  -1   9   2    5.11    0.99
   0  -9  -2   17.90    1.51
   0   9   2   17.31    1.56
  -1  -9  -2   41.94    2.15
   1   9   2   42.50    2.35
  -2  -9  -2   26.06    1.91
   2   9   2   21.57    2.24
  -3  -9  -2    7.02    1.33
   6 -10  -2    2.95    1.04
   5 -10  -2   10.12    1.43
   4 -10  -2   22.46    1.93
  -4  10   2   24.61    1.70
   3 -10  -2   29.37    2.06
   3 -10  -2   27.01    1.87
  -3  10   2   28.25    1.82
   2 -10  -2   13.11    1.44
   2 -10  -2   11.49    1.59
  -2  10   2    9.85    1.33
   1 -10  -2   10.59    1.36
  -1  10   2   10.81    1.42
   0 -10  -2   31.09    1.95
   0  10   2   31.91    2.08
  -1 -10  -2   23.10    1.80
   1  10   2   22.80    2.02
  -2 -10  -2    5.09    1.12
   2  10   2    2.44    1.51
   5 -11  -2   19.87    1.97
  -5  11   2   22.77    1.72
   4 -11  -2   14.08    1.89
  -4  11   2   13.35    1.53
   3 -11  -2    3.34    0.97
   3 -11  -2    3.34    1.18
  -3  11   2    3.60    1.05
   2 -11  -2    2.74    1.18
   2 -11  -2    2.94    0.93
  -2  11   2    3.60    1.08
   1 -11  -2   23.36    1.76
  -1  11   2   21.09    1.90
   0 -11  -2   23.03    1.87
   0  11   2   21.87    1.96
  -1 -11  -2    3.63    1.09
   1  11   2    0.81    1.14
   2  11   2   -1.26    1.44
   4 -12  -2    7.97    1.56
  -4  12   2    7.61    1.34
   3 -12  -2    0.60    1.14
   3 -12  -2    2.65    1.00
  -3  12   2    1.51    0.96
   2 -12  -2   21.65    1.86
  -2  12   2   20.36    1.97
   1 -12  -2   17.96    1.70
  -1  12   2   14.72    1.90
   0 -12  -2    7.07    1.30
   0  12   2    5.09    1.42
   1  12   2    0.60    1.32
   2 -13  -2   16.50    1.85
   1 -13  -2    6.67    1.26
   0 -14   3   12.26    1.57
  -1  14  -3    0.87    0.79
   1 -14   3   -0.37    0.95
  -2  14  -3    7.22    1.21
   2 -14   3    8.73    1.58
   3 -14   3   16.68    2.04
  -1 -13   3   20.11    1.91
   0  13  -3    0.98    0.84
   0 -13   3    1.44    0.80
  -1  13  -3   17.65    1.57
   1 -13   3   20.85    1.57
   1 -13   3   19.56    1.90
  -2  13  -3   20.86    1.57
   2 -13   3   18.97    1.89
   3 -13   3    7.91    1.40
   4 -13   3    1.49    1.15
  -2 -12   3   17.99    1.93
  -1 -12   3    2.30    0.97
   0  12  -3   17.48    1.48
   0 -12   3   20.59    1.73
   0 -12   3   21.07    1.65
  -1  12  -3   42.18    2.06
   1 -12   3   41.75    2.01
   1 -12   3   42.37    2.33
   2 -12   3   17.03    1.72
   3 -12   3    1.96    1.03
   4 -12   3    9.28    1.47
   5 -12   3   19.14    1.96
  -3 -11   3   15.87    2.01
  -2 -11   3    4.01    1.10
  -1 -11   3    0.32    0.77
   0  11  -3   42.57    2.00
   0 -11   3   43.03    2.09
   0 -11   3   44.55    2.11
   1 -11   3   29.01    1.59
   1 -11   3   29.24    1.83
   2 -11   3    2.16    0.86
   3 -11   3   19.90    1.65
   4 -11   3   22.28    1.83
   5 -11   3   14.88    1.76
   6 -11   3    2.34    1.16
  -4 -10   3   15.49    2.61
  -3 -10   3    4.35    1.27
  -2 -10   3   10.76    1.43
   1  10  -3   38.52    1.81
  -1 -10   3   41.22    2.10
   0  10  -3   29.85    1.51
   0 -10   3   29.63    1.70
   0 -10   3   29.09    1.60
  -1  10  -3    1.67    0.87
   1 -10   3    2.47    0.75
   1 -10   3    1.90    0.63
   2 -10   3    3.25    0.84
   3 -10   3   41.46    2.10
   4 -10   3   25.50    1.80
   5 -10   3    4.83    1.20
   6 -10   3    6.74    1.40
  -4  -9   3    0.79    1.19
  -3  -9   3   38.20    2.41
   2   9  -3   49.50    2.68
  -2  -9   3   50.17    2.45
   1   9  -3   62.54    2.21
   1   9  -3   60.64    2.21
  -1  -9   3   60.19    2.47
   0   9  -3   18.61    1.11
   0   9  -3   18.25    1.36
   0  -9   3   16.88    1.20
   0  -9   3   15.82    1.32
  -1   9  -3   14.73    1.66
   1  -9   3   14.44    1.07
   1  -9   3   15.02    1.18
   2  -9   3  107.47    3.33
   2  -9   3  105.04    3.03
   3  -9   3   49.80    2.15
   4  -9   3    5.80    1.06
   5  -9   3    1.81    0.93
   6  -9   3   19.13    1.83
   7  -9   3    9.32    1.56
  -5  -8   3    5.36    1.58
   4   8  -3   -0.31    0.96
  -4  -8   3    0.22    1.08
   3   8  -3   34.80    1.73
  -3  -8   3   32.17    2.21
   2   8  -3   57.42    2.14
  -2  -8   3   59.99    2.57
   1   8  -3   29.25    1.33
   1   8  -3   29.31    1.46
  -1  -8   3   29.35    1.71
   0   8  -3   21.03    1.35
   0  -8   3   18.29    1.28
   0  -8   3   18.38    1.09
  -1   8  -3   58.36    2.55
   1  -8   3   57.56    1.92
   1  -8   3   57.64    2.04
   2  -8   3   52.12    2.00
   2  -8   3   51.38    1.71
   3  -8   3   16.49    1.25
   4  -8   3    1.18    0.70
   5  -8   3   32.73    2.03
   6  -8   3   20.65    1.87
   7  -8   3    5.21    1.22
   5   7  -3    1.74    0.85
  -5  -7   3    3.75    1.43
   4   7  -3   57.22    2.41
  -4  -7   3   56.87    2.89
   3   7  -3   32.72    1.65
  -3  -7   3   32.60    2.14
   2   7  -3   18.27    1.21
  -2  -7   3   16.97    1.56
   1   7  -3    0.72    0.50
   1   7  -3    1.09    0.39
  -1  -7   3    0.97    0.70
  -1  -7   3    0.88    0.43
   0   7  -3   57.16    2.08
   0  -7   3   57.55    1.99
   0  -7   3   56.27    1.86
   1  -7   3   64.28    2.08
   1  -7   3   63.81    1.95
   2  -7   3   12.82    1.00
   2  -7   3   14.75    0.78
   3  -7   3    5.11    0.80
   4  -7   3   36.11    1.84
   5  -7   3   45.13    2.22
   6  -7   3    4.68    1.38
   6  -7   3    6.24    1.18
   7  -7   3   -0.91    1.36
   7  -7   3    2.54    1.03
   6   6  -3    3.38    1.09
  -6  -6   3    2.75    1.59
   5   6  -3   24.62    1.82
  -5  -6   3   26.10    2.40
   4   6  -3   49.54    2.18
  -4  -6   3   48.73    2.65
   3   6  -3   13.49    1.17
  -3  -6   3   11.34    1.40
   2   6  -3    0.24    0.42
   2   6  -3    0.15    0.45
  -2  -6   3    0.00    0.74
   1   6  -3  111.68    3.04
   1   6  -3  120.05    3.27
  -1  -6   3  122.09    3.40
  -1  -6   3  113.26    3.04
   0   6  -3  139.65    3.93
   0  -6   3  144.54    3.68
   0  -6   3  145.89    3.76
   1  -6   3   27.84    1.18
   1  -6   3   28.08    1.07
   2  -6   3    2.70    0.55
   2  -6   3    2.47    0.34
   3  -6   3   92.18    2.87
   4  -6   3   47.93    2.05
   5  -6   3    9.57    1.31
   5  -6   3    7.48    1.18
   6  -6   3    0.40    1.09
   6  -6   3    0.83    0.87
   7  -6   3    8.82    1.42
   7  -6   3    6.77    1.66
   6   5  -3    9.93    1.43
  -6  -5   3    7.82    1.77
   5   5  -3   41.43    2.19
  -5  -5   3   42.31    2.68
   4   5  -3   20.97    1.46
  -4  -5   3   21.43    1.98
   3   5  -3    4.11    0.70
  -3  -5   3    4.59    1.05
   2   5  -3   77.85    2.33
   2   5  -3   88.74    2.61
  -2  -5   3   90.49    2.83
   1   5  -3   88.93    2.40
   1   5  -3   96.58    2.70
  -1  -5   3   93.96    2.44
  -1  -5   3   96.63    2.79
   0   5  -3    1.84    0.56
   0  -5   3    2.15    0.50
   0  -5   3    1.84    0.36
   1  -5   3    2.42    0.36
   1  -5   3    2.03    0.42
   2  -5   3   30.79    1.29
   3  -5   3  102.47    3.04
   4  -5   3   28.07    1.68
   4  -5   3   29.15    1.59
   5  -5   3    0.30    0.73
   5  -5   3    0.44    0.87
   6  -5   3   26.96    2.23
   6  -5   3   29.04    1.91
   7  -5   3    7.94    1.69
   6   4  -3   19.12    1.85
  -6  -4   3   18.17    2.42
   5   4  -3   12.72    1.48
  -5  -4   3   15.13    1.79
   4   4  -3    1.78    0.65
  -4  -4   3    1.65    1.02
   3   4  -3   93.18    2.90
  -3  -4   3   95.89    3.16
   2   4  -3  193.92    5.02
  -2  -4   3  203.29    5.18
   1   4  -3   78.75    2.29
  -1  -4   3   80.86    2.34
  -1  -4   3   74.38    1.96
   0   4  -3   14.69    1.09
   0  -4   3   17.08    0.85
   0  -4   3   15.63    0.70
   1  -4   3  118.38    2.79
   1  -4   3  115.85    3.02
   2  -4   3  335.52    7.96
   3  -4   3   54.14    1.97
   3  -4   3   58.28    2.05
   4  -4   3    3.04    0.78
   4  -4   3    2.09    0.75
   5  -4   3   20.97    1.72
   5  -4   3   20.74    1.60
   6  -4   3   34.24    2.40
   6  -4   3   35.26    2.08
   7  -4   3    4.78    1.56
   6   3  -3   10.77    1.42
  -6  -3   3    9.50    1.74
   5   3  -3    0.87    0.71
  -5  -3   3    0.96    1.11
   4   3  -3   15.19    1.22
  -4  -3   3   16.34    1.64
   3   3  -3  123.08    3.51
  -3  -3   3  125.46    3.66
   2   3  -3  148.81    3.91
  -2  -3   3  151.18    3.98
   1   3  -3    0.03    0.33
  -1  -3   3    0.37    0.38
   0   3  -3  154.85    4.30
   0  -3   3  175.17    3.98
   0  -3   3  174.69    4.01
   1  -3   3   60.86    1.77
   2  -3   3   26.37    1.14
   3  -3   3    3.89    0.67
   3  -3   3    3.78    0.64
   4  -3   3    4.71    0.83
   4  -3   3    4.38    0.86
   5  -3   3   85.51    3.15
   5  -3   3   84.67    3.01
   6  -3   3    9.50    1.42
   7  -3   3   -0.59    1.23
   7   2  -3    8.59    1.82
   6   2  -3    0.40    0.79
  -6  -2   3   -1.54    1.22
   5   2  -3   23.46    1.62
  -5  -2   3   22.11    2.01
   4   2  -3   81.96    2.76
  -4  -2   3   85.28    2.93
   3   2  -3   40.91    1.59
  -3  -2   3   40.66    1.68
   2   2  -3   33.27    1.26
  -2  -2   3   33.52    1.29
   1   2  -3   13.91    0.76
  -1  -2   3   13.84    0.69
   0   2  -3   34.97    1.39
   0  -2   3   37.38    1.10
   0  -2   3   37.68    1.04
   1  -2   3   45.20    1.43
   2  -2   3   21.66    1.08
   2  -2   3   22.68    1.03
   3  -2   3   47.37    1.76
   3  -2   3   47.17    1.80
   4  -2   3   40.55    1.84
   4  -2   3   37.71    1.82
   5  -2   3   16.13    1.67
   5  -2   3   18.34    1.52
   6  -2   3    0.66    0.85
   6  -2   3   -0.22    1.00
   7  -2   3    2.08    1.35
   7   1  -3    0.10    1.00
   6   1  -3   28.14    2.02
  -6  -1   3   24.52    2.29
   5   1  -3   45.42    2.13
  -5  -1   3   45.26    2.30
   4   1  -3   30.76    1.52
  -4  -1   3   30.76    1.61
   3   1  -3    2.13    0.47
  -3  -1   3    1.70    0.49
   2   1  -3   51.44    1.63
  -2  -1   3   50.58    1.58
   1   1  -3 1000.00   22.10
  -1  -1   3  977.03   22.31
   0   1  -3  287.24    6.43
   0   1  -3  263.84    6.63
   0  -1   3  297.27    6.53
  -1   1  -3    2.77    0.29
   1  -1   3    2.96    0.50
  -2   1  -3  178.82    4.18
   2  -1   3  178.06    4.56
   2  -1   3  181.09    4.46
  -3   1  -3   83.72    2.25
   3  -1   3   85.46    2.66
   3  -1   3   81.94    2.53
  -4   1  -3   60.21    2.02
   4  -1   3   64.81    2.37
   4  -1   3   65.22    2.42
   5  -1   3    0.34    0.77
   5  -1   3   -1.23    0.75
   6  -1   3    1.61    1.13
   7  -1   3   17.13    2.37
   7   0  -3    4.18    1.22
   6   0  -3   28.45    1.98
  -6   0   3   24.76    2.15
   5   0  -3   33.55    1.81
  -5   0   3   32.97    1.89
   4   0  -3    0.81    0.49
  -4   0   3    0.26    0.53
   3   0  -3   31.55    1.31
   3   0  -3   31.26    0.96
  -3   0   3   32.07    1.26
   2   0  -3   80.29    2.26
   2   0  -3   82.35    1.98
  -2   0   3   80.71    2.21
   1   0  -3    7.82    0.53
   1   0  -3    7.85    0.50
  -1   0   3    8.58    0.44
   0   0  -3   24.11    0.86
   0   0  -3   25.65    0.98
   0   0   3   23.68    0.95
  -1   0  -3    8.78    0.52
   1   0   3   10.63    0.86
  -2   0  -3  371.97    8.34
   2   0   3  362.07    8.68
   2   0   3  356.30    8.46
  -3   0  -3   91.24    2.52
   3   0   3   89.75    2.70
   3   0   3   92.63    2.89
  -4   0  -3    3.32    0.70
   4   0   3    3.30    0.92
   4   0   3    2.94    0.77
   5   0   3   10.31    1.30
   5   0   3    9.22    1.23
   6   0   3   19.85    2.06
   7   0   3   12.49    2.10
   7  -1  -3   33.19    2.39
   6  -1  -3   21.58    1.80
  -6   1   3   16.82    1.81
   5  -1  -3    2.55    0.78
  -5   1   3    2.41    0.77
   4  -1  -3   33.45    1.55
   4  -1  -3   31.39    1.13
  -4   1   3   33.19    1.45
   3  -1  -3   99.71    2.81
   3  -1  -3   95.15    2.49
  -3   1   3   99.78    2.72
   2  -1  -3  110.69    2.85
   2  -1  -3  106.72    2.83
   2  -1  -3  110.68    2.71
   1  -1  -3    0.85    0.30
   1  -1  -3    0.90    0.25
  -1   1   3    0.88    0.25
   0  -1  -3    1.01    0.32
   0  -1  -3    0.66    0.29
   0   1   3    1.09    0.37
  -1  -1  -3  251.71    5.79
   1   1   3  240.36    5.68
   1   1   3  244.91    6.04
  -2  -1  -3   87.02    2.39
   2   1   3   89.16    2.77
   2   1   3   85.56    2.39
  -3  -1  -3    5.65    0.70
   3   1   3    4.32    0.92
   3   1   3    5.43    0.71
  -4  -1  -3   17.07    1.29
   4   1   3   16.23    1.63
   4   1   3   17.41    1.38
   5   1   3   23.76    1.85
   5   1   3   23.33    1.82
   6   1   3   19.25    2.06
   7  -2  -3   15.47    1.92
   6  -2  -3    2.22    0.93
  -6   2   3    1.57    0.92
   5  -2  -3    9.41    1.24
  -5   2   3    8.87    1.09
   4  -2  -3  158.43    4.31
   4  -2  -3  150.06    3.92
  -4   2   3  160.07    4.15
   3  -2  -3  187.19    4.74
   3  -2  -3  188.76    4.69
   3  -2  -3  185.53    4.55
   2  -2  -3   10.97    0.63
   2  -2  -3   11.48    0.70
   2  -2  -3   11.98    0.64
   1  -2  -3   36.77    1.05
   1  -2  -3   39.37    1.36
  -1   2   3   38.49    1.26
   0  -2  -3   54.27    1.66
   0   2   3   53.81    1.73
  -1  -2  -3  199.52    4.82
   1   2   3  194.63    4.58
   1   2   3  195.59    5.06
  -2  -2  -3   19.50    1.02
   2   2   3   19.03    1.40
   2   2   3   18.93    0.92
  -3  -2  -3    6.90    0.83
   3   2   3    5.87    0.75
   3   2   3    4.98    1.09
  -4  -2  -3   43.98    1.92
   4   2   3   43.23    2.33
   4   2   3   40.87    1.93
   5   2   3   36.72    2.31
   5   2   3   36.84    2.11
   6   2   3   -0.68    1.07
   7  -3  -3    1.32    1.06
   6  -3  -3    0.94    0.83
   5  -3  -3   36.48    1.90
  -5   3   3   38.70    1.71
   4  -3  -3   61.21    2.16
   4  -3  -3   58.04    1.87
  -4   3   3   57.34    1.96
   3  -3  -3    9.98    0.71
   3  -3  -3    9.83    0.80
   3  -3  -3    9.68    0.77
   2  -3  -3   12.81    0.76
   2  -3  -3   12.02    0.82
   2  -3  -3   12.74    0.66
  -2   3   3   14.25    0.74
   1  -3  -3   63.98    1.59
   1  -3  -3   63.98    2.00
  -1   3   3   64.72    1.94
   0  -3  -3   77.53    2.25
   0   3   3   77.25    2.34
  -1  -3  -3    3.31    0.53
   1   3   3    4.51    0.78
   1   3   3    3.59    0.42
  -2  -3  -3   19.75    1.15
   2   3   3   19.72    0.96
   2   3   3   21.87    1.59
  -3  -3  -3   75.41    2.52
   3   3   3   75.26    3.03
   3   3   3   73.48    2.37
  -4  -3  -3   29.68    1.74
   4   3   3   28.70    1.65
   4   3   3   30.19    2.23
   5   3   3    0.24    1.13
   7  -4  -3    1.47    1.09
   6  -4  -3   17.01    1.70
   5  -4  -3   42.26    1.98
   5  -4  -3   38.15    1.59
  -5   4   3   40.03    1.68
   4  -4  -3   10.83    1.02
   4  -4  -3   11.44    1.01
   4  -4  -3   10.43    0.85
   3  -4  -3   15.26    0.92
   3  -4  -3   14.81    1.01
   3  -4  -3   14.20    0.91
   2  -4  -3  139.06    3.50
   2  -4  -3  139.77    3.84
   2  -4  -3  145.23    3.79
  -2   4   3  142.78    3.74
  -1   4   3  195.06    4.95
   0  -4  -3   29.42    1.28
   0   4   3   29.27    1.33
  -1  -4  -3    9.79    0.90
   1   4   3   11.77    1.16
  -2  -4  -3  119.07    3.45
   2   4   3  115.73    3.12
   2   4   3  126.75    3.92
  -3  -4  -3   55.92    2.22
   3   4   3   53.75    2.81
  -4  -4  -3   30.21    1.88
   4   4   3   24.80    2.37
  -5  -4  -3    3.46    1.13
   7  -5  -3   14.24    1.80
   6  -5  -3   22.90    1.89
   5  -5  -3    9.98    0.95
   5  -5  -3   10.96    1.28
  -5   5   3   11.64    0.94
   4  -5  -3    5.71    0.84
   4  -5  -3    6.14    0.83
   4  -5  -3    5.13    0.73
   3  -5  -3   63.78    2.04
   3  -5  -3   65.36    2.17
   3  -5  -3   62.32    2.23
   2  -5  -3   90.87    2.72
   2  -5  -3   83.56    2.32
   2  -5  -3   90.34    2.81
  -2   5   3   87.48    2.66
   1  -5  -3    5.38    0.72
  -1   5   3    5.44    0.72
   0  -5  -3    1.13    0.51
   0   5   3    1.98    0.58
  -1  -5  -3   31.05    1.51
   1   5   3   34.44    1.78
  -2  -5  -3  177.77    4.87
   2   5   3  181.45    5.30
  -3  -5  -3   18.64    1.57
   3   5   3   16.75    2.12
  -4  -5  -3    1.08    0.88
   4   5   3   -1.72    1.38
  -5  -5  -3   19.98    1.98
   7  -6  -3   16.44    2.10
   6  -6  -3    5.86    1.14
   5  -6  -3    1.18    0.59
   5  -6  -3    1.10    0.73
   5  -6  -3    1.38    0.75
   4  -6  -3   51.90    2.10
   4  -6  -3   52.45    2.04
   4  -6  -3   50.54    2.02
   3  -6  -3   65.88    2.17
   3  -6  -3   68.52    2.47
   3  -6  -3   69.98    2.41
  -3   6   3   70.21    2.40
   2  -6  -3   28.99    1.54
   2  -6  -3   29.40    1.48
  -2   6   3   27.57    1.42
   1  -6  -3    8.58    1.00
  -1   6   3    9.81    0.95
   0  -6  -3   23.74    1.37
   0   6   3   24.67    1.44
  -1  -6  -3   71.20    2.52
   1   6   3   73.03    2.76
  -2  -6  -3    0.36    0.72
   2   6   3    0.35    0.99
  -3  -6  -3    1.29    0.87
   3   6   3   -1.04    1.24
  -4  -6  -3   15.78    1.83
  -5  -6  -3   31.30    2.39
   7  -7  -3    1.01    1.19
   6  -7  -3   -1.16    0.85
   5  -7  -3   17.23    2.30
   5  -7  -3   16.49    1.36
   4  -7  -3   87.96    3.07
   4  -7  -3   96.93    3.12
   3  -7  -3   49.13    2.08
   3  -7  -3   47.82    2.11
  -3   7   3   43.51    1.94
   2  -7  -3    0.53    0.63
   2  -7  -3    0.50    0.59
  -2   7   3    1.22    0.60
   1  -7  -3   54.63    2.16
  -1   7   3   55.57    2.20
   0  -7  -3   47.77    2.03
   0   7   3   48.52    2.15
  -1  -7  -3   87.46    3.05
   1   7   3   96.54    3.39
  -2  -7  -3    1.26    0.82
   2   7   3    1.96    1.14
  -3  -7  -3   10.05    1.36
   3   7   3    7.10    1.76
  -4  -7  -3   29.74    2.27
   6  -8  -3    4.54    1.08
   5  -8  -3   25.24    1.74
   4  -8  -3    8.15    1.14
   4  -8  -3   10.41    1.37
  -4   8   3    8.74    1.14
   3  -8  -3    0.84    0.72
   3  -8  -3    1.53    0.82
  -3   8   3    0.69    0.63
   2  -8  -3   23.02    1.60
   2  -8  -3   21.79    1.58
  -2   8   3   23.66    1.53
   1  -8  -3   49.44    2.17
  -1   8   3   51.64    2.25
   0  -8  -3   36.52    1.89
   0   8   3   37.74    2.04
  -1  -8  -3    3.70    0.93
   1   8   3    4.64    1.17
  -2  -8  -3   23.07    1.85
   2   8   3   18.78    2.15
  -3  -8  -3   22.04    1.98
   3   8   3   14.43    2.21
  -4  -8  -3   22.35    2.22
   6  -9  -3   12.90    1.60
   5  -9  -3   11.41    1.54
   4  -9  -3    1.05    0.83
   4  -9  -3    2.47    0.95
  -4   9   3    1.88    0.77
   3  -9  -3    8.11    1.28
   3  -9  -3    8.61    1.22
  -3   9   3    9.66    1.33
   2  -9  -3   54.17    2.54
   2  -9  -3   52.66    2.40
  -2   9   3   53.83    2.42
   1  -9  -3    9.24    1.18
  -1   9   3    9.05    1.29
   0  -9  -3    2.95    0.92
   0   9   3    1.74    0.94
  -1  -9  -3   34.67    2.09
   1   9   3   33.48    2.29
  -2  -9  -3   29.53    2.11
   2   9   3   27.43    2.51
  -3  -9  -3   15.19    2.00
   6 -10  -3   12.84    1.77
   5 -10  -3   -0.02    0.92
  -5  10   3    1.75    0.77
   4 -10  -3   13.61    1.66
   4 -10  -3   14.94    1.74
  -4  10   3   14.77    1.53
   3 -10  -3   32.25    2.20
   3 -10  -3   34.43    2.14
  -3  10   3   31.58    2.03
   2 -10  -3   28.91    1.95
  -2  10   3   25.82    1.94
   1 -10  -3    5.38    1.06
  -1  10   3    4.87    1.16
   0 -10  -3    4.80    1.07
   0  10   3    4.82    1.27
  -1 -10  -3   43.80    2.41
   1  10   3   39.61    2.63
  -2 -10  -3   21.30    1.98
   2  10   3   14.31    2.17
   5 -11  -3    7.57    1.46
  -5  11   3    9.45    1.38
   4 -11  -3   23.50    2.20
  -4  11   3   22.74    1.96
   3 -11  -3   24.58    2.24
   3 -11  -3   26.65    2.04
  -3  11   3   22.81    1.98
   2 -11  -3    2.12    0.96
  -2  11   3   -0.05    0.91
   1 -11  -3    2.82    0.96
  -1  11   3    2.11    1.10
   0 -11  -3   21.99    1.90
   0  11   3   20.69    2.10
  -1 -11  -3   22.00    2.04
   1  11   3   16.16    2.30
   2  11   3   -1.72    1.52
   4 -12  -3   15.00    2.47
  -4  12   3   18.32    2.53
   3 -12  -3    3.89    1.13
  -3  12   3    1.15    1.00
   2 -12  -3    4.50    1.11
  -2  12   3    4.07    1.30
   1 -12  -3   15.55    1.81
  -1  12   3   14.23    2.02
   0 -12  -3   19.67    2.19
   0  12   3   16.90    2.23
   3 -13  -3    3.28    1.16
   2 -13  -3    6.35    2.14
  -1  15  -4    8.36    1.38
   1 -15   4    8.12    1.56
   2 -15   4    3.76    1.39
   0 -14   4   20.64    1.79
  -1  14  -4    7.15    1.21
   1 -14   4    5.08    1.31
  -2  14  -4    3.54    0.85
   2 -14   4    3.29    1.23
   3 -14   4   16.62    1.99
  -1 -13   4   23.90    1.97
   0 -13   4   12.33    1.65
   0 -13   4   14.55    1.58
  -1  13  -4    1.07    0.67
   1 -13   4    0.55    0.91
   2 -13   4   12.20    1.67
   3 -13   4   22.69    2.00
   4 -13   4    4.99    1.29
  -2 -12   4   24.65    2.11
  -1 -12   4   16.08    1.69
   0  12  -4    0.55    0.62
   0 -12   4    0.39    0.76
   0 -12   4    0.77    0.75
   1 -12   4   18.52    1.38
   1 -12   4   18.12    1.64
   2 -12   4   28.57    1.93
   3 -12   4   15.96    1.69
   4 -12   4    1.57    1.00
   5 -12   4   14.14    1.86
  -3 -11   4   34.91    2.52
  -2 -11   4   12.70    1.60
  -1 -11   4    0.38    0.83
   0  11  -4   20.69    1.35
   0 -11   4   23.51    1.63
   0 -11   4   22.38    1.53
  -1  11  -4   37.52    2.96
   1 -11   4   39.07    1.97
   1 -11   4   37.28    1.75
  -2  11  -4   34.66    2.65
   2 -11   4   37.47    2.03
   3 -11   4    1.05    0.82
   4 -11   4    8.94    1.35
   5 -11   4   22.09    2.10
   6 -11   4   11.02    1.76
  -4 -10   4   14.64    1.97
  -3 -10   4   18.91    2.06
  -2 -10   4    0.74    0.99
   1  10  -4   19.97    1.42
  -1 -10   4   20.64    1.72
   0  10  -4   38.24    1.94
   0  10  -4   34.09    1.59
   0 -10   4   35.58    1.71
   0 -10   4   35.92    1.84
  -1  10  -4   15.91    1.80
   1 -10   4   17.93    1.33
   1 -10   4   14.91    1.16
   2 -10   4    1.30    0.72
   3 -10   4   20.64    1.57
   4 -10   4   26.16    1.89
   5 -10   4   21.80    1.98
   6 -10   4    0.93    1.01
  -4  -9   4   27.50    2.47
   3   9  -4    0.50    0.61
  -3  -9   4   -0.39    1.06
   2   9  -4   28.98    1.61
  -2  -9   4   29.04    2.03
   1   9  -4   78.74    2.57
   1   9  -4   85.76    2.81
  -1  -9   4   82.47    2.98
  -1  -9   4   80.57    2.61
   0   9  -4   49.60    2.18
   0  -9   4   50.82    1.92
   0  -9   4   50.65    2.08
  -1   9  -4    0.70    0.96
   1  -9   4    0.88    0.58
   1  -9   4    0.67    0.54
   2  -9   4   54.09    2.16
   3  -9   4   52.34    2.22
   4  -9   4   32.78    1.98
   5  -9   4    4.11    1.11
   6  -9   4   12.24    1.72
   5   8  -4    9.12    1.35
  -5  -8   4   10.33    1.81
   4   8  -4    5.54    1.02
  -4  -8   4    2.55    1.33
   3   8  -4   15.52    1.36
  -3  -8   4   14.25    1.89
   2   8  -4   58.69    2.27
  -2  -8   4   59.85    2.64
   1   8  -4  133.46    3.69
   1   8  -4  141.04    3.97
  -1  -8   4  134.08    3.70
  -1  -8   4  141.14    4.08
   0   8  -4   14.51    1.36
   0  -8   4   13.77    0.96
   0  -8   4   13.61    1.23
  -1   8  -4   25.14    2.03
   1  -8   4   26.09    1.32
   1  -8   4   25.27    1.22
   2  -8   4   56.11    2.10
   3  -8   4   33.38    1.71
   4  -8   4   10.28    1.34
   5  -8   4    7.15    1.24
   6  -8   4   22.96    2.01
   7  -8   4   17.37    1.94
   5   7  -4    1.14    0.82
  -5  -7   4   -0.36    1.35
   4   7  -4   17.20    1.51
  -4  -7   4   16.20    2.08
   3   7  -4   34.22    1.75
  -3  -7   4   33.38    2.23
   2   7  -4   40.07    1.81
  -2  -7   4   40.42    2.14
   1   7  -4   28.32    1.49
   1   7  -4   27.67    1.10
  -1  -7   4   26.22    1.14
  -1  -7   4   27.94    1.64
   0   7  -4   21.78    1.48
   0  -7   4   21.81    1.05
   0  -7   4   23.53    1.29
   1  -7   4   89.94    2.49
   1  -7   4   87.99    2.64
   2  -7   4   65.80    2.24
   2  -7   4   65.63    1.84
   3  -7   4    0.97    0.64
   4  -7   4   13.33    1.42
   5  -7   4   19.57    1.74
   6  -7   4   20.14    1.93
   7  -7   4    5.83    1.34
   6   6  -4    1.63    1.01
  -6  -6   4    0.37    1.52
   5   6  -4   12.55    1.56
  -5  -6   4    9.87    1.71
   4   6  -4   65.55    2.57
  -4  -6   4   60.15    2.96
   3   6  -4   42.13    1.90
  -3  -6   4   41.89    2.28
   2   6  -4    6.71    0.85
  -2  -6   4    6.63    1.06
   1   6  -4   26.42    1.37
  -1  -6   4   27.43    1.47
  -1  -6   4   25.23    0.99
   0   6  -4  123.47    3.81
   0  -6   4  138.30    3.56
   0  -6   4  135.74    3.43
   1  -6   4  102.15    2.85
   1  -6   4  101.04    2.65
   2  -6   4   32.17    1.42
   3  -6   4   37.85    1.71
   4  -6   4   55.71    2.32
   5  -6   4   42.65    2.20
   6  -6   4    6.42    1.25
   6  -6   4    3.31    1.29
   7  -6   4    2.39    1.09
   7  -6   4   -2.31    1.60
   6   5  -4    2.48    0.99
  -6  -5   4    1.11    1.52
   5   5  -4   33.55    2.04
  -5  -5   4   32.25    2.51
   4   5  -4   52.04    2.25
  -4  -5   4   52.42    2.66
   3   5  -4    6.10    0.83
  -3  -5   4    7.70    1.18
   2   5  -4   19.26    1.20
  -2  -5   4   18.35    1.40
   1   5  -4  105.62    3.06
  -1  -5   4  105.04    3.03
  -1  -5   4  102.57    2.61
   0   5  -4   60.43    2.29
   0  -5   4   67.94    2.01
   0  -5   4   69.57    1.90
   1  -5   4   43.18    1.48
   1  -5   4   42.39    1.30
   2  -5   4   17.77    1.06
   3  -5   4  115.10    3.39
   4  -5   4   48.55    2.13
   5  -5   4   14.42    1.78
   5  -5   4   16.33    1.58
   6  -5   4    5.40    1.21
   6  -5   4    3.80    1.33
   7  -5   4    5.46    1.67
   6   4  -4   19.37    1.89
  -6  -4   4   17.51    2.13
   5   4  -4   49.79    2.37
  -5  -4   4   47.32    2.75
   4   4  -4   21.86    1.52
  -4  -4   4   23.79    1.93
   3   4  -4   40.37    1.75
  -3  -4   4   42.03    2.02
   2   4  -4  121.82    3.44
  -2  -4   4  121.66    3.49
   1   4  -4  168.78    4.40
  -1  -4   4  170.60    4.31
  -1  -4   4  165.31    3.92
   0   4  -4    8.01    1.03
   0  -4   4    8.76    0.66
   0  -4   4    8.09    0.54
   1  -4   4    0.92    0.38
   2  -4   4  163.56    4.27
   3  -4   4   96.94    2.99
   4  -4   4   35.78    1.86
   4  -4   4   36.03    1.90
   5  -4   4    8.27    1.23
   5  -4   4    6.49    1.19
   6  -4   4   31.96    2.47
   6  -4   4   35.45    2.21
   7  -4   4   13.13    2.03
  -7  -3   4   12.77    2.21
   6   3  -4   27.22    2.06
  -6  -3   4   24.90    2.50
   5   3  -4   10.34    1.35
  -5  -3   4   11.55    1.59
   4   3  -4    6.52    0.87
  -4  -3   4    7.76    1.20
   3   3  -4   98.24    3.02
  -3  -3   4  101.47    3.13
   2   3  -4  277.59    6.82
  -2  -3   4  278.30    6.80
   1   3  -4  179.05    4.55
  -1  -3   4  176.92    4.40
   0   3  -4   20.97    1.26
   0  -3   4   22.04    0.81
   0  -3   4   20.57    0.83
   1  -3   4   73.52    2.12
   2  -3   4  126.39    3.44
   3  -3   4   48.17    1.90
   3  -3   4   47.73    1.88
   4  -3   4    7.80    1.06
   4  -3   4    6.96    1.02
   5  -3   4   37.09    2.07
   5  -3   4   36.07    2.15
   6  -3   4   20.05    2.11
   6  -3   4   24.87    2.01
   7  -3   4    3.04    1.60
  -7  -2   4   14.90    2.31
   6   2  -4    9.19    1.34
  -6  -2   4    6.73    1.61
   5   2  -4    0.92    0.71
  -5  -2   4   -1.91    0.88
   4   2  -4   65.38    2.42
  -4  -2   4   69.00    2.57
   3   2  -4   68.53    2.29
  -3  -2   4   69.97    2.32
   2   2  -4   89.02    2.58
  -2  -2   4   88.56    2.53
   1   2  -4   93.54    2.64
  -1  -2   4   95.39    2.50
   0   2  -4  106.99    3.12
   0  -2   4  113.70    2.75
   0  -2   4  116.09    2.85
  -1   2  -4  112.01    2.62
   1  -2   4  108.56    2.96
   2  -2   4   22.73    1.23
   3  -2   4    1.99    0.61
   3  -2   4    1.38    0.71
   4  -2   4   46.03    2.14
   4  -2   4   48.95    2.12
   5  -2   4   38.24    2.12
   5  -2   4   41.13    2.25
   6  -2   4    2.71    1.20
   6  -2   4    5.02    1.15
   7  -2   4   -1.15    1.36
   7   1  -4   18.31    2.02
   6   1  -4    1.21    0.90
  -6  -1   4   -1.57    1.12
   5   1  -4   39.83    2.01
  -5  -1   4   36.92    2.13
   4   1  -4   54.70    2.14
  -4  -1   4   60.81    2.24
   3   1  -4   51.16    1.84
  -3  -1   4   51.13    1.80
   2   1  -4    6.29    0.66
  -2  -1   4    6.28    0.59
   1   1  -4  288.77    6.99
  -1  -1   4  304.82    6.79
   0   1  -4  186.93    4.43
   0   1  -4  186.28    4.69
   0  -1   4  188.59    4.57
  -1   1  -4   57.32    1.58
   1  -1   4   57.99    1.90
  -2   1  -4   26.19    0.90
   2  -1   4   25.17    1.36
  -3   1  -4   78.36    2.17
   3  -1   4   81.46    2.73
   3  -1   4   81.71    2.56
   4  -1   4  125.83    3.95
   4  -1   4  131.68    3.87
   5  -1   4   27.84    1.97
   5  -1   4   28.63    1.99
   6  -1   4   -1.55    1.02
   6  -1   4    1.03    0.98
   7  -1   4    6.47    2.64
   7   0  -4    0.28    0.98
   6   0  -4   14.00    1.65
  -6   0   4   12.08    1.57
   5   0  -4   54.08    2.34
  -5   0   4   56.84    2.40
   4   0  -4   39.33    1.75
  -4   0   4   42.14    1.76
   3   0  -4    6.12    0.74
   3   0  -4    7.06    0.42
  -3   0   4    6.33    0.68
   2   0  -4  254.98    6.14
  -2   0   4  254.86    5.85
   1   0  -4  170.32    4.17
   1   0  -4  174.31    4.20
  -1   0   4  168.14    4.12
   0   0  -4  129.93    3.29
   0   0  -4  133.13    3.36
   0   0   4  129.19    3.39
  -1   0  -4   15.89    0.73
   1   0   4   16.38    1.13
  -2   0  -4   52.06    1.57
   2   0   4   51.56    1.70
   2   0   4   51.27    2.03
  -3   0  -4   86.45    2.45
   3   0   4   87.22    2.69
   3   0   4   86.56    2.99
   4   0   4   57.97    2.55
   4   0   4   59.09    2.34
   5   0   4   -1.17    0.83
   5   0   4   -0.03    0.97
   6   0   4    2.27    1.23
   7  -1  -4   19.26    2.06
   6  -1  -4   37.42    2.20
  -6   1   4   33.29    2.17
   5  -1  -4   14.72    1.39
  -5   1   4   15.14    1.35
   4  -1  -4    1.95    0.60
  -4   1   4    1.97    0.60
   3  -1  -4   59.20    1.67
   3  -1  -4   60.02    1.96
  -3   1   4   57.93    1.90
   2  -1  -4  255.44    6.14
   2  -1  -4  251.23    6.07
  -2   1   4  255.35    5.95
   1  -1  -4   73.88    2.15
   1  -1  -4   74.98    1.98
  -1   1   4   75.44    2.10
   0  -1  -4    1.57    0.39
   0  -1  -4    1.27    0.37
   0   1   4    1.89    0.51
  -1  -1  -4  117.63    3.09
   1   1   4  122.02    3.43
  -2  -1  -4   87.14    2.44
   2   1   4   87.07    2.93
   2   1   4   86.36    2.45
  -3  -1  -4   64.37    2.11
   3   1   4   66.94    2.72
   3   1   4   64.86    2.21
  -4  -1  -4    4.30    0.77
   4   1   4    3.57    1.18
   4   1   4    3.45    0.85
   5   1   4   18.84    1.97
   5   1   4   18.22    1.79
   6   1   4   15.15    2.05
   7  -2  -4   26.09    2.16
   6  -2  -4   26.59    1.90
  -6   2   4   24.71    1.80
   5  -2  -4    0.23    0.62
  -5   2   4    0.74    0.62
   4  -2  -4   21.79    1.00
   4  -2  -4   23.26    1.32
  -4   2   4   22.91    1.23
   3  -2  -4  181.06    4.63
   3  -2  -4  177.42    4.60
   3  -2  -4  179.98    4.44
   2  -2  -4  157.91    3.96
   2  -2  -4  161.45    4.01
   2  -2  -4  160.84    4.15
  -2   2   4  160.76    4.00
   1  -2  -4   30.96    1.25
   1  -2  -4   28.36    0.91
  -1   2   4   30.05    1.17
   0  -2  -4  162.37    4.17
   0   2   4  165.81    4.31
  -1  -2  -4  175.36    4.48
   1   2   4  181.07    4.82
  -2  -2  -4   39.53    1.53
   2   2   4   39.73    1.43
   2   2   4   41.09    2.07
  -3  -2  -4   16.67    1.23
   3   2   4   17.40    1.92
   3   2   4   16.55    1.20
  -4  -2  -4   16.49    1.35
   4   2   4   13.74    1.71
   4   2   4   13.74    1.40
   5   2   4   15.57    2.03
   5   2   4   15.37    1.76
   7  -3  -4   19.81    2.04
   6  -3  -4    1.53    0.87
  -6   3   4    0.94    0.80
   5  -3  -4   20.34    1.50
  -5   3   4   19.86    1.32
   4  -3  -4   55.39    2.04
   4  -3  -4   53.41    1.81
   3  -3  -4   86.80    2.48
   3  -3  -4   86.37    2.62
   3  -3  -4   82.85    2.48
  -3   3   4   81.16    2.42
   2  -3  -4   14.81    0.87
   2  -3  -4   14.71    0.97
   2  -3  -4   13.76    0.71
  -2   3   4   13.34    0.81
   1  -3  -4   32.47    0.93
   1  -3  -4   32.61    1.40
  -1   3   4   33.03    1.32
   0  -3  -4  157.46    4.14
   0   3   4  159.24    4.28
  -1  -3  -4   78.10    2.42
   1   3   4   82.32    2.78
  -2  -3  -4    5.47    0.76
   2   3   4    4.58    0.59
   2   3   4    5.94    1.19
  -3  -3  -4   25.31    1.51
   3   3   4   24.99    2.20
   3   3   4   22.66    1.34
  -4  -3  -4   65.07    2.50
   4   3   4   62.91    3.18
   5   3   4   11.38    2.05
   7  -4  -4    3.94    1.19
   6  -4  -4   11.76    1.56
  -6   4   4   10.93    1.48
   5  -4  -4   32.81    1.79
  -5   4   4   34.31    1.60
   4  -4  -4   31.30    1.52
   4  -4  -4   32.21    1.60
   4  -4  -4   31.74    1.40
   3  -4  -4    5.93    0.82
   3  -4  -4    5.53    0.78
   3  -4  -4    5.54    0.71
  -3   4   4    4.20    0.62
   2  -4  -4    6.11    0.82
   2  -4  -4    5.74    0.53
   2  -4  -4    5.16    0.68
  -2   4   4    5.46    0.69
   1  -4  -4  132.49    3.70
  -1   4   4  131.80    3.66
   0  -4  -4   81.51    2.56
   0   4   4   85.00    2.71
  -1  -4  -4    4.99    0.75
   1   4   4    7.10    1.09
  -2  -4  -4   20.94    1.39
   2   4   4   24.20    1.98
  -3  -4  -4  122.85    3.70
   3   4   4  117.58    4.36
  -4  -4  -4   33.37    1.98
   4   4   4   30.28    2.72
   7  -5  -4    3.26    1.22
   6  -5  -4   24.12    1.89
   5  -5  -4   31.20    1.60
   5  -5  -4   30.96    1.75
   4  -5  -4    7.62    0.98
   4  -5  -4    7.73    0.99
   4  -5  -4    7.50    0.92
   3  -5  -4   37.99    1.49
   3  -5  -4   38.55    1.81
   3  -5  -4   39.35    1.71
  -3   5   4   43.26    1.70
   2  -5  -4  130.91    3.74
   2  -5  -4  130.76    3.83
  -2   5   4  129.33    3.70
   1  -5  -4   61.79    2.25
  -1   5   4   64.64    2.26
   0  -5  -4   28.30    1.44
   0   5   4   28.15    1.54
  -1  -5  -4    0.80    0.62
   1   5   4    0.77    0.80
  -2  -5  -4   32.71    1.77
   2   5   4   35.19    2.30
  -3  -5  -4   69.09    2.69
   3   5   4   61.76    3.33
  -4  -5  -4    6.73    1.22
   4   5   4    3.80    1.83
   7  -6  -4   19.17    2.14
   6  -6  -4   19.20    1.82
   5  -6  -4   10.43    1.11
   5  -6  -4   10.14    1.31
   5  -6  -4   11.30    1.39
   4  -6  -4   18.70    1.51
   4  -6  -4   19.19    1.39
  -4   6   4   25.36    1.41
   3  -6  -4   67.56    2.61
   3  -6  -4   70.21    2.55
  -3   6   4   76.18    2.57
   2  -6  -4   83.98    2.83
   2  -6  -4   82.86    2.90
  -2   6   4   84.92    2.81
   1  -6  -4    9.63    1.11
  -1   6   4    9.45    1.10
   0  -6  -4    5.54    0.87
   0   6   4    6.09    0.98
  -1  -6  -4   56.67    2.31
   1   6   4   60.08    2.63
  -2  -6  -4   82.88    3.01
   2   6   4   86.84    3.51
  -3  -6  -4   12.74    1.67
   3   6   4    9.71    1.94
  -4  -6  -4    4.36    1.14
   4   6   4   -0.39    1.83
   5  -7  -4    0.14    0.79
   5  -7  -4    0.75    0.70
  -5   7   4    1.46    0.61
   4  -7  -4   30.87    1.87
   4  -7  -4   34.62    1.86
  -4   7   4   35.32    1.76
   3  -7  -4   80.08    2.89
   3  -7  -4   76.89    2.90
  -3   7   4   78.91    2.84
   2  -7  -4   21.98    1.58
  -2   7   4   21.01    1.46
   1  -7  -4   12.68    1.27
  -1   7   4   12.22    1.29
   0  -7  -4   43.93    2.03
   0   7   4   46.63    2.24
  -1  -7  -4   21.57    1.62
   1   7   4   22.39    1.91
  -2  -7  -4   20.54    1.74
   2   7   4   19.05    2.19
  -3  -7  -4    2.72    1.04
   3   7   4   -0.88    1.49
  -4  -7  -4   33.08    2.39
   5  -8  -4   26.27    1.87
  -5   8   4   30.99    1.76
   4  -8  -4   24.39    1.77
   4  -8  -4   22.55    1.72
  -4   8   4   22.95    1.64
   3  -8  -4   28.61    1.90
   3  -8  -4   27.16    1.83
  -3   8   4   25.67    1.71
   2  -8  -4    1.53    0.80
  -2   8   4    0.72    0.71
   1  -8  -4   28.02    1.75
  -1   8   4   27.91    1.84
   0  -8  -4   37.61    2.04
   0   8   4   42.91    2.27
  -1  -8  -4   17.28    1.69
   1   8   4   16.76    1.94
  -2  -8  -4    1.54    0.93
   2   8   4   -1.16    1.21
  -3  -8  -4   19.04    1.97
  -6   9   4   15.19    2.15
   5  -9  -4   14.34    1.69
  -5   9   4   17.73    1.56
   4  -9  -4    5.81    1.22
   4  -9  -4    5.51    1.20
  -4   9   4    6.43    1.16
   3  -9  -4    1.00    0.92
   3  -9  -4    0.66    0.91
  -3   9   4    0.24    0.75
   2  -9  -4   35.07    2.09
  -2   9   4   34.72    2.11
   1  -9  -4   44.47    2.26
  -1   9   4   44.79    2.40
   0  -9  -4    9.18    1.28
   0   9   4   10.53    1.55
  -1  -9  -4    1.70    0.93
   1   9   4   -0.79    1.08
  -2  -9  -4   18.86    1.91
   2   9   4   15.49    2.18
   3   9   4   19.62    2.74
   6 -10  -4   16.90    1.98
   5 -10  -4    4.54    1.24
  -5  10   4    5.83    1.14
   4 -10  -4    1.78    1.02
   4 -10  -4    0.54    0.99
  -4  10   4    0.43    0.83
   3 -10  -4   19.87    1.93
  -3  10   4   20.53    1.91
   2 -10  -4   34.57    2.17
  -2  10   4   34.59    2.26
   1 -10  -4   12.25    1.61
  -1  10   4    7.25    1.38
   0 -10  -4    2.02    0.90
   0  10   4    1.03    1.13
  -1 -10  -4    8.90    1.42
   1  10   4    5.31    1.59
   2  10   4   15.43    2.29
   5 -11  -4    0.34    1.15
  -5  11   4    0.38    1.01
   4 -11  -4    7.24    1.55
   4 -11  -4    8.02    1.42
  -4  11   4   10.31    1.58
   3 -11  -4   29.88    2.22
  -3  11   4   26.34    2.20
   2 -11  -4   19.40    1.89
  -2  11   4   17.09    2.03
   1 -11  -4    2.22    0.97
  -1  11   4    0.03    1.04
   0 -11  -4    7.36    1.30
   0  11   4    6.43    1.59
   1  11   4   22.13    2.70
   3 -12  -4   16.75    2.02
   2 -12  -4    0.91    0.96
   1 -12  -4    4.91    1.95
  -2  15  -5   14.68    1.44
   2 -15   5    9.02    1.63
  -1 -14   5    5.87    1.22
   0 -14   5   29.28    2.04
  -1  14  -5   19.24    1.55
   1 -14   5   16.42    1.91
   2 -14   5    1.95    1.07
   3 -14   5    4.73    1.32
  -2 -13   5    3.41    1.40
  -1 -13   5   23.33    1.98
   0 -13   5   30.91    1.96
   1 -13   5    8.54    1.33
   2 -13   5    2.25    1.00
   3 -13   5   23.66    1.98
   4 -13   5   16.17    1.98
  -2 -12   5   18.05    2.00
  -1 -12   5   38.66    2.24
   0 -12   5    7.50    1.13
   0 -12   5    9.74    1.23
   1 -12   5    0.74    0.74
  -2  12  -5   23.10    2.79
   2 -12   5   25.02    1.86
   3 -12   5   28.27    1.99
   4 -12   5    5.10    1.24
   5 -12   5    3.97    1.34
  -3 -11   5   26.70    2.38
  -2 -11   5   27.38    2.20
  -1 -11   5    6.59    1.22
   0  11  -5    1.30    0.87
   0  11  -5    0.49    0.46
   0 -11   5    1.08    0.63
   0 -11   5    0.67    0.74
  -1  11  -5   18.65    1.97
   1 -11   5   19.49    1.47
   1 -11   5   18.88    1.56
  -2  11  -5   73.11    3.60
   2 -11   5   78.43    2.91
   3 -11   5   10.54    1.47
   4 -11   5    1.18    0.98
   5 -11   5   21.32    2.09
  -4 -10   5   20.00    2.40
   3  10  -5   28.66    2.91
  -3 -10   5   31.97    2.47
   2  10  -5   15.91    1.49
  -2 -10   5   14.83    1.69
   1  10  -5    6.80    1.02
  -1 -10   5    8.67    1.27
   0  10  -5   30.05    1.90
   0 -10   5   28.99    1.51
   0 -10   5   28.71    1.72
  -1  10  -5   37.99    2.44
   1 -10   5   36.44    1.65
   1 -10   5   37.60    1.80
   2 -10   5   10.88    1.30
   3 -10   5    0.85    0.77
   4 -10   5   14.17    1.62
   5 -10   5   36.08    2.36
   6 -10   5    9.54    1.56
   4   9  -5   58.78    2.62
  -4  -9   5   55.96    3.17
   3   9  -5   24.53    1.70
  -3  -9   5   23.95    2.25
   2   9  -5    1.97    0.74
  -2  -9   5    0.14    1.02
   1   9  -5   54.15    2.26
  -1  -9   5   50.56    2.37
   0   9  -5   91.92    3.22
   0  -9   5   90.30    2.96
   0  -9   5   88.48    2.77
  -1   9  -5   51.77    2.76
   1  -9   5   50.91    1.99
   1  -9   5   49.36    1.85
   2  -9   5    6.52    0.95
   3  -9   5   23.17    1.63
   4  -9   5   56.27    2.56
   5  -9   5   15.88    1.76
   6  -9   5    1.19    1.06
   5   8  -5   24.41    2.00
  -5  -8   5   22.13    2.63
   4   8  -5   12.50    1.48
  -4  -8   5   12.92    1.87
   3   8  -5    0.17    0.62
  -3  -8   5   -0.32    1.10
   2   8  -5   34.43    1.82
  -2  -8   5   33.06    2.15
   1   8  -5  168.21    4.64
   1   8  -5  153.18    4.11
  -1  -8   5  164.78    4.64
  -1  -8   5  156.66    4.16
   0   8  -5   71.09    2.80
   0  -8   5   75.23    2.53
   0  -8   5   73.87    2.31
  -1   8  -5    0.80    1.05
   1  -8   5    0.29    0.50
   1  -8   5    0.38    0.50
   2  -8   5   26.16    1.48
   3  -8   5   63.17    2.48
   4  -8   5   48.20    2.32
   5  -8   5    1.45    1.01
   6  -8   5    4.94    1.32
   5   7  -5   24.07    1.91
  -5  -7   5   21.24    2.51
   4   7  -5    0.15    0.69
  -4  -7   5    0.17    1.20
   3   7  -5   28.76    1.72
  -3  -7   5   29.24    2.16
   2   7  -5   65.13    2.48
  -2  -7   5   65.98    2.71
   1   7  -5   62.03    2.39
  -1  -7   5   58.49    1.83
  -1  -7   5   63.07    2.40
   0   7  -5    7.48    1.06
   0  -7   5   10.06    1.11
   0  -7   5    9.20    0.76
   1  -7   5   32.36    1.40
   1  -7   5   30.97    1.27
   2  -7   5   64.38    2.28
   3  -7   5   38.13    1.82
   4  -7   5   -0.26    0.73
   5  -7   5    6.75    1.27
   6  -7   5   23.94    2.12
   7  -7   5   15.74    2.00
   6   6  -5   18.20    2.01
  -6  -6   5   17.57    2.32
   5   6  -5    0.77    0.79
  -5  -6   5   -0.75    1.29
   4   6  -5   19.49    1.59
  -4  -6   5   19.42    2.10
   3   6  -5   68.19    2.57
  -3  -6   5   69.08    2.90
   2   6  -5   90.50    2.97
  -2  -6   5   88.26    3.06
   1   6  -5    3.95    0.78
  -1  -6   5    3.80    0.47
  -1  -6   5    4.26    0.84
   0   6  -5   59.32    2.43
   0  -6   5   66.35    2.09
   0  -6   5   64.60    1.92
   1  -6   5  134.54    3.39
   1  -6   5  134.59    3.61
   2  -6   5   81.80    2.60
   3  -6   5    0.45    0.62
   4  -6   5   18.74    1.62
   5  -6   5   37.70    2.21
   6  -6   5   27.97    2.18
   7  -6   5    2.97    1.21
   6   5  -5    1.33    0.95
  -6  -5   5    0.52    1.58
   5   5  -5   11.65    1.51
  -5  -5   5   10.38    1.74
   4   5  -5  104.42    3.51
  -4  -5   5  104.98    3.81
   3   5  -5   36.86    1.81
  -3  -5   5   40.40    2.14
   2   5  -5    1.88    0.64
  -2  -5   5    1.33    0.73
   1   5  -5   39.14    1.75
  -1  -5   5   40.52    1.62
  -1  -5   5   37.82    1.17
   0   5  -5  189.99    5.47
   0  -5   5  212.67    5.08
   0  -5   5  213.75    4.99
   1  -5   5  126.01    3.37
   1  -5   5  125.77    3.11
   2  -5   5    6.91    0.90
   3  -5   5   25.31    1.55
   4  -5   5   44.55    2.19
   5  -5   5   57.38    2.64
   6  -5   5    2.37    1.30
   6  -5   5    5.30    1.26
   7  -5   5    5.90    1.40
   6   4  -5    7.11    1.31
  -6  -4   5    4.26    1.69
   5   4  -5   43.78    2.31
  -5  -4   5   43.56    2.70
   4   4  -5   75.54    2.81
  -4  -4   5   79.06    3.11
   3   4  -5    7.72    1.04
  -3  -4   5    7.10    1.03
   2   4  -5    9.16    0.97
  -2  -4   5    9.77    1.01
   1   4  -5  257.26    6.60
  -1  -4   5  265.32    6.02
  -1  -4   5  264.44    6.39
   0   4  -5  211.60    5.69
   0  -4   5  219.21    5.20
   0  -4   5  219.42    5.18
   1  -4   5   38.90    1.16
   1  -4   5   42.59    1.51
   2  -4   5   48.65    1.81
   3  -4   5   67.79    2.44
   4  -4   5   55.82    2.38
   5  -4   5    8.41    1.37
   5  -4   5    7.63    1.32
   6  -4   5    1.13    1.22
   6  -4   5    4.52    1.25
   7  -4   5   19.06    2.14
  -7  -3   5   -0.91    1.75
   6   3  -5   28.90    2.13
  -6  -3   5   21.52    2.51
   5   3  -5   63.72    2.69
  -5  -3   5   59.88    2.93
   4   3  -5    1.06    0.62
  -4  -3   5    0.90    0.84
   3   3  -5   21.67    1.35
  -3  -3   5   23.30    1.42
   2   3  -5   85.41    2.65
  -2  -3   5   83.57    2.54
   1   3  -5  426.98   10.38
  -1  -3   5  442.17   10.15
  -1  -3   5  446.54    9.86
   0   3  -5   19.48    1.30
   0  -3   5   20.55    0.91
   0  -3   5   19.99    0.80
   1  -3   5   11.37    0.48
   1  -3   5   11.37    0.90
   2  -3   5  145.82    3.99
   3  -3   5   66.82    2.48
   4  -3   5   43.88    2.17
   4  -3   5   45.23    2.21
   5  -3   5    1.96    0.99
   5  -3   5    1.41    1.03
   6  -3   5   14.43    1.79
   6  -3   5   15.12    1.89
  -7  -2   5   19.20    2.43
   6   2  -5   45.56    2.48
  -6  -2   5   45.10    2.84
   5   2  -5   22.77    1.70
  -5  -2   5   20.64    1.90
   4   2  -5   36.17    1.82
  -4  -2   5   38.37    1.93
   3   2  -5   53.92    2.02
  -3  -2   5   55.18    2.01
   2   2  -5  190.52    4.93
  -2  -2   5  190.96    4.82
   1   2  -5   28.75    1.30
  -1  -2   5   30.83    1.03
  -1  -2   5   28.65    1.09
   0   2  -5    0.10    0.52
   0   2  -5    0.20    0.24
   0  -2   5    0.35    0.44
  -1   2  -5  128.12    3.13
   1  -2   5  129.87    3.51
   2  -2   5  170.16    4.57
   3  -2   5    6.95    1.09
   4  -2   5   11.00    1.55
   4  -2   5   11.40    1.50
   5  -2   5   24.12    2.01
   5  -2   5   24.39    2.05
   6  -2   5   21.37    2.00
   6  -2   5   18.26    2.23
   7   1  -5   21.14    2.55
  -7  -1   5   15.48    2.26
   6   1  -5   32.32    2.13
  -6  -1   5   28.58    2.32
   5   1  -5    3.34    0.84
  -5  -1   5    3.00    0.97
   4   1  -5   80.22    2.78
  -4  -1   5   81.96    2.77
   3   1  -5   75.30    2.45
  -3  -1   5   74.04    2.38
   2   1  -5  143.38    3.83
  -2  -1   5  145.14    3.77
   1   1  -5   49.91    1.72
   1   1  -5   52.63    1.62
  -1  -1   5   54.18    1.60
   0   1  -5   35.02    1.18
   0   1  -5   33.94    1.44
   0  -1   5   35.62    1.41
  -1   1  -5  307.52    7.22
   1  -1   5  313.22    7.57
  -2   1  -5   17.42    0.78
   2  -1   5   18.71    1.36
  -3   1  -5    2.28    0.45
   3  -1   5    2.39    0.95
   3  -1   5    2.51    0.72
   4  -1   5   54.87    2.59
   4  -1   5   57.50    2.43
   5  -1   5   46.42    2.49
   5  -1   5   45.41    2.52
   6  -1   5    5.34    1.49
   6  -1   5   10.09    1.57
   7   0  -5    1.35    1.02
  -7   0   5   -0.40    1.42
   6   0  -5    0.59    0.80
  -6   0   5   -1.49    0.96
   5   0  -5   55.50    2.41
  -5   0   5   56.09    2.41
   4   0  -5   79.37    2.74
  -4   0   5   83.64    2.72
   3   0  -5   39.19    1.58
  -3   0   5   36.97    1.49
  -3   0   5   37.40    1.14
   2   0  -5   43.92    1.55
   2   0  -5   43.90    1.54
  -2   0   5   44.38    1.34
   1   0  -5  160.34    4.15
   1   0  -5  172.06    4.22
  -1   0   5  169.12    4.17
   0   0  -5  130.60    3.44
   0   0  -5  137.98    3.53
   0   0   5  132.20    3.60
  -1   0  -5  197.88    4.83
   1   0   5  197.76    5.20
  -2   0  -5    0.25    0.34
   2   0   5    0.16    0.79
  -3   0  -5   33.03    1.36
   3   0   5   33.68    1.65
   3   0   5   34.06    2.06
   4   0   5  100.89    3.70
   4   0   5  107.72    3.45
   5   0   5   31.99    2.34
   5   0   5   30.59    2.17
   6   0   5   -1.52    1.15
   6   0   5    1.06    1.24
   7  -1  -5    0.28    1.00
   6  -1  -5   20.49    1.81
  -6   1   5   16.02    1.80
   5  -1  -5   85.51    3.04
  -5   1   5   84.11    2.97
   4  -1  -5   20.45    1.33
  -4   1   5   20.92    1.26
   3  -1  -5    2.30    0.41
   3  -1  -5    2.16    0.52
  -3   1   5    2.37    0.39
   2  -1  -5  203.31    5.06
   2  -1  -5  210.61    5.20
  -2   1   5  204.51    5.00
   1  -1  -5  192.24    4.77
   1  -1  -5  204.61    5.01
  -1   1   5  200.79    4.96
   0  -1  -5  137.82    3.72
   0  -1  -5  147.48    3.60
   0   1   5  141.16    3.87
  -1  -1  -5   26.60    1.14
   1   1   5   27.21    1.58
  -2  -1  -5   31.68    1.33
   2   1   5   31.66    1.94
  -3  -1  -5   40.84    1.66
   3   1   5   42.84    1.83
   3   1   5   40.61    2.38
   4   1   5   50.68    2.75
   4   1   5   51.69    2.28
   5   1   5   -0.54    1.17
   5   1   5   -1.13    0.95
   7  -2  -5   10.96    1.57
   6  -2  -5   40.45    2.23
  -6   2   5   36.65    2.13
   5  -2  -5   27.69    1.70
  -5   2   5   26.84    1.64
   4  -2  -5    0.16    0.48
  -4   2   5    0.52    0.50
  -4   2   5   -0.11    0.46
   3  -2  -5   35.86    1.46
   3  -2  -5   36.10    1.35
   3  -2  -5   36.84    1.58
  -3   2   5   36.52    1.33
   2  -2  -5  225.46    5.57
   2  -2  -5  234.40    5.85
  -2   2   5  236.42    5.69
   1  -2  -5   72.42    1.95
   1  -2  -5   76.13    2.34
  -1   2   5   73.31    2.28
   0  -2  -5    4.99    0.64
   0  -2  -5    5.44    0.53
   0   2   5    5.20    0.80
  -1  -2  -5   82.45    2.53
   1   2   5   90.19    2.98
  -2  -2  -5   46.97    1.78
   2   2   5   46.98    2.43
  -3  -2  -5   38.38    1.72
   3   2   5   37.79    2.51
   3   2   5   37.85    1.76
  -4  -2  -5    5.61    1.22
   4   2   5    3.29    1.45
   5   2   5   17.94    2.36
   7  -3  -5   31.51    2.33
   6  -3  -5   31.33    2.06
  -6   3   5   29.08    1.90
   5  -3  -5    1.81    0.73
  -5   3   5    2.41    0.71
   4  -3  -5   12.56    1.24
   4  -3  -5   13.22    1.08
   4  -3  -5   12.31    0.94
  -4   3   5   14.81    0.93
   3  -3  -5   98.66    3.03
   3  -3  -5   91.69    2.78
   3  -3  -5   99.00    2.85
  -3   3   5  101.41    2.84
   2  -3  -5  143.09    3.66
   2  -3  -5  149.05    4.07
  -2   3   5  148.13    3.92
   1  -3  -5    7.99    0.89
  -1   3   5    8.29    0.87
   0  -3  -5   71.12    2.30
   0   3   5   69.50    2.46
  -1  -3  -5  127.81    3.62
   1   3   5  132.72    4.02
  -2  -3  -5   28.47    1.51
   2   3   5   28.52    2.12
  -3  -3  -5    4.45    0.87
   3   3   5    4.60    1.58
  -4  -3  -5   20.66    1.61
   4   3   5   19.47    2.52
   5   3   5   17.57    2.31
   7  -4  -5   12.59    1.64
   6  -4  -5    1.06    0.81
  -6   4   5    0.94    0.75
   5  -4  -5   15.49    1.38
  -5   4   5   17.69    1.26
   4  -4  -5   37.40    1.86
   4  -4  -5   36.23    1.65
   4  -4  -5   37.39    1.62
  -4   4   5   39.00    1.60
   3  -4  -5   59.36    2.26
   3  -4  -5   60.39    2.14
   3  -4  -5   56.98    1.94
  -3   4   5   63.06    2.12
   2  -4  -5    2.24    0.43
   2  -4  -5    2.34    0.69
  -2   4   5    2.29    0.58
   1  -4  -5    8.32    1.01
  -1   4   5    7.58    0.96
   0  -4  -5  112.48    3.33
   0   4   5  112.94    3.52
  -1  -4  -5   86.91    2.83
   1   4   5   90.49    3.24
  -2  -4  -5    0.10    0.65
   2   4   5    1.24    1.21
  -3  -4  -5    4.80    0.96
   3   4   5    2.98    1.58
  -4  -4  -5   45.40    2.24
   4   4   5   35.03    3.11
   7  -5  -5    0.01    1.01
   6  -5  -5   13.14    1.60
  -6   5   5   17.13    1.48
   5  -5  -5   25.09    1.60
   4  -5  -5   25.82    1.45
   4  -5  -5   24.52    1.65
   4  -5  -5   23.48    1.44
  -4   5   5   26.17    1.42
   3  -5  -5    1.93    0.66
   3  -5  -5    1.09    0.69
  -3   5   5    1.83    0.62
   2  -5  -5   50.68    2.14
  -2   5   5   51.04    2.04
   1  -5  -5   60.33    2.31
  -1   5   5   62.46    2.35
   0  -5  -5   79.77    2.71
   0   5   5   80.61    2.92
  -1  -5  -5    5.41    0.91
   1   5   5    7.02    1.26
  -2  -5  -5    9.21    1.16
   2   5   5    8.60    1.63
  -3  -5  -5   46.28    2.24
   3   5   5   42.18    3.12
  -4  -5  -5   32.66    2.15
   4   5   5   21.40    3.05
   5  -6  -5   34.76    2.25
   5  -6  -5   40.10    2.16
  -5   6   5   41.87    1.89
   4  -6  -5    4.25    0.88
   4  -6  -5    3.95    0.95
  -4   6   5    4.00    0.85
   3  -6  -5   26.40    1.74
   3  -6  -5   27.34    1.65
  -3   6   5   29.60    1.62
   2  -6  -5   72.10    2.75
  -2   6   5   72.08    2.65
   1  -6  -5   68.80    2.62
  -1   6   5   72.61    2.70
   0  -6  -5   21.71    1.52
   0   6   5   24.29    1.74
  -1  -6  -5   31.15    1.86
   1   6   5   33.20    2.20
  -2  -6  -5   16.52    1.65
   2   6   5   15.17    2.13
  -3  -6  -5   35.70    2.15
   3   6   5   30.23    2.95
  -4  -6  -5    4.78    1.15
   4   6   5   -0.80    2.05
   5  -7  -5    4.12    0.95
   5  -7  -5    5.03    1.17
  -5   7   5    4.93    0.93
   4  -7  -5    1.06    0.80
   4  -7  -5    1.53    0.90
  -4   7   5    2.62    0.83
   3  -7  -5   38.46    2.11
  -3   7   5   40.34    2.03
   2  -7  -5   52.92    2.45
  -2   7   5   56.76    2.42
   1  -7  -5   15.41    1.49
  -1   7   5   17.26    1.57
   0  -7  -5    5.95    1.02
   0   7   5    5.47    1.20
  -1  -7  -5   25.84    1.85
   1   7   5   22.26    2.10
  -2  -7  -5   28.79    2.03
   2   7   5   23.27    2.44
  -3  -7  -5    9.75    1.38
   3   7   5    3.90    1.96
  -4  -7  -5    7.19    1.31
   4   7   5   -0.14    2.83
   5  -8  -5    6.23    1.19
   5  -8  -5    4.17    1.17
  -5   8   5    7.21    1.16
   4  -8  -5   19.64    1.78
   4  -8  -5   22.72    1.84
  -4   8   5   22.29    1.73
   3  -8  -5   33.18    2.08
  -3   8   5   30.29    1.95
   2  -8  -5    7.67    1.22
  -2   8   5    8.35    1.28
   1  -8  -5    0.51    0.74
  -1   8   5    1.81    0.98
   0  -8  -5   39.07    2.17
   0   8   5   37.89    2.36
  -1  -8  -5   24.67    1.95
   1   8   5   20.41    2.19
  -2  -8  -5   11.30    1.50
   2   8   5    8.41    1.87
  -3  -8  -5    3.59    1.16
   3   8   5   -2.71    1.74
   5  -9  -5    9.68    1.43
   5  -9  -5    8.97    1.83
  -5   9   5   14.70    1.61
   4  -9  -5   20.86    1.96
   4  -9  -5   22.43    1.98
  -4   9   5   25.14    1.91
   3  -9  -5    8.12    1.38
  -3   9   5    9.20    1.40
   2  -9  -5    4.03    1.08
  -2   9   5    6.00    1.31
   1  -9  -5   19.94    1.82
  -1   9   5   18.15    1.94
   0  -9  -5   25.78    2.02
   0   9   5   22.93    2.14
  -1  -9  -5   11.98    1.53
   1   9   5    8.29    1.77
  -2  -9  -5    2.05    1.12
   2   9   5   -0.56    1.55
   5 -10  -5   10.87    1.62
  -5  10   5   11.58    1.60
   4 -10  -5    6.44    1.33
  -4  10   5    5.63    1.27
   3 -10  -5    6.05    1.31
  -3  10   5    5.63    1.32
   2 -10  -5   19.55    1.93
  -2  10   5   17.22    2.03
   1 -10  -5   24.22    2.03
  -1  10   5   19.84    2.15
   0 -10  -5    5.13    1.20
   0  10   5    4.75    1.52
  -1 -10  -5    1.80    1.04
   1  10   5   -1.18    1.38
   4 -11  -5    0.89    1.10
  -4  11   5    0.72    1.16
   3 -11  -5   21.62    2.14
  -3  11   5   16.31    2.06
   2 -11  -5   23.74    2.11
  -2  11   5   17.66    2.17
   1 -11  -5    8.72    1.46
  -1  11   5    7.93    1.69
   2 -15   6    9.84    1.61
  -1 -14   6    2.39    1.03
  -1  14  -6   22.36    2.33
   1 -14   6   19.91    1.88
   2 -14   6   11.90    1.62
   3 -14   6   -0.03    0.97
  -2 -13   6    1.30    1.17
  -1 -13   6   15.94    1.79
   0 -13   6   34.14    2.14
   1 -13   6   26.49    1.88
   2 -13   6    8.63    1.34
   3 -13   6   12.81    1.75
   4 -13   6   19.01    2.04
  -2 -12   6    2.06    1.20
  -1 -12   6   35.40    2.23
   0  12  -6   24.15    2.71
   0 -12   6   25.75    1.78
  -1  12  -6   15.59    2.04
   1 -12   6   15.59    1.52
  -2  12  -6    8.45    1.83
   2 -12   6   11.22    1.45
   3 -12   6   24.54    1.97
   4 -12   6   19.24    2.00
   5 -12   6    4.24    1.35
  -3 -11   6    3.23    1.42
   2  11  -6   35.31    2.09
  -2 -11   6   34.18    2.43
   1  11  -6   29.52    1.93
  -1 -11   6   24.32    1.98
   0  11  -6    3.81    1.11
   0 -11   6    2.94    0.73
   0 -11   6    3.29    0.95
  -1  11  -6    0.60    1.07
   1 -11   6    0.29    0.64
  -2  11  -6   36.71    2.99
   2 -11   6   35.24    1.94
   3 -11   6   22.21    1.81
   4 -11   6    9.19    1.45
   5 -11   6    4.22    1.26
   4  10  -6    7.46    1.35
  -4 -10   6   10.32    1.93
   3  10  -6   33.82    2.08
  -3 -10   6   33.88    2.58
   2  10  -6   63.33    2.68
  -2 -10   6   60.15    2.93
   1  10  -6    8.24    1.18
  -1 -10   6    5.04    1.20
   0  10  -6    1.35    0.93
   0 -10   6    1.44    0.85
   0 -10   6    1.65    0.59
  -1  10  -6   79.92    3.52
   1 -10   6   81.67    2.77
   2 -10   6   49.10    2.20
   3 -10   6    8.40    1.25
   4 -10   6    0.76    0.90
   5 -10   6   21.58    2.07
   6 -10   6   16.17    2.06
   5   9  -6    0.37    0.87
   4   9  -6   21.16    1.84
  -4  -9   6   20.46    2.44
   3   9  -6   51.21    2.41
  -3  -9   6   46.02    2.81
   2   9  -6   22.68    1.71
  -2  -9   6   18.38    1.98
   1   9  -6   15.27    1.62
  -1  -9   6   15.15    1.70
   0   9  -6   42.14    2.30
   0  -9   6   41.87    1.69
   0  -9   6   42.38    1.99
  -1   9  -6  106.75    4.03
   1  -9   6   98.41    3.12
   1  -9   6   96.59    3.02
   2  -9   6   18.77    1.44
   3  -9   6    0.37    0.77
   4  -9   6   31.49    2.16
   5  -9   6   27.96    2.26
   6  -9   6    8.91    1.58
   5   8  -6   24.25    2.04
  -5  -8   6   21.88    2.68
   4   8  -6   35.62    2.15
  -4  -8   6   34.12    2.67
   3   8  -6   32.42    1.98
  -3  -8   6   32.62    2.40
   2   8  -6    6.37    1.08
  -2  -8   6    4.93    1.24
   1   8  -6   26.46    1.83
  -1  -8   6   28.35    1.90
   0   8  -6   87.65    3.36
   0  -8   6   96.45    3.00
   0  -8   6   93.82    2.74
  -1   8  -6   69.36    3.15
   1  -8   6   62.04    2.10
   1  -8   6   65.44    2.26
   2  -8   6   -0.43    0.60
   3  -8   6   36.09    1.96
   4  -8   6   63.40    2.74
   5  -8   6   13.48    1.81
   6  -8   6    0.77    1.13
   5   7  -6   42.07    2.41
  -5  -7   6   35.59    2.87
   4   7  -6   27.62    1.92
  -4  -7   6   25.95    2.38
   3   7  -6   -0.19    0.65
  -3  -7   6   -0.52    1.06
   2   7  -6  109.50    3.56
  -2  -7   6  106.55    3.64
   1   7  -6   74.72    2.82
  -1  -7   6   71.18    2.11
  -1  -7   6   79.11    2.75
   0   7  -6   67.70    2.79
   0  -7   6   73.08    2.41
   0  -7   6   72.25    2.18
   1  -7   6    5.04    0.76
   1  -7   6    5.11    0.69
   2  -7   6   45.31    1.91
   3  -7   6   58.25    2.39
   4  -7   6   22.44    1.84
   5  -7   6    0.91    1.03
   6  -7   6    7.39    1.55
   6   6  -6   23.45    2.40
  -6  -6   6   28.95    4.17
   5   6  -6   26.72    2.00
  -5  -6   6   21.31    2.47
   4   6  -6    8.32    1.18
  -4  -6   6    7.93    1.48
   3   6  -6   91.40    3.19
  -3  -6   6   89.55    3.41
   2   6  -6   79.97    2.85
  -2  -6   6   77.60    2.90
   1   6  -6   24.73    1.66
  -1  -6   6   24.92    0.96
  -1  -6   6   26.39    1.53
   0   6  -6    6.41    1.03
   0  -6   6    7.17    0.70
   0  -6   6    7.49    0.97
   1  -6   6   17.39    1.07
   1  -6   6   15.86    0.95
   2  -6   6   55.64    2.11
   3  -6   6   40.29    1.99
   4  -6   6   -0.04    0.87
   5  -6   6   23.27    2.09
   6  -6   6   26.40    2.26
   6   5  -6    9.82    1.50
  -6  -5   6    7.77    1.94
   5   5  -6    0.11    0.80
  -5  -5   6   -1.07    1.25
   4   5  -6   17.85    1.59
  -4  -5   6   15.41    1.92
   3   5  -6  178.32    5.03
  -3  -5   6  173.34    5.08
   2   5  -6   60.98    2.38
  -2  -5   6   64.90    2.39
   1   5  -6    0.27    0.60
  -1  -5   6    0.64    0.27
  -1  -5   6    0.53    0.56
   0   5  -6   94.23    3.21
   0  -5   6   98.94    2.70
   0  -5   6   96.27    2.62
   1  -5   6  247.14    5.95
   1  -5   6  262.35    6.30
   2  -5   6   54.67    2.10
   3  -5   6    6.12    1.05
   4  -5   6   14.66    1.67
   5  -5   6   36.35    2.33
   6  -5   6   26.70    2.27
   7  -5   6    3.83    1.73
   6   4  -6    1.36    0.96
  -6  -4   6   -2.75    1.33
   5   4  -6    2.53    0.92
  -5  -4   6    1.06    1.23
   4   4  -6   80.62    3.01
  -4  -4   6   80.80    3.17
   3   4  -6   62.71    2.41
  -3  -4   6   61.57    2.45
   2   4  -6    8.36    1.10
  -2  -4   6   10.46    1.05
   1   4  -6   64.04    2.40
  -1  -4   6   68.24    1.79
  -1  -4   6   69.69    2.13
   0   4  -6  249.69    6.47
   0  -4   6  247.99    5.91
   0  -4   6  241.32    5.87
   1  -4   6   80.78    2.43
   1  -4   6   75.55    2.01
   2  -4   6   11.33    1.17
   3  -4   6    5.41    1.02
   4  -4   6   69.42    2.80
   5  -4   6   33.42    2.24
   6  -4   6    7.05    1.49
   6   3  -6   19.83    1.97
  -6  -3   6   17.97    2.19
   5   3  -6   48.57    2.39
  -5  -3   6   44.26    2.60
   4   3  -6   68.31    2.69
  -4  -3   6   67.91    2.74
   3   3  -6    6.71    0.91
  -3  -3   6    7.07    0.94
   2   3  -6    2.47    0.64
  -2  -3   6    2.61    0.59
   1   3  -6   65.18    2.34
  -1  -3   6   68.87    2.08
  -1  -3   6   69.82    1.87
   0   3  -6  241.25    6.15
   0  -3   6  237.43    5.73
   0  -3   6  227.76    5.59
   1  -3   6    8.59    0.99
   2  -3   6   25.62    1.52
   3  -3   6   60.36    2.48
   4  -3   6   13.85    1.74
   5  -3   6    8.64    1.48
   6  -3   6    2.10    1.19
  -7  -2   6   11.21    2.21
   6   2  -6   42.88    2.46
  -6  -2   6   34.36    2.65
   5   2  -6   63.88    2.73
  -5  -2   6   64.34    2.86
   4   2  -6    4.32    0.83
  -4  -2   6    5.61    0.96
   3   2  -6   27.59    1.51
  -3  -2   6   29.10    1.47
   2   2  -6  262.44    6.64
  -2  -2   6  265.92    6.51
   1   2  -6  237.70    6.39
  -1  -2   6  259.88    6.22
  -1  -2   6  272.50    6.13
   0   2  -6   77.08    2.55
   0   2  -6   75.45    2.13
   0  -2   6   76.68    2.35
  -1   2  -6    8.33    0.60
   1  -2   6    8.45    1.09
  -2   2  -6  104.15    2.70
   2  -2   6  105.35    3.30
   3  -2   6   72.79    2.79
   4  -2   6    0.63    1.04
   5  -2   6    0.39    1.09
   5  -2   6    2.09    1.22
   6  -2   6   12.64    1.78
   6  -2   6   10.61    1.75
  -7  -1   6   13.79    2.15
   6   1  -6   35.09    2.27
  -6  -1   6   32.49    2.43
   5   1  -6   22.11    1.73
  -5  -1   6   21.68    1.78
   4   1  -6   15.84    1.32
  -4  -1   6   14.85    1.32
   3   1  -6   69.25    2.40
  -3  -1   6   68.46    2.32
   2   1  -6   29.01    1.37
  -2  -1   6   29.10    1.28
  -2  -1   6   29.47    1.11
   1   1  -6   50.43    1.65
   1   1  -6   46.36    1.75
  -1  -1   6   50.18    1.69
   0   1  -6    0.63    0.35
   0   1  -6    0.59    0.56
   0  -1   6    1.01    0.63
  -1   1  -6  138.05    3.53
   1  -1   6  136.82    3.93
  -2   1  -6  139.90    3.63
   2  -1   6  147.31    4.26
   3  -1   6    6.97    1.30
   4  -1   6    3.14    1.22
   5  -1   6   25.84    2.16
   5  -1   6   25.88    2.27
   6  -1   6   21.98    2.33
   6  -1   6   21.05    2.42
   7   0  -6   10.06    1.66
  -7   0   6    8.12    1.75
   6   0  -6   15.34    1.74
  -6   0   6   11.23    1.53
   5   0  -6    3.68    0.94
  -5   0   6    2.95    0.92
   4   0  -6   54.83    2.22
  -4   0   6   54.35    2.18
   3   0  -6   91.50    2.80
  -3   0   6   88.32    2.73
  -3   0   6   84.64    2.36
   2   0  -6    5.66    0.73
   2   0  -6    5.41    0.71
  -2   0   6    5.05    0.64
   1   0  -6   10.06    0.83
   1   0  -6    9.91    0.79
  -1   0   6   11.89    0.93
   0   0  -6  109.39    3.03
   0   0  -6  105.34    2.95
   0   0   6  106.67    3.17
  -1   0  -6  105.86    2.90
   1   0   6  103.83    3.33
  -2   0  -6   23.64    1.14
   2   0   6   26.91    1.94
  -3   0  -6    3.83    0.65
   3   0   6    4.96    1.30
   4   0   6   31.14    2.42
   5   0   6   29.02    2.22
   5   0   6   30.05    2.46
   6   0   6    7.45    2.51
   6   0   6    9.71    1.84
   7  -1  -6    1.53    1.08
  -7   1   6   -0.38    1.29
   6  -1  -6    1.84    0.91
  -6   1   6    1.49    1.02
   5  -1  -6   69.88    2.77
  -5   1   6   69.42    2.70
   4  -1  -6   91.53    3.03
  -4   1   6   95.17    3.02
   3  -1  -6   23.15    1.26
   3  -1  -6   24.79    1.37
  -3   1   6   23.32    1.04
   2  -1  -6    6.11    0.69
   2  -1  -6    5.53    0.72
  -2   1   6    5.63    0.69
   1  -1  -6  116.99    3.11
   1  -1  -6  120.48    3.34
  -1   1   6  120.39    3.36
   0  -1  -6  161.94    4.33
   0  -1  -6  170.56    4.17
   0   1   6  163.50    4.52
  -1  -1  -6   70.11    2.23
   1   1   6   71.77    2.71
  -2  -1  -6    0.26    0.49
   2   1   6   -0.34    1.05
  -3  -1  -6   30.92    1.51
   3   1   6   30.12    2.42
   4   1   6   48.40    2.31
   4   1   6   48.52    2.90
   5   1   6    9.50    1.83
   6   1   6    2.62    2.15
   7  -2  -6    0.08    0.92
  -7   2   6   -1.66    1.46
   6  -2  -6   27.23    1.98
  -6   2   6   25.95    1.95
   5  -2  -6   52.57    2.34
  -5   2   6   57.26    2.35
   4  -2  -6   22.48    1.39
  -4   2   6   20.92    1.33
   3  -2  -6    0.72    0.44
   3  -2  -6    1.02    0.59
  -3   2   6    0.82    0.43
   2  -2  -6   55.35    1.78
   2  -2  -6   57.37    2.08
  -2   2   6   59.25    1.97
   1  -2  -6  115.26    3.31
   1  -2  -6  108.42    2.88
  -1   2   6  117.16    3.33
   0  -2  -6   39.62    1.27
   0  -2  -6   36.23    1.58
   0   2   6   36.80    1.82
  -1  -2  -6    0.82    0.54
   1   2   6    1.66    0.98
  -2  -2  -6   31.39    1.53
   2   2   6   31.36    2.32
  -3  -2  -6   34.68    1.69
   3   2   6   32.02    2.63
   4   2   6    5.46    1.71
   5   2   6   -0.07    1.50
   7  -3  -6   10.03    1.50
   6  -3  -6   36.65    2.21
  -6   3   6   39.57    2.21
   5  -3  -6   20.33    1.50
  -5   3   6   23.33    1.53
   4  -3  -6    0.62    0.69
   4  -3  -6    0.49    0.51
  -4   3   6    0.71    0.53
   3  -3  -6   44.72    1.98
   3  -3  -6   45.20    1.70
  -3   3   6   49.27    1.81
   2  -3  -6  147.71    3.86
   2  -3  -6  156.63    4.34
  -2   3   6  160.34    4.25
   1  -3  -6   48.43    1.94
  -1   3   6   46.90    1.93
   0  -3  -6    4.38    0.74
   0   3   6    5.07    0.96
  -1  -3  -6   44.01    1.86
  -2  -3  -6   55.02    2.19
   2   3   6   56.20    2.92
  -3  -3  -6   31.52    1.77
   3   3   6   30.21    2.71
   4   3   6   -0.87    1.64
   5   3   6    6.97    2.05
   7  -4  -6   15.84    1.95
   6  -4  -6   17.09    1.69
  -6   4   6   17.16    1.65
   5  -4  -6    0.86    0.66
  -5   4   6    1.48    0.61
   4  -4  -6   15.71    1.21
   4  -4  -6   16.72    1.53
   4  -4  -6   15.77    1.16
  -4   4   6   18.18    1.20
   3  -4  -6   58.12    2.35
  -3   4   6   63.00    2.25
   2  -4  -6   17.58    1.32
  -2   4   6   16.91    1.26
   1  -4  -6   -0.24    0.55
  -1   4   6    0.92    0.65
   0  -4  -6   20.85    1.39
   0   4   6   21.41    1.65
  -1  -4  -6   92.05    3.09
   1   4   6  100.59    3.58
  -2  -4  -6   35.45    1.92
   2   4   6   38.12    2.63
  -3  -4  -6    2.03    0.85
   3   4   6   -1.17    1.49
   4   4   6    8.91    2.20
   5   4   6   11.39    2.43
   7  -5  -6    4.29    1.36
  -6   5   6    2.24    0.78
   5  -5  -6   14.93    1.68
   4  -5  -6   30.06    1.91
   4  -5  -6   30.20    1.68
  -4   5   6   33.33    1.69
   3  -5  -6   38.71    1.99
  -3   5   6   40.29    1.88
   2  -5  -6    4.08    0.91
  -2   5   6    4.50    0.90
   1  -5  -6   22.88    1.55
  -1   5   6   24.80    1.65
   0  -5  -6   54.85    2.28
   0   5   6   58.41    2.58
  -1  -5  -6    2.38    0.82
   1   5   6    2.20    1.15
  -2  -5  -6    0.33    0.83
   2   5   6   -0.12    1.32
  -3  -5  -6    8.67    1.23
   3   5   6    4.09    1.89
  -4  -5  -6   28.34    2.15
  -6   6   6   17.23    1.39
   5  -6  -6   38.03    2.26
   4  -6  -6   34.91    2.09
  -4   6   6   36.75    1.92
   3  -6  -6    4.82    1.04
  -3   6   6    3.75    0.92
   2  -6  -6   30.06    1.88
  -2   6   6   29.28    1.84
   1  -6  -6   72.22    2.77
  -1   6   6   72.40    2.87
   0  -6  -6   75.81    2.86
   0   6   6   74.45    3.09
  -1  -6  -6    1.72    0.87
   1   6   6    1.23    1.17
  -2  -6  -6    3.96    1.10
   2   6   6    3.16    1.58
  -3  -6  -6   32.44    2.18
   3   6   6   22.30    3.00
   4   6   6   -0.38    2.22
   5  -7  -6    6.23    1.34
  -5   7   6    7.34    1.34
   4  -7  -6    4.01    1.10
  -4   7   6    4.23    0.99
   3  -7  -6    7.96    1.28
  -3   7   6    7.85    1.24
   2  -7  -6   42.24    2.28
  -2   7   6   41.06    2.24
   1  -7  -6   54.77    2.50
  -1   7   6   54.66    2.61
   0  -7  -6    0.61    0.79
   0   7   6    0.40    1.01
  -1  -7  -6    7.62    1.24
   1   7   6    4.98    1.48
  -2  -7  -6   20.59    1.92
   2   7   6   12.31    2.13
  -3  -7  -6   23.25    2.20
   5  -8  -6   -0.22    1.02
   5  -8  -6    0.01    0.93
  -5   8   6    0.32    0.79
   4  -8  -6    1.57    1.04
  -4   8   6    2.81    0.97
   3  -8  -6   25.46    2.04
  -3   8   6   24.73    1.94
   2  -8  -6   13.56    1.70
  -2   8   6   12.90    1.69
   1  -8  -6    4.97    1.15
  -1   8   6    4.63    1.27
   0  -8  -6    8.02    1.30
   0   8   6    7.47    1.57
  -1  -8  -6   20.76    1.94
   1   8   6   15.76    2.24
  -2  -8  -6   25.57    2.15
   2   8   6   19.49    2.50
   5  -9  -6    2.83    1.24
  -5   9   6    3.09    1.13
   4  -9  -6   17.80    1.94
  -4   9   6   18.78    1.90
   3  -9  -6   20.33    1.98
  -3   9   6   16.12    1.92
   2  -9  -6    4.53    1.20
  -2   9   6    2.17    1.19
   1  -9  -6    3.52    1.08
  -1   9   6    1.65    1.18
   0  -9  -6   22.11    2.05
   0   9   6   16.23    2.23
  -1  -9  -6   20.60    2.01
   1   9   6   12.16    2.10
  -5  10   6    9.37    1.63
   4 -10  -6   19.28    2.09
  -4  10   6   15.39    1.97
   3 -10  -6    0.39    1.01
  -3  10   6   -0.53    1.01
   2 -10  -6    4.56    1.20
  -2  10   6    1.70    1.28
   1 -10  -6   20.31    2.09
  -1  10   6   13.61    1.96
   0 -10  -6   12.80    1.70
   0  10   6    9.06    1.90
   2 -15   7    9.56    1.56
  -1 -14   7   19.35    1.99
   2 -14   7   19.08    1.89
   3 -14   7    9.44    1.55
  -2 -13   7   18.00    2.24
  -1 -13   7   -0.11    0.95
  -1  13  -7   23.45    2.37
   1 -13   7   22.82    1.75
  -2  13  -7   23.13    2.87
   2 -13   7   26.36    1.95
   3 -13   7    0.85    0.98
   4 -13   7   11.24    1.73
  -2 -12   7    5.48    1.44
   1  12  -7   20.34    1.92
  -1 -12   7   15.98    1.88
   0  12  -7   40.55    2.58
  -1  12  -7   31.07    2.58
   1 -12   7   31.16    1.85
  -2  12  -7    4.29    1.75
   2 -12   7    4.63    1.08
   3 -12   7    4.11    1.17
   4 -12   7   21.29    2.14
   5 -12   7   11.68    1.82
   3  11  -7    5.22    1.14
  -3 -11   7    4.41    1.57
   2  11  -7    7.50    1.25
  -2 -11   7    6.38    1.47
   1  11  -7   51.56    2.59
  -1 -11   7   46.25    2.51
   0  11  -7   18.73    2.03
   0 -11   7   18.08    1.66
  -1  11  -7    4.83    1.45
   1 -11   7    5.19    0.95
  -2  11  -7    4.98    1.72
   2 -11   7    5.82    1.09
   3 -11   7   13.94    1.65
   4 -11   7   26.56    2.12
   5 -11   7    2.01    1.18
   4  10  -7    1.95    0.93
  -4 -10   7    0.65    1.56
   3  10  -7    2.53    0.95
  -3 -10   7    0.84    1.35
   2  10  -7   43.28    2.35
  -2 -10   7   41.65    2.60
   1  10  -7   56.52    2.67
  -1 -10   7   51.55    2.59
   0  10  -7    1.47    1.02
   0 -10   7    1.16    0.57
   0 -10   7    0.30    0.82
  -1  10  -7   24.81    2.42
   1 -10   7   23.09    1.50
   2 -10   7   41.61    2.08
   3 -10   7   27.69    1.96
   4 -10   7    6.25    1.33
   5 -10   7    6.11    1.46
   5   9  -7    2.47    1.14
   4   9  -7    3.81    1.08
  -4  -9   7    1.77    1.53
   3   9  -7   18.89    1.79
  -3  -9   7   18.35    2.28
   2   9  -7  107.45    3.77
  -2  -9   7  103.88    3.87
   1   9  -7   16.56    1.82
  -1  -9   7   16.12    1.82
   0   9  -7    3.87    1.11
   0  -9   7    5.25    0.74
   0  -9   7    4.81    1.00
  -1   9  -7   66.91    3.40
   1  -9   7   63.63    2.34
   2  -9   7   48.75    2.19
   3  -9   7   16.88    1.70
   4  -9   7    8.10    1.43
   5  -9   7   18.11    2.15
   6  -9   7   17.93    2.24
   5   8  -7   16.54    1.92
  -5  -8   7   12.02    2.16
   4   8  -7   26.26    2.02
  -4  -8   7   21.60    2.46
   3   8  -7   29.07    1.98
  -3  -8   7   23.81    2.31
   2   8  -7   32.51    2.08
  -2  -8   7   30.61    2.20
   1   8  -7   10.44    1.38
  -1  -8   7   12.83    1.63
   0   8  -7   31.37    2.16
   0  -8   7   33.72    1.45
   0  -8   7   33.84    1.81
  -1   8  -7   96.07    3.83
   1  -8   7   93.28    2.95
   2  -8   7   26.41    1.62
   3  -8   7    2.34    0.92
   4  -8   7   26.54    2.13
   5  -8   7   21.35    2.13
   6  -8   7    8.59    1.64
   5   7  -7   39.31    2.42
  -5  -7   7   31.10    2.87
   4   7  -7   45.11    2.43
  -4  -7   7   41.56    2.77
   3   7  -7   23.84    1.80
  -3  -7   7   22.93    2.13
   2   7  -7   11.84    1.56
  -2  -7   7   12.00    1.47
   1   7  -7   45.54    2.38
  -1  -7   7   53.07    2.27
   0   7  -7   79.61    3.14
   0  -7   7   80.32    2.65
   0  -7   7   81.62    2.43
  -1   7  -7   73.86    3.17
   1  -7   7   71.20    2.35
   1  -7   7   63.14    2.17
   2  -7   7   -0.10    0.67
   3  -7   7   37.07    2.05
   4  -7   7   44.57    2.39
   5  -7   7    9.06    1.54
   6  -7   7    1.62    1.27
   5   6  -7   45.23    2.52
  -5  -6   7   36.62    2.85
   4   6  -7   20.58    1.81
  -4  -6   7   17.27    2.13
   3   6  -7    3.01    0.90
  -3  -6   7    2.52    1.14
   2   6  -7   87.85    3.19
  -2  -6   7   89.83    3.14
   1   6  -7   43.04    2.21
  -1  -6   7   46.64    1.45
  -1  -6   7   48.99    2.02
   0   6  -7   24.79    1.85
   0  -6   7   24.59    1.15
   0  -6   7   25.07    1.32
   1  -6   7   -0.39    0.50
   1  -6   7   -0.09    0.55
   2  -6   7   26.87    1.61
   3  -6   7   51.11    2.36
   4  -6   7   19.82    1.93
   5  -6   7    5.00    1.38
   6  -6   7    8.40    1.67
   6   5  -7   31.60    2.39
  -6  -5   7   22.01    2.81
   5   5  -7   25.70    1.99
  -5  -5   7   22.24    2.44
   4   5  -7   -0.10    0.73
  -4  -5   7   -0.02    1.04
   3   5  -7   34.72    1.96
  -3  -5   7   35.73    2.07
   2   5  -7   80.34    2.96
  -2  -5   7   84.61    2.86
   1   5  -7   20.79    1.59
  -1  -5   7   24.83    1.35
  -1  -5   7   24.46    0.94
   0   5  -7    1.52    0.83
   0  -5   7    0.42    0.46
   0  -5   7    1.04    0.47
   1  -5   7   68.30    1.98
   1  -5   7   73.79    2.38
   2  -5   7   54.21    2.21
   3  -5   7   43.20    2.14
   4  -5   7    2.21    1.06
   5  -5   7   22.57    2.22
   6  -5   7   27.31    2.41
  -6  -4   7    3.52    1.66
   5   4  -7    1.16    0.87
  -5  -4   7   -1.03    1.14
   4   4  -7   12.68    1.47
  -4  -4   7   10.84    1.45
   3   4  -7  141.14    4.30
  -3  -4   7  140.80    4.24
   2   4  -7  117.71    3.73
  -2  -4   7  125.18    3.58
   1   4  -7    0.12    0.65
  -1  -4   7   -0.03    0.45
  -1  -4   7    0.40    0.36
   0   4  -7   59.25    2.39
   0  -4   7   57.51    1.92
   0  -4   7   57.87    1.81
   1  -4   7  111.89    3.25
   1  -4   7  106.54    2.77
   2  -4   7   56.62    2.31
   3  -4   7   11.27    1.57
   4  -4   7   21.89    1.93
   5  -4   7   18.55    2.08
   6  -4   7   21.09    2.30
   6   3  -7    0.34    0.92
   5   3  -7   32.69    2.10
  -5  -3   7   31.14    2.32
   4   3  -7   46.73    2.28
  -4  -3   7   46.18    2.29
   3   3  -7   41.57    2.01
  -3  -3   7   43.57    1.94
   2   3  -7    2.52    0.73
  -2  -3   7    2.95    0.66
   1   3  -7   50.63    2.14
  -1  -3   7   53.75    1.81
  -1  -3   7   55.45    1.73
   0   3  -7  111.45    3.45
   0  -3   7  109.20    3.13
   0  -3   7  108.00    2.94
  -1   3  -7   65.40    1.86
   1  -3   7   64.49    2.34
   2  -3   7   11.69    1.44
   3  -3   7   19.70    1.78
   4  -3   7   28.21    2.13
   5  -3   7    9.90    1.62
   6  -3   7    3.28    1.35
   6   2  -7   22.08    1.99
  -6  -2   7   16.20    1.96
   5   2  -7   44.52    2.34
  -5  -2   7   42.80    2.45
   4   2  -7   65.40    2.64
  -4  -2   7   65.55    2.61
   3   2  -7   15.87    1.31
  -3  -2   7   16.35    1.24
   2   2  -7   61.09    2.29
  -2  -2   7   64.28    2.15
   1   2  -7   98.12    3.11
  -1  -2   7  105.09    2.91
   0   2  -7   91.70    2.59
   0   2  -7   93.74    2.98
   0  -2   7   92.47    2.86
  -1   2  -7    0.23    0.35
   1  -2   7    0.51    0.78
  -2   2  -7   24.86    1.06
   2  -2   7   23.74    1.79
   3  -2   7   78.60    3.11
   4  -2   7   20.65    2.09
   5  -2   7    1.75    1.33
   6  -2   7    8.94    1.77
  -7  -1   7   -1.22    1.49
   6   1  -7   32.62    2.27
  -6  -1   7   28.29    2.39
   5   1  -7   47.24    2.39
  -5  -1   7   45.40    2.36
   4   1  -7   18.26    1.47
  -4  -1   7   19.11    1.47
   3   1  -7   20.88    1.40
  -3  -1   7   17.52    1.21
   2   1  -7   87.30    2.81
  -2  -1   7   92.46    2.57
   1   1  -7   80.08    2.45
   1   1  -7   79.76    2.56
  -1  -1   7   81.08    2.51
   0   1  -7   21.55    1.36
   0   1  -7   20.25    1.06
   0  -1   7   18.86    1.42
  -1   1  -7   11.47    0.84
   1  -1   7   11.02    1.46
  -2   1  -7   41.12    1.54
   2  -1   7   43.11    2.30
   3  -1   7   36.51    2.38
   4  -1   7    1.17    1.29
   5  -1   7    1.99    1.40
   6  -1   7   22.49    2.57
  -7   0   7   13.94    2.02
   6   0  -7   13.19    1.76
  -6   0   7   11.42    1.58
   5   0  -7    1.44    0.82
  -5   0   7    1.30    0.84
   4   0  -7    9.21    1.21
  -4   0   7   10.00    1.18
   3   0  -7   54.11    2.10
  -3   0   7   54.56    2.08
   2   0  -7   50.05    1.87
   2   0  -7   50.50    1.91
  -2   0   7   52.44    1.81
   1   0  -7   13.45    0.99
   1   0  -7   12.75    0.97
  -1   0   7   12.17    1.12
   0   0  -7   47.50    1.75
   0   0  -7   48.68    1.82
   0   0   7   48.07    2.09
  -1   0  -7   73.82    2.33
   1   0   7   73.61    2.87
  -2   0  -7   43.34    1.67
   2   0   7   44.36    2.49
   3   0   7    3.09    1.36
   4   0   7    5.50    1.59
   5   0   7   20.66    2.44
   6   0   7   11.90    2.05
   7  -1  -7   14.05    2.38
  -7   1   7   12.10    1.90
   6  -1  -7    2.66    0.97
  -6   1   7    1.78    1.03
   5  -1  -7   13.49    1.47
  -5   1   7   11.80    1.49
   4  -1  -7   49.03    2.11
  -4   1   7   52.03    2.14
   3  -1  -7   66.81    2.39
   3  -1  -7   62.70    2.24
  -3   1   7   63.14    2.05
   2  -1  -7   29.96    1.51
   2  -1  -7   28.65    1.31
  -2   1   7   31.16    1.44
   1  -1  -7   34.17    1.54
   1  -1  -7   33.22    1.34
  -1   1   7   35.78    1.67
   0  -1  -7  145.97    3.75
   0  -1  -7  138.59    3.93
   0   1   7  143.32    4.23
  -1  -1  -7   76.01    2.49
   1   1   7   79.66    3.08
  -2  -1  -7   12.20    1.13
   2   1   7   15.99    2.11
  -3  -1  -7    2.38    0.72
   3   1   7    4.33    1.55
   4   1   7   12.86    2.05
   5   1   7   14.70    2.22
   7  -2  -7    2.11    1.14
  -7   2   7   -0.17    1.18
   6  -2  -7    6.31    1.15
  -6   2   7    7.94    1.35
   5  -2  -7   44.91    2.19
  -5   2   7   47.79    2.22
   4  -2  -7   39.31    1.81
   3  -2  -7    7.42    0.89
   3  -2  -7    8.80    1.17
  -3   2   7    8.56    0.93
   2  -2  -7    5.89    0.72
   2  -2  -7    6.89    0.89
  -2   2   7    6.46    0.86
   1  -2  -7   50.43    1.65
   1  -2  -7   52.99    2.04
  -1   2   7   54.70    2.17
   0  -2  -7  100.63    3.14
   0   2   7  101.95    3.40
  -1  -2  -7   37.77    1.74
   1   2   7   39.20    2.31
  -2  -2  -7    9.14    1.03
   2   2   7    7.74    1.64
  -3  -2  -7   40.29    1.87
   3   2   7   35.48    2.89
   4   2   7   12.26    2.18
   5   2   7    2.32    1.87
   7  -3  -7    0.80    1.04
  -7   3   7    0.35    1.19
   6  -3  -7   23.92    1.89
  -6   3   7   25.93    1.99
   5  -3  -7   39.03    1.99
  -5   3   7   44.17    2.08
   4  -3  -7   13.55    1.46
   4  -3  -7   11.70    1.10
   3  -3  -7    0.49    0.47
   3  -3  -7    1.27    0.70
  -3   3   7    1.08    0.63
   2  -3  -7   43.14    1.94
  -2   3   7   43.44    1.90
   1  -3  -7   39.25    1.86
  -1   3   7   40.58    2.00
   0  -3  -7   24.44    1.53
   0   3   7   25.16    1.85
  -1  -3  -7    9.80    1.24
   1   3   7   10.04    1.57
  -2  -3  -7   48.22    2.14
   2   3   7   48.62    2.96
  -3  -3  -7   35.19    1.91
   3   3   7   28.65    2.95
   4   3   7    1.62    1.91
   5   3   7    2.11    2.04
   7  -4  -7    6.21    1.29
   6  -4  -7   18.73    1.83
  -6   4   7   27.17    1.89
   4  -4  -7    3.12    1.02
  -4   4   7    3.16    0.98
   3  -4  -7   47.31    2.23
  -3   4   7   51.30    2.13
   2  -4  -7   33.67    1.83
  -2   4   7   34.79    1.83
   1  -4  -7   16.01    1.42
  -1   4   7   15.90    1.53
   0  -4  -7    2.88    0.83
   0   4   7    4.84    1.17
  -1  -4  -7   14.18    1.43
   1   4   7   15.11    1.95
  -2  -4  -7   32.54    1.94
   2   4   7   31.47    2.65
  -3  -4  -7   16.49    1.67
   3   4   7   11.28    2.21
   4   4   7   -2.16    1.88
  -6   5   7   13.93    1.43
   5  -5  -7    5.42    1.28
   4  -5  -7   22.16    1.84
  -4   5   7   22.58    1.56
   3  -5  -7   43.64    2.21
  -3   5   7   44.51    2.13
   2  -5  -7    9.37    1.23
  -2   5   7    8.46    1.22
   1  -5  -7    2.18    0.90
  -1   5   7    3.50    1.04
   0  -5  -7   71.56    2.78
   0   5   7   69.41    3.04
  -1  -5  -7   35.75    2.03
   1   5   7   30.76    2.42
  -2  -5  -7   13.56    1.68
   2   5   7   10.00    1.92
  -3  -5  -7    1.89    0.97
   3   5   7   -1.07    1.78
   4   5   7    3.56    2.36
   5  -6  -7   13.18    1.66
   4  -6  -7   36.12    2.22
  -4   6   7   39.41    2.10
   3  -6  -7   18.82    1.75
  -3   6   7   17.15    1.62
   2  -6  -7    2.86    0.94
  -2   6   7    2.65    1.01
   1  -6  -7   36.81    2.14
  -1   6   7   37.49    2.28
   0  -6  -7   47.89    2.39
   0   6   7   42.69    2.57
  -1  -6  -7   12.95    1.70
   1   6   7   11.04    1.79
  -2  -6  -7    1.07    0.93
   2   6   7   -0.98    1.45
  -3  -6  -7   17.70    1.96
   5  -7  -7   12.73    1.70
   4  -7  -7   17.68    1.86
  -4   7   7   16.59    1.67
   3  -7  -7    3.69    1.11
  -3   7   7    1.11    1.00
   2  -7  -7    6.08    1.25
  -2   7   7    6.32    1.33
   1  -7  -7   48.77    2.50
  -1   7   7   47.67    2.67
   0  -7  -7   17.74    1.89
   0   7   7   16.62    2.14
  -1  -7  -7    1.11    0.99
   1   7   7   -0.72    1.30
  -2  -7  -7    7.66    1.35
   2   7   7    1.74    1.77
  -3  -7  -7   18.08    2.08
   5  -8  -7    8.43    1.53
   4  -8  -7    0.23    1.00
  -4   8   7    0.15    0.92
   3  -8  -7   13.00    1.67
  -3   8   7   10.56    1.59
   2  -8  -7   24.03    2.04
  -2   8   7   18.99    2.05
   1  -8  -7   17.36    1.88
  -1   8   7   13.79    1.89
   0  -8  -7    1.26    1.07
   0   8   7   -0.98    1.20
   1   8   7    7.67    1.91
  -2  -8  -7   11.03    1.70
   5  -9  -7    0.28    1.18
  -5   9   7   -0.42    1.02
   4  -9  -7    9.25    1.55
  -4   9   7    6.88    1.50
   3  -9  -7   17.77    2.02
  -3   9   7   14.79    1.92
   2  -9  -7    9.83    1.51
  -2   9   7    8.33    1.64
   1  -9  -7    1.97    1.10
  -1   9   7   -1.03    1.19
   0  -9  -7    2.75    1.19
   0   9   7    0.86    1.51
   3 -10  -7   10.51    1.67
  -3  10   7    9.27    1.79
   2 -10  -7    3.76    1.30
  -2  10   7    0.70    1.37
   2 -15   8    3.29    1.24
  -2  14  -8   14.67    2.29
   2 -14   8   17.09    1.88
  -3  14  -8    9.04    2.27
   3 -14   8   14.15    2.01
  -2 -13   8   15.73    1.99
  -1 -13   8    9.90    1.53
   0  13  -8   -0.03    1.07
  -1  13  -8   13.56    1.89
  -2  13  -8   21.27    2.59
   2 -13   8   23.73    1.93
  -3  13  -8    6.68    2.14
   3 -13   8   11.58    1.64
   4 -13   8    1.65    1.19
   2  12  -8   13.35    1.82
  -2 -12   8   10.48    1.76
   1  12  -8    0.67    0.94
  -1 -12   8    0.36    1.06
   0  12  -8    9.75    1.61
  -1  12  -8   55.79    3.29
   1 -12   8   54.10    2.38
  -2  12  -8   11.43    2.17
   2 -12   8   12.00    1.47
   3 -12   8    2.05    1.05
   4 -12   8    7.45    1.48
   3  11  -8   18.11    1.98
  -3 -11   8   13.59    2.02
   2  11  -8    1.30    0.95
  -2 -11   8   -0.94    1.20
   1  11  -8   13.39    1.67
  -1 -11   8   13.98    1.69
   0  11  -8   27.24    2.37
  -1  11  -8    6.89    1.65
   1 -11   8    8.85    1.14
  -2  11  -8   -0.13    1.50
   2 -11   8    1.56    0.84
   3 -11   8    3.92    1.17
   4 -11   8   22.56    2.12
   5 -11   8   17.39    2.20
   4  10  -8   22.14    2.12
  -4 -10   8   17.29    3.89
   3  10  -8    2.75    1.02
  -3 -10   8    1.32    1.43
   2  10  -8   11.22    1.50
  -2 -10   8   11.62    1.73
   1  10  -8   45.16    2.60
  -1 -10   8   42.50    2.46
   0  10  -8   50.01    2.80
   0 -10   8   49.75    2.36
  -1  10  -8    2.50    1.39
   1 -10   8    2.38    0.74
   2 -10   8   18.55    1.59
   3 -10   8   28.81    2.13
   4 -10   8   17.95    2.02
   5 -10   8    1.60    1.24
   4   9  -8    1.96    1.02
  -4  -9   8   -1.05    1.47
   3   9  -8    9.15    1.43
  -3  -9   8    5.41    1.62
   2   9  -8   52.37    2.69
  -2  -9   8   47.26    2.73
   1   9  -8   48.55    2.64
  -1  -9   8   50.66    2.53
   0   9  -8    1.14    1.07
   0  -9   8    1.56    0.60
   0  -9   8    0.84    0.94
  -1   9  -8   17.70    2.09
   1  -9   8   16.08    1.30
   2  -9   8   52.15    2.36
   3  -9   8   42.29    2.32
   4  -9   8    5.89    1.38
   5  -9   8    5.93    1.53
   5   8  -8    1.07    1.01
   4   8  -8    9.10    1.44
  -4  -8   8    7.14    1.74
   3   8  -8   42.01    2.40
  -3  -8   8   41.09    2.71
   2   8  -8   22.90    2.00
  -2  -8   8   22.18    2.08
   1   8  -8    7.80    1.30
  -1  -8   8   10.32    1.38
   0   8  -8    8.34    1.34
   0  -8   8    8.16    1.14
   0  -8   8    7.25    0.91
  -1   8  -8   64.45    3.32
   1  -8   8   60.49    2.30
   2  -8   8   38.53    1.99
   3  -8   8    3.87    1.12
   4  -8   8    4.80    1.30
   5  -8   8   19.41    2.30
   6  -8   8   10.82    2.27
   5   7  -8    6.79    1.38
  -5  -7   8    3.01    1.73
   4   7  -8   38.83    2.38
  -4  -7   8   37.21    2.75
   3   7  -8   63.11    2.85
  -3  -7   8   58.44    3.01
   2   7  -8   11.10    1.41
  -2  -7   8   12.56    1.53
   1   7  -8   13.77    1.78
  -1  -7   8   15.43    1.56
   0   7  -8   61.04    2.88
   0  -7   8   63.26    2.11
   0  -7   8   63.62    2.32
  -1   7  -8   72.76    3.31
   1  -7   8   68.96    2.44
   2  -7   8    2.74    0.92
   3  -7   8    1.44    1.02
   4  -7   8   27.10    2.25
   5  -7   8   23.48    2.27
   6  -7   8    6.33    1.59
   5   6  -8   32.43    2.33
  -5  -6   8   24.61    2.66
   4   6  -8   50.03    2.60
  -4  -6   8   43.19    2.76
   3   6  -8    8.89    1.28
  -3  -6   8    6.89    1.34
   2   6  -8    2.91    0.95
  -2  -6   8    2.83    1.00
   1   6  -8   45.16    2.36
  -1  -6   8   49.31    2.07
   0   6  -8   92.25    3.41
   0  -6   8   90.34    2.68
   0  -6   8   88.50    2.74
   1  -6   8    5.12    0.90
   2  -6   8    3.36    1.00
   3  -6   8   22.72    1.90
   4  -6   8   38.03    2.43
   5  -6   8    2.97    1.35
   6  -6   8    3.84    1.54
  -6  -5   8   15.85    3.05
   5   5  -8   33.16    2.29
  -5  -5   8   26.25    2.54
   4   5  -8   13.43    1.67
  -4  -5   8   16.47    1.95
   3   5  -8   -0.02    0.71
  -3  -5   8   -0.14    0.85
   2   5  -8   54.16    2.50
  -2  -5   8   62.27    2.41
   1   5  -8   71.46    2.89
  -1  -5   8   76.93    2.50
  -1  -5   8   72.45    2.10
   0   5  -8   43.71    2.22
   0  -5   8   40.09    1.65
   0  -5   8   40.61    1.58
   1  -5   8   26.68    1.12
   1  -5   8   28.14    1.62
   2  -5   8   45.35    2.19
   3  -5   8   51.20    2.52
   4  -5   8    2.32    1.18
   5  -5   8    2.83    1.32
   6  -5   8   11.86    1.94
   6   4  -8   22.97    2.22
  -6  -4   8   15.57    2.31
   5   4  -8    3.73    1.10
  -5  -4   8    1.27    1.27
   4   4  -8    7.25    1.23
  -4  -4   8    5.22    1.23
   3   4  -8   34.23    2.02
  -3  -4   8   37.56    1.98
   2   4  -8   64.54    2.64
  -2  -4   8   67.46    2.44
   1   4  -8   31.59    1.94
  -1  -4   8   34.44    1.36
  -1  -4   8   35.56    1.55
   0   4  -8    5.75    1.04
   0  -4   8    6.02    0.75
   0  -4   8    7.54    0.92
   1  -4   8   69.67    2.57
   1  -4   8   68.72    2.01
   2  -4   8   82.84    3.06
   3  -4   8   52.80    2.60
   4  -4   8    0.96    1.20
   5  -4   8   10.18    1.69
   6  -4   8   21.60    2.46
   6   3  -8    9.13    1.47
  -6  -3   8    8.41    1.82
   5   3  -8    4.07    1.13
  -5  -3   8    5.05    1.42
   4   3  -8   43.06    2.26
  -4  -3   8   42.38    2.24
   3   3  -8   98.16    3.41
  -3  -3   8  100.23    3.29
   2   3  -8    1.14    0.74
  -2  -3   8    1.45    0.65
   1   3  -8    0.83    0.77
  -1  -3   8    0.54    0.49
  -1  -3   8    1.19    0.65
   0   3  -8   52.49    2.30
   0  -3   8   51.95    2.10
  -1   3  -8   87.12    2.47
   1  -3   8   88.90    3.06
   2  -3   8   36.19    2.12
   3  -3   8    5.94    1.33
   4  -3   8   16.69    2.05
   5  -3   8   13.57    1.96
   6  -3   8    9.22    1.81
   6   2  -8    0.26    0.94
  -6  -2   8   -1.91    1.13
   5   2  -8   27.64    2.05
  -5  -2   8   24.24    2.05
   4   2  -8   88.36    3.29
  -4  -2   8   89.37    3.21
   3   2  -8   58.76    2.44
  -3  -2   8   60.75    2.37
   2   2  -8    3.14    0.81
  -2  -2   8    4.30    0.74
   1   2  -8   38.42    1.63
   1   2  -8   38.88    1.90
  -1  -2   8   40.15    1.80
   0   2  -8  102.22    2.95
   0   2  -8  106.36    3.33
   0  -2   8  101.12    3.27
  -1   2  -8   18.10    1.04
   1  -2   8   17.63    1.72
   2  -2   8    5.99    1.32
   3  -2   8   30.41    2.35
   4  -2   8   33.51    2.53
   5  -2   8   10.96    1.84
   6  -2   8    3.60    1.88
   6   1  -8    9.79    1.47
  -6  -1   8    8.45    1.59
   5   1  -8   33.69    2.13
  -5  -1   8   29.73    2.08
   4   1  -8   65.15    2.71
  -4  -1   8   69.94    2.70
   3   1  -8    3.93    0.82
  -3  -1   8    4.17    0.82
   2   1  -8   35.31    1.77
  -2  -1   8   37.27    1.64
   1   1  -8   77.51    2.53
   1   1  -8   79.25    2.63
  -1  -1   8   78.90    2.68
   0   1  -8   55.78    2.14
   0   1  -8   52.94    1.91
   0  -1   8   49.78    2.31
  -1   1  -8    0.83    0.51
   1  -1   8    0.97    1.11
  -2   1  -8   16.93    1.11
   2  -1   8   18.21    2.03
   3  -1   8   52.84    2.91
   4  -1   8   23.15    2.47
   5  -1   8    0.88    1.50
  -7   0   8    3.30    2.56
   6   0  -8   22.14    2.05
  -6   0   8   17.37    2.03
   5   0  -8   17.03    1.70
  -5   0   8   12.83    1.62
   4   0  -8    3.29    0.82
  -4   0   8    3.05    0.82
   3   0  -8   30.48    1.64
  -3   0   8   29.87    1.60
   2   0  -8   78.04    2.61
   2   0  -8   80.13    2.70
  -2   0   8   82.33    2.61
   1   0  -8   53.95    2.00
   1   0  -8   56.20    2.07
  -1   0   8   56.55    2.25
   0   0  -8   19.98    1.32
   0   0  -8   20.26    1.26
   0   0   8   22.86    1.79
  -1   0  -8   25.51    1.39
   1   0   8   26.01    2.15
  -2   0  -8   45.45    1.82
   2   0   8   46.70    2.78
   3   0   8   23.72    2.49
   4   0   8    1.55    1.62
   5   0   8    5.75    1.83
  -7   1   8   11.54    1.99
   6  -1  -8    7.26    1.22
  -6   1   8    7.31    1.39
   5  -1  -8    0.03    0.70
  -5   1   8   -0.01    0.78
   4  -1  -8   19.68    1.46
  -4   1   8   22.08    1.51
   3  -1  -8   57.16    2.18
   3  -1  -8   60.85    2.39
   2  -1  -8   42.40    1.91
   2  -1  -8   39.49    1.65
  -2   1   8   45.02    1.89
   1  -1  -8    3.65    0.76
   1  -1  -8    5.08    0.67
  -1   1   8    4.05    0.96
   0  -1  -8   46.92    1.95
   0   1   8   51.11    2.41
  -1  -1  -8   70.93    2.51
   1   1   8   73.43    3.17
  -2  -1  -8   39.86    1.81
   2   1   8   39.67    2.77
   3   1   8    0.67    1.56
   4   1   8    4.21    1.83
   5   1   8   13.74    2.34
  -7   2   8    9.11    1.73
   6  -2  -8   -0.83    0.68
  -6   2   8   -0.49    0.89
   5  -2  -8   13.05    1.46
  -5   2   8   14.14    1.50
   4  -2  -8   53.91    2.18
   3  -2  -8   59.75    2.16
   3  -2  -8   63.56    2.53
  -3   2   8   63.10    2.27
   2  -2  -8    1.94    0.70
  -2   2   8    3.10    0.83
   1  -2  -8   22.81    1.46
  -1   2   8   22.26    1.69
   0  -2  -8   67.06    2.51
   0   2   8   71.18    2.91
  -1  -2  -8   63.28    2.41
   1   2   8   64.22    3.05
  -2  -2  -8    1.57    0.74
   2   2   8    1.92    1.51
   3   2   8    9.27    2.09
   4   2   8    7.91    2.17
   5   2   8    6.72    3.44
   6  -3  -8    3.62    1.02
  -6   3   8    4.95    1.21
   5  -3  -8   29.06    1.87
  -5   3   8   33.50    1.88
   4  -3  -8   42.31    2.24
   3  -3  -8    5.49    1.03
  -3   3   8    4.93    0.87
   2  -3  -8    3.95    0.89
  -2   3   8    5.40    1.03
   1  -3  -8   40.82    1.98
  -1   3   8   43.94    2.26
   0  -3  -8   70.41    2.69
   0   3   8   72.63    3.04
  -1  -3  -8    6.33    1.02
   1   3   8    5.04    1.45
  -2  -3  -8    7.64    1.11
   2   3   8    7.44    1.83
  -3  -3  -8   27.34    2.08
   3   3   8   25.77    3.05
   4   3   8    7.95    2.34
  -6   4   8   16.66    1.74
   4  -4  -8    9.11    1.43
   3  -4  -8   19.23    1.63
  -3   4   8   18.25    1.53
   2  -4  -8   25.23    1.72
  -2   4   8   25.05    1.80
   1  -4  -8   27.08    1.76
  -1   4   8   25.81    1.96
   0  -4  -8   10.77    1.28
   0   4   8    9.74    1.55
  -1  -4  -8    8.15    1.22
   1   4   8    6.48    1.62
  -2  -4  -8   30.16    2.03
   2   4   8   27.80    2.80
  -3  -4  -8   28.17    1.98
   3   4   8   17.92    2.62
   4   4   8   -0.84    2.12
  -6   5   8   22.97    1.73
   5  -5  -8    3.03    1.20
   4  -5  -8    6.00    1.26
   3  -5  -8   40.43    2.23
  -3   5   8   40.39    2.18
   2  -5  -8   28.63    1.91
  -2   5   8   26.04    1.92
   1  -5  -8   10.00    1.31
  -1   5   8   11.04    1.55
   0  -5  -8   17.27    1.70
   0   5   8   15.00    2.00
  -1  -5  -8   26.09    1.99
   1   5   8   24.13    2.45
  -2  -5  -8   30.54    2.09
   2   5   8   25.95    2.92
  -3  -5  -8    3.36    1.10
   3   5   8   -1.19    1.96
   5  -6  -8   -0.73    1.06
   4  -6  -8   22.08    1.98
  -4   6   8   22.61    1.84
   3  -6  -8   37.52    2.27
  -3   6   8   35.30    2.21
   2  -6  -8   10.92    1.37
  -2   6   8    8.31    1.42
   1  -6  -8    0.74    0.93
  -1   6   8    0.93    1.16
   0  -6  -8   32.25    2.12
   0   6   8   26.66    2.40
  -1  -6  -8   29.57    2.15
   1   6   8   25.31    2.60
  -2  -6  -8   19.13    1.97
   2   6   8   10.78    2.23
  -3  -6  -8    6.59    1.32
   5  -7  -8   12.92    1.74
   4  -7  -8   25.78    2.17
  -4   7   8   26.87    2.13
   3  -7  -8    4.59    1.21
  -3   7   8    3.12    1.20
   2  -7  -8    1.45    0.99
  -2   7   8    0.12    1.06
   1  -7  -8   19.41    1.95
  -1   7   8   14.95    2.09
   0  -7  -8   28.38    2.17
   0   7   8   24.32    2.48
  -1  -7  -8   18.05    2.00
   1   7   8   11.65    2.14
  -2  -7  -8    1.83    1.14
   2   7   8   -2.84    1.87
   5  -8  -8   17.93    2.20
   4  -8  -8   10.69    1.63
  -4   8   8   10.99    1.67
   3  -8  -8    2.12    1.15
  -3   8   8    1.39    1.23
   2  -8  -8    7.99    1.42
  -2   8   8    4.69    1.46
   1  -8  -8   19.98    2.05
  -1   8   8   16.37    2.29
   0  -8  -8    8.84    1.49
   0   8   8    5.99    1.82
  -1  -8  -8    1.94    1.18
  -4   9   8   -0.71    1.12
   3  -9  -8    9.51    1.60
  -3   9   8    7.02    1.70
   2  -9  -8   15.47    2.07
  -2   9   8   11.29    1.94
   1  -9  -8    4.57    1.52
  -1   9   8    1.80    1.60
   0  14  -9   15.56    3.56
  -1  14  -9    4.97    1.57
  -2  14  -9    2.43    1.75
   2 -14   9    2.18    1.07
  -3  14  -9   12.03    2.49
   3 -14   9   17.61    2.04
   2  13  -9   22.06    2.25
  -2 -13   9   17.66    2.38
   1  13  -9   19.28    2.18
   0  13  -9    7.77    1.65
  -1  13  -9    3.67    1.49
  -2  13  -9   22.98    3.11
   2 -13   9   20.97    1.88
  -3  13  -9   12.57    2.52
   3 -13   9   21.14    2.15
   4 -13   9    5.53    1.59
   3  12  -9   17.98    2.12
   2  12  -9   23.32    2.21
  -2 -12   9   19.26    2.39
   1  12  -9    6.55    1.38
  -1 -12   9    5.78    1.40
   0  12  -9    0.67    1.19
  -1  12  -9   18.46    2.28
  -2  12  -9   18.53    2.47
   2 -12   9   23.60    1.91
   3 -12   9   11.21    1.58
   4 -12   9    2.08    1.19
   3  11  -9   33.18    2.46
  -3 -11   9   28.98    2.83
   2  11  -9   15.82    2.00
  -2 -11   9   11.13    1.85
   1  11  -9    0.39    1.02
  -1 -11   9   -1.12    1.10
   0  11  -9   30.35    2.57
  -1  11  -9   35.97    3.00
   1 -11   9   34.75    1.92
  -2  11  -9    7.08    1.91
   2 -11   9    9.35    1.33
   3 -11   9    0.68    1.01
   4 -11   9    9.73    1.66
   4  10  -9   25.05    2.30
   3  10  -9   13.01    1.75
  -3 -10   9    8.85    1.88
   2  10  -9    0.34    0.97
  -2 -10   9   -0.77    1.26
   1  10  -9   21.95    2.25
  -1 -10   9   20.36    2.06
   0  10  -9   42.23    2.76
  -1  10  -9   18.38    2.22
   1 -10   9   18.24    1.44
  -2  10  -9   -1.04    1.44
   2 -10   9    0.31    0.87
   3 -10   9   26.84    2.24
   4 -10   9   21.89    2.20
   5 -10   9   11.08    1.83
   4   9  -9   12.21    1.69
  -4  -9   9   11.34    2.12
   3   9  -9    0.77    0.96
  -3  -9   9   -1.30    1.35
   2   9  -9   19.99    2.07
  -2  -9   9   16.91    2.19
   1   9  -9   33.68    2.47
  -1  -9   9   34.07    2.28
   0   9  -9   23.51    2.27
  -1   9  -9    0.74    1.36
   1  -9   9    1.25    0.76
   2  -9   9   29.99    1.96
   3  -9   9   53.81    2.72
   4  -9   9   23.88    2.28
   5  -9   9    1.33    1.31
   4   8  -9    1.18    0.94
  -4  -8   9   -1.22    1.40
   3   8  -9   26.54    2.17
  -3  -8   9   22.79    2.45
   2   8  -9   63.61    3.05
  -2  -8   9   67.13    3.10
   1   8  -9   19.20    2.11
  -1  -8   9   20.13    1.90
   0   8  -9    0.22    1.04
   0  -8   9   -0.13    0.89
   0  -8   9    0.77    0.60
  -1   8  -9   22.13    2.56
   1  -8   9   21.05    1.50
   2  -8   9   51.52    2.41
   3  -8   9   23.67    1.99
   4  -8   9    3.66    1.38
   5  -8   9    6.29    1.58
   5   7  -9    0.68    1.12
  -5  -7   9   -3.07    1.45
   4   7  -9   19.47    2.03
  -4  -7   9   11.62    1.95
   3   7  -9   61.56    2.99
  -3  -7   9   62.46    3.09
   2   7  -9   39.41    2.38
  -2  -7   9   44.02    2.41
   1   7  -9    0.21    0.93
  -1  -7   9   -0.65    0.86
   0   7  -9   14.54    1.97
   0  -7   9   11.68    1.33
   0  -7   9   13.48    1.10
  -1   7  -9   50.68    3.04
   1  -7   9   49.29    2.13
   2  -7   9   22.08    1.79
   3  -7   9    6.14    1.35
   4  -7   9    8.84    1.64
   5  -7   9   23.56    2.56
   5   6  -9   17.29    2.09
  -5  -6   9   10.85    2.03
   4   6  -9   33.74    2.36
  -4  -6   9   33.26    2.56
   3   6  -9   66.48    3.05
  -3  -6   9   68.49    3.05
   2   6  -9    8.97    1.33
  -2  -6   9   10.00    1.34
   1   6  -9   38.75    2.33
  -1  -6   9   40.47    1.96
   0   6  -9  120.23    4.10
   0  -6   9  114.66    3.42
   0  -6   9  122.79    3.46
  -1   6  -9   40.25    2.68
   1  -6   9   38.54    1.95
   2  -6   9    1.17    1.00
   3  -6   9    4.70    1.30
   4  -6   9   26.77    2.40
   5  -6   9   21.64    2.46
   5   5  -9   24.22    2.15
  -5  -5   9   22.30    2.42
   4   5  -9   18.30    1.88
  -4  -5   9   18.66    1.95
   3   5  -9   13.35    1.69
  -3  -5   9   12.71    1.68
   2   5  -9   17.31    1.76
  -2  -5   9   20.85    1.60
   1   5  -9   74.22    3.07
  -1  -5   9   77.15    2.63
   0   5  -9   90.21    3.35
   0  -5   9   88.01    2.81
   0  -5   9   83.72    2.64
  -1   5  -9    1.90    1.15
   1  -5   9    0.82    0.90
   2  -5   9    8.69    1.36
   3  -5   9   65.61    2.97
   4  -5   9   23.96    2.27
   5  -5   9    4.96    1.51
  -6  -4   9   25.91    3.18
   5   4  -9   13.18    1.81
  -5  -4   9   11.18    1.75
   4   4  -9    2.59    1.03
  -4  -4   9    3.49    1.18
   3   4  -9    1.04    0.84
  -3  -4   9    0.82    0.86
   2   4  -9   38.09    2.20
  -2  -4   9   45.70    2.02
   1   4  -9   63.45    2.70
  -1  -4   9   63.33    2.30
  -1  -4   9   64.51    2.18
   0   4  -9   12.33    1.65
   0  -4   9   12.02    1.40
   0  -4   9    9.71    0.93
   1  -4   9   26.35    1.48
   1  -4   9   27.10    1.90
   2  -4   9   56.74    2.69
   3  -4   9   33.66    2.39
   4  -4   9    3.81    1.46
   5  -4   9    0.62    1.38
   6   3  -9   32.80    2.50
  -6  -3   9   22.03    2.67
   5   3  -9    1.68    1.00
  -5  -3   9   -0.81    1.05
   4   3  -9   17.43    1.76
  -4  -3   9   15.54    1.71
   3   3  -9  120.39    4.10
  -3  -3   9  133.95    4.05
   2   3  -9   71.45    2.84
  -2  -3   9   78.54    2.69
   1   3  -9   33.12    1.98
  -1  -3   9   31.93    1.73
  -1  -3   9   31.93    1.56
   0   3  -9   11.78    1.57
   0  -3   9   12.24    1.58
  -1   3  -9   51.40    1.80
   1  -3   9   49.79    2.48
   2  -3   9   90.82    3.47
   3  -3   9   12.03    1.72
   4  -3   9    3.16    1.46
   5  -3   9    8.01    1.81
   6   2  -9    6.31    1.40
  -6  -2   9    2.64    1.45
   5   2  -9    5.71    1.24
  -5  -2   9    4.19    1.27
   4   2  -9   41.44    2.32
  -4  -2   9   42.93    2.25
   3   2  -9   74.13    2.90
  -3  -2   9   76.15    2.79
   2   2  -9   19.94    1.59
  -2  -2   9   20.37    1.36
   1   2  -9    3.70    0.77
   1   2  -9    3.15    0.88
  -1  -2   9    2.66    0.99
   0   2  -9   89.78    3.04
   0   2  -9   89.06    2.75
   0  -2   9   83.01    3.13
  -1   2  -9   69.74    2.25
   1  -2   9   68.02    2.94
   2  -2   9   23.86    2.24
   3  -2   9    2.89    1.43
   4  -2   9   21.05    2.47
   5  -2   9   18.88    2.62
   6   1  -9    0.74    1.01
  -6  -1   9   -0.52    1.13
   5   1  -9   20.62    1.89
  -5  -1   9   18.20    1.90
   4   1  -9   57.65    2.59
  -4  -1   9   58.85    2.59
   3   1  -9   15.95    1.45
  -3  -1   9   16.49    1.37
   2   1  -9    0.77    0.70
   2   1  -9    0.38    0.66
  -2  -1   9    0.63    1.24
   1   1  -9   93.18    3.01
   1   1  -9   90.37    2.95
  -1  -1   9   91.38    3.15
   0   1  -9   38.39    1.88
   0   1  -9   38.63    1.70
   0  -1   9   39.38    2.30
  -1   1  -9   16.20    1.17
   1  -1   9   16.52    2.02
   2  -1   9   -0.16    1.27
   3  -1   9   31.52    2.67
   4  -1   9   27.10    2.72
   5  -1   9    8.16    2.01
   6   0  -9   22.96    2.14
  -6   0   9   18.58    2.14
   5   0  -9   34.06    2.14
  -5   0   9   30.21    2.14
   4   0  -9   17.75    1.54
  -4   0   9   18.04    1.55
   3   0  -9    0.92    0.67
   2   0  -9   44.07    1.90
   2   0  -9   44.22    2.01
  -2   0   9   44.04    2.02
   1   0  -9  100.83    3.08
   1   0  -9  102.58    3.23
  -1   0   9  104.20    3.44
   0   0  -9   19.80    1.35
   0   0  -9   19.77    1.36
   0   0   9   22.54    1.97
  -1   0  -9    0.67    0.59
   1   0   9   -0.71    1.24
  -2   0  -9   28.69    1.56
   2   0   9   31.40    2.68
   3   0   9   55.14    3.33
   4   0   9    9.30    2.09
   5   0   9    1.13    1.88
   6  -1  -9   21.92    2.01
  -6   1   9   17.79    2.07
   5  -1  -9   12.41    1.56
  -5   1   9   12.93    1.68
   4  -1  -9    1.85    0.73
  -4   1   9    2.28    0.78
   3  -1  -9   23.65    1.42
   3  -1  -9   22.45    1.66
   2  -1  -9   95.60    2.99
   2  -1  -9   97.17    3.25
  -2   1   9   99.39    3.23
   1  -1  -9   11.25    1.23
  -1   1   9    9.31    1.31
   0  -1  -9    2.23    0.75
   0   1   9    1.84    1.20
  -1  -1  -9   20.47    1.45
   1   1   9   22.55    2.38
  -2  -1  -9   55.40    2.23
   2   1   9   57.65    3.38
   3   1   9   10.07    2.15
   4   1   9    1.21    1.86
   6  -2  -9    8.10    1.31
  -6   2   9    6.52    1.38
   5  -2  -9    0.38    0.71
  -5   2   9    1.18    0.82
   4  -2  -9   31.21    2.10
   3  -2  -9   87.86    3.22
   2  -2  -9   55.31    2.35
  -2   2   9   56.57    2.45
   1  -2  -9    0.19    0.64
  -1   2   9    0.16    0.98
   0  -2  -9   21.06    1.55
   0   2   9   24.08    2.12
  -1  -2  -9   45.88    2.16
   1   2   9   47.49    2.90
  -2  -2  -9   48.10    2.17
   2   2   9   46.86    3.22
   3   2   9   -0.16    1.73
   4   2   9    3.44    2.15
  -6   3   9    1.58    1.03
  -5   3   9   15.58    1.45
   4  -3  -9   35.40    2.20
   3  -3  -9   43.85    2.27
  -3   3   9   44.52    2.16
   2  -3  -9    1.24    0.82
  -2   3   9    1.30    0.94
   1  -3  -9   18.67    1.56
  -1   3   9   20.36    1.92
   0  -3  -9   51.75    2.34
   0   3   9   50.65    2.80
  -1  -3  -9   45.96    2.22
   1   3   9   41.07    2.89
  -2  -3  -9    2.24    0.91
   2   3   9   -0.38    1.62
   3   3   9    1.76    1.99
  -6   4   9    5.43    1.17
   4  -4  -9   20.60    1.96
   3  -4  -9    4.41    1.10
  -3   4   9    3.28    1.03
   2  -4  -9   16.33    1.62
  -2   4   9   16.67    1.80
   1  -4  -9   36.94    2.08
  -1   4   9   37.75    2.43
   0  -4  -9    2.03    0.93
   0   4   9    1.44    1.29
  -1  -4  -9    3.45    1.02
   1   4   9    1.24    1.45
  -2  -4  -9    8.42    1.32
   2   4   9    6.43    2.08
   3   4   9   10.02    2.50
  -6   5   9   27.85    2.36
   5  -5  -9    8.81    1.57
   4  -5  -9    3.56    1.20
   3  -5  -9    7.40    1.32
  -3   5   9    5.98    1.32
   2  -5  -9   48.27    2.48
  -2   5   9   45.51    2.60
   1  -5  -9   49.03    2.49
  -1   5   9   43.70    2.73
   0  -5  -9    4.16    1.16
   0   5   9    2.53    1.43
  -1  -5  -9   10.42    1.42
   1   5   9    7.16    1.87
  -2  -5  -9   24.63    2.11
   2   5   9   19.03    2.66
   5  -6  -9   -0.19    1.14
   4  -6  -9    4.04    1.26
   3  -6  -9   26.08    2.10
  -3   6   9   24.90    2.16
   2  -6  -9   40.00    2.40
  -2   6   9   36.12    2.52
   1  -6  -9    1.52    1.01
  -1   6   9    0.41    1.32
   0  -6  -9    1.91    1.11
   0   6   9   -0.38    1.38
  -1  -6  -9   32.89    2.26
   1   6   9   22.10    2.83
  -2  -6  -9   23.07    2.23
   2   6   9   12.69    3.53
   4  -7  -9   19.04    2.08
  -4   7   9   16.19    2.17
   3  -7  -9   17.12    1.96
  -3   7   9   13.93    1.89
   2  -7  -9    5.00    1.23
  -2   7   9    2.10    1.38
   1  -7  -9    2.43    1.13
  -1   7   9   -0.46    1.31
   0   7   9    8.66    1.95
  -1  -7  -9   24.58    2.21
   1   7   9   21.24    3.20
  -4   8   9   13.43    1.95
   3  -8  -9    6.72    1.49
  -3   8   9    4.30    1.58
   2  -8  -9    3.68    1.25
  -2   8   9   -0.26    1.35
   1  -8  -9    6.81    1.40
  -1   8   9    3.60    1.67
   0  14 -10   11.88    2.00
  -1  14 -10   11.24    1.97
  -2  14 -10   -0.30    1.65
   3 -14  10    7.15    1.51
   1  13 -10   25.22    2.46
   0  13 -10   28.99    2.81
  -1  13 -10    0.62    1.42
  -2  13 -10    0.58    1.72
   2 -13  10    2.72    1.11
  -3  13 -10   15.02    2.63
   3 -13  10   20.09    2.12
   2  12 -10   22.28    2.36
  -2 -12  10   16.81    2.16
   1  12 -10   27.31    2.45
   0  12 -10    7.91    1.70
  -1  12 -10    3.96    1.61
  -2  12 -10   12.72    2.32
   2 -12  10   14.93    1.72
   3 -12  10   22.86    2.15
   4 -12  10    4.58    1.42
   3  11 -10   22.84    2.32
  -3 -11  10   17.62    2.39
   2  11 -10   21.81    2.32
  -2 -11  10   18.31    2.18
   1  11 -10    8.37    1.60
  -1 -11  10    8.40    1.66
   0  11 -10   12.67    1.93
  -1  11 -10   25.14    2.87
  -2  11 -10   32.68    3.42
   2 -11  10   32.05    2.11
   3 -11  10    5.35    1.39
   4 -11  10    4.69    1.51
   3  10 -10   34.88    2.60
  -3 -10  10   27.58    2.85
   2  10 -10   14.23    1.88
  -2 -10  10   10.26    1.82
   1  10 -10   -1.12    1.07
  -1 -10  10   -1.71    1.14
   0  10 -10   34.86    2.66
  -1  10 -10   44.73    3.26
   1 -10  10   41.94    2.05
  -2  10 -10   10.95    2.08
   2 -10  10   14.53    1.76
   3 -10  10    8.69    1.53
   4 -10  10   18.83    2.24
   4   9 -10   29.87    2.51
  -4  -9  10   22.90    2.91
   3   9 -10    3.00    1.27
  -3  -9  10    0.15    1.54
   2   9 -10    2.66    1.18
  -2  -9  10    0.47    1.35
   1   9 -10   22.84    2.35
  -1  -9  10   19.12    2.08
   0   9 -10   37.61    2.71
  -1   9 -10   23.93    2.78
   1  -9  10   26.52    1.68
   2  -9  10    1.56    1.02
   3  -9  10   30.58    2.35
   4  -9  10   23.29    2.39
   5  -9  10   12.40    2.02
   4   8 -10   11.01    1.71
  -4  -8  10    7.88    1.97
   3   8 -10    8.50    1.60
  -3  -8  10    4.32    1.62
   2   8 -10   27.90    2.33
  -2  -8  10   29.20    2.38
   1   8 -10   59.23    3.06
  -1  -8  10   58.74    2.71
   0   8 -10   40.56    2.69
  -1   8 -10    0.38    1.33
   1  -8  10    0.89    0.79
   2  -8  10   33.85    2.19
   3  -8  10   38.52    2.58
   4  -8  10   21.53    2.38
   5  -8  10    1.61    1.47
   4   7 -10    0.82    1.06
  -4  -7  10   -1.43    1.41
   3   7 -10   33.52    2.41
  -3  -7  10   34.52    2.58
   2   7 -10   62.54    3.03
  -2  -7  10   68.53    3.01
   1   7 -10   25.98    2.22
  -1  -7  10   26.34    1.86
   0   7 -10    0.83    1.09
   0  -7  10    0.22    0.65
   0  -7  10   -0.44    0.81
  -1   7 -10   26.85    2.61
   1  -7  10   24.69    1.76
   2  -7  10   48.66    2.57
   3  -7  10   23.23    2.19
   4  -7  10    2.73    1.46
   5  -7  10    7.06    1.80
   5   6 -10    1.11    1.13
  -5  -6  10   -2.76    1.46
   4   6 -10   23.30    2.12
  -4  -6  10   21.15    2.23
   3   6 -10   43.42    2.64
  -3  -6  10   51.04    2.73
   2   6 -10   29.39    2.20
  -2  -6  10   33.49    2.13
   1   6 -10    1.96    1.13
  -1  -6  10    2.40    0.91
   0   6 -10   45.50    2.62
   0  -6  10   42.86    1.94
   0  -6  10   38.35    1.80
  -1   6 -10   73.21    3.50
   1  -6  10   66.21    2.72
   2  -6  10   24.41    2.06
   3  -6  10    0.72    1.18
   4  -6  10   16.58    2.32
   5  -6  10   24.68    2.58
   5   5 -10   13.50    1.81
  -5  -5  10   10.71    1.93
   4   5 -10   46.78    2.72
  -4  -5  10   49.77    2.86
   3   5 -10   66.32    3.11
   2   5 -10    4.29    1.10
  -2  -5  10    6.07    1.12
   1   5 -10   19.20    2.00
  -1  -5  10   18.20    1.45
   0   5 -10   83.07    3.35
   0  -5  10   85.73    2.93
   0  -5  10   80.10    2.67
  -1   5 -10   53.92    2.94
   1  -5  10   49.96    2.47
   2  -5  10    2.54    1.25
   3  -5  10    9.95    1.64
   4  -5  10   23.26    2.42
   5  -5  10   22.76    2.58
   5   4 -10   27.81    2.32
  -5  -4  10   23.41    2.49
   4   4 -10   20.08    1.98
  -4  -4  10   18.11    1.97
   3   4 -10    3.24    1.05
  -3  -4  10    1.95    0.97
   2   4 -10   19.47    1.83
  -2  -4  10   20.57    1.60
   1   4 -10   62.67    2.83
  -1  -4  10   62.21    2.39
   0   4 -10   81.99    3.23
   0  -4  10   82.11    3.01
   0  -4  10   84.13    2.68
  -1   4 -10    3.37    1.28
   1  -4  10    3.09    1.21
   2  -4  10   10.72    1.67
   3  -4  10   29.89    2.47
   4  -4  10   23.46    2.52
   5  -4  10    4.32    1.71
   5   3 -10   23.39    2.10
  -5  -3  10   19.50    2.22
   4   3 -10    8.07    1.36
  -4  -3  10    8.74    1.45
   3   3 -10   37.47    2.24
  -3  -3  10   38.67    2.11
   2   3 -10   85.97    3.23
  -2  -3  10   85.85    3.03
   1   3 -10   86.55    3.17
  -1  -3  10   84.87    3.01
  -1  -3  10   82.98    2.84
   0   3 -10    4.44    0.79
   0   3 -10    4.65    1.07
   0  -3  10    3.85    1.22
  -1   3 -10   39.76    2.44
  -1   3 -10   39.41    1.71
   1  -3  10   39.69    2.47
   2  -3  10   49.00    2.78
   3  -3  10   38.10    2.74
   4  -3  10   10.40    1.95
   5  -3  10    3.56    1.76
   6   2 -10   27.14    2.43
  -6  -2  10   20.75    2.51
   5   2 -10    8.75    1.39
  -5  -2  10    6.25    1.38
   4   2 -10   12.70    1.52
  -4  -2  10   11.79    1.51
   3   2 -10   55.77    2.56
  -3  -2  10   57.35    2.47
   2   2 -10   78.39    2.94
  -2  -2  10   76.54    2.80
   1   2 -10   65.98    2.57
   1   2 -10   61.15    2.40
  -1  -2  10   60.92    2.66
   0   2 -10   24.26    1.78
   0   2 -10   26.10    1.52
   0  -2  10   25.98    2.09
  -1   2 -10   39.25    2.34
  -1   2 -10   39.54    1.71
   1  -2  10   37.68    2.54
   2  -2  10   33.91    2.61
   3  -2  10   10.95    1.92
   4  -2  10    0.99    1.58
   5  -2  10   15.34    3.25
   6   1 -10    2.38    1.13
  -6  -1  10   -1.00    1.19
   5   1 -10    4.41    1.13
  -5  -1  10    3.64    1.22
   4   1 -10   40.74    2.27
  -4  -1  10   41.14    2.26
   3   1 -10   42.47    2.13
  -3  -1  10   41.92    2.08
   2   1 -10   21.48    1.59
   2   1 -10   20.01    1.59
   1   1 -10    1.13    0.73
   1   1 -10    0.63    0.71
  -1  -1  10    0.83    1.09
   0   1 -10   89.26    2.93
   0   1 -10   91.25    3.02
   0  -1  10   89.09    3.51
  -1   1 -10   35.96    1.66
  -1   1 -10   34.66    2.13
   1  -1  10   34.80    2.52
   2  -1  10    5.49    1.64
   3  -1  10    3.08    1.79
   4  -1  10   12.15    2.16
   6   0 -10    4.28    1.30
  -6   0  10    3.02    1.32
   5   0 -10   26.77    2.00
  -5   0  10   26.69    2.12
   4   0 -10   36.70    2.05
  -4   0  10   36.15    2.09
   3   0 -10   11.33    1.28
   2   0 -10    1.03    0.66
   2   0 -10    0.07    0.72
  -2   0  10   -0.62    1.08
   1   0 -10   76.51    2.77
  -1   0  10   76.45    3.09
   0   0 -10   55.65    2.24
   0   0  10   57.43    2.89
  -1   0 -10   13.64    1.25
   1   0  10   13.56    1.94
   2   0  10    0.32    1.54
   3   0  10   16.34    2.39
   4   0  10   12.97    2.38
   6  -1 -10   17.52    1.96
  -6   1  10   15.71    2.08
   5  -1 -10   29.77    2.03
  -5   1  10   30.28    2.13
   4  -1 -10    4.54    0.90
  -4   1  10    4.42    0.94
   3  -1 -10   15.64    1.60
   2  -1 -10   12.62    1.42
  -2   1  10   11.48    1.61
   1  -1 -10   91.90    3.17
  -1   1  10   93.41    3.47
   0  -1 -10   25.08    1.62
   0   1  10   26.98    2.28
  -1  -1 -10    1.04    0.73
   1   1  10    0.70    1.49
   2   1  10   25.98    2.93
   3   1  10   24.37    3.08
   4   1  10    2.87    2.13
  -6   2  10   22.45    2.29
  -5   2  10   17.70    1.69
   4  -2 -10    2.10    1.10
   3  -2 -10   36.42    2.16
   2  -2 -10   46.92    2.27
  -2   2  10   46.99    2.41
   1  -2 -10   20.72    1.62
  -1   2  10   19.96    2.04
   0  -2 -10    4.32    0.95
   0   2  10    5.10    1.53
  -1  -2 -10   21.90    1.66
   1   2  10   19.08    2.48
  -2  -2 -10   45.79    2.31
   2   2  10   43.66    3.45
   3   2  10   12.31    2.55
  -5   3  10    3.02    0.85
   4  -3 -10   33.68    2.27
   3  -3 -10   27.06    1.98
   2  -3 -10   44.85    2.33
  -2   3  10   41.84    2.46
   1  -3 -10    3.36    0.99
  -1   3  10    3.28    1.36
   0  -3 -10    8.79    1.23
   0   3  10    8.56    1.78
  -1  -3 -10   15.42    1.60
   1   3  10   14.16    2.20
  -2  -3 -10   23.70    1.85
   2   3  10   19.14    2.61
   3   3  10   -0.79    2.14
   4  -4 -10   23.50    2.08
   3  -4 -10   15.68    1.79
  -3   4  10   13.55    1.84
   2  -4 -10    0.35    0.85
  -2   4  10    0.28    1.16
   1  -4 -10   36.42    2.15
  -1   4  10   35.63    2.57
   0  -4 -10   21.47    1.86
   0   4  10   18.44    2.46
  -1  -4 -10   13.65    1.76
   1   4  10    9.40    2.04
  -2  -4 -10    2.17    1.04
   2   4  10   -1.14    1.83
   5  -5 -10   18.88    2.23
   4  -5 -10    9.05    1.57
   3  -5 -10    0.77    1.03
  -3   5  10   -0.77    1.14
   2  -5 -10   15.29    1.82
  -2   5  10   13.29    1.87
   1  -5 -10   42.08    2.38
  -1   5  10   37.22    2.77
   0  -5 -10    7.75    1.35
   0   5  10    9.53    1.96
  -1  -5 -10    1.81    1.07
   1   5  10   -0.82    1.68
  -2  -5 -10    9.95    1.47
   4  -6 -10    0.41    1.13
   3  -6 -10    3.84    1.23
  -3   6  10    1.33    1.32
   2  -6 -10   30.20    2.27
  -2   6  10   25.01    2.53
   1  -6 -10   17.89    1.95
  -1   6  10   16.26    2.20
   0  -6 -10    3.49    1.20
   0   6  10    0.05    1.58
  -1  -6 -10    4.45    1.25
   1   6  10    0.20    2.52
   3  -7 -10   16.62    2.06
  -3   7  10   13.88    2.09
   2  -7 -10   19.29    2.12
  -2   7  10   13.77    2.12
   1  -7 -10    0.71    1.09
  -1   7  10   -1.09    1.54
   0  -7 -10    1.92    1.71
  -1  14 -11   10.66    2.65
   1  13 -11    6.97    1.62
   0  13 -11   38.13    3.19
  -1  13 -11   10.34    2.01
  -2  13 -11    0.50    1.77
   3 -13  11    6.63    1.46
   2  12 -11    8.03    1.72
  -2 -12  11    9.01    1.95
   1  12 -11   21.62    2.43
   0  12 -11   15.46    2.18
  -1  12 -11    0.17    1.49
  -2  12 -11   -0.03    1.79
   2 -12  11    2.39    1.04
  -3  12 -11   16.75    2.62
   3 -12  11   22.77    2.22
  -3 -11  11    6.13    2.32
   2  11 -11   24.25    2.53
  -2 -11  11   22.29    2.43
   1  11 -11   40.06    2.89
   0  11 -11    1.33    1.30
  -1  11 -11    7.02    1.87
  -2  11 -11   24.18    3.34
   2 -11  11   28.00    2.16
   3 -11  11   16.80    2.22
   4 -11  11    3.44    1.49
   3  10 -11   34.84    2.76
  -3 -10  11   26.72    3.02
   2  10 -11   25.07    2.50
  -2 -10  11   23.59    2.59
   1  10 -11    8.72    1.69
   0  10 -11    5.70    1.56
  -1  10 -11   24.25    2.81
  -2  10 -11   49.50    3.70
   2 -10  11   47.18    2.58
   3 -10  11    5.72    1.43
   4 -10  11    5.18    1.59
   3   9 -11   17.20    2.23
  -3  -9  11   15.05    2.28
   2   9 -11    9.50    1.66
  -2  -9  11    6.42    1.72
   1   9 -11    4.26    1.37
  -1  -9  11    0.92    1.35
   0   9 -11   32.64    2.68
  -1   9 -11   38.88    3.16
   1  -9  11   37.82    2.07
  -2   9 -11    6.73    1.86
   2  -9  11    9.67    1.46
   3  -9  11    4.61    1.42
   4  -9  11   16.72    2.29
   4   8 -11   41.79    2.82
  -4  -8  11   29.84    3.15
   3   8 -11    7.44    1.55
  -3  -8  11    5.38    1.74
   2   8 -11    3.58    1.28
  -2  -8  11    2.50    1.40
   1   8 -11   49.07    2.95
  -1  -8  11   46.83    2.54
   0   8 -11   46.66    2.93
  -1   8 -11   19.92    2.34
   1  -8  11   19.44    1.66
   2  -8  11    1.94    1.21
   3  -8  11   32.05    2.50
   4  -8  11   24.37    2.60
   4   7 -11    8.16    1.62
  -4  -7  11    4.43    1.78
   3   7 -11    0.47    1.05
  -3  -7  11   -2.52    1.22
   2   7 -11   36.68    2.59
  -2  -7  11   37.24    2.45
   1   7 -11   70.51    3.31
  -1  -7  11   65.40    2.80
   0   7 -11   19.67    2.28
  -1   7 -11    0.44    1.37
   1  -7  11    0.66    0.98
   2  -7  11   24.75    2.25
   3  -7  11   34.24    2.64
   4  -7  11    6.60    1.77
   4   6 -11    2.00    1.14
  -4  -6  11   -0.34    1.40
   3   6 -11   23.04    2.26
  -3  -6  11   24.23    2.31
   2   6 -11   69.26    3.22
  -2  -6  11   71.38    3.06
   1   6 -11   39.23    2.49
  -1  -6  11   36.92    2.04
   0   6 -11    1.28    1.17
   0  -6  11    1.27    0.89
  -1   6 -11   27.04    2.70
   1  -6  11   25.27    1.99
   2  -6  11   67.98    3.16
   3  -6  11    2.61    1.47
   4  -6  11    1.79    1.42
   5   5 -11    0.95    1.11
  -5  -5  11   -1.58    1.51
   4   5 -11   18.81    2.09
  -4  -5  11   16.89    2.01
   3   5 -11   47.48    2.74
  -3  -5  11   52.01    2.70
   2   5 -11   25.54    2.09
  -2  -5  11   23.81    1.88
   1   5 -11    0.84    1.02
  -1  -5  11   -0.22    0.75
   0   5 -11    9.26    1.47
   0  -5  11   10.45    1.38
   0  -5  11    9.19    1.19
  -1   5 -11   76.95    3.56
   1  -5  11   71.02    3.08
   2  -5  11   58.12    3.01
   3  -5  11    1.62    1.41
   4  -5  11    8.36    1.79
   5   4 -11   21.18    2.23
  -5  -4  11   18.43    2.27
   4   4 -11   39.34    2.55
  -4  -4  11   41.41    2.60
   3   4 -11   17.46    1.98
  -3  -4  11   18.52    1.84
   2   4 -11    1.45    0.98
  -2  -4  11    0.65    0.88
   1   4 -11   23.60    2.01
  -1  -4  11   22.22    1.58
   0   4 -11   30.25    2.18
   0  -4  11   27.05    1.50
   0  -4  11   29.00    2.05
  -1   4 -11   50.62    2.91
   1  -4  11   48.29    2.72
   2  -4  11    1.87    1.43
   3  -4  11    6.76    1.73
   4  -4  11   23.14    2.69
   5   3 -11   41.09    2.65
  -5  -3  11   38.63    2.76
   4   3 -11   38.36    2.46
  -4  -3  11   41.02    2.49
   3   3 -11    0.41    0.88
  -3  -3  11   -0.18    0.87
   2   3 -11   42.03    2.31
  -2  -3  11   38.72    2.07
   1   3 -11   72.76    2.92
  -1  -3  11   68.52    2.61
   0   3 -11   30.66    2.04
   0   3 -11   30.24    1.69
   0  -3  11   30.01    2.22
  -1   3 -11    8.62    1.49
   1  -3  11    7.57    1.61
   2  -3  11   13.60    1.92
   3  -3  11   24.01    2.67
   4  -3  11   21.24    2.79
   5   2 -11   26.58    2.21
  -5  -2  11   21.30    2.26
   4   2 -11    4.54    1.15
  -4  -2  11    4.30    1.22
   3   2 -11   19.27    1.79
  -3  -2  11   19.20    1.70
   2   2 -11   94.55    3.37
  -2  -2  11   92.86    3.26
   1   2 -11   43.24    2.13
   1   2 -11   47.55    2.24
  -1  -2  11   42.96    2.46
   0   2 -11   21.31    1.69
   0   2 -11   19.62    1.48
   0  -2  11   18.48    2.13
  -1   2 -11   14.62    1.92
   1  -2  11   13.97    1.91
   2  -2  11   22.24    2.54
   3  -2  11   21.92    2.70
   4  -2  11    4.35    1.89
   6   1 -11   11.79    2.66
   5   1 -11    2.72    1.00
  -5  -1  11    2.04    1.17
   4   1 -11    5.75    1.14
  -4  -1  11    4.54    1.16
   3   1 -11   41.92    2.15
  -3  -1  11   41.84    2.17
   2   1 -11   64.10    2.71
   2   1 -11   65.64    2.60
   1   1 -11    1.84    0.74
   1   1 -11    1.44    0.79
  -1  -1  11    0.43    1.22
   0   1 -11    5.28    0.94
   0  -1  11    4.53    1.51
  -1   1 -11   34.95    1.75
   1  -1  11   36.14    2.78
   2  -1  11   16.23    2.21
   3  -1  11    0.93    1.73
   4  -1  11    0.82    1.89
   6   0 -11    2.48    1.14
   5   0 -11    5.18    1.15
  -5   0  11    5.32    1.39
   4   0 -11   24.18    1.80
  -4   0  11   23.48    1.88
   2   0 -11    5.33    1.11
   1   0 -11    1.13    0.77
  -1   0  11   -0.72    1.19
   0   0 -11   51.72    2.24
   0   0  11   49.57    2.92
  -1   0 -11   30.99    1.72
   1   0  11   31.55    2.79
   2   0  11    1.66    1.79
   3   0  11    0.61    1.84
  -5   1  11   24.78    2.10
  -4   1  11   32.45    1.98
   3  -1 -11    4.33    1.12
   2  -1 -11   12.11    1.52
  -2   1  11   13.52    2.36
   1  -1 -11   22.28    1.69
  -1   1  11   21.35    2.18
   0  -1 -11   37.22    1.99
   0   1  11   38.37    2.77
  -1  -1 -11    6.88    1.04
   1   1  11    7.83    1.96
   2   1  11    3.15    1.94
   3   1  11    8.59    2.35
  -5   2  11   23.43    1.94
   4  -2 -11    8.78    1.55
   3  -2 -11    5.61    1.28
   2  -2 -11   24.44    1.87
  -2   2  11   21.35    2.10
   1  -2 -11   64.20    2.68
  -1   2  11   59.58    3.09
   0  -2 -11   14.16    1.54
   0   2  11   10.27    1.95
  -1  -2 -11    1.58    0.86
   1   2  11   -0.93    1.62
   2   2  11   11.33    2.36
   3   2  11    9.83    3.61
  -5   3  11   10.32    1.38
   4  -3 -11    1.34    1.15
   3  -3 -11   20.91    1.94
   2  -3 -11   28.88    2.02
  -2   3  11   24.95    2.25
   1  -3 -11   13.80    1.64
  -1   3  11   12.08    1.90
   0  -3 -11    1.09    0.88
   0   3  11   -0.60    1.50
  -1  -3 -11   14.49    1.66
   1   3  11   10.63    2.17
   2   3  11   12.77    2.56
   4  -4 -11   15.73    2.00
   3  -4 -11   15.89    1.89
   2  -4 -11   17.58    1.89
  -2   4  11   13.86    1.93
   1  -4 -11    2.99    1.07
  -1   4  11    1.26    1.52
   0  -4 -11   10.15    1.41
   0   4  11    6.60    1.94
  -1  -4 -11   15.05    1.78
   1   4  11    9.42    2.32
   4  -5 -11   18.45    2.36
   3  -5 -11    6.27    1.38
   2  -5 -11    0.89    1.01
  -2   5  11   -2.95    1.29
   1  -5 -11    7.83    1.38
  -1   5  11    6.55    1.83
   0  -5 -11   19.15    1.99
   0   5  11   14.66    2.39
  -1  -5 -11   10.67    1.53
  -3   6  11   -2.76    1.34
   2  -6 -11   10.85    1.63
  -2   6  11   10.51    2.10
  -1   6  11    7.37    1.97
   0  -6 -11   10.29    1.91
  -1  13 -12   13.81    2.88
   1  12 -12   11.28    1.90
   0  12 -12   26.78    2.89
  -1  12 -12   12.84    2.25
  -2  12 -12    0.07    1.85
   3 -12  12    5.84    1.59
   2  11 -12    8.32    1.77
  -2 -11  12    5.17    1.92
   1  11 -12   24.97    2.70
   0  11 -12   19.06    2.37
  -1  11 -12    1.35    1.57
  -2  11 -12    4.29    2.05
   2 -11  12    7.78    1.49
  -3  11 -12   14.71    2.68
   3 -11  12   24.88    2.46
  -3 -10  12    2.47    1.94
   2  10 -12   20.92    2.48
  -2 -10  12   18.98    2.38
   1  10 -12   21.55    2.53
   0  10 -12    3.62    1.51
  -1  10 -12    7.34    1.92
  -2  10 -12   24.45    3.22
   2 -10  12   25.66    2.22
   3 -10  12   24.33    2.43
   4 -10  12    4.01    1.83
   3   9 -12   32.26    2.74
  -3  -9  12   24.65    3.03
   2   9 -12   18.75    2.26
  -2  -9  12   17.61    2.23
   1   9 -12    3.96    1.45
   0   9 -12   10.37    1.83
  -1   9 -12   14.45    2.20
  -2   9 -12   21.91    2.70
   2  -9  12   28.35    2.27
   3  -9  12    6.01    1.60
   4  -9  12    5.76    1.71
  -4  -8  12   14.16    3.85
   3   8 -12   29.71    2.60
  -3  -8  12   26.77    2.83
   2   8 -12    5.92    1.45
  -2  -8  12    4.72    1.59
   1   8 -12    7.97    1.59
  -1  -8  12    6.00    1.97
   0   8 -12   40.53    2.83
  -1   8 -12   16.55    2.18
   1  -8  12   16.61    1.83
  -2   8 -12    6.02    1.93
   2  -8  12    8.38    1.62
   3  -8  12    1.30    1.48
   4  -8  12   16.21    2.26
   4   7 -12   31.97    2.65
  -4  -7  12   27.18    3.01
   3   7 -12    7.83    1.58
  -3  -7  12    3.69    1.66
   2   7 -12    1.06    1.16
  -2  -7  12    0.05    1.23
   1   7 -12   74.72    3.47
  -1  -7  12   67.39    2.97
   0   7 -12   36.50    2.69
  -1   7 -12   10.55    1.94
   1  -7  12   11.30    1.59
  -2   7 -12    0.85    1.60
   2  -7  12    1.36    1.29
   3  -7  12   16.53    2.31
   4  -7  12   12.07    2.12
   4   6 -12    8.26    1.53
  -4  -6  12    5.67    1.78
   3   6 -12    4.94    1.32
  -3  -6  12    1.99    1.41
   2   6 -12   25.44    2.24
  -2  -6  12   22.62    2.08
   1   6 -12   72.81    3.34
  -1  -6  12   69.09    2.89
   0   6 -12   13.45    1.77
  -1   6 -12    0.37    1.40
   1  -6  12    0.50    1.17
  -2   6 -12   35.39    3.07
   2  -6  12   37.45    2.65
   3  -6  12   26.34    2.61
   4  -6  12    4.30    1.71
   4   5 -12    1.34    1.08
  -4  -5  12   -0.96    1.27
   3   5 -12   10.44    1.66
  -3  -5  12    6.98    1.45
   2   5 -12   39.67    2.55
  -2  -5  12   42.06    2.39
   1   5 -12   18.38    2.02
  -1  -5  12   11.92    1.54
   0   5 -12    0.84    1.12
   0  -5  12    1.01    1.10
  -1   5 -12   16.34    1.97
   1  -5  12   17.40    2.13
   2  -5  12   29.48    2.56
   3  -5  12    4.50    1.67
   4  -5  12    0.34    1.57
   5   4 -12    1.24    1.17
   4   4 -12   45.16    2.73
  -4  -4  12   38.98    2.71
   3   4 -12   25.32    2.20
  -3  -4  12   26.97    2.14
   2   4 -12   19.84    1.97
  -2  -4  12   19.01    1.80
   1   4 -12    0.46    0.97
  -1  -4  12    0.92    0.82
   0   4 -12   13.39    1.85
   0  -4  12   15.48    1.96
  -1   4 -12   44.66    2.82
   1  -4  12   43.43    2.75
   2  -4  12   13.05    2.00
   3  -4  12    0.33    1.57
   4  -4  12    9.03    2.02
   5   3 -12   16.83    2.10
  -5  -3  12   14.06    2.09
   4   3 -12   33.31    2.36
  -4  -3  12   30.20    2.39
   3   3 -12   24.58    2.02
  -3  -3  12   20.24    1.93
   2   3 -12    1.39    0.93
  -2  -3  12    0.84    0.88
   1   3 -12   42.46    2.33
  -1  -3  12   42.95    2.07
   0   3 -12   40.03    2.24
   0  -3  12   41.27    2.65
  -1   3 -12   21.70    2.20
   1  -3  12   20.64    2.39
   2  -3  12    0.69    1.60
   3  -3  12    7.12    1.95
   4  -3  12   17.63    2.99
   5   2 -12   31.20    2.37
  -5  -2  12   27.75    2.52
   4   2 -12   13.82    1.81
  -4  -2  12   10.46    1.65
   3   2 -12    2.14    0.90
  -3  -2  12    0.90    0.92
   2   2 -12   21.11    1.81
  -2  -2  12   24.39    1.67
   1   2 -12   45.37    2.25
   1   2 -12   44.46    2.27
   0   2 -12   23.73    2.55
   0   2 -12   21.22    1.59
   0  -2  12   21.22    2.37
   1  -2  12    2.01    1.59
   2  -2  12    9.58    2.02
   3  -2  12   17.11    2.40
   5   1 -12   15.95    1.91
  -5  -1  12   14.31    1.86
   4   1 -12    2.02    0.90
  -4  -1  12    1.75    1.04
   3   1 -12   16.86    1.65
  -3  -1  12   16.18    1.57
   2   1 -12   37.70    2.23
   1   1 -12   25.99    1.81
  -1  -1  12   24.50    2.34
   0   1 -12    4.12    0.92
   0  -1  12    2.88    1.55
   1  -1  12    8.57    1.95
   2  -1  12   25.65    2.91
   3  -1  12   10.05    2.27
  -5   0  12    1.31    1.22
  -4   0  12    6.89    1.21
   2   0 -12   13.41    1.64
   1   0 -12   -0.16    0.78
  -1   0  12   -1.72    1.29
   0   0 -12    6.79    1.09
   0   0  12    3.74    1.74
   1   0  12   16.91    2.39
   2   0  12    7.45    2.11
   3   0  12   -0.64    1.95
  -4   1  12   38.16    2.19
   3  -1 -12   17.67    1.88
   2  -1 -12    1.23    0.96
   1  -1 -12    7.39    1.19
  -1   1  12    7.25    1.75
   0  -1 -12   27.95    1.85
   0   1  12   26.27    2.75
  -1  -1 -12   16.31    1.77
   1   1  12   14.26    2.34
   2   1  12   -0.25    1.97
   3  -2 -12    3.16    1.10
   2  -2 -12    6.81    1.27
   1  -2 -12   44.28    2.33
  -1   2  12   38.02    2.89
   0  -2 -12   23.87    1.81
   0   2  12   19.73    2.72
  -1  -2 -12    2.94    0.96
   1   2  12    0.90    1.90
   2   2  12   -0.31    2.02
   4  -3 -12    1.85    1.25
   3  -3 -12    2.67    1.18
   2  -3 -12   14.40    1.78
  -2   3  12    9.98    1.87
   1  -3 -12   15.89    1.76
  -1   3  12   16.09    2.19
   0  -3 -12    1.96    0.99
   0   3  12    0.57    1.70
  -1  -3 -12    2.08    1.01
   1   3  12    1.12    1.99
   3  -4 -12    9.16    1.54
   2  -4 -12   24.91    2.11
  -2   4  12   18.16    2.54
   1  -4 -12    6.68    1.31
  -1   4  12    3.52    1.83
   0  -4 -12    2.19    1.05
   0   4  12   -1.26    1.72
  -1  -4 -12   14.14    1.89
   2  -5 -12    3.53    1.56
  -2   5  12   -0.32    1.65
   1  -5 -12    0.71    1.09
  -1   5  12   -3.47    1.61
   0  -5 -12   12.34    2.61
   1  11 -13   10.91    1.92
   0  11 -13   24.31    2.85
  -1  11 -13   12.89    2.26
  -2  11 -13   -0.89    1.83
   3 -11  13    9.06    1.82
   2  10 -13    9.05    1.80
   1  10 -13   15.59    2.15
   0  10 -13   15.45    2.18
  -1  10 -13    1.59    1.61
  -2  10 -13    2.75    2.01
   2 -10  13    7.29    1.59
  -3  10 -13   13.77    4.12
   3 -10  13   25.28    2.57
  -3  -9  13    1.78    1.95
   2   9 -13   28.53    2.62
  -2  -9  13   21.18    2.42
   1   9 -13   19.74    2.36
   0   9 -13   -0.46    1.25
  -1   9 -13   11.99    2.08
  -2   9 -13   12.95    2.43
   2  -9  13   18.34    2.27
   3  -9  13   20.40    2.61
   3   8 -13   27.56    2.64
  -3  -8  13   22.59    2.61
   2   8 -13   14.96    2.05
  -2  -8  13   10.92    1.96
   1   8 -13    0.77    1.17
   0   8 -13    9.88    1.70
  -1   8 -13   21.85    2.85
  -2   8 -13   17.22    2.44
   2  -8  13   29.25    2.52
   3  -8  13    1.96    1.64
   3   7 -13   20.41    2.39
  -3  -7  13   13.24    2.10
   2   7 -13    2.72    1.27
  -2  -7  13    0.03    1.35
   1   7 -13   15.24    1.95
   0   7 -13   36.81    2.75
  -1   7 -13   19.22    2.30
   1  -7  13   23.36    2.21
  -2   7 -13   -0.59    1.62
   2  -7  13    4.09    1.53
   3  -7  13    9.04    1.86
   4   6 -13   35.99    2.73
  -4  -6  13   28.32    2.96
   3   6 -13    7.36    1.55
  -3  -6  13    5.36    1.69
   2   6 -13    5.18    1.41
  -2  -6  13    2.98    1.32
   1   6 -13   33.55    2.49
  -1  -6  13   31.11    2.33
   0   6 -13   28.67    2.48
  -1   6 -13    9.23    1.79
   1  -6  13   10.14    1.73
  -2   6 -13    3.33    1.74
   2  -6  13    6.25    1.67
   3  -6  13   11.24    2.08
   4   5 -13    3.49    1.24
  -4  -5  13   -1.02    1.42
   3   5 -13    4.96    1.32
  -3  -5  13    1.34    1.36
   2   5 -13   29.05    2.33
  -2  -5  13   25.18    2.14
   1   5 -13   30.12    2.31
  -1  -5  13   25.86    1.99
   0   5 -13    6.28    1.40
  -1   5 -13    0.43    1.32
   1  -5  13    1.95    1.41
  -2   5 -13    9.88    1.99
   2  -5  13   14.27    2.06
   3  -5  13   12.51    2.11
   4   4 -13    5.47    1.31
  -4  -4  13    0.67    1.30
   3   4 -13   30.68    2.32
  -3  -4  13   25.62    2.24
   2   4 -13   41.48    2.51
  -2  -4  13   36.31    2.33
   1   4 -13    1.33    0.98
  -1  -4  13    1.17    0.86
   0   4 -13    8.70    1.44
   0  -4  13    8.18    2.86
  -1   4 -13   33.55    2.59
   1  -4  13   31.70    2.73
  -2   4 -13   10.41    1.85
   2  -4  13   13.83    2.11
   3  -4  13    6.25    1.96
  -4  -3  13    9.47    1.66
   3   3 -13   37.35    2.36
  -3  -3  13   34.35    2.37
   2   3 -13   20.42    1.92
  -2  -3  13   16.37    1.67
   1   3 -13    5.45    1.17
  -1  -3  13    6.31    0.99
   0   3 -13   22.90    2.00
   0  -3  13   24.82    2.51
   1  -3  13   31.55    2.83
   2  -3  13    5.70    1.88
   3  -3  13    2.30    1.91
   5   2 -13   17.42    2.04
   4   2 -13   21.29    2.02
  -4  -2  13   17.11    2.09
  -3  -2  13   10.59    1.48
  -2  -2  13    3.08    0.90
   1   2 -13   17.45    1.77
   0   2 -13   36.47    2.09
   0  -2  13   36.46    2.80
   1  -2  13    9.15    1.96
   2  -2  13    2.14    1.83
   3  -2  13    6.19    2.18
  -4  -1  13   10.43    1.58
  -3  -1  13    1.32    0.80
   1   1 -13   20.12    1.77
   0   1 -13   18.43    1.62
   0  -1  13   19.49    2.37
   1  -1  13    2.46    1.78
   2  -1  13   10.00    2.27
  -4   0  13    3.19    1.03
   2   0 -13   18.65    1.86
   1   0 -13   10.89    1.38
  -1   0  13    9.77    2.03
   0   0 -13    1.37    0.88
   0   0  13    1.71    1.69
   1   0  13   12.83    2.31
   2   0  13    9.51    2.37
  -4   1  13   16.49    1.68
   3  -1 -13   24.22    2.16
   2  -1 -13    3.91    1.18
   1  -1 -13    2.71    1.00
  -1   1  13   -0.17    1.64
   0  -1 -13   10.08    1.34
   0   1  13    9.66    2.15
   1   1  13   19.47    2.68
   3  -2 -13   15.90    2.00
   2  -2 -13    1.22    0.99
   1  -2 -13    3.03    1.04
  -1   2  13    0.18    1.70
   0  -2 -13   20.57    1.80
   0   2  13   16.95    2.54
   1   2  13    7.49    2.40
   3  -3 -13    0.39    1.91
   2  -3 -13   17.65    1.98
   1  -3 -13   11.34    1.54
  -1   3  13    7.43    2.13
   0  -3 -13   11.11    1.49
   0   3  13    5.32    2.21
  -1   4  13    6.54    2.14
   1  10 -14   11.13    2.38
   0  10 -14   25.01    2.82
  -1  10 -14    2.68    1.76
   3 -10  14    8.08    3.08
   2   9 -14   11.04    2.52
   1   9 -14   24.37    2.62
   0   9 -14    7.06    1.68
  -1   9 -14    0.54    1.55
  -2   9 -14    8.59    2.29
   3  -9  14   23.69    2.84
  -3  -8  14    6.50    2.14
   2   8 -14   22.75    2.48
  -2  -8  14   16.69    2.29
   1   8 -14   13.24    1.92
   0   8 -14    0.11    1.26
  -1   8 -14   11.02    2.02
  -2   8 -14   15.86    2.49
  -3   8 -14    1.42    2.42
   3  -8  14    9.62    2.12
   3   7 -14   24.41    2.53
  -3  -7  14   20.12    2.52
   2   7 -14   17.65    2.27
  -2  -7  14   12.41    2.02
   1   7 -14   -0.41    1.16
   0   7 -14   13.75    1.96
  -1   7 -14   35.72    3.06
  -2   7 -14    8.69    2.13
   2  -7  14   12.16    1.98
  -3   7 -14   -3.96    1.69
   3  -7  14    0.32    1.58
   3   6 -14   16.93    2.29
  -3  -6  14   10.25    1.97
   2   6 -14    2.85    1.23
  -2  -6  14   -1.50    1.25
   1   6 -14   10.66    1.71
   0   6 -14   30.56    2.57
  -1   6 -14   35.67    2.88
   1  -6  14   32.79    2.89
  -2   6 -14    0.66    1.67
   2  -6  14    4.58    1.69
   3  -6  14    6.13    1.93
   3   5 -14    2.62    1.20
  -3  -5  14   -0.47    1.34
   2   5 -14   11.52    1.67
  -2  -5  14    7.60    1.54
   1   5 -14   25.26    2.21
   0   5 -14   11.03    1.63
  -1   5 -14    0.97    1.30
   1  -5  14    2.49    1.51
  -2   5 -14    1.27    1.62
   2  -5  14    4.16    1.73
   3  -5  14   12.04    2.48
   4   4 -14    2.83    1.17
   3   4 -14    6.32    1.35
  -3  -4  14    2.92    1.37
   2   4 -14   47.75    2.66
  -2  -4  14   43.35    2.58
   1   4 -14   15.95    1.93
  -1  -4  14   18.23    1.73
   0   4 -14    0.66    1.09
   1  -4  14    6.42    1.83
   2  -4  14   13.67    2.29
   4   3 -14    2.83    1.15
   3   3 -14   32.04    2.24
  -3  -3  14   27.86    2.32
   2   3 -14   42.56    2.79
  -2  -3  14   41.00    2.36
  -1  -3  14    4.51    0.90
   1  -3  14   21.63    2.79
   2  -3  14   11.42    2.28
  -3  -2  14   30.02    2.25
   0  -2  14   24.30    2.73
   1  -2  14   19.69    2.78
   2  -2  14    5.47    2.10
   1   1 -14   20.38    1.88
   0  -1  14   19.91    2.51
   1  -1  14    3.54    2.02
   2  -1  14   -1.16    3.31
  -3   0  14    4.83    0.97
   2   0 -14    9.95    1.53
   1   0 -14   15.14    1.75
   0   0 -14    2.32    1.55
   0   0  14    1.27    1.82
   1   0  14    0.69    2.01
   3  -1 -14   16.15    2.68
   2  -1 -14   25.72    2.13
   1  -1 -14    4.59    1.15
   0  -1 -14    0.74    0.93
   0   1  14   -2.18    1.83
   2  -2 -14    7.35    1.48
   1  -2 -14   -0.46    0.94
  -1   2  14   -4.39    1.73
   0  -2 -14    6.86    1.32
   0   2  14    3.67    2.23
   0   9 -15   18.51    2.68
   1   8 -15   24.35    2.59
   0   8 -15    8.85    1.84
  -1   8 -15    0.48    1.55
   2  -8  15   13.28    2.68
   2   7 -15   31.56    2.68
   1   7 -15   18.04    2.34
   0   7 -15   -0.32    1.31
  -1   7 -15   29.72    2.95
  -2   7 -15   16.43    2.44
   2  -7  15   25.83    2.81
  -3  -6  15   18.04    2.48
   2   6 -15    9.97    1.62
  -2  -6  15    6.18    1.69
   1   6 -15    1.11    1.21
   0   6 -15   11.92    1.86
  -1   6 -15   21.66    2.65
  -2   6 -15    8.47    2.04
   2  -6  15   10.94    2.10
  -3  -5  15    6.70    1.74
   2   5 -15    1.87    1.12
  -2  -5  15   -1.89    1.15
   1   5 -15    8.96    1.53
   0   5 -15   25.39    2.39
   2  -5  15    3.16    1.84
   3   4 -15    1.83    1.09
  -3  -4  15   -1.05    1.27
   2   4 -15   10.84    1.59
  -2  -4  15   10.23    1.62
   1  -4  15    2.82    1.78
   2  -4  15    5.24    2.10
  -3  -3  15    4.63    1.45
  -2  -3  15   24.50    2.06
   1  -3  15    8.27    2.16
  -3  -2  15   17.63    2.73
  -2  -2  15   28.29    1.95
   1  -2  15   19.54    2.74
   1   1 -15    1.53    1.11
   0  -1  15    9.17    3.02
   1  -1  15    6.84    2.49
   2   0 -15    4.93    1.43
   1   0 -15    6.32    1.31
   0   0  15   12.43    2.43
   0   7 -16    9.96    1.97
   1   6 -16    8.99    1.60
   0   6 -16    2.74    1.48
  -1   6 -16    8.47    2.24
   2   5 -16    5.56    1.34
  -2  -4  16   -0.37    1.15
   0   0   0    0.00    0.00
;
_shelx_hkl_checksum              39017
loop_
_space_group_symop_operation_xyz
'x, y, z'
'-x, -y, -z'
loop_
_atom_site_label
_atom_site_type_symbol
_atom_site_fract_x
_atom_site_fract_y
_atom_site_fract_z
_atom_site_U_iso_or_equiv
_atom_site_adp_type
_atom_site_occupancy
_atom_site_site_symmetry_order
_atom_site_calc_flag
_atom_site_refinement_flags_posn
_atom_site_refinement_flags_adp
_atom_site_refinement_flags_occupancy
_atom_site_disorder_assembly
_atom_site_disorder_group
Gd1 Gd 0.87690(4) 0.88686(2) 0.09630(2) 0.02331(12) Uani 1 1 d . . . . .
O1W O 1.2531(7) 1.0124(4) 0.1910(4) 0.0386(10) Uani 1 1 d . . . . .
H1WA H 1.3527 0.9986 0.1450 0.058 Uiso 1 1 d R U . . .
H1WB H 1.2919 0.9946 0.2496 0.058 Uiso 1 1 d R U . . .
O2 O 0.8914(7) 0.9066(4) 0.3013(4) 0.0429(11) Uani 1 1 d . . . . .
O2W O 1.0859(8) 0.7366(4) 0.1028(5) 0.0523(13) Uani 1 1 d . . . . .
H2WA H 0.9840 0.6532 0.0665 0.078 Uiso 1 1 d R U . . .
H2WB H 1.2156 0.7452 0.0627 0.078 Uiso 1 1 d R U . . .
O3 O 0.5652(7) 0.7951(4) 0.1822(4) 0.0395(10) Uani 1 1 d . . . . .
O4 O -0.6457(8) 0.3159(4) 0.0536(4) 0.0456(11) Uani 1 1 d . . . . .
O5 O -0.5397(6) 0.1475(3) 0.0409(3) 0.0286(9) Uani 1 1 d . . . . .
O6 O -0.0659(6) 0.1041(3) 0.0608(3) 0.0312(9) Uani 1 1 d . . . . .
O7 O -0.2460(7) 0.0736(3) 0.1981(3) 0.0326(9) Uani 1 1 d . . . . .
N1 N 0.5864(15) 0.8666(6) 0.5792(5) 0.095(3) Uani 1 1 d . . . . .
O1 O 0.2306(12) 0.5529(6) 0.4412(5) 0.039(2) Uani 0.615(7) 1 d . . P A 1
C1 C 0.4575(18) 0.7500(10) 0.5611(8) 0.037(3) Uani 0.615(7) 1 d . . P A 1
H1 H 0.4303 0.7252 0.6228 0.045 Uiso 0.615(7) 1 calc R U P A 1
C2 C 0.3672(15) 0.6683(8) 0.4513(7) 0.027(2) Uani 0.615(7) 1 d . . P A 1
C3 C 0.4330(17) 0.6987(9) 0.3591(8) 0.025(2) Uani 0.615(7) 1 d . . P A 1
H3 H 0.3762 0.6415 0.2844 0.029 Uiso 0.615(7) 1 calc R U P A 1
O1A O -0.0216(19) 0.6555(9) 0.4082(10) 0.045(3) Uani 0.385(7) 1 d . . P A 2
C1A C 0.307(3) 0.8021(14) 0.5422(14) 0.045(5) Uani 0.385(7) 1 d . . P A 2
H1A H 0.2118 0.8129 0.5983 0.053 Uiso 0.385(7) 1 calc R U P A 2
C2A C 0.209(3) 0.7316(14) 0.4287(14) 0.035(4) Uani 0.385(7) 1 d . . P A 2
C3A C 0.328(4) 0.7385(16) 0.3430(15) 0.042(5) Uani 0.385(7) 1 d . . P A 2
H3A H 0.2586 0.6991 0.2662 0.051 Uiso 0.385(7) 1 calc R U P A 2
C4 C 0.5838(11) 0.8147(5) 0.3786(5) 0.0414(16) Uani 1 1 d . . . . .
C5 C 0.6711(13) 0.8879(6) 0.4912(6) 0.0518(19) Uani 1 1 d . . . . .
H5 H 0.7981 0.9571 0.5072 0.062 Uiso 1 1 calc R U . . .
C6 C -0.0890(14) 0.5379(6) 0.3213(7) 0.058(2) Uani 1 1 d . . . . .
H6 H -0.0723 0.6231 0.3607 0.070 Uiso 0.615(7) 1 calc R U P A 1
C7 C -0.2714(12) 0.4666(6) 0.2350(7) 0.052(2) Uani 1 1 d . . . . .
H7 H -0.3790 0.5048 0.2152 0.062 Uiso 1 1 calc R U . . .
C8 C -0.3021(10) 0.3390(5) 0.1759(5) 0.0295(13) Uani 1 1 d . . . . .
C9 C -0.1373(9) 0.2819(5) 0.2047(5) 0.0271(13) Uani 1 1 d . . . . .
C10 C 0.0493(11) 0.3536(6) 0.2916(5) 0.0387(15) Uani 1 1 d . . . . .
H10 H 0.1599 0.3169 0.3115 0.046 Uiso 1 1 calc R U . . .
C11 C 0.0700(14) 0.4792(7) 0.3481(6) 0.055(2) Uani 1 1 d . . . . .
H11 H 0.1957 0.5265 0.4066 0.066 Uiso 0.385(7) 1 calc R U P A 2
C12 C 0.6863(10) 0.8416(5) 0.2825(5) 0.0315(13) Uani 1 1 d . . . . .
C13 C -0.5068(9) 0.2627(5) 0.0849(5) 0.0288(13) Uani 1 1 d . . . . .
C14 C -0.1574(9) 0.1444(5) 0.1491(4) 0.0234(11) Uani 1 1 d . . . . .
O3W O 0.243(3) 0.5181(10) 0.0414(15) 0.178(5) Uani 1 1 d G . . . .
H3WA H 0.1435 0.5093 0.0848 0.267 Uiso 1 1 d G U . . .
H3WB H 0.2950 0.4535 0.0196 0.267 Uiso 1 1 d G U . . .
loop_
_atom_site_aniso_label
_atom_site_aniso_U_11
_atom_site_aniso_U_22
_atom_site_aniso_U_33
_atom_site_aniso_U_23
_atom_site_aniso_U_13
_atom_site_aniso_U_12
Gd1 0.02272(17) 0.02340(16) 0.02416(17) 0.01075(12) 0.00694(11) 0.00290(11)
O1W 0.027(2) 0.054(3) 0.034(2) 0.021(2) 0.0079(18) 0.0011(19)
O2 0.030(2) 0.061(3) 0.036(2) 0.025(2) 0.0044(19) -0.004(2)
O2W 0.042(3) 0.036(2) 0.074(4) 0.018(2) -0.002(2) 0.010(2)
O3 0.031(2) 0.051(3) 0.033(2) 0.021(2) 0.0074(19) -0.0053(19)
O4 0.045(3) 0.029(2) 0.060(3) 0.012(2) -0.001(2) 0.015(2)
O5 0.026(2) 0.0184(19) 0.034(2) 0.0050(16) -0.0011(17) 0.0018(15)
O6 0.029(2) 0.032(2) 0.029(2) 0.0066(18) 0.0110(18) 0.0066(17)
O7 0.040(2) 0.027(2) 0.034(2) 0.0148(18) 0.0143(19) 0.0059(17)
N1 0.129(7) 0.066(4) 0.030(3) -0.008(3) 0.028(4) -0.054(4)
O1 0.046(4) 0.030(4) 0.022(4) 0.010(3) -0.014(3) -0.019(3)
C1 0.041(6) 0.040(6) 0.015(5) 0.005(4) 0.005(4) -0.013(5)
C2 0.025(5) 0.024(4) 0.019(5) 0.003(4) -0.002(4) -0.007(4)
C3 0.025(5) 0.025(5) 0.017(5) 0.004(4) 0.003(4) 0.000(4)
O1A 0.045(7) 0.021(5) 0.050(8) 0.002(5) 0.016(6) -0.007(5)
C1A 0.065(12) 0.030(8) 0.019(8) -0.004(7) 0.021(8) -0.007(9)
C2A 0.038(9) 0.028(8) 0.032(9) 0.007(7) 0.005(7) 0.001(7)
C3A 0.057(13) 0.031(9) 0.021(9) 0.001(7) 0.004(9) -0.010(9)
C4 0.049(4) 0.032(3) 0.033(4) 0.007(3) 0.017(3) -0.005(3)
C5 0.060(4) 0.038(4) 0.038(4) 0.008(3) 0.015(3) -0.016(3)
C6 0.064(5) 0.026(3) 0.055(5) -0.009(3) 0.022(4) -0.011(4)
C7 0.044(4) 0.025(3) 0.070(5) 0.002(3) 0.018(4) -0.001(3)
C8 0.029(3) 0.023(3) 0.032(3) 0.006(2) 0.010(3) 0.002(2)
C9 0.024(3) 0.028(3) 0.020(3) 0.005(2) 0.010(2) -0.006(2)
C10 0.037(3) 0.040(3) 0.030(3) 0.015(3) 0.001(3) -0.008(3)
C11 0.063(5) 0.045(4) 0.023(3) 0.000(3) 0.013(3) -0.031(4)
C12 0.033(3) 0.033(3) 0.029(3) 0.014(3) 0.010(3) 0.004(3)
C13 0.026(3) 0.024(3) 0.034(3) 0.009(3) 0.012(3) 0.005(2)
C14 0.019(3) 0.026(3) 0.022(3) 0.007(2) 0.005(2) 0.002(2)
O3W 0.205(14) 0.105(7) 0.242(16) 0.077(9) 0.032(10) 0.058(8)
loop_
_atom_type_symbol
_atom_type_description
_atom_type_scat_dispersion_real
_atom_type_scat_dispersion_imag
_atom_type_scat_source
C C 0.0033 0.0016 'International Tables Vol C Tables 4.2.6.8 and 6.1.1.4'
H H 0.0000 0.0000 'International Tables Vol C Tables 4.2.6.8 and 6.1.1.4'
Gd Gd -0.1653 3.9035 'International Tables Vol C Tables 4.2.6.8 and 6.1.1.4'
N N 0.0061 0.0033 'International Tables Vol C Tables 4.2.6.8 and 6.1.1.4'
O O 0.0106 0.0060 'International Tables Vol C Tables 4.2.6.8 and 6.1.1.4'
loop_
_geom_angle_atom_site_label_1
_geom_angle_atom_site_label_2
_geom_angle_atom_site_label_3
_geom_angle
_geom_angle_site_symmetry_1
_geom_angle_site_symmetry_3
O1W Gd1 O6 78.64(14) . 2_665
O1W Gd1 O2W 76.24(15) . .
O6 Gd1 O2W 85.50(16) 2_665 .
O1W Gd1 O5 147.50(14) . 2_565
O6 Gd1 O5 81.13(13) 2_665 2_565
O2W Gd1 O5 127.18(14) . 2_565
O1W Gd1 O7 84.58(14) . 1_665
O6 Gd1 O7 114.90(12) 2_665 1_665
O2W Gd1 O7 148.74(17) . 1_665
O5 Gd1 O7 81.19(13) 2_565 1_665
O1W Gd1 O3 126.70(14) . .
O6 Gd1 O3 153.01(14) 2_665 .
O2W Gd1 O3 91.65(16) . .
O5 Gd1 O3 79.31(14) 2_565 .
O7 Gd1 O3 80.20(13) 1_665 .
O1W Gd1 O4 145.63(14) . 2_565
O6 Gd1 O4 80.70(14) 2_665 2_565
O2W Gd1 O4 75.01(15) . 2_565
O5 Gd1 O4 52.50(13) 2_565 2_565
O7 Gd1 O4 129.27(14) 1_665 2_565
O3 Gd1 O4 72.67(15) . 2_565
O1W Gd1 O2 73.94(13) . .
O6 Gd1 O2 150.75(14) 2_665 .
O2W Gd1 O2 78.34(17) . .
O5 Gd1 O2 127.98(13) 2_565 .
O7 Gd1 O2 72.70(14) 1_665 .
O3 Gd1 O2 52.76(13) . .
O4 Gd1 O2 117.53(15) 2_565 .
O1W Gd1 O6 73.41(13) . 1_665
O6 Gd1 O6 64.72(13) 2_665 1_665
O2W Gd1 O6 140.78(14) . 1_665
O5 Gd1 O6 75.02(12) 2_565 1_665
O7 Gd1 O6 50.20(11) 1_665 1_665
O3 Gd1 O6 126.51(13) . 1_665
O4 Gd1 O6 120.91(14) 2_565 1_665
O2 Gd1 O6 115.46(13) . 1_665
O1W Gd1 C13 159.38(15) . 2_565
O6 Gd1 C13 80.75(14) 2_665 2_565
O2W Gd1 C13 101.57(16) . 2_565
O5 Gd1 C13 25.89(14) 2_565 2_565
O7 Gd1 C13 104.83(15) 1_665 2_565
O3 Gd1 C13 73.54(15) . 2_565
O4 Gd1 C13 26.63(14) 2_565 2_565
O2 Gd1 C13 126.14(14) . 2_565
O6 Gd1 C13 98.27(14) 1_665 2_565
O1W Gd1 C12 100.02(16) . .
O6 Gd1 C12 170.02(14) 2_665 .
O2W Gd1 C12 84.58(18) . .
O5 Gd1 C12 104.09(15) 2_565 .
O7 Gd1 C12 74.61(15) 1_665 .
O3 Gd1 C12 26.69(15) . .
O4 Gd1 C12 95.63(17) 2_565 .
O2 Gd1 C12 26.08(15) . .
O6 Gd1 C12 124.61(14) 1_665 .
C13 Gd1 C12 100.17(16) 2_565 .
O1W Gd1 C14 76.13(14) . 1_665
O6 Gd1 C14 90.25(13) 2_665 1_665
O2W Gd1 C14 152.35(15) . 1_665
O5 Gd1 C14 78.79(13) 2_565 1_665
O7 Gd1 C14 24.79(13) 1_665 1_665
O3 Gd1 C14 103.91(14) . 1_665
O4 Gd1 C14 131.22(15) 2_565 1_665
O2 Gd1 C14 92.90(15) . 1_665
O6 Gd1 C14 25.55(12) 1_665 1_665
C13 Gd1 C14 104.68(15) 2_565 1_665
C12 Gd1 C14 99.07(15) . 1_665
Gd1 O1W H1WA 110.1 . .
Gd1 O1W H1WB 109.9 . .
H1WA O1W H1WB 108.8 . .
C12 O2 Gd1 92.0(4) . .
Gd1 O2W H2WA 109.3 . .
Gd1 O2W H2WB 109.2 . .
H2WA O2W H2WB 109.5 . .
C12 O3 Gd1 93.8(3) . .
C13 O4 Gd1 91.4(3) . 2_565
C13 O5 Gd1 95.3(3) . 2_565
C14 O6 Gd1 157.0(4) . 2_665
C14 O6 Gd1 87.6(3) . 1_445
Gd1 O6 Gd1 115.28(13) 2_665 1_445
C14 O7 Gd1 100.3(3) . 1_445
C5 N1 C1 118.1(7) . .
C5 N1 C1A 109.0(9) . .
C11 O1 C2 122.4(7) . .
N1 C1 C2 119.3(9) . .
N1 C1 H1 120.4 . .
C2 C1 H1 120.4 . .
C1 C2 O1 115.3(8) . .
C1 C2 C3 120.4(8) . .
O1 C2 C3 124.0(8) . .
C4 C3 C2 119.6(8) . .
C4 C3 H3 120.2 . .
C2 C3 H3 120.2 . .
C6 O1A C2A 120.3(10) . .
C2A C1A N1 121.1(13) . .
C2A C1A H1A 119.5 . .
N1 C1A H1A 119.5 . .
C3A C2A C1A 120.8(15) . .
C3A C2A O1A 122.5(15) . .
C1A C2A O1A 116.6(14) . .
C2A C3A C4 116.5(15) . .
C2A C3A H3A 121.7 . .
C4 C3A H3A 121.8 . .
C5 C4 C3 115.6(7) . .
C5 C4 C12 122.3(5) . .
C3 C4 C12 120.4(6) . .
C5 C4 C3A 120.4(8) . .
C12 C4 C3A 112.7(8) . .
N1 C5 C4 124.2(6) . .
N1 C5 H5 117.9 . .
C4 C5 H5 117.9 . .
C7 C6 C11 117.7(6) . .
C7 C6 O1A 138.7(9) . .
C11 C6 O1A 102.8(8) . .
C7 C6 H6 121.2 . .
C11 C6 H6 121.2 . .
C6 C7 C8 122.3(7) . .
C6 C7 H7 118.8 . .
C8 C7 H7 118.8 . .
C7 C8 C9 118.7(6) . .
C7 C8 C13 121.2(6) . .
C9 C8 C13 120.1(5) . .
C10 C9 C8 119.4(5) . .
C10 C9 C14 117.4(5) . .
C8 C9 C14 123.2(5) . .
C11 C10 C9 119.4(7) . .
C11 C10 H10 120.3 . .
C9 C10 H10 120.3 . .
O1 C11 C10 123.5(9) . .
O1 C11 C6 113.8(7) . .
C10 C11 C6 122.4(7) . .
C10 C11 H11 118.8 . .
C6 C11 H11 118.8 . .
O2 C12 O3 121.4(5) . .
O2 C12 C4 119.0(6) . .
O3 C12 C4 119.6(5) . .
O2 C12 Gd1 61.9(3) . .
O3 C12 Gd1 59.5(3) . .
C4 C12 Gd1 178.7(4) . .
O5 C13 O4 120.7(5) . .
O5 C13 C8 119.5(5) . .
O4 C13 C8 119.8(5) . .
O5 C13 Gd1 58.9(3) . 2_565
O4 C13 Gd1 61.9(3) . 2_565
C8 C13 Gd1 176.7(4) . 2_565
O7 C14 O6 121.2(5) . .
O7 C14 C9 118.3(4) . .
O6 C14 C9 120.1(5) . .
O7 C14 Gd1 54.9(3) . 1_445
O6 C14 Gd1 66.8(3) . 1_445
C9 C14 Gd1 165.1(4) . 1_445
H3WA O3W H3WB 109.5 . .
loop_
_geom_bond_atom_site_label_1
_geom_bond_atom_site_label_2
_geom_bond_distance
_geom_bond_site_symmetry_2
Gd1 O1W 2.358(4) .
Gd1 O6 2.366(4) 2_665
Gd1 O2W 2.403(4) .
Gd1 O5 2.421(4) 2_565
Gd1 O7 2.434(4) 1_665
Gd1 O3 2.447(4) .
Gd1 O4 2.486(4) 2_565
Gd1 O2 2.501(4) .
Gd1 O6 2.694(4) 1_665
Gd1 C13 2.816(6) 2_565
Gd1 C12 2.834(6) .
Gd1 C14 2.927(5) 1_665
O1W H1WA 0.8629 .
O1W H1WB 0.8626 .
O2 C12 1.247(7) .
O2W H2WA 0.9600 .
O2W H2WB 0.9600 .
O3 C12 1.275(7) .
O4 C13 1.263(7) .
O4 Gd1 2.486(4) 2_565
O5 C13 1.235(6) .
O5 Gd1 2.421(4) 2_565
O6 C14 1.264(6) .
O6 Gd1 2.366(4) 2_665
O6 Gd1 2.694(4) 1_445
O7 C14 1.247(6) .
O7 Gd1 2.434(4) 1_445
N1 C5 1.326(9) .
N1 C1 1.345(11) .
N1 C1A 1.63(2) .
O1 C11 1.344(9) .
O1 C2 1.374(11) .
C1 C2 1.365(13) .
C1 H1 0.9300 .
C2 C3 1.384(13) .
C3 C4 1.383(11) .
C3 H3 0.9300 .
O1A C6 1.382(11) .
O1A C2A 1.413(19) .
C1A C2A 1.38(2) .
C1A H1A 0.9300 .
C2A C3A 1.35(2) .
C3A C4 1.53(2) .
C3A H3A 0.9300 .
C4 C5 1.366(9) .
C4 C12 1.490(8) .
C5 H5 0.9300 .
C6 C7 1.363(11) .
C6 C11 1.380(11) .
C6 H6 0.9300 .
C7 C8 1.386(8) .
C7 H7 0.9300 .
C8 C9 1.404(8) .
C8 C13 1.485(8) .
C9 C10 1.383(8) .
C9 C14 1.495(7) .
C10 C11 1.372(9) .
C10 H10 0.9300 .
C11 H11 0.9300 .
C13 Gd1 2.816(6) 2_565
C14 Gd1 2.927(5) 1_445
O3W H3WA 0.8499 .
O3W H3WB 0.8498 .
loop_
_geom_torsion_atom_site_label_1
_geom_torsion_atom_site_label_2
_geom_torsion_atom_site_label_3
_geom_torsion_atom_site_label_4
_geom_torsion
_geom_torsion_site_symmetry_1
_geom_torsion_site_symmetry_4
C5 N1 C1 C2 -17.2(17) . .
N1 C1 C2 O1 -177.6(10) . .
N1 C1 C2 C3 8.8(17) . .
C11 O1 C2 C1 157.3(9) . .
C11 O1 C2 C3 -29.4(15) . .
C1 C2 C3 C4 -2.7(16) . .
O1 C2 C3 C4 -175.7(9) . .
C5 N1 C1A C2A 27.0(19) . .
N1 C1A C2A C3A -16(3) . .
N1 C1A C2A O1A 165.3(13) . .
C6 O1A C2A C3A 39(2) . .
C6 O1A C2A C1A -142.5(15) . .
C1A C2A C3A C4 7(3) . .
O1A C2A C3A C4 -174.2(13) . .
C2 C3 C4 C5 4.8(13) . .
C2 C3 C4 C12 170.2(8) . .
C2A C3A C4 C5 -11(2) . .
C2A C3A C4 C12 -167.1(14) . .
C1 N1 C5 C4 20.8(15) . .
C1A N1 C5 C4 -31.7(13) . .
C3 C4 C5 N1 -14.3(13) . .
C12 C4 C5 N1 -179.4(8) . .
C3A C4 C5 N1 26.3(15) . .
C2A O1A C6 C7 -135.6(13) . .
C2A O1A C6 C11 55.7(15) . .
C11 C6 C7 C8 0.8(11) . .
O1A C6 C7 C8 -166.8(10) . .
C6 C7 C8 C9 -1.0(10) . .
C6 C7 C8 C13 177.9(6) . .
C7 C8 C9 C10 0.5(8) . .
C13 C8 C9 C10 -178.4(5) . .
C7 C8 C9 C14 178.1(5) . .
C13 C8 C9 C14 -0.9(8) . .
C8 C9 C10 C11 0.1(8) . .
C14 C9 C10 C11 -177.5(5) . .
C2 O1 C11 C10 131.9(8) . .
C2 O1 C11 C6 -54.6(11) . .
C9 C10 C11 O1 172.6(6) . .
C9 C10 C11 C6 -0.3(10) . .
C7 C6 C11 O1 -173.7(7) . .
C7 C6 C11 C10 -0.2(11) . .
O1A C6 C11 C10 171.5(7) . .
Gd1 O2 C12 O3 0.9(6) . .
Gd1 O2 C12 C4 178.9(5) . .
Gd1 O3 C12 O2 -0.9(6) . .
Gd1 O3 C12 C4 -179.0(5) . .
C5 C4 C12 O2 21.6(10) . .
C3 C4 C12 O2 -142.7(8) . .
C3A C4 C12 O2 177.7(10) . .
C5 C4 C12 O3 -160.3(7) . .
C3 C4 C12 O3 35.4(10) . .
C3A C4 C12 O3 -4.2(12) . .
Gd1 O5 C13 O4 3.7(6) 2_565 .
Gd1 O5 C13 C8 -176.7(4) 2_565 .
Gd1 O4 C13 O5 -3.6(5) 2_565 .
Gd1 O4 C13 C8 176.8(5) 2_565 .
C7 C8 C13 O5 -173.7(5) . .
C9 C8 C13 O5 5.3(8) . .
C7 C8 C13 O4 6.0(9) . .
C9 C8 C13 O4 -175.0(5) . .
Gd1 O7 C14 O6 8.7(6) 1_445 .
Gd1 O7 C14 C9 -164.5(4) 1_445 .
Gd1 O6 C14 O7 178.0(6) 2_665 .
Gd1 O6 C14 O7 -7.7(5) 1_445 .
Gd1 O6 C14 C9 -9.0(12) 2_665 .
Gd1 O6 C14 C9 165.3(5) 1_445 .
Gd1 O6 C14 Gd1 -174.3(9) 2_665 1_445
C10 C9 C14 O7 81.8(6) . .
C8 C9 C14 O7 -95.8(7) . .
C10 C9 C14 O6 -91.5(7) . .
C8 C9 C14 O6 91.0(6) . .
C10 C9 C14 Gd1 23.1(16) . 1_445
C8 C9 C14 Gd1 -154.5(11) . 1_445
