#------------------------------------------------------------------------------
#$Date: 2019-11-24 10:01:59 +0200 (Sun, 24 Nov 2019) $
#$Revision: 237558 $
#$URL: file:///home/coder/svn-repositories/cod/cif/7/23/72/7237286.cif $
#------------------------------------------------------------------------------
#
# This file is available in the Crystallography Open Database (COD),
# http://www.crystallography.net/
#
# All data on this site have been placed in the public domain by the
# contributors.
#
data_7237286
loop_
_publ_author_name
'Wang, Sha-Sha'
'Chen, Xiao-Xian'
'Huang, Bo'
'Su, Yu-Jun'
'Zhang, Wei-Xiong'
'Zeng, Ming-Hua'
'Chen, Xiao-Ming'
_publ_section_title
;
 Bromocholine bromide is a molecular ferroelectric with moderate phase
 transition temperature
;
_journal_issue                   9
_journal_name_full               'Journal of Materials Chemistry C'
_journal_page_first              2221
_journal_paper_doi               10.1039/C8TC00419F
_journal_volume                  6
_journal_year                    2018
_chemical_formula_moiety         '0.5(C10 H26 Br2 N2), Br'
_chemical_formula_sum            'C5 H13 Br2 N'
_chemical_formula_weight         246.98
_chemical_name_common            'bromocholine bromide'
_chemical_name_systematic        '(2-Bromoethyl)trimethylammonium bromide '
_space_group_crystal_system      monoclinic
_space_group_IT_number           11
_space_group_name_Hall           '-P 2yb'
_space_group_name_H-M_alt        'P 1 21/m 1'
_atom_sites_solution_hydrogens   geom
_atom_sites_solution_primary     direct
_audit_creation_date             2017-10-03
_audit_creation_method
;
Olex2 1.2
(compiled 2017.08.10 svn.r3458 for OlexSys, GUI svn.r5381)
;
_audit_update_record
;
2018-01-24 deposited with the CCDC.
2018-02-07 downloaded from the CCDC.
;
_cell_angle_alpha                90
_cell_angle_beta                 109.395(9)
_cell_angle_gamma                90
_cell_formula_units_Z            2
_cell_length_a                   7.3865(6)
_cell_length_b                   8.6160(6)
_cell_length_c                   7.5120(6)
_cell_measurement_reflns_used    1521
_cell_measurement_temperature    353(2)
_cell_measurement_theta_max      28.1770
_cell_measurement_theta_min      2.8640
_cell_volume                     450.95(7)
_computing_molecular_graphics    'Olex2 (Dolomanov et al., 2009)'
_computing_publication_material  'Olex2 (Dolomanov et al., 2009)'
_computing_structure_refinement  'ShelXL (Sheldrick, 2015)'
_computing_structure_solution    'XS (Sheldrick, 2008)'
_diffrn_ambient_temperature      353
_diffrn_measured_fraction_theta_full 0.975
_diffrn_measured_fraction_theta_max 0.975
_diffrn_measurement_device_type  'multiwire proportional'
_diffrn_measurement_method       'phi and omega scans'
_diffrn_radiation_monochromator  graphite
_diffrn_radiation_type           MoK\a
_diffrn_radiation_wavelength     0.71073
_diffrn_reflns_av_R_equivalents  0.0299
_diffrn_reflns_av_unetI/netI     0.0243
_diffrn_reflns_Laue_measured_fraction_full 0.975
_diffrn_reflns_Laue_measured_fraction_max 0.975
_diffrn_reflns_limit_h_max       9
_diffrn_reflns_limit_h_min       -9
_diffrn_reflns_limit_k_max       10
_diffrn_reflns_limit_k_min       -8
_diffrn_reflns_limit_l_max       9
_diffrn_reflns_limit_l_min       -8
_diffrn_reflns_number            2838
_diffrn_reflns_point_group_measured_fraction_full 0.975
_diffrn_reflns_point_group_measured_fraction_max 0.975
_diffrn_reflns_theta_full        25.242
_diffrn_reflns_theta_max         25.997
_diffrn_reflns_theta_min         2.875
_exptl_absorpt_coefficient_mu    8.908
_exptl_absorpt_correction_type   none
_exptl_crystal_colour            colorless
_exptl_crystal_density_diffrn    1.819
_exptl_crystal_description       block
_exptl_crystal_F_000             240
_exptl_crystal_recrystallization_method
'Re-crystallisation from solvent: methanol'
_exptl_crystal_size_max          0.3
_exptl_crystal_size_mid          0.3
_exptl_crystal_size_min          0.3
_refine_diff_density_max         0.312
_refine_diff_density_min         -0.480
_refine_diff_density_rms         0.088
_refine_ls_extinction_method     none
_refine_ls_goodness_of_fit_ref   1.087
_refine_ls_hydrogen_treatment    constr
_refine_ls_matrix_type           full
_refine_ls_number_parameters     70
_refine_ls_number_reflns         921
_refine_ls_number_restraints     18
_refine_ls_restrained_S_all      1.121
_refine_ls_R_factor_all          0.0374
_refine_ls_R_factor_gt           0.0296
_refine_ls_shift/su_max          0.000
_refine_ls_shift/su_mean         0.000
_refine_ls_structure_factor_coef Fsqd
_refine_ls_weighting_details
'w=1/[\s^2^(Fo^2^)+(0.0438P)^2^+0.0292P] where P=(Fo^2^+2Fc^2^)/3'
_refine_ls_weighting_scheme      calc
_refine_ls_wR_factor_gt          0.0719
_refine_ls_wR_factor_ref         0.0748
_reflns_Friedel_coverage         0.000
_reflns_number_gt                771
_reflns_number_total             921
_reflns_threshold_expression     'I > 2\s(I)'
_cod_data_source_file            c8tc00419f2.cif
_cod_data_source_block           HT
_cod_original_cell_volume        450.95(6)
_cod_database_code               7237286
_shelx_shelxl_version_number     2014/7
_shelx_space_group_comment
;
The symmetry employed for this shelxl refinement is uniquely defined
by the following loop, which should always be used as a source of
symmetry information in preference to the above space-group names.
They are only intended as comments.
;
_shelx_estimated_absorpt_t_max   0.175
_shelx_estimated_absorpt_t_min   0.175
_olex2_refinement_description
;
1. Fixed Uiso
 At 1.2 times of:
  All C(H,H) groups
 At 1.5 times of:
  All C(H,H,H) groups
2. Restrained distances
 N1-C2 = N1-C3 = N1-C1 = N1-C4 = C4-C5
 1.5 with sigma of 0.01
 C2-C3 = C3-C1 = C1-C2 = C4-C2 = C4-C3 = C4-C1 = N1-C5
 2.48 with sigma of 0.02
3. Uiso/Uaniso restraints and constraints
Uanis(C3) \\sim Ueq: with sigma of 0.02 and sigma for terminal atoms of 0.02
4. Others
 Fixed Sof: C2(0.5) H2A(0.5) H2B(0.5) H2C(0.5) C3(0.5) H3A(0.5) H3B(0.5)
 H3C(0.5) C1(0.5) H1A(0.5) H1B(0.5) H1C(0.5) C4(0.5) H4A(0.5) H4B(0.5) C5(0.5)
 H5A(0.5) H5B(0.5) Br1(0.5)
5.a Secondary CH2 refined with riding coordinates:
 C4(H4A,H4B), C5(H5A,H5B)
5.b Idealised Me refined as rotating group:
 C2(H2A,H2B,H2C), C3(H3A,H3B,H3C), C1(H1A,H1B,H1C)
;
_shelx_res_file
;
    a.res created by SHELXL-2014/7

TITL a in P21/m #11
REM reset to P21/m #11
CELL 0.71073 7.3865 8.616 7.512 90 109.395 90
ZERR 2 0.0006 0.0006 0.0006 0 0.009 0
LATT 1
SYMM -X,0.5+Y,-Z
SFAC C H Br N
UNIT 10 26 4 2
DFIX 1.5 0.01 N1 C2 N1 C3 N1 C1 N1 C4 C4 C5
DFIX 2.48 C2 C3 C3 C1 C1 C2 C4 C2 C4 C3 C4 C1 N1 C5
ISOR 0.02 0.02 C3

L.S. 88
PLAN  6
SIZE 0.3 0.3 0.3
TEMP 0
BOND
MORE -1
BOND $H
CONF
fmap 2
acta
OMIT -3 52
OMIT 4 3 1
REM <olex2.extras>
REM <HklSrc "%.\\a.hkl">
REM </olex2.extras>

WGHT    0.043800    0.029200
FVAR       0.40205
PART -1
C2    1    0.262608    0.885475    0.436500    10.50000    0.04958    0.04992 =
         0.08314   -0.01424    0.03306    0.00479
AFIX 137
H2A   2    0.351626    0.872814    0.369110    10.50000   -1.50000
H2B   2    0.290259    0.980295    0.507547    10.50000   -1.50000
H2C   2    0.134207    0.889264    0.348420    10.50000   -1.50000
AFIX   0
C3    1    0.488240    0.724886    0.695173    10.50000    0.03546    0.16382 =
         0.06424   -0.03132    0.00789   -0.00074
AFIX 137
H3A   2    0.571702    0.736883    0.621678    10.50000   -1.50000
H3B   2    0.502104    0.622173    0.747526    10.50000   -1.50000
H3C   2    0.521489    0.799773    0.795490    10.50000   -1.50000
AFIX   0
C1    1    0.216824    0.605426    0.452824    10.50000    0.06262    0.06613 =
         0.08361    0.00254    0.04203   -0.00585
AFIX 137
H1A   2    0.083309    0.614359    0.379363    10.50000   -1.50000
H1B   2    0.235477    0.516954    0.534648    10.50000   -1.50000
H1C   2    0.290727    0.592838    0.370069    10.50000   -1.50000
AFIX   0
C4    1    0.149812    0.792218    0.682492    10.50000    0.04317    0.06334 =
         0.05089   -0.00544    0.01255    0.00417
AFIX  23
H4A   2    0.177385    0.896930    0.731438    10.50000   -1.20000
H4B   2    0.016757    0.788108    0.601335    10.50000   -1.20000
AFIX   0
C5    1    0.182410    0.679632    0.842691    10.50000    0.04756    0.08974 =
         0.05231   -0.00008    0.01950    0.00422
AFIX  23
H5A   2    0.306332    0.698167    0.938030    10.50000   -1.20000
H5B   2    0.179754    0.573942    0.797408    10.50000   -1.20000
AFIX   0
PART 0
N1    4    0.281099    0.750000    0.569571    10.50000    0.04263    0.09553 =
         0.04613    0.00000    0.00888    0.00000
PART -1
BR1   3   -0.021886    0.711126    0.948190    10.50000    0.05614    0.12558 =
         0.05719   -0.00786    0.02262   -0.00422

PART 0
BR2   3    0.330429    0.250000    0.754164    10.50000    0.05590    0.06593 =
         0.05184    0.00000    0.01620    0.00000
HKLF 4

REM  a in P21/m #11
REM R1 =  0.0296 for     771 Fo > 4sig(Fo)  and  0.0374 for all     921 data
REM     70 parameters refined using     18 restraints

END

WGHT      0.0438      0.0292

REM Highest difference peak  0.312,  deepest hole -0.480,  1-sigma level  0.088
Q1    1   0.3488  0.7500  1.0616  10.50000  0.05    0.31
Q2    1   0.1568  0.7500  0.8880  10.50000  0.05    0.26
Q3    1   0.0908  0.7500  0.9827  10.50000  0.05    0.26
Q4    1   0.0309  0.6575  0.3282  11.00000  0.05    0.23
Q5    1   0.1129  0.2500  0.8007  10.50000  0.05    0.22
Q6    1   0.4458  0.2500  0.7620  10.50000  0.05    0.22
;
_shelx_res_checksum              86341
_shelx_hkl_file
;
   0   0  -1   79.04    1.43
   0   0   1   80.48    1.43
   0   0  -2   14.76    0.33
   0   0   2   -0.01    0.05
   0   0  -3   64.02    1.33
   0   0   3   64.31    1.35
   0   0  -4  279.07    5.06
   0   0   4  281.33    5.11
   0   0  -5    1.02    0.41
   0   0   5    0.76    0.47
   0   0   6   98.98    2.25
   0   0   8    0.41    0.86
   0   0   9    0.29    1.12
   0   0  10    7.86    1.34
   0   1   1   38.28    0.77
   0  -1  -1   36.22    0.75
   0  -1   2  100.00    1.81
   0  -1  -2   98.62    1.89
   0   1  -2  100.78    1.80
   0   1   2   98.32    1.90
   0   1  -3  938.27    2.64
   0  -1  -3  952.83    3.16
   0   1   4  222.82    4.17
   0  -1  -4  219.85    4.12
   0   1  -4  222.42    4.03
   0  -1   4  221.55    4.05
   0   1  -5    3.55    0.41
   0  -1   5    3.60    0.46
   0   1   5    3.34    0.53
   0  -1  -5    4.23    0.49
   0   1  -6   15.80    0.75
   0   1   6   18.81    0.91
   0   1   7   96.61    2.20
   0  -1   7   57.34    1.70
   0  -1   8    9.43    1.05
   0   1   8    9.17    1.09
   0   1   9    3.96    1.29
   0  -1   9    3.52    1.07
   0  -1  10   -0.15    1.24
   0  -2   0 3032.70   51.25
   0   2   0 3043.96   51.26
   0   2   0 3039.08   51.29
   0  -2  -1  234.79    4.15
   0  -2  -1  240.59    4.20
   0   2   1  243.76    4.22
   0  -2  -2   91.87    1.83
   0  -2   2   93.75    1.66
   0   2   2   94.27    1.85
   0   2  -2   93.51    1.65
   0   2  -3   63.85    1.24
   0  -2   3   63.11    1.25
   0   2   3   65.23    1.46
   0  -2  -3   64.21    1.41
   0  -2  -4  203.61    3.86
   0  -2   5   -0.03    0.52
   0  -2   5   -0.01    0.33
   0   2  -5    0.19    0.32
   0  -2   6   72.59    1.78
   0   2  -6   74.33    1.71
   0   2   6   70.34    2.01
   0  -2   7    7.47    0.76
   0   2   7    5.62    0.96
   0  -2   8    0.58    0.76
   0   2   9    1.26    1.25
   0  -2   9    1.35    0.99
   0  -2  10    5.84    1.22
   0   3   0    0.06    0.14
   0  -3   0    0.34    0.13
   0   3   0    0.05    0.15
   0   3   0    0.32    0.13
   0   3   1   59.79    1.29
   0  -3  -1   63.87    1.22
   0  -3  -1   62.97    1.27
   0   3   1   60.75    1.20
   0   3   2    2.01    0.32
   0  -3  -2    1.87    0.30
   0  -3  -2    2.29    0.27
   0   3   3  693.32   12.12
   0  -3  -3  693.62   12.07
   0   3  -4   41.54    0.74
   0  -3   4   46.97    0.81
   0  -3   4   40.64    0.76
   0  -3  -4   42.71    1.04
   0  -3   5    5.28    0.42
   0  -3   5    6.54    0.51
   0   3  -5    5.49    0.41
   0   3   6    1.72    0.77
   0  -3   6    1.32    0.60
   0  -3   6    1.83    0.49
   0   3  -6    1.09    0.43
   0  -3   7   49.59    1.43
   0   3   7   50.21    1.85
   0   3   8    3.01    1.22
   0  -3   9    4.91    0.98
   0  -4   0  501.98    8.59
   0   4   0  495.72    8.67
   0   4   0  493.85    8.61
   0   4   0  505.54    8.60
   0  -4  -1   49.61    1.05
   0   4   1   48.87    1.11
   0  -4  -1   51.33    1.09
   0   4   1   50.50    1.03
   0   4  -1   46.18    0.90
   0   4   2  112.77    2.29
   0  -4  -2  112.07    2.25
   0  -4  -3   10.40    0.60
   0   4   3    9.60    0.63
   0  -4   4   89.42    1.26
   0  -4   4   90.46    1.24
   0  -4   4   91.37    1.24
   0  -4   5   -0.11    0.35
   0  -4   5   -0.08    0.31
   0  -4   5   -0.07    0.30
   0   4   5    0.28    0.63
   0  -4   6   41.04    1.13
   0   4   6   40.53    1.62
   0  -4   6   53.23    1.23
   0  -4   6   50.58    1.21
   0   4   7    2.94    1.02
   0  -4   7    3.69    0.68
   0  -4   7    3.41    0.67
   0  -4   7    2.82    0.60
   0   4   8    2.29    1.29
   0  -4   8    1.00    0.74
   0  -5  -1   87.52    1.79
   0   5  -1   85.32    1.62
   0   5  -1   89.23    1.63
   0   5   1   88.95    1.85
   0  -5  -2    2.08    0.43
   0   5   2    2.04    0.46
   0  -5  -2    2.40    0.36
   0  -5  -3  169.86    3.24
   0  -5  -3  169.29    3.33
   0   5   3  167.77    3.42
   0  -5  -4    4.82    0.56
   0   5   4    4.24    0.73
   0  -5  -5   15.16    0.82
   0   5   5   16.16    1.06
   0   5   6    0.41    0.92
   0  -5   6    0.05    0.27
   0   5   7   12.52    1.34
   0  -5   7   14.27    0.64
   0   5   8   -1.15    1.30
   0   6   0  141.05    2.56
   0   6   0  133.89    2.56
   0   6   0  129.63    2.64
   0   6   0  133.59    2.57
   0   6   1    2.20    0.43
   0   6   1    1.93    0.35
   0  -6  -1    2.27    0.42
   0   6  -1    2.07    0.24
   0   6  -1    2.09    0.24
   0  -6  -2   50.23    1.19
   0   6   2   49.24    1.37
   0  -6  -3   -0.14    0.42
   0   6   3    0.10    0.56
   0  -6  -4   33.91    1.11
   0   6   4   35.63    1.39
   0  -6  -5   -0.20    0.60
   0   6   5   -0.20    0.86
   0   6   6   21.86    1.37
   0   6   7    0.43    1.25
   0   7   0    0.01    0.42
   0   7   0   -0.02    0.39
   0   7   0   -0.02    0.39
   0   7   0   -0.09    0.38
   0   7  -1   63.37    1.59
   0   7   1   57.36    1.36
   0   7  -1   56.65    1.21
   0   7   1   56.88    1.45
   0   7  -1   59.98    1.23
   0   7  -2   -0.45    0.66
   0  -7  -2    0.35    0.55
   0   7   2   -0.60    0.57
   0  -7  -3   21.83    0.81
   0   7   4    0.58    0.84
   0  -7  -4    0.72    0.58
   0   7   5   14.65    1.21
   0   7   6   -0.56    1.10
   0   7   7    2.58    1.47
   0   8   0   24.10    0.81
   0   8   0   22.20    0.83
   0   8   0   24.15    0.79
   0   8   0   22.55    0.88
   0   8   1    2.55    0.47
   0   8   1    3.40    0.61
   0   8   1    3.48    0.61
   0   8  -1    3.23    0.68
   0   8  -1    2.78    0.34
   0   8  -1    2.86    0.35
   0   8   1    3.60    0.64
   0   8  -2   18.46    1.16
   0   8   2   17.09    0.97
   0   8   3    0.88    0.83
   0   8  -3    1.49    1.01
   0  -8  -3    0.64    0.47
   0  -8  -4    9.56    0.69
   0   8   5   -0.41    1.15
   0   8   6    4.00    1.45
   0   9   0    0.25    0.55
   0   9   0    0.38    0.53
   0   9   0    0.30    0.57
   0   9  -1   15.96    0.93
   0   9   1   17.68    0.92
   0   9   1   16.53    0.93
   0   9  -1   12.48    0.54
   0   9   1   14.23    0.84
   0   9  -2    0.16    0.84
   0   9   2    0.27    0.87
   0   9  -3    7.64    1.35
   0   9   3    6.56    1.15
   0   9   4    0.67    1.12
   0   9  -4    0.21    1.37
   0   9   5    4.04    1.37
   0  10   0    1.81    0.63
   0  10   0    2.01    0.74
   0  10   1   -0.29    0.82
   0  10  -1   -0.40    0.75
   0  10  -1    0.17    0.32
   0  10  -2    5.20    1.09
   0  10   2    6.19    1.08
   0  10   3   -0.22    0.97
   0  10  -3   -0.35    1.32
   0  10  -4    1.40    1.80
   0  10   4    2.09    1.19
   0  10  -5   -1.76    2.25
   0  10   5    0.42    1.33
   0  11  -1    2.40    0.90
   0  11   1    2.28    1.02
   0  11   2    0.92    1.17
   0  11  -2    0.15    1.09
   0  11   3    2.59    1.35
   0  11  -3    2.53    1.45
   0  11  -4    0.17    1.90
   0  11   4    0.76    1.44
   0  11  -5    1.93    2.44
  -1   0  10    2.32    1.24
  -1   0   9   20.55    1.40
  -1   0   8   17.29    1.16
  -1   0   6    3.88    0.64
   1   0  -5   63.55    1.48
  -1   0   5   61.96    1.51
   1   0  -4    3.01    0.35
  -1   0   4    3.26    0.37
   1   0  -3  860.46   14.81
  -1   0   3  868.87   14.85
   1   0  -2  630.07   10.79
   1   0  -1    5.53    0.20
  -1   0   1    5.50    0.21
  -1   0   0  133.61    2.34
  -1   0   0  136.47    2.34
   1   0   0  131.81    2.34
   1   0   0  126.86    2.33
  -1   0  -1 1822.79   30.60
   1   0   1 1801.62   30.59
   1   0   1 1809.52   30.59
  -1   0  -1 1798.32   30.61
   1   0   2  720.38   12.21
   1   0   2  712.90   12.20
   1   0   2  699.59   12.21
   1   0   3   76.99    1.64
  -1   0  -3   80.16    1.62
   1   0   3   78.99    1.64
  -1   0  -4   37.27    1.01
   1   0   4   38.11    1.08
   1   0   4   37.74    1.06
   1   0   5   25.61    0.94
   1   0   7   34.67    1.36
   1   0   8   16.79    1.23
   1   0   9    1.39    1.16
  -1   1  10    4.33    1.41
  -1  -1  10    2.44    1.25
  -1   1   9    2.81    1.20
  -1  -1   9    2.64    1.02
  -1  -1   8    5.51    0.92
  -1   1   7   19.00    1.11
   1   1  -6  232.41    4.37
  -1   1   5  187.59    3.76
   1  -1  -5  197.63    3.72
  -1  -1   5  193.50    3.70
  -1  -1   4    7.00    0.42
   1   1  -4    6.45    0.39
   1  -1  -4    6.33    0.46
   1   1  -3   15.50    0.48
  -1  -1   3   16.07    0.48
   1  -1  -3   16.96    0.53
  -1   1   3   12.89    0.49
   1   1  -2 1271.92   21.51
  -1   1   2 1254.80   21.60
   1  -1  -2 1264.38   21.56
  -1  -1   2 1274.88   21.51
   1   1  -1   38.53    0.59
   1   1  -1   35.76    0.42
  -1   1   1   36.51    0.48
   1  -1  -1   36.96    0.47
  -1  -1   0   45.57    0.91
   1   1   0   45.11    0.89
  -1   1   0   45.07    0.87
  -1  -1   0   45.64    0.90
   1   1   0   43.09    0.91
  -1  -1   0   46.26    0.90
   1  -1   0   45.41    0.87
  -1   1  -1  719.40   12.16
   1   1   1  691.02   12.23
   1   1   1  717.98   12.24
   1  -1   1  722.00   12.15
   1   1   1  708.85   12.25
  -1  -1  -1  715.36   12.24
  -1   1  -1  719.52   12.17
   1   1   2   18.48    0.53
   1  -1   2   16.92    0.46
   1   1   2   16.94    0.54
   1  -1   2   15.96    0.45
   1  -1   2   16.18    0.47
  -1  -1  -2   16.14    0.52
   1  -1   3   35.92    0.88
   1  -1   3   33.15    0.85
   1  -1   3   35.29    0.84
   1   1   3   34.95    0.94
  -1  -1  -3   35.89    0.94
   1   1   4  493.98    8.91
  -1  -1  -4  496.25    8.85
   1  -1   4  482.17    8.79
  -1  -1  -5  169.84    3.49
   1   1   5  191.50    3.66
   1  -1   5  184.83    3.51
   1   1   5  164.61    3.53
   1   1   6    0.30    0.67
   1  -1   6    0.05    0.60
   1  -1   7    1.68    0.75
   1  -1   8   15.93    1.14
   1   1   8   16.17    1.27
   1   1   9    1.87    1.21
   1  -1   9    1.26    1.09
   1  -1  10    0.72    1.26
  -1  -2  10    1.63    1.12
  -1  -2   9   14.62    1.21
  -1  -2   8   11.69    0.93
  -1   2   8   11.42    1.15
  -1   2   7    4.46    0.89
   1   2  -7    4.12    0.59
  -1  -2   7    3.83    0.69
   1   2  -6    5.44    0.51
  -1  -2   6    4.63    0.56
  -1   2   6    4.53    0.74
   1  -2  -5   86.34    1.35
   1   2  -5   86.71    1.12
   1  -2  -4   -0.15    0.37
  -1  -2   4    0.23    0.25
  -1  -2   3  400.38    7.00
   1  -2  -3  411.22    7.13
   1   2  -3  413.32    6.98
  -1  -2   2  710.59   12.20
   1  -2  -2  716.80   12.30
   1   2  -2  716.69   12.18
  -1   2   2  717.96   12.31
   1  -2  -1   39.20    0.83
  -1   2   1   38.19    0.84
  -1  -2   1   38.16    0.79
   1   2  -1   40.66    0.93
   1   2  -1   39.10    0.79
   1  -2   0   30.26    0.38
  -1   2   0   29.28    0.40
   1   2   0   30.32    0.53
  -1  -2   0   30.81    0.52
  -1  -2   0   -0.04    0.14
   1   2   0   30.39    0.45
  -1  -2   0   -0.24    0.15
   1   2   0   30.36    0.46
   1   2   1 1528.12   25.69
  -1   2  -1 1515.22   25.55
   1   2   1 1523.34   25.70
  -1  -2  -1 1513.43   25.71
  -1  -2  -1 1508.16   25.69
   1   2   1 1481.65   25.68
   1  -2   1 1510.70   25.55
   1  -2   2  297.44    5.20
   1   2   2  300.15    5.40
  -1  -2  -2  296.43    5.39
   1  -2   2  305.34    5.20
   1   2   2  301.69    5.38
  -1  -2  -3   31.71    0.89
   1  -2   3   28.60    0.72
   1   2   3   30.09    0.90
   1   2   3   32.07    0.92
  -1  -2  -4   56.80    1.14
   1  -2   4   61.50    1.03
   1  -2   4   55.82    0.98
   1   2   4   61.37    1.30
   1  -2   5   35.71    1.04
   1   2   5   32.53    1.17
   1  -2   5   40.88    1.12
   1  -2   5   42.97    1.15
   1  -2   6    1.02    0.54
   1  -2   6    1.27    0.67
   1  -2   6    1.24    0.73
   1   2   6    1.20    0.78
   1   2   7   28.81    1.45
   1  -2   8   12.16    1.00
   1   2   9    1.20    1.41
   1  -2   9   -0.41    1.02
  -1   3   9    2.17    1.36
  -1  -3   9    1.29    0.88
  -1   3   8    4.29    1.16
  -1   3   7    0.93    0.89
  -1  -3   7    1.44    0.61
   1   3  -7    2.07    0.51
   1   3  -6  117.70    2.33
  -1  -3   6  114.79    2.40
  -1   3   6  114.67    2.73
  -1  -3   5   76.34    1.15
   1   3  -5   77.78    1.07
   1   3  -4   21.08    0.49
   1  -3  -4   21.18    0.74
   1  -3  -3    6.17    0.48
  -1   3   3    6.38    0.50
  -1  -3   2  389.06    6.60
   1   3  -2  376.41    6.60
  -1   3   2  386.38    6.81
   1  -3  -2  388.78    6.76
  -1  -3   1  152.80    2.74
  -1   3   1  146.77    2.82
  -1  -3   1  153.29    2.74
   1  -3  -1  151.55    2.78
   1   3  -1  154.10    2.74
   1   3   0  353.00    6.44
  -1  -3   0  365.57    6.37
  -1  -3   0  369.31    6.42
   1   3   0  364.40    6.34
   1   3   0  359.48    6.35
   1   3   0  373.63    6.37
  -1   3   0  366.55    6.30
   1  -3   0  365.52    6.28
   1   3   1  130.98    2.47
   1   3   1  127.27    2.47
   1   3   1  134.70    2.47
  -1  -3  -1  133.30    2.47
  -1   3  -1  130.04    2.28
   1   3   1  140.02    2.51
   1  -3   1  126.73    2.27
  -1  -3  -2   18.51    0.63
   1   3   2   16.09    0.64
   1   3   2   19.01    0.64
  -1  -3  -2   18.06    0.62
   1  -3   2   15.28    0.35
   1  -3   3    0.60    0.19
  -1  -3  -3    0.40    0.40
   1   3   3    0.19    0.45
  -1  -3  -4  228.62    2.57
   1  -3   4  226.28    2.05
   1  -3   4  225.78    2.03
   1  -3   4  215.57    2.00
   1   3   5   84.09    2.12
   1  -3   5   85.71    1.77
   1  -3   5   88.73    1.79
   1  -3   5   77.28    1.72
   1  -3   6    2.57    0.58
   1  -3   6    3.14    0.64
   1   3   6    2.43    0.89
   1  -3   6    2.51    0.49
   1  -3   7    1.84    0.67
   1   3   7    1.97    1.06
   1  -3   7    3.18    0.78
   1  -3   7    2.60    0.77
   1  -3   8   12.67    0.86
   1   3   8    6.83    1.32
  -1  -4   8    2.39    0.79
  -1   4   8    3.47    1.26
  -1   4   7    4.66    1.02
  -1  -4   7    5.77    0.67
   1   4  -7    4.70    0.52
  -1   4   6    3.77    0.83
  -1  -4   6    4.09    0.51
   1   4  -6    3.82    0.41
  -1  -4   5   72.78    1.57
  -1   4   5   69.04    1.93
   1   4  -5   77.77    1.50
  -1  -4   4    0.28    0.23
   1   4  -4    0.20    0.20
   1  -4  -4    0.06    0.47
   1  -4  -3  106.24    2.03
  -1  -4   3  106.28    1.93
  -1   4   3  109.74    2.30
   1  -4  -3  111.83    2.24
   1   4  -3  106.43    1.92
   1  -4  -2  262.76    4.72
  -1   4   2  255.94    4.75
   1   4  -1   90.55    1.88
  -1   4   1   86.68    1.73
  -1  -4   1   84.88    1.63
   1   4  -1   83.54    1.62
   1   4  -1   86.92    1.64
   1  -4  -1   83.38    1.69
   1  -4   0    5.17    0.28
   1   4   0    4.71    0.32
  -1  -4   0    5.17    0.43
   1   4   0    5.15    0.30
  -1   4   0    5.27    0.29
   1   4   0    4.88    0.38
   1   4   0    5.59    0.35
   1   4   1  447.95    8.01
   1   4   1  467.03    7.99
  -1  -4  -1  461.71    8.01
   1   4   1  440.26    8.00
   1   4   1  458.15    8.01
  -1  -4  -2   38.93    1.06
   1   4   2   39.70    1.11
  -1  -4  -2   42.49    1.09
   1   4   2   41.82    1.11
  -1  -4  -3   23.14    0.86
   1   4   3   24.91    0.91
   1   4   3   23.63    0.94
   1  -4   4   38.93    0.70
   1  -4   4   39.06    0.69
   1  -4   5   33.02    0.84
   1   4   5   30.98    1.28
   1  -4   5   31.29    0.81
   1   4   6    1.03    0.89
   1  -4   6    0.95    0.46
   1  -4   7   12.75    0.75
   1   4   7   11.83    1.26
   1   4   8    5.79    1.39
   1  -4   8    5.72    0.81
  -1   5   8    6.19    1.37
  -1  -5   7    0.38    0.53
  -1  -5   7    0.89    0.52
  -1   5   7    0.34    0.98
  -1  -5   6   24.80    0.71
  -1   5   6   26.89    1.39
  -1   5   5   19.02    1.07
  -1  -5   5   16.50    0.45
   1  -5  -4   32.60    0.90
  -1   5   4   29.86    1.20
   1  -5  -3    3.95    0.49
  -1   5   3    3.39    0.58
   1  -5  -3    4.18    0.34
   1   5  -2  134.65    2.37
   1  -5  -2  123.90    2.36
  -1   5   2  138.41    2.68
   1   5  -2  131.30    2.36
   1  -5  -2  135.32    2.59
  -1   5   1   22.36    0.53
   1   5  -1   24.83    0.87
  -1   5   1   23.82    0.73
   1   5  -1   23.76    0.62
   1   5   0  113.22    2.33
   1   5   0  115.19    2.24
  -1   5  -1   51.26    0.96
   1  -5   1   48.32    0.94
   1   5   1   54.46    1.26
  -1   5  -1   49.19    0.97
   1   5   1   55.27    1.28
   1   5   1   58.13    1.28
   1   5   1   58.38    1.29
   1   5   2   51.34    1.32
   1   5   2   48.07    1.34
   1   5   3   11.05    0.77
  -1  -5  -3   11.47    0.70
   1   5   4   55.57    1.70
  -1  -5  -4   58.33    1.55
   1   5   5   17.35    1.17
   1  -5   6    3.88    0.33
   1   5   6    4.11    1.13
   1  -5   7    3.56    0.50
   1   5   7    3.82    1.26
  -1   6   8    0.37    1.42
  -1   6   7    6.79    1.22
   1  -6  -6    1.52    0.71
  -1   6   6    1.04    0.99
  -1   6   5   27.64    1.34
  -1   6   4    7.59    0.83
   1  -6  -4    8.36    0.53
  -1   6   3   49.73    1.40
   1  -6  -3   45.01    1.01
   1   6  -2   20.72    0.51
   1   6  -2   19.33    0.49
  -1   6   2   19.08    0.81
   1   6  -2   20.85    1.02
   1   6  -1   49.87    1.11
   1  -6  -1   49.86    1.17
  -1   6   1   48.98    1.02
   1   6  -1   50.57    1.11
  -1   6   0   18.37    0.61
   1   6   0   18.67    0.66
   1  -6   0   18.19    0.55
   1   6   0   19.35    0.65
  -1   6   0   15.96    0.60
  -1   6  -1   53.15    1.03
  -1  -6  -1   56.87    1.36
   1   6   1   62.63    1.39
   1   6   1   58.87    1.39
  -1   6  -1   51.10    1.04
  -1  -6  -2   15.18    0.73
   1   6   2   16.68    0.83
   1   6   3   34.50    1.28
  -1  -6  -3   36.96    1.14
  -1  -6  -4    8.64    0.74
   1   6   4    9.14    0.95
   1   6   5   11.72    1.09
   1   6   6    1.67    1.12
   1   6   7    5.50    1.41
  -1   7   7    1.16    1.32
  -1   7   6    2.49    1.14
  -1   7   5    2.39    0.94
   1  -7  -4   15.37    0.61
  -1   7   4   16.85    1.10
  -1   7   2   48.03    1.36
   1   7  -2   45.52    0.94
   1  -7  -2   48.21    1.28
   1   7  -2   44.75    0.95
   1   7  -1    1.02    0.37
  -1   7   1    1.22    0.52
   1   7  -1    1.07    0.65
  -1   7   1    1.05    0.28
   1   7  -1    0.80    0.34
   1  -7  -1    0.74    0.41
  -1   7   0   20.12    0.69
  -1   7   0   23.61    0.71
   1   7   0   20.68    0.78
   1   7   0   19.16    0.86
   1   7   0   21.52    0.77
   1  -7   0   19.78    0.64
  -1   7   0   20.39    0.71
   1   7   0   21.47    0.74
  -1   7  -1   23.76    0.96
   1   7   1   20.16    0.87
   1   7   1   20.18    0.88
   1   7   1   20.98    0.85
  -1   7  -1   17.99    0.49
  -1   7  -1   19.18    0.49
   1   7   1   22.86    0.83
  -1  -7  -2   39.74    1.20
   1   7   3    7.22    0.85
  -1  -7  -3    8.09    0.75
  -1  -7  -4    9.94    0.84
   1   7   4    9.13    1.04
   1   7   5    1.64    1.07
   1   7   6    0.81    1.24
  -1   8   6   -0.07    1.22
   1   8  -4    4.76    1.26
  -1   8   3   12.00    1.00
   1   8  -3   14.02    1.20
   1   8  -2    2.56    0.88
  -1   8   2    2.02    0.68
   1   8  -2    1.54    0.22
   1   8  -2    1.84    0.24
   1   8  -1   19.03    1.00
  -1   8   1   22.31    0.94
   1  -8  -1   18.27    0.76
   1   8  -1   18.34    0.71
   1   8  -1   19.62    0.71
  -1   8   1   18.68    0.89
  -1   8   0   10.62    0.57
   1   8   0   11.05    0.66
  -1   8   0    9.61    0.56
   1   8   0   10.78    0.68
  -1   8   0   10.49    0.63
   1   8   0    9.89    0.76
  -1   8  -1    8.98    0.73
   1   8   1    8.59    0.66
   1   8   1    7.66    0.66
   1   8   1    8.30    0.73
  -1   8  -1    7.02    0.30
   1   8   1    8.16    0.66
   1   8   2    3.96    0.75
  -1  -8  -2    3.73    0.65
  -1   8  -2    4.74    0.97
  -1  -8  -3   13.78    0.88
   1   8   5    4.32    1.33
   1   8   6    0.20    1.37
   1   9  -6    1.52    1.89
  -1   9   6    0.33    1.43
   1   9  -5    0.91    1.45
  -1   9   5    1.72    1.17
  -1   9   4    5.75    1.20
   1   9  -4    5.95    1.57
   1   9  -3    3.75    1.26
  -1   9   3    3.61    0.97
  -1   9   2    8.88    0.89
   1   9  -2   10.13    1.14
   1   9  -1    2.15    0.50
   1   9  -1    1.51    0.56
  -1   9   1    2.15    0.67
   1   9  -1    1.59    0.85
  -1   9   1    1.51    0.64
   1   9   0    8.81    0.77
   1   9   0    9.15    0.81
  -1   9   0    8.73    0.58
  -1   9   0   10.29    0.65
  -1   9   0    9.04    0.63
   1   9   0   10.43    0.74
  -1   9  -1    1.68    0.70
   1   9   1    2.16    0.72
   1   9   2    8.89    1.00
  -1   9  -2   10.79    1.12
   1   9   3    2.03    1.09
  -1   9  -3    2.31    1.40
   1   9   4    0.98    1.11
   1   9   5   -0.27    1.31
   1  10  -5    1.44    1.92
  -1  10   5    0.94    1.47
  -1  10   4    0.67    1.31
   1  10  -4    0.83    1.58
  -1  10   3    0.40    1.02
   1  10  -3    1.01    1.24
   1  10  -2    0.84    1.08
  -1  10   2    0.31    1.01
   1  10  -1    5.13    0.96
   1  10  -1    4.88    0.62
  -1  10   1    4.66    0.88
   1  10   0    2.35    0.76
  -1  10   0    2.32    0.49
   1  10   0    2.24    0.82
  -1  10   0    1.96    0.60
   1  10   1    2.62    0.92
  -1  10  -1    3.10    0.72
   1  10   2    0.89    1.00
  -1  10  -2    0.24    1.02
   1  10   3    1.44    1.11
  -1  10  -3    3.03    1.40
   1  10   4    0.71    1.23
  -1  10  -4    1.01    1.75
   1  11  -5   -2.57    2.30
  -1  11   4    0.38    1.54
   1  11  -4    0.14    1.88
  -1  11   3    0.58    1.32
   1  11  -3   -0.03    1.49
  -1  11   2    1.21    1.14
   1  11  -2    0.13    1.19
  -1  11   1    1.01    0.93
   1  11  -1    0.89    0.93
   1  11   0    3.40    0.91
   1  11   0    3.77    0.95
   1  11   1    0.44    0.99
   1  11   2    1.63    1.27
   1  11   3    0.49    1.43
   1  12   3    0.19    1.61
  -2   0  10    1.92    1.31
  -2   0   9    0.26    1.01
  -2   0   8   27.64    1.32
  -2   0   6   34.83    1.17
   2   0  -5  136.59    2.70
  -2   0   5  132.44    2.76
  -2   0   4    4.26    0.44
   2   0  -4    4.80    0.41
   2   0  -3   55.30    1.22
  -2   0   2  459.90    7.73
   2   0  -2  447.30    7.70
  -2   0   1 1563.91    3.82
  -2   0   1 1564.78    3.27
  -2   0   0    1.25    0.21
   2   0   0    1.29    0.19
  -2   0   0    1.54    0.21
  -2   0  -1   79.64    1.57
   2   0   1   74.89    1.51
  -2   0  -1   76.34    1.56
   2   0   2  172.29    3.20
   2   0   2  181.83    3.25
   2   0   2  173.74    3.19
   2   0   3  336.33    6.11
   2   0   3  340.49    6.07
   2   0   3  340.22    6.09
   2   0   4   10.17    0.66
   2   0   4    9.96    0.63
   2   0   4    9.14    0.64
   2   0   5  134.55    2.87
   2   0   7    1.05    0.86
   2   0   8    4.57    1.11
   2   0   9    8.02    1.37
  -2   1  10    0.40    1.26
  -2  -1  10    0.15    1.12
  -2  -1   9   10.70    1.18
  -2   1   9    9.35    1.26
  -2  -1   8   26.54    1.32
  -2   1   7    1.45    0.77
   2   1  -6    7.01    0.58
  -2  -1   5  293.02    5.51
   2  -1  -5  301.49    5.50
  -2   1   5  303.18    5.62
   2  -1  -4  558.45    2.82
   2   1  -4  559.97    2.63
  -2   1   3    0.15    0.30
   2  -1  -3    0.34    0.23
  -2  -1   3    0.24    0.27
   2   1  -3    0.17    0.24
   2  -1  -2  262.01    3.88
  -2   1   2  250.07    3.98
   2  -1  -2  245.47    3.93
   2   1  -2  245.21    3.91
  -2  -1   1  232.72    3.91
   2   1  -1  238.51    3.87
  -2   1   1  237.23    3.91
   2  -1  -1  240.61    3.89
  -2   1   1  234.52    3.79
   2   1  -1  232.55    3.97
   2  -1  -1  233.85    3.80
   2  -1   0  286.60    4.97
  -2   1   0  292.18    4.95
  -2  -1   0  283.36    5.03
  -2  -1   0  291.48    5.05
  -2   1   0  284.53    4.99
   2   1   0  288.96    5.01
  -2  -1  -1  414.18    7.32
  -2  -1  -1  423.33    7.33
  -2   1  -1  416.98    7.25
  -2  -1  -1  412.64    7.29
   2   1   1  412.97    7.27
   2  -1   1  412.72    7.21
   2   1   2  713.10    2.94
   2   1   2  696.45    2.87
  -2   1  -2  690.17    2.74
   2  -1   2  698.75    2.60
   2   1   3   14.54    0.65
   2  -1   3   13.92    0.58
   2   1   3   15.40    0.67
   2   1   3   14.22    0.65
   2  -1   3   14.48    0.57
   2  -1   3   14.42    0.58
   2   1   4    2.78    0.55
   2   1   4    3.04    0.60
   2   1   4    2.67    0.55
   2  -1   4    2.34    0.46
   2   1   5  102.18    2.45
   2  -1   5  109.26    2.37
   2  -1   5  113.91    2.41
   2  -1   6    8.05    0.70
   2   1   6   57.54    1.52
   2  -1   7    0.62    0.81
   2   1   8    3.20    1.20
   2  -1   8    2.73    0.98
   2  -1   9    0.32    1.15
  -2  -2  10    0.30    1.12
  -2  -2   9    0.16    0.92
  -2   2   8   23.86    1.44
  -2  -2   8   22.06    1.13
  -2   2   7   49.16    1.66
  -2  -2   7   46.34    1.42
  -2   2   6   24.06    1.10
   2   2  -6   25.10    0.86
  -2  -2   6   23.81    0.93
   2   2  -5  101.33    1.26
   2  -2  -5   97.70    1.44
  -2   2   4    8.82    0.56
   2  -2  -4    7.81    0.53
  -2  -2   4    8.01    0.49
  -2   2   3    0.47    0.36
  -2  -2   3    0.60    0.28
   2  -2  -3    0.34    0.32
   2   2  -3    0.23    0.24
  -2  -2   2  522.41    9.28
   2   2  -2  518.72    9.22
   2  -2  -2  537.39    9.14
   2   2  -2  556.97    9.45
   2  -2  -2  548.50    9.30
  -2   2   2  530.85    9.34
   2  -2  -1  897.09   15.49
  -2   2   1  877.99   15.52
   2   2  -1  911.44   15.48
   2   2  -1  949.36   15.64
  -2  -2   1  944.26   15.58
  -2  -2   1  893.95   15.52
  -2   2   1  896.86   15.34
  -2   2   0   24.12    0.50
   2  -2   0   24.63    0.47
  -2  -2   0   25.83    0.58
  -2  -2   0   -0.13    0.13
  -2  -2   0   -0.21    0.14
   2   2   0   25.34    0.61
   2   2   0   24.54    0.52
   2  -2   1    3.86    0.26
  -2  -2  -1    3.16    0.34
   2   2   1    4.02    0.33
  -2  -2  -1    3.96    0.36
  -2   2  -1    4.15    0.27
   2   2   1    3.65    0.33
  -2  -2  -2  170.76    3.29
  -2  -2  -2  170.21    3.24
  -2   2  -2  169.47    3.10
   2  -2   2  167.39    3.08
  -2   2  -2  162.34    3.12
   2   2   2  170.28    3.22
   2   2   2  170.06    3.20
   2   2   2  175.23    3.26
   2   2   3  225.36    2.01
   2   2   3  224.20    2.01
   2  -2   4    8.92    0.52
   2  -2   4    9.54    0.53
   2  -2   5  105.86    2.24
   2  -2   5  101.04    2.24
   2   2   5  101.44    2.50
   2  -2   5  106.07    2.27
   2   2   6   -0.21    0.83
   2  -2   6    0.45    0.58
   2   2   7    1.52    1.00
   2  -2   7    1.91    0.78
   2   2   8    4.03    1.25
   2  -2   8    4.33    0.97
   2  -2   9    6.38    1.13
  -2  -3  10    0.37    1.09
  -2   3   9    5.86    1.43
  -2  -3   9    5.84    1.02
  -2   3   8   15.90    1.31
  -2   3   7    0.32    0.92
   2   3  -7    1.07    0.54
  -2  -3   7    0.61    0.66
  -2   3   6   -0.06    0.73
   2   3  -6    0.12    0.42
  -2  -3   6    0.37    0.52
   2   3  -5   86.20    1.20
  -2  -3   5   83.90    1.31
   2   3  -4  359.54    6.39
   2  -3  -4  368.88    6.58
   2  -3  -3   30.45    0.88
  -2   3   3   28.66    0.94
  -2  -3   3   31.59    0.82
   2   3  -2   58.15    1.24
   2  -3  -2   59.54    1.33
  -2   3   2   60.61    1.37
   2   3  -2   63.09    1.49
  -2  -3   2   56.26    1.26
  -2  -3   1   85.85    1.84
  -2   3   1   85.34    1.76
   2   3  -1   94.32    1.94
  -2  -3   1   84.89    1.76
   2  -3  -1   88.18    1.74
   2   3  -1   90.02    1.75
  -2  -3   0  125.49    2.42
   2  -3   0  120.71    2.25
   2   3   0  116.58    2.41
  -2  -3   0  121.24    2.39
  -2  -3   0  123.54    2.38
   2   3   0  118.49    2.31
  -2   3   0  119.34    2.27
   2  -3   1  136.13    1.16
  -2  -3  -1  138.33    1.53
   2   3   1  141.96    1.47
   2   3   1  144.66    1.58
   2   3   1  140.05    1.44
  -2   3  -1  145.49    1.22
   2   3   2  453.23    8.04
  -2  -3  -2  464.66    8.10
   2   3   2  446.88    8.06
   2   3   2  450.87    8.11
  -2  -3  -3    4.20    0.51
   2  -3   3    4.60    0.34
   2  -3   3    4.30    0.33
   2   3   3    4.58    0.55
   2   3   3    4.51    0.57
   2  -3   4    0.32    0.36
   2  -3   4    0.20    0.41
   2   3   4   -0.37    0.14
   2  -3   5   25.48    0.86
   2   3   5   29.50    1.30
   2  -3   5   29.63    0.94
   2  -3   6   37.10    1.18
   2  -3   6   42.90    1.28
   2   3   6   38.93    1.60
   2   3   7   -0.99    1.10
   2  -3   8    3.29    0.85
  -2   4   9    0.64    1.40
  -2  -4   9    2.82    0.78
  -2  -4   8   10.04    0.91
  -2   4   8    9.80    1.39
  -2  -4   7   19.75    0.95
  -2   4   7   21.20    1.33
   2   4  -7   18.88    0.77
  -2  -4   6   13.08    0.74
  -2   4   6   10.86    1.10
   2   4  -6   14.15    0.63
  -2  -4   5   38.31    1.04
  -2   4   5   41.42    1.38
   2   4  -5   38.49    0.96
  -2   4   4   21.92    0.93
  -2  -4   4   21.28    0.68
   2   4  -4   20.69    0.63
   2  -4  -4   20.01    0.82
   2   4  -3   27.63    0.73
  -2   4   3   31.31    1.00
   2  -4  -3   30.36    0.92
   2  -4  -2  183.82    3.39
  -2   4   2  180.80    3.44
   2   4  -2  187.41    3.65
  -2  -4   2  172.27    3.29
   2   4  -1  265.82    4.92
  -2   4   1  252.80    4.70
  -2  -4   1  258.51    4.70
   2   4  -1  268.24    4.66
  -2  -4   1  256.56    4.70
   2  -4  -1  257.04    4.65
   2   4   0    0.71    0.41
  -2   4   0    0.28    0.26
  -2  -4   0    0.32    0.36
  -2  -4   0    0.42    0.36
   2   4   0    0.07    0.32
   2   4   0    0.76    0.31
   2   4   1   55.14    1.29
  -2  -4  -1   57.03    1.37
   2   4   1   56.24    1.35
   2   4   1   55.28    1.32
   2   4   1   53.12    1.35
  -2  -4  -1   53.97    1.38
  -2  -4  -2   59.57    1.48
   2   4   2   59.75    1.45
   2   4   2   59.59    1.52
  -2   4  -2   58.83    1.19
   2   4   2   61.35    1.48
   2  -4   2   60.21    1.19
  -2   4  -2   60.21    1.17
   2  -4   3   70.54    1.38
   2  -4   3   69.36    1.35
   2  -4   4    9.19    0.42
   2  -4   4    8.79    0.43
   2   4   4    9.75    0.84
   2   4   5   43.47    1.62
   2  -4   5   40.64    1.04
   2  -4   5   44.61    1.11
   2  -4   6    0.95    0.55
   2  -4   6   -0.05    0.51
   2   4   6    0.41    0.98
   2  -4   7    2.17    0.64
   2   4   7    2.60    1.19
  -2  -5   8    7.02    0.83
  -2   5   8    4.43    1.35
  -2  -5   7    4.45    0.66
  -2   5   7    4.00    1.11
   2   5  -7    4.29    0.49
   2   5  -6    5.66    0.42
  -2   5   6    6.03    1.00
  -2  -5   6    6.34    0.58
   2   5  -5   16.24    0.54
  -2  -5   5   16.27    0.62
  -2   5   5   18.45    1.08
   2   5  -4   88.00    1.74
   2  -5  -4   93.48    1.76
  -2   5   4   93.06    2.22
  -2  -5   4   86.50    1.77
   2   5  -3   20.02    0.58
  -2   5   3   21.58    0.89
   2  -5  -3   22.90    0.83
  -2  -5   3   18.80    0.61
   2   5  -3   22.81    1.04
  -2  -5   3   18.52    0.61
   2   5  -2   46.83    1.42
   2   5  -2   43.01    1.01
  -2   5   2   42.94    1.20
   2   5  -1   39.53    1.23
  -2  -5   0   55.32    1.37
   2   5   0   54.28    1.44
   2  -5   0   57.35    1.19
   2   5   0   54.02    1.33
  -2  -5   0   58.19    1.44
   2   5   1   41.11    1.09
   2   5   1   41.69    1.16
   2  -5   1   38.66    0.83
  -2   5  -1   40.75    0.88
   2   5   1   38.29    1.14
   2   5   1   42.14    1.11
   2   5   2  120.81    2.30
   2   5   2  119.36    2.27
   2   5   2  117.47    2.36
   2  -5   2  100.15    1.78
  -2   5  -2   94.37    1.78
  -2  -5  -3   10.58    0.77
   2   5   3   10.83    0.85
   2   5   4   11.55    0.95
   2  -5   4    7.67    0.25
   2   5   5    4.67    0.94
   2  -5   5    4.25    0.31
   2  -5   6   11.97    0.55
   2   5   6   12.00    1.28
   2   5   7   -0.45    1.24
  -2   6   8    1.21    1.31
  -2   6   7    7.20    1.26
  -2  -6   7    6.75    0.41
   2  -6  -6    7.85    0.65
  -2   6   6    7.16    1.09
  -2  -6   6    6.62    0.34
   2  -6  -5   10.02    0.51
  -2  -6   5    7.65    0.35
  -2   6   5   11.13    1.07
  -2  -6   5    8.25    0.34
  -2  -6   4   20.61    0.57
  -2   6   4   18.91    1.07
   2   6  -4   20.97    1.33
  -2  -6   4   18.53    0.55
   2   6  -3   27.16    0.71
   2   6  -3   24.95    0.69
  -2  -6   3   27.69    0.72
   2   6  -3   28.86    1.30
  -2   6   3   25.96    1.11
   2   6  -2   15.82    0.59
   2  -6  -2   15.62    0.72
  -2  -6   2   14.73    0.58
   2   6  -2   15.10    0.56
   2   6  -2   17.68    1.03
   2   6  -1   85.54    1.84
  -2   6   1   83.45    1.88
   2   6  -1   89.51    2.17
   2  -6  -1   88.18    1.83
   2   6  -1   91.02    1.84
   2   6   0   24.42    0.95
  -2   6   0   21.34    0.69
   2  -6   0   23.41    0.66
   2   6   0   24.03    0.82
   2  -6   1   28.09    0.65
   2   6   1   31.00    1.04
  -2  -6  -1   33.29    1.07
  -2   6  -1   29.02    0.68
  -2  -6  -2    7.07    0.69
   2   6   2    5.99    0.70
   2   6   3   21.97    1.12
   2   6   4    5.31    0.99
   2   6   5   14.11    1.18
   2   6   6    2.14    1.13
  -2   7   7    2.74    1.26
  -2   7   6    8.46    1.25
  -2   7   5    3.53    1.05
   2   7  -5    3.65    1.27
   2   7  -4   12.54    1.31
   2   7  -3    5.69    0.36
   2   7  -3    6.13    0.35
   2   7  -2   28.24    0.81
   2  -7  -2   25.02    0.91
   2   7  -2   24.77    0.77
  -2   7   2   26.32    0.99
  -2   7   1   15.90    0.74
   2   7  -1   15.37    0.68
   2  -7  -1   14.25    0.62
   2   7  -1   15.07    0.67
  -2   7   0   20.29    0.72
   2   7   0   20.37    0.86
  -2   7   0   21.28    0.66
   2  -7   0   20.97    0.66
   2   7   0   23.49    0.86
   2   7   0   21.89    0.99
   2   7   1   11.19    0.78
  -2  -7  -1   12.41    0.80
   2  -7   1    9.64    0.32
  -2   7  -1   12.45    0.38
  -2   7  -1   11.18    0.38
  -2  -7  -2   15.91    0.95
   2   7   3    5.40    0.94
   2   7   4   14.34    1.17
   2   7   5    1.68    1.17
   2   7   6    3.66    1.33
  -2   8   7    0.97    1.59
  -2   8   4    6.92    1.04
  -2   8   3   10.65    0.99
   2   8  -3   10.87    1.27
   2   8  -3    9.10    0.37
   2   8  -2    0.84    0.46
   2   8  -2    1.18    0.43
   2   8  -2    0.62    0.96
  -2   8   2    0.51    0.67
  -2   8   1   19.31    0.90
   2   8  -1   19.72    0.85
   2   8  -1   20.49    1.14
   2  -8  -1   18.66    0.78
   2   8  -1   20.89    0.81
  -2   8   0   12.94    0.63
  -2   8   0   13.07    0.52
   2   8   0   13.16    0.93
   2  -8   0   12.07    0.54
   2   8   0   13.89    0.82
   2   8   0   14.18    0.76
  -2   8  -1   14.64    0.81
   2   8   1   12.96    0.95
  -2   8  -1   10.41    0.33
   2   8   2    1.13    0.93
   2   8   5    3.50    1.41
  -2   9   6    0.45    1.37
   2   9  -6    3.55    1.75
  -2   9   5   -0.56    1.25
   2   9  -5    1.06    1.63
  -2   9   4    2.94    1.12
   2   9  -4    4.92    1.54
   2   9  -3    5.67    1.31
  -2   9   3    3.87    0.94
   2   9  -2    4.95    0.55
  -2   9   2    5.72    0.93
   2   9  -2    3.97    1.14
   2   9  -2    5.73    0.53
   2   9  -1    4.01    0.62
  -2   9   1    3.60    0.71
  -2   9   1    4.51    0.81
   2   9  -1    3.00    0.65
   2   9  -1    2.92    0.97
  -2   9   0    4.91    0.39
  -2   9   0    5.58    0.58
  -2   9   0    5.58    0.58
   2   9   0    4.81    0.78
   2   9   0    6.24    0.95
   2   9   1    2.11    0.86
  -2   9  -1    1.79    0.63
  -2   9  -2    5.05    1.04
   2   9   2    2.76    0.99
   2   9   3    1.49    1.05
   2   9   4    4.03    1.28
  -2  10   5    1.47    1.37
   2  10  -5   -0.56    1.85
  -2  10   4    0.79    1.27
   2  10  -4    0.39    1.66
   2  10  -3    2.87    1.50
  -2  10   3    4.86    1.25
   2  10  -2    0.48    1.15
   2  10  -2    0.71    0.51
  -2  10   2    0.46    0.95
   2  10  -1    1.54    0.97
  -2  10   1    1.82    0.81
   2  10  -1    2.39    0.75
   2  10   0    0.69    0.86
  -2  10   0    0.97    0.53
   2  10   0    1.08    0.92
  -2  10  -1    5.09    0.68
   2  10   1    6.05    1.04
  -2  10  -2    0.31    0.96
   2  10   2    1.37    1.03
  -2  10  -3    0.75    1.47
   2  10   3    1.33    1.38
   2  10   4    0.53    1.39
  -2  11   4    1.39    1.51
   2  11  -4    1.40    1.78
  -2  11   3    0.30    1.19
   2  11  -3    0.29    1.59
   2  11  -2    1.53    1.33
  -2  11   2    1.61    1.06
   2  11  -1    0.83    1.12
   2  11   0    1.26    1.01
   2  11   0    0.53    1.01
   2  11   1    0.28    1.11
   2  11   2    1.81    1.30
   2  11   3    1.43    1.52
   2  12  -3   -0.24    1.78
  -3   0  10   11.93    1.45
  -3   0   9    1.71    1.05
  -3   0   7   17.07    0.99
   3   0  -5   51.94    1.33
  -3   0   5   45.84    1.33
  -3   0   4  459.04    8.17
   3   0  -4  450.14    8.06
   3   0  -3  115.33    1.27
   3   0  -3  117.51    1.41
  -3   0   2   63.20    1.49
   3   0  -2   66.19    1.46
   3   0  -2   67.44    1.51
  -3   0   2   72.55    1.48
   3   0  -1  341.50    5.98
  -3   0   1  329.64    5.95
   3   0  -1  336.73    6.01
  -3   0   1  337.17    6.03
  -3   0   0  777.93   13.64
   3   0   0  797.06   13.65
  -3   0   0  800.99   13.72
  -3   0  -1  106.92    2.20
  -3   0  -1  107.65    2.22
  -3   0  -1  105.90    2.16
   3   0   1  108.39    2.14
  -3   0  -2   14.49    0.67
  -3   0  -2   15.54    0.69
   3   0   2   14.02    0.59
   3   0   3    0.28    0.47
  -3   0  -3    0.30    0.50
   3   0   3    0.07    0.47
   3   0   4   63.15    1.62
   3   0   6   66.28    1.96
   3   0   7    7.84    1.09
   3   0   8    0.08    1.18
  -3  -1  10   -0.72    1.21
  -3   1  10   -0.18    1.23
  -3  -1   9    1.89    1.05
  -3   1   8   21.04    1.34
  -3  -1   8   20.30    1.21
  -3   1   7   86.70    2.30
  -3  -1   6   61.79    1.69
  -3   1   6   66.26    1.77
   3   1  -6   61.41    1.56
  -3  -1   5    0.13    0.51
   3  -1  -5    0.42    0.45
   3   1  -5    0.14    0.41
  -3   1   5   -0.51    0.34
  -3  -1   4   86.71    1.97
   3  -1  -4   89.11    1.92
   3   1  -4   90.12    1.89
  -3  -1   3  874.41   15.05
  -3   1   3  885.55   15.09
   3   1  -3  864.33   14.96
   3  -1  -3  882.50   15.00
   3  -1  -3  873.12   14.97
   3   1  -3  818.57   15.11
  -3   1   2    4.70    0.40
   3   1  -2    5.18    0.36
   3  -1  -2    5.13    0.37
  -3   1   2    5.18    0.33
   3  -1  -2    4.53    0.32
  -3  -1   2    4.95    0.40
   3   1  -2    0.01    0.07
  -3  -1   2   -0.07    0.07
   3   1  -1  442.56    7.64
   3  -1  -1  450.06    7.65
  -3   1   1  429.32    7.57
   3  -1  -1  415.93    7.63
  -3  -1   1  435.08    7.66
  -3   1   1  423.81    7.67
  -3  -1   1  450.46    7.71
   3  -1   0   99.53    2.00
  -3  -1   0   99.47    2.06
   3   1   0  100.49    2.12
  -3   1   0  108.53    2.03
  -3  -1   0  101.09    2.12
  -3   1   0  104.50    2.08
   3   1   0   98.12    2.03
  -3  -1  -1  172.40    3.47
  -3  -1  -1  176.61    3.49
  -3  -1  -1  192.90    3.50
  -3   1  -1  186.29    3.47
   3   1   1  184.87    3.44
   3  -1   1  179.77    3.38
  -3  -1  -2  160.92    3.27
  -3   1  -2  167.28    3.24
   3   1   2  163.62    3.20
   3  -1   2  160.15    3.13
  -3  -1  -3  375.90    7.04
   3   1   3  378.04    6.97
   3  -1   3  377.08    6.88
  -3   1  -3  375.58    6.92
   3   1   4   -0.49    0.42
   3  -1   4   35.41    0.96
   3   1   5    0.82    0.68
   3  -1   6    2.70    0.78
   3  -1   7   12.58    1.10
   3   1   7   13.16    1.26
   3  -1   8   -0.12    1.07
   3   1   8   -0.36    1.18
   3  -1   9    1.86    1.26
  -3  -2  10    7.99    1.28
  -3  -2   9    0.67    1.02
  -3   2   9    0.82    1.26
  -3  -2   8    4.19    0.93
  -3   2   8    4.93    1.08
  -3   2   7    9.47    1.02
   3   2  -6   81.73    1.87
  -3   2   6   84.95    2.18
  -3  -2   5   51.26    1.11
   3   2  -5   47.44    0.99
  -3  -2   4  258.15    2.22
   3  -2  -4  261.22    2.20
   3   2  -4  254.92    1.97
   3  -2  -3   80.58    1.67
  -3   2   3   83.66    1.89
   3   2  -3   84.96    1.75
  -3  -2   3   78.69    1.80
   3  -2  -3   83.81    1.82
   3   2  -3   91.92    2.00
   3  -2  -2    0.21    0.21
  -3  -2   2    0.28    0.33
   3   2  -2    0.22    0.30
  -3   2   2    0.32    0.37
   3   2  -2    0.28    0.41
   3  -2  -2    0.28    0.31
  -3   2   1  215.12    4.04
  -3   2   1  218.20    3.87
   3  -2  -1  216.51    3.99
  -3  -2   1  215.51    4.05
   3   2  -1  203.05    4.15
   3   2  -1  230.02    4.01
   3  -2   0  622.40   10.80
   3   2   0  623.04   10.98
  -3   2   0  632.33   10.75
  -3  -2   0  618.76   10.90
  -3  -2   0  629.84   10.93
   3   2   0  620.92   10.83
  -3  -2   0  625.90   10.91
  -3   2   0  607.32   10.82
   3  -2   1   47.87    1.09
  -3  -2  -1   42.85    1.26
  -3  -2  -1   50.11    1.22
   3   2   1   45.90    1.13
  -3  -2  -1   40.57    1.25
  -3   2  -1   47.81    1.14
  -3  -2  -2   18.94    0.76
  -3   2  -2   18.85    0.65
  -3   2  -2   18.04    0.65
   3   2   2   17.91    0.70
   3   2   3   -0.01    0.05
   3  -2   3    3.43    0.48
   3   2   4   66.55    1.81
   3  -2   4   63.50    1.59
   3  -2   4   72.46    1.65
   3  -2   5    0.72    0.56
   3   2   5    1.20    0.76
   3  -2   5    0.76    0.60
   3   2   6   48.78    1.80
   3  -2   6   46.47    1.46
   3  -2   7    3.98    0.92
   3  -2   8    0.79    0.97
   3   2   8   -0.07    1.27
  -3  -3  10   -0.62    1.16
  -3  -3   9    2.13    1.00
  -3   3   9    1.14    1.27
  -3  -3   8    8.97    0.91
  -3   3   8    7.50    1.21
  -3  -3   7   51.67    1.57
  -3   3   7   53.95    1.83
  -3  -3   6   13.54    0.82
   3   3  -6   13.93    0.67
  -3   3   6   15.74    1.04
  -3  -3   5    7.90    0.62
   3   3  -5    6.23    0.50
   3   3  -4   37.84    0.84
   3  -3  -4   39.40    0.99
   3  -3  -3  294.28    4.93
  -3   3   3  307.20    5.08
  -3  -3   3  307.99    4.95
   3   3  -2    3.00    0.37
   3  -3  -2    3.07    0.37
   3   3  -2    3.33    0.55
  -3   3   2    2.68    0.44
  -3  -3   2    3.06    0.38
  -3   3   1  296.38    5.57
   3  -3  -1  306.29    5.53
  -3  -3   1  311.48    5.64
   3   3  -1  319.23    5.75
  -3  -3   1  306.52    5.62
   3   3  -1  310.55    5.53
   3  -3   0    3.75    0.37
  -3  -3   0    6.22    0.47
  -3  -3   0    5.66    0.45
   3   3   0    4.49    0.51
  -3  -3   0    3.68    0.43
   3   3   0    3.88    0.40
  -3   3   0    3.93    0.39
  -3  -3  -1   56.64    1.08
   3   3   1   54.34    1.00
  -3   3  -1   55.02    0.91
   3  -3   2   36.55    0.72
   3   3   2    0.03    0.20
  -3  -3  -2   -0.01    0.20
   3   3   2   36.70    0.92
  -3  -3  -2   39.71    0.97
  -3   3  -3  209.87    1.98
   3  -3   3  209.61    1.90
   3  -3   3  214.11    1.90
   3   3   4    8.65    0.87
   3  -3   4    8.93    0.62
   3  -3   4    8.06    0.57
   3  -3   5    2.38    0.57
   3  -3   5    2.26    0.56
   3   3   5    1.85    0.87
   3  -3   6    5.07    0.66
   3   3   6    0.95    1.01
   3  -3   7    6.34    0.87
   3   3   7    7.89    1.34
  -3  -4   9   -0.64    1.04
  -3   4   9    0.81    1.38
  -3   4   8    2.97    1.19
  -3  -4   8    5.63    0.73
  -3   4   7    0.65    0.97
  -3  -4   7    1.72    0.71
   3   4  -7    1.71    0.54
  -3  -4   6   50.62    1.41
   3   4  -6   49.04    1.26
  -3   4   6   53.00    1.77
  -3   4   5   22.12    1.10
   3   4  -5   20.93    0.76
  -3  -4   5   21.16    0.87
  -3   4   4   80.14    1.75
   3   4  -4   76.60    1.36
   3  -4  -4   72.31    1.15
  -3  -4   4   75.37    1.45
   3   4  -3   14.03    0.58
   3  -4  -3   13.58    0.69
  -3   4   3   14.14    0.77
  -3   4   2   49.46    1.31
   3  -4  -2   46.40    1.19
   3   4  -2   50.57    1.50
  -3  -4   2   47.87    1.24
  -3   4   1   40.17    1.07
  -3  -4   1   37.68    1.07
   3   4  -1   40.48    1.26
  -3  -4   1   39.77    1.14
  -3   4   1   37.06    0.77
  -3  -4   1   38.76    1.10
   3   4  -1   42.74    1.05
   3   4   0  248.39    4.93
  -3  -4   0  255.49    4.86
  -3  -4   0  262.64    4.88
  -3  -4   0  252.62    4.90
   3   4   0  269.85    4.79
  -3   4  -1    2.65    0.39
   3   4   1    3.75    0.55
  -3  -4  -1    2.22    0.50
  -3  -4  -1    2.97    0.52
   3  -4   1    3.21    0.38
   3   4   1    2.60    0.46
   3  -4   2   28.01    0.80
   3   4   2   27.75    1.03
  -3   4  -2   28.72    0.79
  -3   4  -2   28.65    0.79
  -3  -4  -2   28.39    1.02
   3  -4   3    7.21    0.48
   3  -4   3    6.66    0.44
  -3   4  -3    7.13    0.48
   3   4   3    8.16    0.80
   3  -4   4   36.43    1.01
   3   4   4   38.83    1.46
   3  -4   5    1.42    0.52
   3  -4   5    1.20    0.53
   3   4   5    0.66    0.93
   3   4   6   16.71    1.46
   3  -4   6   16.59    0.82
   3  -4   7    6.25    0.71
   3   4   7    2.62    1.27
  -3   5   8    2.74    1.25
  -3  -5   8    2.35    0.85
  -3   5   7   16.12    1.34
   3   5  -7   13.96    0.72
  -3  -5   7   15.71    0.95
  -3   5   6    0.33    0.90
  -3  -5   6    0.26    0.59
   3   5  -6    0.19    0.43
   3   5  -5   23.05    0.76
   3   5  -5   23.37    1.28
  -3   5   5   24.38    1.23
  -3  -5   5   22.37    0.86
  -3  -5   4    3.52    0.48
   3   5  -4    3.83    0.77
   3   5  -4    2.62    0.40
  -3   5   4    2.84    0.74
   3   5  -3  102.63    2.10
  -3   5   3  105.55    2.37
   3  -5  -3  107.82    2.28
   3   5  -3  111.02    2.64
  -3  -5   3   98.69    2.17
   3   5  -2    0.32    0.40
   3   5  -2   -0.15    0.70
  -3   5   2   -0.01    0.48
  -3  -5   1   85.44    2.00
  -3  -5   1   85.73    1.92
   3  -5  -1   83.48    1.80
   3   5  -1   85.94    2.12
  -3  -5   1   82.36    1.93
   3   5   0    0.03    0.58
  -3  -5   0    0.54    0.50
   3  -5   0    0.50    0.35
  -3   5   0    0.32    0.36
  -3  -5   0    0.30    0.52
   3   5   0    0.56    0.53
  -3  -5  -1   46.40    1.42
  -3  -5  -1   49.22    1.40
   3  -5   1   48.72    1.11
   3   5   1   48.49    1.38
   3   5   1   48.18    1.32
  -3   5  -1   48.70    1.14
   3  -5   2    5.06    0.38
  -3   5  -2    5.73    0.40
   3   5   2    5.40    0.75
  -3   5  -2    4.76    0.40
   3  -5   3   62.06    1.31
   3  -5   3   57.20    1.22
   3   5   3   59.87    1.77
   3  -5   4    0.07    0.33
   3   5   4    0.34    0.90
   3  -5   5    7.30    0.57
   3   5   5    6.39    1.19
   3  -5   5    6.30    0.47
   3   5   6    0.05    1.15
   3  -5   6   -0.01    0.50
  -3   6   8    2.93    1.42
  -3   6   7    0.87    1.19
  -3  -6   7    0.41    0.58
   3  -6  -6   14.02    0.59
  -3   6   6   14.38    1.24
  -3  -6   6   13.87    0.74
   3   6  -6   12.09    1.29
  -3   6   5    0.96    0.88
   3   6  -5    0.95    0.40
   3   6  -5    1.19    0.96
  -3  -6   5    0.60    0.49
   3   6  -4   27.47    0.82
  -3  -6   4   27.63    0.87
  -3   6   4   28.64    1.28
   3   6  -4   29.57    1.51
  -3  -6   4   27.30    0.89
  -3  -6   3    0.85    0.44
   3   6  -3    0.89    0.41
   3   6  -3    1.15    0.88
  -3  -6   3    0.57    0.46
  -3  -6   2   44.51    1.23
   3  -6  -2   42.95    1.23
   3   6  -2   48.69    1.68
  -3  -6   2   43.45    1.23
   3   6  -2   48.62    1.22
   3   6  -1    0.80    0.46
   3   6  -1    1.02    0.68
  -3   6   1    1.33    0.50
   3  -6  -1    0.96    0.44
  -3   6   0   60.28    1.43
   3   6   0   61.85    1.76
   3  -6   0   61.53    1.36
   3   6   0   63.52    1.54
  -3   6  -1    0.03    0.36
   3   6   1    0.38    0.60
   3  -6   1    0.20    0.31
   3  -6   2   27.78    0.70
   3   6   2   32.79    1.30
  -3   6  -2   34.17    0.77
  -3   6  -2   34.35    0.76
   3  -6   3    0.26    0.11
   3   6   3    0.12    0.79
   3   6   4   10.37    1.11
   3   6   5   -0.21    1.06
   3   6   6    5.09    1.34
  -3   7   7    3.27    1.34
   3   7  -7    3.23    1.35
  -3   7   6   -0.09    1.15
  -3  -7   6    0.19    0.36
   3   7  -6   -0.03    1.14
  -3  -7   6    0.56    0.36
  -3   7   5   14.62    1.24
  -3  -7   5   17.74    0.68
   3   7  -5   15.92    1.39
  -3  -7   5   15.99    0.66
  -3  -7   4    0.16    0.46
   3   7  -4   -0.56    1.07
   3   7  -4   -0.20    0.40
   3   7  -3   29.34    0.92
  -3  -7   3   30.85    0.97
  -3   7   3   29.65    1.26
   3   7  -3   31.46    1.57
   3   7  -3   32.94    1.01
  -3   7   2    2.43    0.70
   3  -7  -2    2.01    0.58
   3   7  -2    2.31    0.56
  -3  -7   2    2.03    0.55
   3   7  -2    1.93    0.52
   3   7  -2    3.21    0.92
  -3   7   1   12.80    0.75
   3  -7  -1   12.28    0.64
   3   7  -1   12.88    0.76
   3   7  -1   14.22    0.74
   3   7   0    0.73    0.62
  -3   7   0    0.58    0.45
   3  -7   0    0.40    0.37
   3  -7   1   25.44    0.69
  -3   7  -1   30.41    0.78
   3   7   2    0.65    0.78
   3   7   3   12.04    1.15
   3   7   4    0.29    1.09
   3   7   5    5.58    1.36
   3   8  -7   -0.42    1.48
  -3   8   7    0.06    1.45
   3   8  -6    1.59    1.38
   3   8  -5    0.01    0.13
  -3   8   5   -0.20    1.16
   3   8  -4    7.57    0.48
  -3   8   4    7.77    1.15
   3   8  -3    1.07    0.52
  -3   8   3    0.48    0.87
   3   8  -2   21.56    0.89
  -3   8   2   20.54    1.12
   3   8  -2   20.06    1.40
   3   8  -2   20.13    0.91
   3  -8  -1    0.09    0.47
  -3   8   1    0.75    0.62
   3   8  -1    0.15    0.83
   3   8  -1    0.40    0.66
   3   8  -1    0.44    0.58
  -3   8   0   15.01    0.72
   3   8   0   16.40    1.21
  -3   8   0   13.00    0.47
   3  -8   0   13.20    0.58
   3   8   0   15.32    0.96
  -3   8  -1    0.65    0.30
   3   8   1    0.75    0.77
   3   8   2   11.61    1.15
   3   8   4    2.69    1.36
   3   9  -6    1.04    1.65
  -3   9   6   -0.62    1.47
   3   9  -5    4.35    1.63
  -3   9   5    5.16    1.37
   3   9  -4    0.92    1.41
  -3   9   4    0.06    1.12
   3   9  -3    6.06    0.62
   3   9  -3    5.26    1.48
  -3   9   3    6.06    1.13
   3   9  -2    0.25    0.61
   3   9  -2    0.10    0.59
   3   9  -2    0.40    1.07
  -3   9   2    0.15    0.87
   3   9  -1    4.84    0.86
  -3   9   1    3.59    0.80
   3   9  -1    3.61    1.00
  -3   9   0   -0.17    0.58
   3   9   0   -0.49    0.91
   3   9   0    0.80    1.06
  -3   9   0   -0.01    0.15
   3   9   1    7.79    1.10
  -3   9  -1    7.74    0.78
   3   9   2    0.18    1.04
   3   9   3    2.69    1.32
   3   9   4   -0.71    1.44
   3  10  -5    0.45    1.79
  -3  10   5   -0.03    1.46
   3  10  -4    2.45    1.71
  -3  10   4    1.88    1.28
   3  10  -3   -1.32    1.52
  -3  10   3    0.28    1.15
   3  10  -2    6.94    0.80
   3  10  -2    5.16    1.37
  -3  10   2    6.90    1.13
   3  10  -1    0.27    0.86
  -3  10   1   -0.20    0.80
   3  10  -1    0.35    1.22
   3  10   0    3.77    1.04
   3  10   0    3.29    1.14
   3  10   1    0.77    1.02
   3  10   2    1.06    1.19
   3  10   3    0.37    1.30
   3  11  -4    0.04    1.95
  -3  11   4   -0.10    1.38
   3  11  -3    1.38    1.60
  -3  11   3    0.38    1.40
   3  11  -2   -0.82    1.48
   3  11  -1   -0.17    1.25
   3  11   0    0.39    1.09
   3  11   1    1.52    1.22
   3  11   2    0.44    1.46
   3  12  -2    0.23    1.66
  -4   0  10    2.57    1.34
  -4   0   9   17.88    1.46
  -4   0   7   33.93    1.44
  -4   0   6    4.64    0.75
  -4   0   5   40.79    1.24
   4   0  -5   36.37    1.20
   4   0  -5   39.19    1.18
   4   0  -4   53.05    1.36
   4   0  -4   53.05    1.43
  -4   0   3  383.45    7.23
   4   0  -3  406.36    7.25
   4   0  -3  402.93    7.14
   4   0  -2  604.63   10.48
   4   0  -2  601.53   10.57
  -4   0   2  597.54   10.45
  -4   0   2  582.95   10.63
  -4   0   1    0.67    0.42
   4   0  -1    0.58    0.35
   4   0  -1    0.66    0.39
  -4   0   1    0.48    0.32
  -4   0   0   92.38    2.00
  -4   0   0   95.33    2.11
   4   0   0   97.98    2.03
  -4   0  -1  189.57    3.61
  -4   0  -1  189.32    3.65
  -4   0  -1  181.01    3.67
   4   0   1  178.71    3.54
  -4   0  -2   86.56    2.06
  -4   0  -2   81.93    1.90
  -4   0  -2   79.66    1.99
   4   0   2   79.89    1.83
  -4   0  -3   35.61    1.26
   4   0   4   30.10    1.18
   4   0   6   -0.16    0.91
   4   0   7    9.38    1.21
  -4  -1  10    6.20    1.43
  -4   1  10    6.15    1.38
  -4  -1   9    5.12    1.15
  -4  -1   8   -0.74    0.89
  -4   1   8    0.47    1.01
  -4   1   7   13.03    1.06
  -4   1   6  162.13    3.54
  -4  -1   5  148.08    2.15
   4   1  -5  153.85    1.93
   4   1  -5  142.25    2.12
  -4  -1   4    5.96    0.62
   4   1  -4    6.10    0.52
   4  -1  -4    5.59    0.51
   4   1  -4    5.72    0.64
   4  -1  -4    5.76    0.54
  -4   1   3    1.37    0.46
   4  -1  -3    0.67    0.39
   4   1  -3    0.28    0.48
   4   1  -3    0.93    0.38
   4  -1  -3    0.96    0.41
   4   1  -2  273.54    4.91
   4  -1  -2  275.93    4.91
  -4   1   2  259.92    4.79
   4  -1  -2  262.09    4.89
   4   1  -2  267.44    5.05
  -4  -1   2  270.91    4.92
   4   1  -1    4.00    0.42
   4  -1  -1    3.21    0.42
  -4   1   1    3.70    0.36
  -4  -1   1    4.10    0.44
  -4  -1   1    4.43    0.55
  -4   1   1    4.14    0.53
   4  -1   0  351.22    6.50
  -4   1   0  367.51    6.50
  -4  -1   0  363.68    6.57
  -4  -1   0  371.05    6.69
  -4   1   0  365.10    6.63
   4   1   0  362.33    6.53
  -4  -1  -1  247.58    4.70
  -4   1  -1  250.38    4.62
  -4  -1  -1  244.26    4.64
  -4  -1  -1  243.29    4.74
  -4   1  -1  253.76    4.70
   4   1   1  239.95    4.58
   4  -1   1  243.79    4.56
  -4   1  -2    5.87    0.71
  -4  -1  -2    6.13    0.71
  -4   1  -2    5.65    0.62
   4   1   2    5.45    0.57
  -4  -1  -3    7.61    0.80
   4   1   3   10.43    0.74
   4  -1   3    8.82    0.73
   4  -1   3    8.71    0.66
   4   1   4   94.45    2.34
   4   1   5   26.66    1.31
   4  -1   5   27.45    1.20
   4  -1   6    0.97    0.90
   4   1   6   -0.08    1.00
   4  -1   7    0.44    1.01
   4   1   7    1.96    1.22
   4  -1   8    1.11    1.20
  -4  -2  10    0.09    1.21
  -4  -2   9   15.03    1.28
  -4   2   9   15.65    1.47
  -4  -2   8    5.43    0.98
  -4   2   8    5.49    1.08
  -4  -2   7   22.90    1.19
  -4   2   7   23.03    1.32
  -4   2   6    2.85    0.77
  -4  -2   5   33.18    1.08
   4  -2  -5   28.48    0.79
  -4  -2   4   15.71    0.75
   4   2  -4   16.85    0.67
   4  -2  -4   16.91    0.72
  -4   2   3  349.97    2.99
   4   2  -3  345.41    2.59
   4  -2  -3  351.10    2.71
  -4  -2   3  334.18    2.88
   4   2  -2  297.12    5.28
  -4   2   2  279.47    5.37
  -4  -2   2  293.57    5.35
   4  -2  -2  282.73    5.27
  -4  -2   2  282.50    5.39
  -4  -2   1   -0.01    0.04
   4   2  -1    1.27    0.42
   4  -2  -1    1.13    0.40
  -4  -2   1    0.98    0.42
  -4   2   1    1.45    0.46
   4  -2   0   18.28    0.71
  -4  -2   0   18.62    0.79
  -4   2   0   18.32    0.76
   4   2   0   19.70    0.74
  -4  -2  -1   -0.03    0.37
  -4  -2  -1  181.17    1.94
  -4   2  -1  193.96    1.95
  -4  -2  -1   -0.01    0.36
   4   2   1  182.23    1.84
   4  -2   2   41.79    1.15
  -4  -2  -3   30.18    1.22
  -4   2  -3   29.47    1.09
   4   2   3   28.04    1.14
   4  -2   3   29.31    1.01
   4  -2   3   31.33    1.01
   4   2   4   24.31    1.20
   4  -2   4   25.94    0.98
   4   2   5    5.83    0.98
   4  -2   5    5.17    0.79
   4  -2   6    0.14    0.84
   4   2   6    0.67    1.09
   4   2   7    7.74    1.36
   4  -2   7    8.15    1.07
   4  -2   8    3.87    1.17
  -4  -3  10    4.33    1.30
  -4  -3   9    1.74    1.09
  -4   3   9    3.18    1.34
  -4  -3   8    1.13    0.93
  -4   3   8    0.72    1.11
  -4  -3   7   -2.15    0.64
  -4   3   7    4.94    1.02
  -4  -3   6   68.30    1.84
  -4   3   6   65.40    1.98
   4   3  -6   65.90    1.66
   4   3  -5   78.86    2.12
   4   3  -5   87.35    1.87
   4  -3  -5   73.97    1.71
  -4   3   5   89.49    2.17
   4  -3  -4   33.36    0.78
  -4  -3   4   33.08    1.04
   4  -3  -3    0.09    0.46
  -4  -3   3    0.15    0.46
   4  -3  -3    0.63    0.30
   4   3  -3    0.18    0.42
  -4   3   3    0.26    0.51
   4   3  -3    0.02    0.06
   4   3  -2  116.66    1.76
  -4   3   2  114.32    1.93
   4  -3  -2  116.96    1.80
  -4   3   2  115.57    1.47
  -4  -3   2  115.65    1.87
  -4  -3   2  116.49    1.94
  -4   3   1    9.72    0.63
   4  -3  -1    8.72    0.56
  -4   3   1    8.90    0.41
  -4  -3   1    9.11    0.60
  -4  -3   1    9.65    0.68
   4   3  -1   10.58    0.58
  -4  -3   0   -0.60    0.38
  -4   3   0  187.61    1.58
  -4  -3   0  173.00    1.88
   4   3   0   -0.03    0.36
  -4  -3   0   -0.45    0.38
   4   3   0  166.85    1.73
  -4   3   0  172.76    1.81
  -4  -3  -1   -0.01    0.17
  -4  -3  -1    0.01    0.17
   4  -3   2   21.25    0.70
   4   3   2   -1.23    0.30
  -4   3  -2   21.31    0.78
  -4  -3  -2   -0.77    0.25
  -4   3  -2   21.43    0.82
   4   3   3    5.41    0.78
   4  -3   3    4.75    0.54
  -4   3  -3    5.36    0.66
   4  -3   3    5.45    0.62
   4   3   4   37.62    1.51
   4  -3   4   34.91    1.14
   4  -3   4   39.71    1.19
   4   3   5   15.63    1.25
   4  -3   6    1.71    0.80
   4   3   6    1.54    1.15
   4  -3   7    1.28    0.88
  -4  -4   9    8.46    1.19
  -4   4   9    7.63    1.48
  -4  -4   8    3.37    0.94
  -4   4   8    3.47    1.25
  -4  -4   7    8.39    0.75
  -4   4   7   11.84    1.24
   4   4  -6    2.34    0.57
  -4  -4   6    2.88    0.73
   4  -4  -6    1.94    0.40
   4   4  -6    2.60    0.84
  -4   4   6    2.10    0.92
  -4   4   5   24.68    1.23
   4  -4  -5   23.15    0.71
   4   4  -5   22.78    1.21
   4   4  -5   23.63    0.85
  -4  -4   5   23.94    1.04
   4  -4  -4   -0.10    0.22
   4   4  -4    0.21    0.44
  -4   4   4    0.28    0.64
   4   4  -3  138.12    1.89
  -4   4   3  144.03    2.24
   4  -4  -3  135.24    1.96
  -4  -4   3  128.52    2.01
  -4   4   2   52.90    1.57
   4  -4  -2   59.02    1.47
  -4  -4   2   57.95    1.55
  -4   4   1   18.91    0.81
  -4  -4   1   19.77    0.88
   4   4  -1   22.29    1.01
  -4   4   1   19.60    0.57
  -4  -4   1   19.92    0.89
  -4  -4   1   20.85    0.91
   4   4  -1   19.50    0.78
   4   4   0    0.90    0.47
  -4  -4   0    1.52    0.58
  -4   4   0    0.99    0.36
   4   4   0    0.36    0.67
   4  -4   0    0.59    0.41
  -4  -4   0    1.87    0.62
   4  -4   1   93.98    1.97
  -4  -4  -1   86.19    2.18
   4   4   1   97.51    2.27
  -4   4  -1   92.20    2.01
   4  -4   2   13.30    0.68
  -4  -4  -2   12.15    0.97
  -4   4  -2   12.70    0.70
   4   4   2   12.35    0.90
  -4   4  -2   12.77    0.70
   4  -4   3   21.44    0.85
  -4   4  -3   19.97    0.85
   4   4   3   20.24    1.15
   4  -4   3   20.49    0.80
   4  -4   4   14.65    0.79
   4  -4   4   12.30    0.71
   4   4   4   13.75    1.10
   4  -4   5    4.37    0.76
   4  -4   5    3.15    0.65
   4   4   5    3.26    1.08
   4   4   6    1.00    1.27
  -4   5   8    3.78    1.29
  -4  -5   7    0.21    0.78
   4   5  -7    0.97    0.89
  -4   5   7    0.19    1.10
   4   5  -6   21.04    0.86
   4  -5  -6   16.19    0.59
   4   5  -6   18.57    1.26
  -4   5   6   23.29    1.39
  -4  -5   6   20.83    1.05
   4   5  -5   13.43    0.70
   4  -5  -5   10.80    0.36
   4   5  -5   14.74    1.15
  -4   5   5   16.18    1.11
  -4  -5   5   13.62    0.86
   4   5  -4   31.82    1.02
  -4   5   4   32.29    1.32
   4   5  -4   34.77    1.49
  -4  -5   4   30.19    1.12
   4   5  -3    2.95    0.52
   4   5  -3    2.72    0.90
  -4   5   3    2.70    0.75
  -4  -5   3    2.34    0.60
   4   5  -2   48.45    1.30
   4  -5  -2   47.20    1.30
   4   5  -2   48.34    1.71
  -4  -5   1    7.82    0.70
   4  -5  -1    8.04    0.59
   4   5  -1    6.60    0.82
  -4   5   1    7.21    0.32
  -4  -5   1    7.57    0.71
  -4   5   0   51.81    1.18
   4   5   0   49.46    1.64
   4  -5   0   49.70    1.29
  -4   5   0   49.34    1.33
  -4  -5  -1   26.84    1.18
   4  -5   1   26.76    0.86
   4   5   1   27.66    1.20
  -4   5  -1   26.54    0.95
   4  -5   2   21.09    0.81
  -4   5  -2   20.93    0.79
   4   5   2   18.59    1.09
  -4   5  -2   19.65    0.80
   4   5   3   -0.07    0.89
  -4   5  -3   -0.02    0.50
   4  -5   3    0.03    0.41
   4  -5   3    0.20    0.48
   4   5   4   12.21    1.21
   4  -5   4   11.69    0.62
   4  -5   5    2.49    0.58
   4   5   5    2.76    1.13
   4   6  -8    1.92    1.04
  -4   6   8    0.91    1.50
  -4  -6   7    5.95    0.84
   4  -6  -7    3.71    0.34
   4   6  -7    4.00    1.19
  -4   6   7    5.66    1.27
  -4  -6   6    1.22    0.71
   4   6  -6    0.43    0.52
   4   6  -6    1.13    1.10
  -4   6   6    0.09    1.06
   4   6  -5   14.41    1.37
  -4  -6   5   13.51    0.87
  -4   6   5   15.10    1.16
   4   6  -4    0.96    1.07
   4   6  -4    2.16    0.54
  -4   6   4    1.26    0.79
  -4  -6   4    1.61    0.64
   4   6  -3   23.95    0.90
  -4  -6   3   21.04    0.95
   4   6  -3   25.16    1.44
  -4  -6   3   20.04    0.95
   4   6  -2   10.57    0.72
  -4   6   2    9.86    0.75
  -4  -6   2   10.96    0.85
   4   6  -2   11.23    1.13
  -4  -6   2    8.92    0.79
   4  -6  -2   10.74    0.71
  -4   6   1   37.32    1.26
   4  -6  -1   41.49    1.16
   4   6  -1   40.29    1.56
   4  -6   0    1.49    0.50
  -4   6   0    1.36    0.53
  -4  -6   0    3.12    0.71
  -4   6   0    1.57    0.35
   4   6   0    1.06    0.82
   4   6   0    1.32    0.67
  -4  -6  -1   20.78    1.16
   4  -6   1   19.99    0.78
   4   6   1   20.93    1.10
  -4   6  -1   20.68    0.80
   4   6   2    5.32    0.94
  -4   6  -2    5.38    0.53
  -4   6  -2    5.27    0.55
   4   6   3    9.94    1.09
   4  -6   3    9.30    0.47
   4  -6   4    4.05    0.40
   4   6   4    5.31    1.12
   4   6   5    2.40    1.31
   4   7  -7    0.79    1.27
  -4   7   7    0.35    1.35
  -4  -7   6    7.72    0.77
   4   7  -6    6.78    1.35
  -4  -7   6    6.61    0.79
  -4   7   6    7.21    1.31
   4   7  -5    0.59    0.53
  -4  -7   5    0.15    0.61
   4   7  -5   -0.61    1.19
  -4  -7   5    0.54    0.67
   4   7  -4   12.27    0.74
  -4   7   4   11.81    1.08
  -4  -7   4   11.08    0.82
   4   7  -4   13.38    1.47
  -4  -7   4   11.87    0.85
  -4  -7   3    4.14    0.73
   4   7  -3    4.32    0.62
   4   7  -3    5.54    1.19
  -4   7   3    5.12    0.88
  -4  -7   3    4.43    0.72
  -4   7   2   16.32    0.94
  -4  -7   2   15.65    0.91
   4   7  -2   17.63    1.36
   4   7  -2   18.18    1.03
  -4   7   1    3.15    0.69
   4   7  -1    3.08    0.77
   4   7  -1    3.70    1.03
   4  -7  -1    3.62    0.59
  -4  -7   0   10.45    0.94
  -4   7   0   11.42    0.49
   4  -7   0   10.80    0.62
   4   7   0   11.38    0.96
  -4   7   0   10.51    0.74
  -4   7  -1    2.54    0.54
   4  -7   1    2.62    0.46
  -4   7  -2    8.79    0.48
  -4   7  -2    9.23    0.53
   4   7   2    7.14    1.03
   4   7   3    2.81    1.09
   4   7   4    5.51    1.33
   4   8  -6    0.44    1.41
  -4  -8   5    6.64    0.74
   4   8  -5    4.61    1.52
   4   8  -5    5.83    0.74
  -4   8   5    6.17    1.24
   4   8  -4    2.27    0.77
  -4  -8   4    1.33    0.69
   4   8  -4    0.92    1.44
  -4   8   4    1.15    1.10
  -4  -8   3    5.02    0.76
   4   8  -3    4.79    0.77
   4   8  -3    4.81    0.70
  -4   8   3    4.65    1.05
  -4  -8   2    0.39    0.56
  -4   8   2    2.03    0.83
   4   8  -2    1.77    0.74
  -4   8   1   19.78    1.01
   4  -8  -1   18.69    0.84
   4   8  -1   20.00    1.16
   4  -8   0    1.03    0.50
   4   8   0    1.32    0.88
  -4   8   0    0.78    0.57
   4   8   0    1.05    1.18
  -4   8   0    0.66    0.31
   4  -8   1    3.52    0.41
  -4   8  -1    4.32    0.51
   4   8   1    4.05    1.01
   4   8   4    1.12    1.37
  -4   9   6    1.17    1.47
   4   9  -5   -1.47    1.74
  -4   9   5   -0.85    1.29
   4   9  -4    3.73    0.72
   4   9  -4    4.56    1.64
  -4   9   4    4.17    1.14
   4   9  -3    0.79    0.79
   4   9  -3   -1.51    1.44
  -4   9   3   -0.44    1.00
  -4   9   2    3.76    0.93
   4   9  -2    3.17    1.35
   4   9  -2    4.40    0.91
  -4   9   1    0.74    0.79
   4   9  -1    0.92    1.18
   4   9  -1    2.26    0.97
  -4   9   0    2.63    0.72
   4   9   0    2.66    1.11
   4   9   0    1.79    0.99
   4   9   1    0.82    1.15
   4   9   2    2.46    1.24
   4   9   3    0.84    1.45
  -4  10   5    1.55    1.51
   4  10  -4    1.06    1.80
  -4  10   4    1.95    1.33
   4  10  -3    1.30    1.61
  -4  10   3    2.20    1.27
  -4  10   2   -0.72    1.07
   4  10  -2    0.34    0.92
   4  10  -2   -0.84    1.56
  -4  10   1    1.98    0.87
   4  10  -1    2.71    1.02
   4  10  -1    3.53    1.51
   4  10   0    0.08    1.09
   4  10   1    0.88    1.29
   4  10   2   -0.20    1.52
  -4  11   4    0.67    1.56
   4  11  -3    0.42    1.85
   4  11  -2    0.85    1.60
   4  11  -1    0.20    1.51
   4  11   0   -0.20    1.32
   4  11   1   -0.30    1.53
  -5   0  10    1.04    1.30
  -5   0   9    1.52    1.09
  -5   0   7    7.63    1.02
  -5   0   6   38.84    1.48
  -5   0   5  116.97    2.71
   5   0  -5  105.78    2.52
   5   0  -4    0.76    0.58
  -5   0   4   -0.43    0.15
  -5   0   3    0.01    0.05
   5   0  -3    0.73    0.53
   5   0  -3    0.74    0.49
   5   0  -2  299.08    2.44
   5   0  -2  294.33    2.69
  -5   0   2  282.75    2.32
   5   0  -1  470.43    6.15
  -5   0   1  465.73    6.14
  -5   0   0    0.57    0.57
   5   0   0    0.22    0.44
  -5   0   0    0.23    0.42
  -5   0  -1    8.57    0.77
  -5   0  -1    7.29    0.76
  -5   0  -2   34.47    1.40
  -5   0  -2   32.61    1.35
  -5   0  -3   11.54    1.06
   5   0   3   10.91    0.90
   5   0   5   17.15    1.19
   5   0   6    0.04    1.06
   5   0   7   -0.70    1.23
  -5  -1  10    0.13    1.29
  -5  -1   9   18.40    1.42
  -5  -1   8   32.29    1.54
  -5   1   8   31.54    1.63
  -5   1   7    3.06    0.92
   5  -1  -7    1.77    0.58
   5   1  -7    2.01    0.71
  -5  -1   6    1.94    0.84
  -5   1   6    1.78    0.85
   5  -1  -6    3.10    0.57
   5   1  -6    1.76    0.65
  -5  -1   5  110.10    2.64
  -5   1   5  117.95    2.73
   5   1  -4  158.68    2.17
  -5   1   4   -0.02    0.29
   5   1  -3   23.68    0.79
   5  -1  -3   22.89    0.80
  -5  -1   3   -0.03    0.16
  -5   1   3   -0.01    0.15
   5   1  -3   23.89    1.00
   5   1  -2   19.93    0.78
   5  -1  -2   19.40    0.74
   5  -1  -2   20.35    0.85
   5   1  -2   19.71    0.94
  -5  -1   2   17.97    0.75
  -5   1   2   22.26    0.92
  -5  -1   1   -0.01    0.06
  -5   1   1   -0.07    0.53
   5   1  -1    0.17    0.45
   5  -1  -1    0.61    0.47
   5   1  -1   -0.09    0.58
  -5  -1   1    0.24    0.42
   5  -1   0    6.03    0.58
  -5   1   0    6.28    0.55
  -5  -1   0    5.97    0.58
  -5   1   0    5.46    0.65
  -5  -1  -1  141.53    3.17
  -5  -1  -1  143.99    3.21
  -5   1  -1  146.65    3.16
   5  -1   1  150.61    3.01
  -5  -1  -2  164.32    3.58
  -5   1  -2  165.58    3.51
  -5  -1  -2  158.96    3.60
  -5   1  -2  162.95    3.52
   5   1   3    4.68    0.81
  -5  -1  -3    3.70    0.83
  -5   1  -4    0.52    0.93
   5   1   4    1.03    0.80
   5  -1   4    0.77    0.76
   5  -1   5    4.97    0.95
   5  -1   6   10.95    1.16
   5   1   6   10.70    1.31
   5  -1   7    0.56    1.24
  -5  -2  10   -0.50    1.34
  -5  -2   9    0.79    1.20
  -5   2   9   -0.73    1.32
  -5  -2   8    8.55    1.18
  -5   2   8    9.42    1.30
   5  -2  -8    5.31    0.68
   5   2  -8    6.21    0.91
  -5  -2   7   12.15    1.07
  -5   2   7   16.45    1.27
   5  -2  -6   28.75    1.03
   5   2  -6   28.23    1.26
  -5   2   5   61.37    1.89
   5  -2  -5   60.81    1.55
   5   2  -5   59.51    1.80
  -5  -2   4    1.94    0.52
   5  -2  -4    1.19    0.45
  -5  -2   3    1.89    0.55
  -5   2   3    2.46    0.68
   5  -2  -3    0.98    0.46
   5   2  -3    1.28    0.48
  -5   2   2  209.74    2.65
   5   2  -2  220.61    2.43
   5  -2  -2  219.43    2.45
  -5   2   2  211.83    2.16
  -5  -2   2  217.00    2.51
  -5  -2   1   -0.01    0.75
   5  -2  -1  300.62    2.44
  -5   2   1  302.26    2.22
  -5  -2   1  292.94    2.57
   5   2  -1    0.03    0.75
  -5   2   1  295.24    2.72
  -5   2   0    1.37    0.60
  -5  -2   0   -0.01    0.05
   5  -2   0    0.82    0.50
  -5   2   0    0.93    0.47
  -5  -2   0   -0.02    0.07
   5  -2   1    6.66    0.59
  -5  -2  -1    5.43    0.71
  -5  -2  -1    6.88    0.76
  -5   2  -1    7.32    0.77
  -5  -2  -2   16.10    1.04
  -5  -2  -3   15.50    1.20
  -5   2  -3   15.03    1.05
   5   2   3   15.54    1.05
  -5   2  -4   16.74    1.16
   5   2   4   14.56    1.13
   5  -2   4   13.31    0.92
   5   2   5   11.91    1.20
   5  -2   5   10.77    1.02
   5  -2   6    0.13    0.90
   5  -2   7   -1.01    1.12
  -5  -3  10    0.38    1.32
  -5  -3   9    7.63    1.33
   5   3  -9    5.14    1.00
   5  -3  -9    4.43    0.67
  -5   3   9    6.82    1.50
  -5  -3   8   16.55    1.27
  -5   3   8   15.00    1.43
   5  -3  -8   10.63    0.71
   5   3  -8    9.61    1.00
  -5  -3   7    0.31    0.87
   5  -3  -7    0.20    0.49
   5   3  -7    0.39    0.82
  -5   3   7    1.31    1.10
  -5  -3   6    0.79    0.77
   5  -3  -6    0.54    0.50
  -5   3   6   -0.28    0.89
   5   3  -6   -0.15    0.77
  -5   3   5   64.46    1.90
   5  -3  -5   59.39    1.47
   5   3  -5   57.74    1.87
  -5   3   4   73.97    1.99
   5  -3  -4   66.88    1.61
   5   3  -4   74.34    2.10
  -5  -3   4   72.33    1.89
  -5   3   3   13.89    0.93
   5   3  -3   14.42    0.74
   5  -3  -3   13.19    0.62
  -5  -3   3   16.64    0.86
  -5   3   2   39.64    1.19
   5  -3  -2   39.94    1.09
  -5   3   2   39.12    0.85
  -5  -3   2   36.71    1.13
  -5   3   1    7.54    0.50
   5   3  -1    0.02    0.08
  -5  -3   1   -0.71    0.20
  -5   3   1    6.82    0.72
   5  -3   0    5.01    0.57
  -5  -3   0    1.78    0.54
  -5   3   0    5.19    0.51
  -5  -3   0    0.97    0.51
   5  -3   1   50.61    1.40
  -5  -3  -1   48.45    1.66
  -5   3  -1   55.06    1.42
  -5  -3  -1   48.16    1.67
   5  -3   2   90.81    2.09
  -5  -3  -2   93.91    2.44
  -5   3  -2   93.99    2.25
   5   3   2   88.88    2.37
  -5   3  -2   92.74    2.23
   5   3   3   -0.35    0.80
  -5   3  -3    0.21    0.71
  -5  -3  -3    0.27    0.88
   5   3   4    2.59    0.97
   5  -3   4    2.80    0.69
   5   3   5    4.01    1.14
   5  -3   5    3.87    0.82
   5  -3   6    5.96    0.95
  -5  -4   9    0.02    1.14
   5  -4  -9   -0.14    0.57
  -5  -4   8    4.74    1.16
   5  -4  -8    5.81    0.55
  -5   4   8    6.09    1.44
  -5   4   7   10.10    1.27
   5  -4  -7    7.38    0.60
   5   4  -7    9.27    1.07
  -5   4   6   18.17    1.34
   5  -4  -6   14.91    0.68
   5   4  -6   14.76    1.21
  -5  -4   6   15.03    0.95
  -5   4   5   19.74    1.31
   5  -4  -5   17.03    0.67
   5   4  -5   18.13    1.20
   5  -4  -4    0.08    0.32
  -5   4   4    0.14    0.80
   5   4  -4    0.45    0.95
  -5   4   3   11.03    0.89
   5   4  -3   12.72    1.10
  -5  -4   3   11.89    0.75
  -5   4   2   67.07    1.84
   5   4  -2   69.45    2.06
  -5   4   2   70.96    1.46
   5  -4  -1   87.32    1.99
  -5  -4   1   81.23    2.12
   5   4  -1   87.61    2.34
  -5   4   1   87.65    1.80
  -5  -4   1   84.66    2.18
   5  -4   0    9.95    0.70
  -5  -4   0    9.11    0.91
   5   4   0    8.66    0.88
  -5   4   0    9.79    0.60
  -5  -4   0    8.90    0.92
  -5   4   0    8.60    0.76
   5  -4   1    8.02    0.68
  -5  -4  -1    7.52    0.92
  -5   4  -1    8.69    0.67
  -5   4  -1    8.79    0.80
   5  -4   2    5.94    0.70
  -5   4  -2    5.37    0.75
  -5  -4  -2    5.23    0.97
   5   4   2    4.69    0.89
  -5   4  -2    5.98    0.74
  -5   4  -3   14.08    0.91
   5   4   3   11.92    1.14
   5  -4   3   12.43    0.79
   5   4   4    7.59    1.18
   5  -4   5    5.35    0.78
   5   4   5    4.99    1.24
  -5  -5   9    2.63    1.18
  -5  -5   8    2.84    1.09
   5  -5  -8    1.86    0.50
   5   5  -8    1.85    1.02
  -5   5   8    3.19    1.43
  -5  -5   7    2.67    0.97
   5  -5  -7    1.63    0.42
   5   5  -7    1.75    1.10
  -5   5   7    1.91    1.21
   5  -5  -6    2.09    0.34
   5   5  -6    1.90    1.01
  -5   5   6    0.71    1.09
  -5   5   5   19.02    1.32
   5   5  -5   18.60    1.35
  -5   5   4   23.43    1.22
   5   5  -4   25.85    1.49
  -5   5   3   14.98    1.06
   5   5  -3   15.02    1.26
   5   5  -2   23.55    1.38
   5  -5  -1    5.20    0.65
  -5  -5   1    4.59    0.84
  -5   5   1    5.75    0.40
   5   5  -1    6.59    1.00
  -5  -5   1    5.15    0.86
  -5   5   1    5.29    0.73
  -5  -5   0   13.01    1.01
   5  -5   0   13.65    0.78
   5   5   0   11.16    1.11
  -5   5   0   13.60    0.67
  -5  -5   0   12.65    1.03
  -5   5   0   13.04    0.86
  -5  -5  -1   10.52    1.02
   5  -5   1   12.88    0.79
  -5   5  -1   12.37    0.73
   5   5   1   13.28    1.08
  -5   5  -1   12.02    0.87
   5  -5   2   25.34    1.00
  -5  -5  -2   24.36    1.41
  -5   5  -2   24.41    1.03
   5   5   2   21.44    1.30
  -5   5  -2   24.45    1.03
  -5   5  -3    1.46    0.73
   5   5   3    1.19    0.99
   5  -5   3    1.33    0.60
   5  -5   3    2.12    0.71
   5  -5   4    1.60    0.65
   5   5   4    2.53    1.13
  -5  -6   8    2.80    1.05
   5   6  -7    4.82    1.23
  -5   6   7    4.02    1.41
   5   6  -6    2.74    1.20
  -5   6   6    3.14    1.25
   5   6  -5    6.91    1.25
  -5   6   5    8.01    1.22
   5   6  -4    6.52    1.31
  -5   6   3    8.55    1.08
   5   6  -3   11.15    1.37
  -5   6   2    9.39    0.91
  -5  -6   2   10.11    0.98
   5   6  -2   11.22    1.24
  -5  -6   2    8.30    0.92
   5   6  -1   16.09    1.25
  -5   6   1   15.52    0.97
  -5  -6   0    8.99    1.00
   5  -6   0   10.18    0.78
  -5   6   0   10.05    0.58
   5   6   0    8.03    1.11
   5   6   0   10.81    1.06
  -5   6   0    9.68    0.82
  -5  -6  -1    9.48    1.05
   5   6   1    8.10    1.05
  -5   6  -1    8.55    0.79
  -5   6  -2    3.55    0.70
   5   6   2    3.96    1.04
  -5   6  -2    4.84    0.74
   5  -6   2    2.87    0.67
   5   6   3    4.26    1.15
  -5   6  -3    5.18    0.76
   5  -6   3    4.38    0.56
   5   6   4    0.61    1.18
   5   7  -7    1.13    1.36
  -5   7   7    0.94    1.47
   5   7  -6    1.82    1.36
  -5  -7   6    8.89    0.96
  -5  -7   5    4.49    0.70
   5   7  -5    3.87    1.39
  -5  -7   5    5.52    0.71
  -5   7   4    6.59    1.04
   5   7  -4    8.47    1.48
  -5   7   3    6.82    1.09
   5   7  -3    9.31    1.39
  -5  -7   3    9.87    0.93
  -5  -7   2    4.55    0.94
  -5   7   2    5.45    0.94
   5   7  -2    4.40    1.26
  -5  -7   2    4.48    0.82
  -5  -7   1    0.71    0.84
  -5   7   1    1.36    0.80
   5   7  -1    2.01    1.12
   5   7  -1    1.68    0.93
   5   7   0   11.83    1.25
   5  -7   0   12.87    0.77
  -5   7   0   13.38    0.60
  -5   7   0   13.06    0.93
  -5   7  -1    3.47    0.60
  -5   7  -1    4.42    0.77
   5   7   2    2.10    1.11
  -5   7  -2    4.10    0.69
  -5   7  -2    3.95    0.69
   5   7   3    1.64    1.24
   5   8  -6    0.60    1.64
  -5   8   6    1.63    1.42
  -5  -8   5    7.86    0.92
   5   8  -5    3.63    1.56
  -5   8   5    2.01    1.31
  -5  -8   5    8.46    0.94
  -5   8   4    3.39    1.20
   5   8  -4    2.22    1.66
  -5   8   3    3.88    1.13
   5   8  -3    5.09    1.44
   5   8  -3    3.24    0.98
  -5  -8   3    4.53    0.95
  -5  -8   2    1.10    0.95
  -5   8   2    0.94    0.87
   5   8  -2    1.57    1.04
   5   8  -1    2.34    0.91
  -5  -8   1    2.52    1.03
  -5   8   1    2.70    0.88
  -5   8   0    3.15    0.78
   5   8   0    2.67    1.11
   5   8   1    3.40    1.23
  -5   8  -1    4.01    0.77
  -5   9   5    0.21    1.49
   5   9  -4    2.04    1.02
  -5   9   4    0.79    1.31
  -5   9   3    2.19    1.20
   5   9  -3    1.47    1.60
   5   9  -3    1.92    1.05
  -5  -9   3    0.91    1.02
  -5   9   2    2.64    1.02
   5   9  -2    3.96    1.07
   5   9  -2    1.16    1.56
  -5   9   1    1.02    0.94
   5   9  -1    2.36    1.14
   5   9  -1    2.10    1.49
   5   9   0    2.51    1.35
   5   9   1    1.75    1.39
   5   9   2    0.38    1.41
  -5  10   5    0.72    1.60
  -5  10   4   -0.10    1.37
  -5  10   3    2.34    1.29
   5  10  -3    0.39    1.89
  -5  10   2    1.03    1.10
   5  10  -2    1.17    1.66
   5  10  -2    1.06    1.19
   5  10  -1    0.75    1.61
   5  10  -1    0.55    1.31
   5  10   0    0.64    1.36
   5  10   1    0.70    1.35
   5  11   0    0.52    1.66
   6   0 -10    2.25    0.90
  -6   0   9    0.92    1.32
   6   0  -9    1.09    0.74
  -6   0   8    4.09    1.22
   6   0  -8    1.30    0.76
  -6   0   7    0.31    1.06
   6   0  -7   -0.37    0.74
  -6   0   6    4.09    1.01
   6   0  -6    3.63    0.76
  -6   0   5   36.68    1.49
  -6   0   4  179.75    3.92
   6   0  -3   71.88    1.84
  -6   0   3   70.35    1.58
   6   0  -2   20.17    1.04
  -6   0   2   17.18    0.99
  -6   0   1   95.48    2.45
  -6   0   0  155.37    3.52
  -6   0  -1    3.39    0.90
  -6   0  -1    2.77    0.87
  -6   0  -2   30.45    1.50
  -6   0  -2   28.29    1.47
  -6   0  -4    1.50    1.18
   6   0   4    1.69    0.93
   6   0   5    4.89    1.13
   6   0   6    3.05    1.25
   6  -1 -10   -0.63    0.75
  -6  -1   9    0.23    1.25
  -6   1   9   -0.78    1.34
   6  -1  -9    0.17    0.70
   6   1  -9   -0.03    0.82
  -6  -1   8   21.94    1.50
  -6   1   8   22.37    1.55
   6  -1  -8   13.89    0.94
   6   1  -8   13.63    1.05
  -6  -1   7   65.76    2.10
  -6   1   7   70.07    2.25
  -6  -1   6    7.59    0.95
  -6   1   6    6.75    1.08
  -6  -1   5    2.38    0.87
  -6   1   5    2.21    0.90
   6  -1  -5    1.71    0.68
   6   1  -5    1.44    0.84
  -6   1   4   24.64    1.24
   6  -1  -4   25.21    1.10
   6   1  -4   29.32    1.24
  -6  -1   4   25.30    1.25
  -6   1   3   51.44    1.39
  -6  -1   3   52.96    1.69
  -6   1   3   53.83    1.75
  -6   1   2    9.85    0.61
  -6   1   2   10.21    0.94
  -6   1   1   65.04    1.63
  -6  -1   1   62.35    1.84
  -6   1   1   63.73    1.84
  -6  -1   0   28.52    1.30
  -6   1   0   28.19    1.27
  -6  -1  -1    0.34    0.79
  -6   1  -1   -0.07    0.77
  -6  -1  -1    0.68    0.89
  -6   1  -1    0.92    0.80
  -6  -1  -2   18.16    1.29
  -6  -1  -2   20.16    1.31
  -6  -1  -3   52.45    1.92
  -6   1  -3   56.26    1.91
   6   1   3   52.72    1.85
   6  -1   3   53.11    1.76
  -6   1  -4    6.20    1.15
   6  -1   4    4.55    0.91
   6  -1   5    2.13    1.05
   6   1   5    3.80    1.13
   6  -1   6   -0.12    1.11
  -6  -2  10    2.19    1.38
   6  -2 -10    1.30    0.70
  -6  -2   9    0.12    1.28
  -6   2   9    1.27    1.37
   6  -2  -9    1.09    0.70
   6   2  -9   -1.19    0.87
  -6  -2   8    3.41    1.20
  -6   2   8    3.25    1.24
   6  -2  -8    1.46    0.68
  -6  -2   7    0.19    0.97
  -6   2   7    0.66    1.08
   6  -2  -7    1.04    0.50
   6   2  -7   -0.02    0.81
  -6  -2   6    5.01    1.00
   6  -2  -6    5.74    0.76
  -6   2   6    6.48    1.11
   6   2  -6    4.56    0.93
  -6   2   5   21.84    1.28
   6  -2  -5   21.17    1.01
   6   2  -5   20.69    1.27
  -6  -2   5   20.49    1.20
  -6   2   4  134.46    3.12
   6  -2  -4  127.11    2.80
   6   2  -4  134.88    3.19
  -6  -2   4  123.72    3.02
  -6   2   3   34.42    1.37
   6  -2  -3   32.86    1.19
   6   2  -3   36.14    1.50
  -6   2   3   36.11    1.09
  -6  -2   3   32.91    1.37
   6   2  -2   10.89    0.97
  -6   2   2   10.17    0.62
  -6  -2   2   10.34    0.95
  -6   2   2    9.93    0.95
   6   2  -1   44.92    1.66
  -6   2   1   48.04    1.31
  -6  -2   1   46.59    1.64
  -6   2   1   45.69    1.54
  -6  -2   0  123.02    2.92
  -6  -2   0  118.25    2.93
  -6   2   0  115.81    2.75
  -6  -2  -1    0.08    0.89
  -6  -2  -1    0.19    0.89
  -6  -2  -2   19.40    1.35
  -6   2  -2   21.40    1.23
  -6   2  -2   21.40    1.28
  -6  -2  -3    0.27    1.04
  -6   2  -3    0.28    0.91
   6   2   3    1.49    0.95
   6  -2   4    1.73    0.85
  -6   2  -4    1.97    1.04
   6   2   4    1.34    1.05
   6  -2   5    3.84    1.07
   6  -2   6    2.79    1.11
  -6  -3  10    0.74    1.38
  -6  -3   9   -0.02    1.30
   6  -3  -9   -0.51    0.64
  -6  -3   8    9.20    1.24
   6  -3  -8    6.50    0.72
   6   3  -8    8.22    1.05
  -6   3   8    8.25    1.42
  -6   3   7   29.04    1.67
   6  -3  -7   21.86    0.96
   6   3  -7   20.41    1.29
  -6  -3   7   27.44    1.51
  -6  -3   6    2.55    0.99
  -6   3   6    4.73    1.12
   6  -3  -6    3.62    0.65
   6   3  -6    3.42    0.95
  -6   3   5    8.28    1.10
   6  -3  -5    8.23    0.70
   6   3  -5    9.26    1.14
  -6   3   4   19.67    1.19
   6  -3  -4   20.37    0.92
   6   3  -4   22.21    1.38
  -6  -3   4   18.88    1.13
  -6   3   3   29.41    1.31
   6   3  -3   29.52    1.47
  -6  -3   3   27.36    1.30
  -6  -3   2    4.52    0.85
  -6   3   2    4.37    0.85
   6   3  -2    5.05    1.00
   6   3  -1   52.23    1.87
  -6   3   1   51.04    1.34
  -6  -3   1   51.12    1.71
  -6   3   1   48.90    1.63
  -6  -3   0   11.50    1.01
  -6   3   0   12.21    0.73
  -6  -3   0   11.56    1.08
  -6  -3  -1    6.39    1.08
  -6  -3  -1    5.52    1.10
  -6   3  -1    6.61    0.98
  -6  -3  -2    9.98    1.22
  -6   3  -2   11.21    1.09
  -6   3  -2   10.95    1.11
   6   3   2   11.30    1.13
  -6  -3  -3   21.90    1.55
  -6   3  -3   22.78    1.36
   6   3   3   20.83    1.38
  -6   3  -4    4.33    1.17
   6   3   4    4.52    1.22
   6  -3   4    2.41    0.81
   6  -3   5    2.93    0.95
  -6  -4   9    1.18    1.32
  -6  -4   8    2.22    1.22
  -6   4   8    1.13    1.36
   6  -4  -8    2.30    0.60
   6   4  -8    2.08    1.04
  -6  -4   7    0.74    0.96
   6  -4  -7    0.13    0.54
  -6   4   7   -1.03    1.19
   6   4  -7    0.76    0.99
  -6   4   6    9.21    1.23
   6  -4  -6    7.56    0.64
   6   4  -6    7.99    1.19
  -6  -4   6    8.02    1.07
  -6  -4   5    3.94    0.96
   6  -4  -5    4.20    0.55
  -6   4   5    4.92    1.12
   6   4  -5    6.25    1.17
  -6   4   4   50.94    1.87
   6   4  -4   52.34    2.03
  -6  -4   3    3.46    0.87
  -6   4   3    4.16    0.88
   6   4  -3    4.98    1.11
   6   4  -2   13.47    1.25
  -6   4   2   10.40    0.55
  -6  -4   2   11.12    1.06
  -6  -4   1    7.03    1.00
  -6   4   1    8.30    0.59
   6   4  -1    7.05    1.13
  -6  -4   1    6.51    1.02
  -6  -4   0   50.20    1.80
  -6   4   0   49.45    1.35
  -6  -4   0   44.35    1.77
  -6   4   0   45.43    1.62
  -6  -4  -1    0.59    0.88
  -6   4  -1    0.30    0.86
  -6  -4  -2   10.38    1.16
  -6   4  -2   11.28    1.04
   6   4   2   11.34    1.18
  -6   4  -2   12.16    1.03
  -6   4  -3    0.02    0.94
   6  -4   3   -0.43    0.76
   6   4   3    0.35    1.09
   6   4   4    2.85    1.20
   6  -4   4    2.28    0.80
   6  -4   5    1.20    0.86
  -6  -5   9    3.25    1.36
  -6  -5   8    2.71    1.22
  -6  -5   7    6.29    1.17
  -6   5   7    6.19    1.35
   6   5  -7    3.54    1.20
  -6  -5   6   -0.27    0.91
   6  -5  -6    0.03    0.31
  -6   5   6   -0.39    1.25
   6   5  -6    1.29    1.11
  -6   5   5    9.01    1.18
   6   5  -5    8.07    1.34
  -6  -5   5    8.54    1.13
  -6  -5   4    4.09    0.88
  -6   5   4    5.42    1.12
   6   5  -4    4.48    1.30
   6   5  -3   18.56    1.52
  -6   5   2    1.38    0.92
  -6  -5   2    3.13    0.91
   6   5  -2    2.03    1.10
  -6  -5   2    1.48    0.85
  -6  -5   1   23.33    1.35
   6   5  -1   23.71    1.53
  -6   5   1   22.88    0.79
  -6  -5   1   20.20    1.33
  -6   5   1   21.75    1.21
  -6   5   0    0.95    0.81
  -6  -5   0    0.97    0.96
  -6   5   0    1.07    0.54
  -6  -5   0    0.95    1.04
  -6  -5  -1    9.27    1.18
   6   5   1    9.60    1.18
  -6   5  -1    9.58    0.98
   6   5   2   -0.28    1.04
  -6  -5  -2   -0.69    1.14
  -6   5  -2    0.83    0.90
  -6   5  -2    2.11    0.86
  -6   5  -3    7.95    1.06
   6   5   3    6.19    1.26
   6  -5   4    0.52    0.73
  -6  -6   8    1.49    1.17
  -6  -6   7    1.11    1.13
  -6   6   7   -0.22    1.41
   6   6  -7   -0.03    1.28
  -6  -6   6    5.91    1.07
  -6   6   6    5.44    1.36
   6   6  -6    5.31    1.30
   6   6  -5    0.45    1.39
  -6  -6   5   -0.12    1.00
   6   6  -4    8.25    1.46
  -6  -6   4    9.99    1.10
  -6  -6   3   -0.97    0.89
  -6   6   3   -0.06    0.89
   6   6  -3   -1.10    1.22
  -6  -6   3   -0.14    0.94
  -6   6   2   11.03    1.07
  -6  -6   2   11.47    1.11
   6   6  -2   14.77    1.48
  -6  -6   2   10.96    1.17
  -6   6   1    2.07    0.90
   6   6  -1    1.73    1.18
  -6   6   1    1.03    0.40
  -6  -6   0    8.75    1.19
  -6   6   0    7.85    0.64
   6   6   0    7.17    1.22
  -6   6   0    8.13    0.93
  -6  -6  -1    0.90    1.08
   6   6   1    0.97    1.09
  -6   6  -1    0.76    0.89
  -6   6  -2    7.87    1.02
   6   6   2    5.94    1.24
  -6   6  -2    8.67    1.03
   6   6   3   -0.05    1.24
  -6   6  -3   -0.58    0.90
  -6  -7   7   -0.23    1.19
   6   7  -6    0.53    1.53
  -6  -7   6    0.14    1.05
  -6  -7   5    4.13    1.03
  -6   7   5    3.83    1.32
   6   7  -5    3.57    1.49
  -6  -7   5    5.05    1.09
  -6  -7   4    0.50    0.94
  -6   7   4   -0.50    1.28
   6   7  -4    0.46    1.51
  -6  -7   4    0.25    0.96
  -6   7   3    8.61    1.18
  -6  -7   3    9.44    1.24
   6   7  -3    8.47    1.64
  -6  -7   3    7.30    1.16
  -6  -7   2   -0.76    1.02
  -6   7   2    0.48    0.97
   6   7  -2    1.00    1.34
  -6  -7   2    1.58    1.10
   6   7  -1    7.41    1.28
  -6   7   1    6.74    1.02
  -6  -7   1    7.56    1.22
   6   7  -1    7.18    1.56
  -6   7   0    0.12    0.91
  -6   7  -1    5.59    0.94
   6   7   2   -0.29    1.28
  -6   8   6    2.86    1.68
  -6  -8   5   -0.68    1.11
  -6   8   5   -0.08    1.42
   6   8  -5    0.51    1.71
  -6  -8   5   -0.95    1.15
  -6  -8   4    1.07    1.08
  -6   8   4    1.52    1.38
   6   8  -4    1.12    1.76
  -6  -8   4    1.33    1.12
  -6  -8   3    0.56    1.03
  -6   8   3   -0.06    1.04
   6   8  -3    1.46    1.55
  -6  -8   2    4.40    1.14
  -6   8   2    6.24    1.16
   6   8  -2    6.18    1.43
   6   8  -2    6.97    1.73
  -6   8   1    0.08    0.95
  -6  -8   1    0.34    1.17
   6   8  -1    0.46    1.29
  -6   8   0    1.69    0.95
   6   8   0    1.40    1.19
   6   8   1   -0.92    1.42
  -6   9   5    0.57    1.45
   6   9  -4   -0.88    1.41
  -6  -9   4   -0.49    1.09
  -6   9   4    0.35    1.44
  -6  -9   3    0.85    1.17
   6   9  -3    2.50    1.30
  -6   9   3    3.75    1.27
  -6  -9   2   -0.65    1.17
  -6   9   2   -0.67    1.16
   6   9  -2   -1.82    1.67
   6   9  -2   -0.78    1.25
  -6   9   1    2.23    1.10
   6   9  -1    1.41    1.36
   6   9  -1    0.29    1.54
   6   9   0   -0.47    1.52
  -6  10   4    0.05    1.51
  -6  10   3    0.47    1.34
   6  10  -2    0.86    1.46
   6  10  -1   -0.86    1.50
   7   0  -9    3.56    0.89
  -7   0   8    1.88    1.30
   7   0  -8    0.66    0.87
  -7   0   7   11.04    1.33
   7   0  -7    9.27    1.03
  -7   0   6   13.27    1.30
   7   0  -6   12.21    1.10
  -7   0   5    0.66    1.08
   7   0  -5    0.61    0.87
  -7   0   4   16.07    1.26
  -7   0   3  120.36    3.05
  -7   0   2   59.88    1.96
  -7   0   1    5.63    0.98
  -7   0   0    1.62    0.97
  -7   0  -1   24.63    1.37
  -7   0  -1   26.75    1.50
  -7   0  -2    0.57    1.22
  -7   0  -2    1.99    1.11
  -7   0  -4    6.51    1.55
   7   0   4    4.79    1.12
   7  -1 -10    3.17    0.85
  -7  -1   9    2.39    1.43
   7  -1  -9    1.27    0.81
   7   1  -9    1.74    0.90
  -7   1   8    1.30    1.31
   7  -1  -8    0.05    0.76
   7   1  -8    0.87    0.89
  -7  -1   7    8.92    1.30
   7  -1  -7    6.78    0.94
   7   1  -7    8.67    1.06
  -7   1   7    8.48    1.30
  -7   1   6   56.90    2.09
   7  -1  -6   54.53    1.78
  -7  -1   6   58.54    2.13
  -7   1   5   19.86    1.35
  -7  -1   5   17.28    1.28
   7   1  -4   16.35    1.26
  -7  -1   4   15.50    1.26
  -7   1   4   17.24    1.28
  -7  -1   3   -0.02    0.90
  -7   1   3    0.83    0.84
   7   1  -3    0.36    0.89
  -7  -1   2    2.02    0.98
  -7   1   2    2.52    0.91
   7   1  -2    2.45    0.97
  -7   1   1    0.43    0.98
  -7  -1   1    0.85    0.93
  -7  -1   0   56.75    2.02
  -7  -1   0   57.79    2.03
  -7   1   0   58.83    2.03
  -7  -1  -1   27.61    1.49
  -7   1  -1   25.76    1.46
  -7  -1  -1   24.53    1.55
  -7   1  -1   24.03    1.44
  -7  -1  -2   -0.26    1.12
  -7  -1  -2    0.13    1.22
  -7   1  -3    2.33    1.18
  -7  -1  -3    0.62    1.26
   7  -1   3    0.69    0.97
   7   1   3    0.47    1.12
  -7   1  -4    6.09    1.53
   7   1   4    6.36    1.30
   7  -1   4    5.66    1.12
   7  -1   5    2.20    1.24
  -7  -2   9    4.37    1.45
   7  -2  -9    1.89    0.75
   7   2  -9    2.56    0.96
  -7  -2   8   -0.25    1.22
  -7   2   8   -0.11    1.38
   7  -2  -8    0.98    0.77
   7   2  -8    1.79    0.97
  -7   2   7   10.29    1.44
   7  -2  -7   10.61    0.92
  -7  -2   6    5.00    1.20
  -7   2   6    5.71    1.21
   7   2  -6    4.57    1.11
  -7  -2   5    0.68    0.99
   7  -2  -5    3.24    0.71
  -7   2   5    0.05    0.98
   7   2  -5   -0.42    1.06
  -7  -2   4    6.00    1.04
  -7   2   4    7.14    1.10
   7  -2  -4    5.88    0.88
   7   2  -4    5.22    1.08
   7   2  -3   92.95    2.62
  -7  -2   3   85.89    2.51
  -7   2   3   87.38    2.48
   7   2  -2   40.22    1.78
  -7  -2   2   38.81    1.61
  -7   2   2   35.84    1.57
  -7   2   1    6.68    0.99
  -7  -2   1    8.53    1.15
  -7  -2   0    1.04    1.03
  -7  -2   0    0.82    0.99
  -7  -2  -1   16.59    1.43
  -7   2  -1   15.01    1.27
  -7  -2  -1   14.51    1.38
  -7   2  -1   14.67    1.25
  -7  -2  -2    1.67    1.19
  -7   2  -2    1.28    1.14
  -7   2  -2    2.83    1.15
  -7  -2  -3   10.20    1.45
  -7   2  -3    8.87    1.26
   7   2   3    8.46    1.28
   7  -2   3    8.26    1.14
  -7   2  -4    4.12    1.48
   7  -2   4    2.24    1.02
   7  -2   5    0.93    1.16
  -7  -3   9    1.19    1.44
  -7  -3   8    0.84    1.28
  -7   3   8    0.92    1.46
   7  -3  -8    0.13    0.72
  -7  -3   7    2.90    1.18
  -7   3   7    2.32    1.27
   7   3  -7    1.89    1.07
  -7   3   6   25.92    1.67
   7  -3  -6   24.05    1.07
   7   3  -6   23.79    1.56
  -7  -3   5    7.11    1.11
   7  -3  -5    6.78    0.80
  -7   3   5    8.15    1.20
   7   3  -5    7.58    1.24
  -7   3   4   10.78    1.21
   7   3  -4   11.70    1.31
  -7  -3   4   10.27    1.13
  -7  -3   3    0.84    1.00
  -7   3   3    0.99    0.99
   7   3  -3    1.91    1.12
  -7   3   3    1.07    0.55
  -7   3   2    7.99    0.66
   7   3  -2    8.50    1.29
  -7   3   2    7.51    1.05
  -7  -3   2    7.49    1.15
  -7  -3   1    0.02    0.96
  -7  -3   1    0.89    1.04
  -7  -3   0   27.15    1.52
  -7  -3   0   29.48    1.57
  -7   3   0   27.09    1.42
  -7  -3  -1   14.14    1.37
  -7   3  -1   15.67    1.29
  -7  -3  -1   14.17    1.48
  -7   3  -1   14.39    1.23
  -7  -3  -2    0.28    1.19
  -7   3  -2    0.93    1.12
   7   3   2    0.33    1.11
  -7   3  -2    1.30    1.18
   7   3   3   -1.33    1.20
  -7  -3  -3   -0.71    1.33
  -7   3  -3   -0.84    1.17
   7  -3   3    0.49    0.92
  -7   3  -4    4.17    1.32
   7  -3   4    2.83    1.01
   7  -3   5    1.10    1.11
  -7  -4   9    2.12    1.44
  -7  -4   8    0.43    1.31
  -7  -4   7    7.26    1.35
   7  -4  -7    5.95    0.70
  -7   4   7    7.42    1.58
   7   4  -7    7.12    1.33
  -7  -4   6    1.10    1.10
  -7   4   6   -0.56    1.26
   7  -4  -6    0.99    0.64
   7   4  -6    0.95    1.23
  -7  -4   5    0.81    1.02
  -7   4   5    1.34    1.13
   7   4  -5    1.40    1.25
  -7   4   4    0.33    1.03
   7   4  -4   -0.53    1.22
   7   4  -3   36.25    1.89
  -7  -4   3   34.58    1.66
  -7   4   3   35.24    1.63
   7   4  -2   10.70    1.42
  -7   4   2   10.52    0.66
  -7  -4   2   10.83    1.20
  -7  -4   1    7.57    1.14
   7   4  -1    7.27    1.23
  -7  -4   1    5.79    1.21
  -7   4   1    7.82    1.05
  -7   4   0    0.19    0.94
  -7  -4   0    1.25    1.22
  -7  -4   0    0.85    1.16
  -7  -4  -1    5.13    1.24
  -7   4  -1    5.35    1.12
  -7   4  -1    4.42    1.07
  -7  -4  -2    1.13    1.22
  -7   4  -2    1.61    1.23
   7   4   2    0.93    1.18
  -7   4  -2    1.87    1.13
  -7   4  -3    6.73    1.26
   7  -4   3    5.81    0.98
   7  -4   4    0.74    0.93
  -7  -5   9    0.24    1.45
  -7  -5   8    2.02    1.34
  -7  -5   7   -0.10    1.21
  -7   5   7   -0.84    1.52
   7   5  -7   -0.20    1.24
  -7  -5   6    5.60    1.26
  -7   5   6    5.23    1.44
   7   5  -6    6.93    1.44
  -7  -5   5    1.04    1.08
  -7   5   5    2.08    1.24
   7   5  -5    0.72    1.35
   7   5  -4    8.81    1.45
  -7  -5   4    5.77    1.19
  -7   5   3    0.11    1.16
   7   5  -3    0.74    1.28
  -7   5   2    5.25    1.12
  -7  -5   2    7.33    1.23
   7   5  -2    7.92    1.52
  -7  -5   2    5.29    1.18
  -7   5   1   -0.08    1.01
  -7  -5   1   -1.20    1.17
   7   5  -1    0.14    1.24
  -7   5   1   -0.01    0.57
  -7  -5   1    0.43    1.14
  -7  -5   0   11.06    1.36
  -7  -5   0   10.40    1.43
  -7   5   0    9.43    1.05
   7   5   1    3.64    1.28
  -7  -5  -1    2.52    1.26
  -7   5  -1    2.85    1.08
  -7   5  -1    2.99    1.06
   7   5   2    2.39    1.22
  -7  -5  -2    2.25    1.36
  -7   5  -2    2.62    1.22
  -7   5  -2    3.06    1.24
  -7   5  -3    0.48    1.08
   7  -5   3   -0.01    0.84
  -7  -6   8    0.34    1.46
  -7  -6   7    1.57    1.26
  -7   6   6   -1.21    1.54
   7   6  -6    0.75    1.46
  -7  -6   6    0.80    1.24
   7   6  -5    3.82    1.60
  -7  -6   5    3.05    1.25
  -7  -6   4   -0.20    1.19
  -7   6   4   -0.37    1.28
   7   6  -4    1.21    1.37
  -7  -6   4   -0.14    1.15
  -7   6   3    7.52    1.32
  -7  -6   3    5.85    1.20
   7   6  -3    6.60    1.65
  -7  -6   3    4.46    1.22
  -7   6   2    1.81    1.04
   7   6  -2    2.35    1.52
  -7   6   1    5.06    1.10
   7   6  -1    4.92    1.47
  -7   6   0    0.90    0.97
  -7  -6   0   -0.13    1.23
   7   6   0    1.77    1.25
  -7  -6  -1    1.91    1.39
  -7   6  -1    2.57    1.08
   7   6   1    1.94    1.24
  -7   6  -1    2.46    1.09
  -7   6  -2    0.66    1.20
  -7   6  -2   -0.37    1.08
  -7  -7   7    0.15    1.33
  -7  -7   6    1.55    1.27
  -7  -7   5   -0.69    1.24
  -7   7   5    0.44    1.51
  -7  -7   5    0.19    1.22
  -7  -7   4    3.14    1.20
  -7   7   4    3.73    1.35
   7   7  -4    5.11    1.68
  -7  -7   4    1.73    1.22
  -7  -7   3   -0.10    1.27
  -7   7   3   -0.34    1.24
   7   7  -3    1.28    1.62
  -7  -7   3    1.12    1.19
  -7   7   2    2.41    1.25
  -7  -7   2    2.48    1.25
   7   7  -2    2.56    1.66
  -7  -7   2    1.52    1.28
  -7   7   1    0.33    1.02
  -7  -7   1    2.02    1.26
   7   7  -1    1.09    1.44
   7   7  -1    2.19    1.35
  -7   7   0    3.53    1.16
  -7   7  -1    0.07    1.08
  -7   7  -1    0.63    1.13
  -7  -8   5    2.85    1.42
  -7   8   5    2.47    1.53
  -7  -8   5    2.33    1.39
  -7  -8   4    0.18    1.29
  -7   8   4   -1.09    1.42
  -7  -8   4    0.62    1.29
  -7  -8   3    0.54    1.33
  -7   8   3    1.59    1.38
  -7   8   2    1.41    1.12
   7   8  -2   -0.76    1.49
  -7  -8   2    2.30    1.36
  -7   8   1    1.80    1.25
  -7  -8   1    2.84    1.46
   7   8  -1    1.63    1.43
   7   9  -4    0.32    1.81
  -7  -9   4    1.27    1.30
  -7   9   4    1.32    1.43
  -7  -9   3   -0.73    1.35
  -7   9   3    0.10    1.36
   7   9  -3    0.94    1.66
   7   9  -2   -0.09    1.57
  -7  -9   2    2.59    1.44
   8   0  -9    0.04    0.90
  -8   0   8    1.76    1.45
   8   0  -8    3.11    1.03
  -8   0   7    0.97    1.33
   8   0  -7   -0.97    1.02
   8   0  -6   16.84    1.36
  -8   0   6   21.48    1.68
   8   0  -5   23.06    1.42
  -8   0   5   24.49    1.68
  -8   0   4    5.12    1.22
   8   0  -4    3.39    1.03
  -8   0   3    2.19    1.17
   8   0  -3    2.43    1.04
  -8   0   2   40.29    1.86
  -8   0   1   15.81    1.43
  -8   0   0    0.12    1.22
  -8   0   0    0.31    1.19
  -8   0  -1    3.73    1.30
  -8   0  -1    4.44    1.36
   8   0   3    1.83    1.29
  -8   0  -3    1.16    1.52
   8  -1  -9    2.41    0.90
   8  -1  -8    5.77    1.02
   8   1  -8    4.93    1.09
  -8  -1   7    0.55    1.40
  -8   1   7    1.18    1.34
   8  -1  -7    0.40    0.91
   8   1  -7    1.07    1.01
  -8  -1   6   -0.37    1.24
  -8   1   6    0.49    1.36
   8  -1  -6   -0.06    0.95
   8   1  -6    0.82    1.09
   8  -1  -5   15.90    1.21
   8   1  -5   17.48    1.38
  -8  -1   5   16.31    1.47
  -8   1   5   17.09    1.51
   8  -1  -4   14.64    1.23
  -8  -1   4   15.11    1.42
  -8   1   4   13.12    1.39
  -8  -1   3   12.66    1.34
  -8   1   3   13.76    1.41
  -8  -1   2   22.59    1.48
  -8   1   2   22.04    1.55
  -8   1   1    0.66    1.06
  -8  -1   1    0.64    1.15
  -8  -1   0    0.42    1.16
  -8  -1   0    0.71    1.22
  -8   1   0   -0.65    1.20
  -8  -1  -1   20.32    1.69
  -8  -1  -1   18.10    1.66
  -8  -1  -2   10.14    1.63
  -8   1  -2    8.41    1.48
  -8   1  -2   10.40    1.64
  -8   1  -3    1.03    1.43
   8  -1   3    0.37    1.21
   8  -2  -9   -0.82    0.88
  -8  -2   8    1.19    1.51
   8  -2  -8    1.22    0.88
   8   2  -8    1.92    1.17
  -8   2   7    1.13    1.37
   8  -2  -7    0.28    0.86
   8   2  -7    1.32    1.12
  -8   2   6   13.29    1.60
   8  -2  -6   12.87    1.09
  -8  -2   6   14.26    1.47
   8  -2  -5   16.12    1.19
  -8  -2   5   13.51    1.41
  -8   2   5   16.65    1.58
  -8  -2   4    0.95    1.14
  -8   2   4    0.63    1.14
   8   2  -4    2.22    1.23
  -8  -2   3    0.61    1.08
  -8   2   3    0.42    1.15
   8   2  -3    1.37    1.30
  -8  -2   2   23.31    1.63
  -8   2   2   23.34    1.54
  -8  -2   1   13.10    1.38
  -8  -2   1   13.57    1.42
  -8   2   1   12.20    1.32
  -8  -2   0    0.40    1.19
  -8  -2   0    0.72    1.18
  -8  -2  -1    3.79    1.47
  -8   2  -1    3.39    1.28
  -8  -2  -1    4.01    1.37
  -8   2  -1    2.64    1.22
  -8  -2  -2    1.10    1.49
  -8   2  -2    0.18    1.34
   8   2   2   -0.21    1.28
  -8   2  -2    1.66    1.47
  -8   2  -3    1.79    1.35
   8  -2   3    2.19    1.22
  -8  -3   8    1.67    1.40
  -8  -3   7    0.67    1.37
  -8   3   7    0.77    1.42
   8  -3  -7   -0.27    0.81
  -8   3   6    0.89    1.32
   8   3  -6   -0.56    1.25
  -8   3   5   10.88    1.38
  -8  -3   5    9.66    1.41
   8   3  -5   12.47    1.51
  -8  -3   4    4.85    1.27
  -8   3   4    7.65    1.42
   8   3  -4    6.07    1.42
  -8   3   3    6.38    1.27
   8   3  -3    7.53    1.54
  -8  -3   3    6.20    1.29
   8   3  -2   12.59    1.49
  -8  -3   2   12.26    1.41
  -8   3   1   -1.12    1.24
  -8  -3   1   -0.03    1.19
  -8  -3   1   -0.32    1.19
  -8  -3   0   -0.28    1.26
  -8  -3   0    1.44    1.43
  -8   3   0    1.97    1.19
  -8  -3  -1   11.87    1.54
  -8   3  -1   11.93    1.40
  -8  -3  -1   11.64    1.64
  -8   3  -1   12.40    1.38
  -8   3  -2    3.22    1.44
  -8   3  -2    4.35    1.42
  -8   3  -3   -0.52    1.47
   8  -3   3    0.43    1.05
  -8  -4   8    1.39    1.47
  -8  -4   7   -0.19    1.35
  -8  -4   6    5.01    1.38
  -8   4   6    4.61    1.43
   8   4  -6    4.66    1.46
  -8  -4   5    4.66    1.34
  -8   4   5    5.39    1.37
   8   4  -5    5.06    1.53
  -8   4   4    0.19    1.35
   8   4  -4   -0.06    1.40
   8   4  -3   -0.23    1.44
  -8  -4   3    0.37    1.24
  -8   4   2    8.01    1.35
  -8  -4   2    7.20    1.30
   8   4  -2    8.06    1.50
  -8  -4   2    6.46    1.33
  -8   4   1    5.38    1.31
  -8  -4   1    7.17    1.37
  -8  -4   1    6.24    1.40
  -8  -4   0    3.01    1.52
  -8  -4   0    3.05    1.40
  -8   4   0    1.27    1.16
  -8  -4  -1    1.78    1.40
  -8   4  -1    2.31    1.23
  -8   4  -1    1.21    1.27
  -8   4  -2   -1.91    1.41
  -8   4  -2   -0.25    1.29
  -8   4  -3    1.21    1.41
   8  -4   3    1.31    1.11
  -8  -5   8    1.18    1.52
  -8  -5   7   -0.83    1.51
  -8  -5   6    1.20    1.37
  -8   5   6    0.85    1.41
   8   5  -5    2.85    1.61
  -8  -5   5    2.77    1.28
   8   5  -4    1.82    1.56
  -8  -5   4    2.72    1.34
  -8   5   3    3.39    1.37
   8   5  -3    1.80    1.65
  -8   5   2    1.93    1.18
  -8  -5   2    4.09    1.28
   8   5  -2    2.42    1.58
  -8  -5   2    1.89    1.30
  -8   5   1    0.73    1.24
  -8  -5   1    1.52    1.38
  -8  -5   1    2.13    1.34
  -8  -5   0    0.83    1.40
  -8  -5   0    1.47    1.38
  -8   5   0    2.52    1.31
  -8   5  -1    3.18    1.29
  -8   5  -1    2.94    1.32
  -8   5  -2    2.50    1.38
  -8   5  -2    0.57    1.42
  -8  -6   7    0.31    1.48
  -8  -6   6    0.68    1.51
  -8   6   5    0.11    1.43
  -8  -6   5   -0.33    1.33
  -8   6   4    0.82    1.42
  -8  -6   4   -0.29    1.35
  -8  -6   4    2.17    1.33
  -8   6   3    2.56    1.42
  -8  -6   3    2.41    1.35
   8   6  -3    1.29    1.73
  -8  -6   3    1.30    1.36
  -8   6   2    1.29    1.31
   8   6  -2    1.68    1.63
  -8   6   1    0.61    1.29
  -8   6   0    1.97    1.35
  -8   6  -1    0.59    1.25
  -8   6  -1    1.66    1.30
  -8  -7   6    2.11    1.46
  -8  -7   6    1.00    1.51
  -8  -7   5    1.10    1.37
  -8  -7   5    0.03    1.48
  -8   7   4    1.21    1.48
  -8  -7   4    1.02    1.39
  -8  -7   4    0.23    1.35
  -8   7   3    0.80    1.42
  -8  -7   3    1.53    1.52
  -8  -7   3    1.72    1.50
  -8   7   2    0.40    1.23
  -8  -7   2   -0.90    1.41
  -8  -7   2    0.31    1.45
  -8   7   1   -1.10    1.34
  -8   7   0   -0.20    1.31
  -8  -8   5    0.84    1.59
  -8  -8   5   -0.66    1.57
  -8  -8   4    1.30    1.59
  -8  -8   4   -0.62    1.56
  -8   8   3    1.29    1.48
  -8   8   2    0.17    1.43
   9   0  -8    3.22    1.17
   9   0  -7   -0.04    1.15
  -9   0   6   -1.34    1.45
   9   0  -6    1.06    1.21
   9   0  -5   11.65    1.47
  -9   0   5   11.19    1.58
   9   0  -4   16.68    1.47
  -9   0   4   19.37    1.69
  -9   0   3    5.29    1.40
  -9   0   2    0.86    1.31
  -9   0   1    2.90    1.40
  -9   0   0    2.68    1.38
  -9   0   0    0.59    1.32
   9  -1  -8    2.06    1.03
   9  -1  -7    6.77    1.14
   9   1  -7    6.51    1.31
  -9  -1   6    1.44    1.48
  -9   1   6    1.34    1.50
   9  -1  -6    2.71    1.14
   9   1  -6    1.74    1.22
  -9  -1   5    2.11    1.40
  -9   1   5    2.85    1.40
   9  -1  -5    3.33    1.17
   9   1  -5    2.10    1.27
  -9  -1   4    0.75    1.34
  -9   1   4    2.29    1.36
   9   1  -4    0.70    1.32
  -9  -1   3    3.49    1.29
  -9   1   3    2.43    1.37
  -9   1   2    4.10    1.36
  -9  -1   2    3.75    1.40
  -9  -1   1   23.83    1.79
  -9  -1   1   23.63    1.80
  -9   1   1   23.71    1.91
  -9  -1   0    0.37    1.40
  -9  -1   0    0.99    1.52
   9  -2  -7    1.25    0.95
   9   2  -7   -0.27    1.29
  -9  -2   6    1.31    1.44
   9  -2  -6   -0.02    1.05
   9   2  -6    0.22    1.25
  -9  -2   5    5.49    1.50
  -9   2   5    7.72    1.53
   9   2  -5    6.26    1.50
  -9  -2   4   11.79    1.57
  -9   2   4   14.62    1.64
  -9   2   3    2.42    1.33
  -9  -2   3    1.86    1.36
  -9   2   2    1.00    1.46
  -9  -2   2    0.24    1.43
  -9  -2   1    0.61    1.33
  -9  -2   1    3.14    1.39
  -9   2   0    2.02    1.46
  -9   2   0    2.27    1.45
  -9   2  -1    0.69    1.59
  -9   2  -1    0.06    1.63
  -9  -3   5    1.76    1.52
  -9   3   5    2.20    1.50
  -9  -3   4   -0.79    1.34
  -9   3   4   -0.18    1.43
   9   3  -4    0.10    1.65
   9   3  -3    3.30    1.59
  -9  -3   3    1.81    1.45
  -9  -3   2    1.70    1.39
  -9  -3   2    1.94    1.49
  -9   3   1    9.29    1.61
  -9   3   0    0.34    1.34
  -9   3   0   -0.86    1.48
  -9   3  -1    0.50    1.42
  -9   3  -1    1.62    1.54
  -9  -4   5    0.39    1.47
  -9   4   3    0.51    1.48
   9   4  -3    0.58    1.69
  -9  -4   3    0.99    1.43
  -9   4   2    1.01    1.40
  -9   4   1   -0.40    1.43
  -9   4   0    0.98    1.33
  -9   4   0   -0.08    1.47
  -9   4  -1   -0.05    1.55
  -9   4  -1   -1.14    1.56
  -9   5   3    1.03    1.41
  -9   5   2   -0.66    1.47
  -9   5   1    2.96    1.46
  -9   5   0    0.21    1.46
  -9   5  -1   -0.48    1.52
  -9   5  -1   -0.92    1.53
  -9   6   2    0.05    1.58
  -9   6   1    0.21    1.34
  -9   6   0    0.89    1.53
  -9   6   0    0.70    1.50
  10   0  -6    2.56    1.30
  10   0  -5    0.05    1.36
  10  -1  -7   -0.14    1.25
  10  -1  -6    3.56    1.34
  10   1  -5    0.28    1.47
   0   0   0    0.00    0.00
;
_shelx_hkl_checksum              46594
_olex2_submission_special_instructions 'No special instructions were received'
loop_
_space_group_symop_operation_xyz
'x, y, z'
'-x, y+1/2, -z'
'-x, -y, -z'
'x, -y-1/2, z'
loop_
_atom_site_label
_atom_site_type_symbol
_atom_site_fract_x
_atom_site_fract_y
_atom_site_fract_z
_atom_site_U_iso_or_equiv
_atom_site_adp_type
_atom_site_occupancy
_atom_site_site_symmetry_order
_atom_site_calc_flag
_atom_site_refinement_flags_posn
_atom_site_refinement_flags_adp
_atom_site_refinement_flags_occupancy
_atom_site_disorder_assembly
_atom_site_disorder_group
C2 C 0.263(2) 0.8855(16) 0.437(2) 0.058(3) Uani 0.5 1 d D . . A -1
H2A H 0.3516 0.8728 0.3691 0.087 Uiso 0.5 1 calc GR . . A -1
H2B H 0.2903 0.9803 0.5075 0.087 Uiso 0.5 1 calc GR . . A -1
H2C H 0.1342 0.8893 0.3484 0.087 Uiso 0.5 1 calc GR . . A -1
C3 C 0.4882(7) 0.725(3) 0.6952(8) 0.090(5) Uani 0.5 1 d D U . A -1
H3A H 0.5717 0.7369 0.6217 0.135 Uiso 0.5 1 calc GR . . A -1
H3B H 0.5021 0.6222 0.7475 0.135 Uiso 0.5 1 calc GR . . A -1
H3C H 0.5215 0.7998 0.7955 0.135 Uiso 0.5 1 calc GR . . A -1
C1 C 0.217(2) 0.6054(18) 0.453(3) 0.066(3) Uani 0.5 1 d D . . A -1
H1A H 0.0833 0.6144 0.3794 0.100 Uiso 0.5 1 calc GR . . A -1
H1B H 0.2355 0.5170 0.5346 0.100 Uiso 0.5 1 calc GR . . A -1
H1C H 0.2907 0.5928 0.3701 0.100 Uiso 0.5 1 calc GR . . A -1
C4 C 0.1498(7) 0.7922(5) 0.6825(7) 0.0532(18) Uani 0.5 1 d D . . A -1
H4A H 0.1774 0.8969 0.7314 0.064 Uiso 0.5 1 calc R . . A -1
H4B H 0.0168 0.7881 0.6013 0.064 Uiso 0.5 1 calc R . . A -1
C5 C 0.1824(8) 0.6796(8) 0.8427(9) 0.0625(15) Uani 0.5 1 d D . . A -1
H5A H 0.3063 0.6982 0.9380 0.075 Uiso 0.5 1 calc R . . A -1
H5B H 0.1798 0.5739 0.7974 0.075 Uiso 0.5 1 calc R . . A -1
N1 N 0.2811(5) 0.7500 0.5696(5) 0.0629(10) Uani 1 2 d DS T P . .
Br1 Br -0.02189(9) 0.71113(12) 0.94819(9) 0.0787(4) Uani 0.5 1 d . . . A -1
Br2 Br 0.33043(6) 0.2500 0.75416(6) 0.05831(19) Uani 1 2 d S T P . .
loop_
_atom_site_aniso_label
_atom_site_aniso_U_11
_atom_site_aniso_U_22
_atom_site_aniso_U_33
_atom_site_aniso_U_23
_atom_site_aniso_U_13
_atom_site_aniso_U_12
C2 0.050(6) 0.050(4) 0.083(7) -0.014(4) 0.033(5) 0.005(3)
C3 0.035(3) 0.164(14) 0.064(4) -0.031(8) 0.008(2) -0.001(5)
C1 0.063(8) 0.066(6) 0.084(6) 0.003(5) 0.042(6) -0.006(4)
C4 0.043(3) 0.063(5) 0.051(3) -0.005(2) 0.013(2) 0.004(2)
C5 0.048(3) 0.090(4) 0.052(3) 0.000(3) 0.020(3) 0.004(3)
N1 0.0426(18) 0.096(3) 0.046(2) 0.000 0.0089(15) 0.000
Br1 0.0561(4) 0.1256(13) 0.0572(4) -0.0079(4) 0.0226(3) -0.0042(3)
Br2 0.0559(3) 0.0659(3) 0.0518(3) 0.000 0.0162(2) 0.000
loop_
_atom_type_symbol
_atom_type_description
_atom_type_scat_dispersion_real
_atom_type_scat_dispersion_imag
_atom_type_scat_source
C C 0.0033 0.0016 'International Tables Vol C Tables 4.2.6.8 and 6.1.1.4'
H H 0.0000 0.0000 'International Tables Vol C Tables 4.2.6.8 and 6.1.1.4'
Br Br -0.2901 2.4595 'International Tables Vol C Tables 4.2.6.8 and 6.1.1.4'
N N 0.0061 0.0033 'International Tables Vol C Tables 4.2.6.8 and 6.1.1.4'
loop_
_geom_angle_atom_site_label_1
_geom_angle_atom_site_label_2
_geom_angle_atom_site_label_3
_geom_angle
H2A C2 H2B 109.5
H2A C2 H2C 109.5
H2B C2 H2C 109.5
N1 C2 H2A 109.5
N1 C2 H2B 109.5
N1 C2 H2C 109.5
H3A C3 H3B 109.5
H3A C3 H3C 109.5
H3B C3 H3C 109.5
N1 C3 H3A 109.5
N1 C3 H3B 109.5
N1 C3 H3C 109.5
H1A C1 H1B 109.5
H1A C1 H1C 109.5
H1B C1 H1C 109.5
N1 C1 H1A 109.5
N1 C1 H1B 109.5
N1 C1 H1C 109.5
H4A C4 H4B 108.3
C5 C4 H4A 109.8
C5 C4 H4B 109.8
C5 C4 N1 109.2(4)
N1 C4 H4A 109.8
N1 C4 H4B 109.8
C4 C5 H5A 110.3
C4 C5 H5B 110.3
C4 C5 Br1 107.3(4)
H5A C5 H5B 108.5
Br1 C5 H5A 110.3
Br1 C5 H5B 110.3
C2 N1 C3 111.8(8)
C2 N1 C4 104.4(5)
C3 N1 C4 112.4(4)
C1 N1 C2 108.1(4)
C1 N1 C3 107.5(9)
C1 N1 C4 112.6(5)
loop_
_geom_bond_atom_site_label_1
_geom_bond_atom_site_label_2
_geom_bond_distance
C2 H2A 0.9600
C2 H2B 0.9600
C2 H2C 0.9600
C2 N1 1.513(7)
C3 H3A 0.9600
C3 H3B 0.9600
C3 H3C 0.9600
C3 N1 1.523(6)
C1 H1A 0.9600
C1 H1B 0.9600
C1 H1C 0.9600
C1 N1 1.507(8)
C4 H4A 0.9700
C4 H4B 0.9700
C4 C5 1.502(6)
C4 N1 1.529(5)
C5 H5A 0.9700
C5 H5B 0.9700
C5 Br1 1.942(6)
loop_
_geom_torsion_atom_site_label_1
_geom_torsion_atom_site_label_2
_geom_torsion_atom_site_label_3
_geom_torsion_atom_site_label_4
_geom_torsion
C5 C4 N1 C2 -170.2(9)
C5 C4 N1 C3 -48.8(11)
C5 C4 N1 C1 72.8(10)
N1 C4 C5 Br1 -168.4(3)
