#------------------------------------------------------------------------------
#$Date: 2019-11-24 09:43:58 +0200 (Sun, 24 Nov 2019) $
#$Revision: 237508 $
#$URL: file:///home/coder/svn-repositories/cod/cif/7/23/72/7237235.cif $
#------------------------------------------------------------------------------
#
# This file is available in the Crystallography Open Database (COD),
# http://www.crystallography.net/
#
# All data on this site have been placed in the public domain by the
# contributors.
#
data_7237235
loop_
_publ_author_name
'Usoltsev, Andrey N.'
'Elshobaki, Moneim'
'Adonin, Sergey A.'
'Frolova, Lyubov A.'
'Derzhavskaya, Tatiyana'
'Abramov, Pavel A.'
'Anokhin, Denis V.'
'Korolkov, Ilya V.'
'Luchkin, Sergey Yu.'
'Dremova, Nadezhda N.'
'Stevenson, Keith J.'
'Sokolov, Maxim N.'
'Fedin, Vladimir P.'
'Troshin, Pavel A.'
_publ_section_title
;
 Polymeric iodobismuthates {[Bi3I10]} and {[BiI4]} with N-heterocyclic
 cations: promising perovskite-like photoactive materials for electronic
 devices
;
_journal_issue                   11
_journal_name_full               'Journal of Materials Chemistry A'
_journal_page_first              5957
_journal_paper_doi               10.1039/C8TA09204D
_journal_volume                  7
_journal_year                    2019
_chemical_formula_sum            'C10 H10 Bi I4 N'
_chemical_formula_weight         860.77
_space_group_crystal_system      triclinic
_space_group_IT_number           2
_space_group_name_Hall           '-P 1'
_space_group_name_H-M_alt        'P -1'
_atom_sites_solution_hydrogens   geom
_atom_sites_solution_primary     direct
_atom_sites_solution_secondary   difmap
_audit_creation_method           SHELXL-2014/7
_audit_update_record
;
2017-08-03 deposited with the CCDC.
2018-12-06 downloaded from the CCDC.
;
_cell_angle_alpha                71.809(4)
_cell_angle_beta                 84.837(3)
_cell_angle_gamma                83.290(3)
_cell_formula_units_Z            2
_cell_length_a                   7.6749(3)
_cell_length_b                   10.0389(4)
_cell_length_c                   11.4778(5)
_cell_measurement_reflns_used    3282
_cell_measurement_temperature    130(2)
_cell_measurement_theta_max      29.2270
_cell_measurement_theta_min      3.6860
_cell_volume                     833.04(6)
_computing_cell_refinement       'CrysAlisPro 1.171.38.41 (Rigaku OD, 2015)'
_computing_data_collection       'CrysAlisPro 1.171.38.41 (Rigaku OD, 2015)'
_computing_data_reduction        'CrysAlisPro 1.171.38.41 (Rigaku OD, 2015)'
_computing_molecular_graphics    'ShelXle (H\"ubschle, 2011)'
_computing_publication_material  'CIFTAB-2014 (Sheldrick, 2014)'
_computing_structure_refinement  'SHELXL-2014 (Sheldrick, 2014)'
_computing_structure_solution    'SHELXS-2014 (Sheldrick, 2014)'
_diffrn_ambient_temperature      130(2)
_diffrn_detector                 'CCD plate'
_diffrn_detector_area_resol_mean 10.6168
_diffrn_detector_type            AtlasS2
_diffrn_measured_fraction_theta_full 0.998
_diffrn_measured_fraction_theta_max 0.827
_diffrn_measurement_device       'four-circle diffractometer'
_diffrn_measurement_device_type  'New Xcalibur, AtlasS2'
_diffrn_measurement_method       '\w scans'
_diffrn_radiation_monochromator  graphite
_diffrn_radiation_probe          x-ray
_diffrn_radiation_source         'fine-focus sealed tube'
_diffrn_radiation_type           MoK\a
_diffrn_radiation_wavelength     0.71073
_diffrn_reflns_av_R_equivalents  0.0359
_diffrn_reflns_av_unetI/netI     0.0618
_diffrn_reflns_Laue_measured_fraction_full 0.998
_diffrn_reflns_Laue_measured_fraction_max 0.827
_diffrn_reflns_limit_h_max       10
_diffrn_reflns_limit_h_min       -8
_diffrn_reflns_limit_k_max       12
_diffrn_reflns_limit_k_min       -11
_diffrn_reflns_limit_l_max       15
_diffrn_reflns_limit_l_min       -15
_diffrn_reflns_number            6579
_diffrn_reflns_point_group_measured_fraction_full 0.998
_diffrn_reflns_point_group_measured_fraction_max 0.827
_diffrn_reflns_theta_full        25.500
_diffrn_reflns_theta_max         29.576
_diffrn_reflns_theta_min         3.343
_diffrn_source                   'sealed X-ray tube'
_exptl_absorpt_coefficient_mu    17.973
_exptl_absorpt_correction_T_max  1.00000
_exptl_absorpt_correction_T_min  0.13940
_exptl_absorpt_correction_type   multi-scan
_exptl_absorpt_process_details
;
CrysAlisPro 1.171.38.41 (Rigaku Oxford Diffraction, 2015)
Empirical absorption correction using spherical harmonics,
implemented in SCALE3 ABSPACK scaling algorithm.
;
_exptl_crystal_colour            yellow
_exptl_crystal_density_diffrn    3.432
_exptl_crystal_description       block
_exptl_crystal_F_000             744
_exptl_crystal_size_max          0.150
_exptl_crystal_size_mid          0.150
_exptl_crystal_size_min          0.050
_refine_diff_density_max         2.827
_refine_diff_density_min         -4.081
_refine_diff_density_rms         0.382
_refine_ls_extinction_method     none
_refine_ls_goodness_of_fit_ref   1.026
_refine_ls_hydrogen_treatment    constr
_refine_ls_matrix_type           full
_refine_ls_number_parameters     145
_refine_ls_number_reflns         3863
_refine_ls_number_restraints     0
_refine_ls_restrained_S_all      1.026
_refine_ls_R_factor_all          0.0480
_refine_ls_R_factor_gt           0.0417
_refine_ls_shift/su_max          0.000
_refine_ls_shift/su_mean         0.000
_refine_ls_structure_factor_coef Fsqd
_refine_ls_weighting_details
'w=1/[\s^2^(Fo^2^)+(0.0375P)^2^] where P=(Fo^2^+2Fc^2^)/3'
_refine_ls_weighting_scheme      calc
_refine_ls_wR_factor_gt          0.0855
_refine_ls_wR_factor_ref         0.0893
_reflns_Friedel_coverage         0.000
_reflns_number_gt                3419
_reflns_number_total             3863
_reflns_threshold_expression     >2\s(I)
_cod_data_source_file            c8ta09204d2.cif
_cod_data_source_block           AU91_a
_cod_database_code               7237235
_shelx_shelxl_version_number     2014/7
_shelx_space_group_comment
;
The symmetry employed for this shelxl refinement is uniquely defined
by the following loop, which should always be used as a source of
symmetry information in preference to the above space-group names.
They are only intended as comments.
;
_shelx_estimated_absorpt_t_min   0.174
_shelx_estimated_absorpt_t_max   0.467
_shelx_res_file
;

    AU91_a.res created by SHELXL-2014/7


TITL AU91_a.res in P-1
REM Old TITL AU91 in P-1

REM SHELXT solution in P-1
REM R1 0.094,  Rweak 0.009,  Alpha 0.031,  Orientation as input
REM Formula found by SHELXT:  C6 N2 I4 Bi

CELL  0.71073   7.6749  10.0389  11.4778   71.809   84.837   83.290
ZERR   2.000   0.0003   0.0004   0.0005    0.004    0.003    0.003
LATT  1
SFAC C H N I BI
UNIT 20 20 2 8 2
TEMP -143
L.S. 10
BOND $H
LIST 4
FMAP 2
OMIT 0 180
PLAN 20

ACTA 51
SIZE 0.15 0.15 0.05
WGHT    0.037500
FVAR       0.19456
C1    1    0.404637    1.345403    0.136563    11.00000    0.03405    0.02658 =
         0.04556   -0.01412   -0.01189   -0.00523
AFIX  33
H1A   2    0.386436    1.344396    0.222435    11.00000   -1.50000
H1B   2    0.530401    1.345210    0.112378    11.00000   -1.50000
H1C   2    0.341410    1.430269    0.084006    11.00000   -1.50000
AFIX   0
C2    1    0.269270    1.122351    0.223716    11.00000    0.01579    0.03271 =
         0.01437   -0.00798    0.00442   -0.00667
AFIX  43
H2A   2    0.264470    1.138021    0.301449    11.00000   -1.20000
AFIX   0
C3    1    0.348447    1.197908    0.013545    11.00000    0.00969    0.01741 =
         0.02276    0.00238    0.00207   -0.00415
AFIX  43
H3A   2    0.398171    1.265294   -0.055502    11.00000   -1.20000
AFIX   0
C4    1    0.207807    1.004132    0.215750    11.00000    0.01977    0.01757 =
         0.02145   -0.00010   -0.00697   -0.00473
AFIX  43
H4A   2    0.158016    0.939555    0.286758    11.00000   -1.20000
AFIX   0
C5    1    0.288692    1.079455   -0.002417    11.00000    0.00817    0.01664 =
         0.01634   -0.00263   -0.00341    0.00418
C6    1    0.218315    0.977866    0.101689    11.00000    0.01408    0.01647 =
         0.02406   -0.00857   -0.00818    0.00265
C7    1    0.157557    0.856310    0.085953    11.00000    0.01587    0.02526 =
         0.02678   -0.00715   -0.00293    0.00076
AFIX  43
H7A   2    0.108672    0.787502    0.154295    11.00000   -1.20000
AFIX   0
C8    1    0.169948    0.839342   -0.027507    11.00000    0.01036    0.02985 =
         0.05962   -0.02934   -0.01132    0.00521
AFIX  43
H8A   2    0.131100    0.757331   -0.037515    11.00000   -1.20000
AFIX   0
C9    1    0.238906    0.940459   -0.130000    11.00000    0.02045    0.03959 =
         0.02621   -0.01798   -0.01219    0.00876
AFIX  43
H9A   2    0.244385    0.925741   -0.208141    11.00000   -1.20000
AFIX   0
C10   1    0.298821    1.060256   -0.120799    11.00000    0.01986    0.03068 =
         0.01323   -0.00462   -0.00547    0.00378
AFIX  43
H10A  2    0.345438    1.128022   -0.190978    11.00000   -1.20000
AFIX   0
N1    3    0.337966    1.219589    0.122833    11.00000    0.01655    0.01945 =
         0.01857   -0.00467   -0.00590    0.00164
I1    4    0.430999    0.597966    0.312972    11.00000    0.01512    0.02093 =
         0.01117   -0.00266   -0.00071   -0.00040
I2    4    0.920694    0.476376    0.170180    11.00000    0.02022    0.02437 =
         0.01359   -0.00486    0.00343   -0.00300
I3    4    0.654370    0.152394    0.444157    11.00000    0.02908    0.01753 =
         0.01814   -0.00470   -0.00351   -0.00885
I4    4    1.110741    0.278728    0.545631    11.00000    0.01483    0.01587 =
         0.02380   -0.00347   -0.00552   -0.00202
BI1   5    0.773217    0.422116    0.425939    11.00000    0.01258    0.01518 =
         0.01164   -0.00350   -0.00064   -0.00316

HKLF 4

REM  AU91_a.res in P-1
REM R1 =  0.0417 for    3419 Fo > 4sig(Fo)  and  0.0480 for all    3863 data
REM    145 parameters refined using      0 restraints

END

WGHT      0.0375      0.0000

REM Highest difference peak  2.827,  deepest hole -4.081,  1-sigma level  0.382
Q1    1   0.7645  0.3355  0.4754  11.00000  0.05    2.83
Q2    1   0.7778  0.5009  0.3576  11.00000  0.05    2.53
Q3    1   0.8687  0.4211  0.4343  11.00000  0.05    2.35
Q4    1   0.8765  0.5416  0.3600  11.00000  0.05    2.16
Q5    1   0.8467  0.4062  0.5047  11.00000  0.05    2.00
Q6    1   0.6889  0.4208  0.4100  11.00000  0.05    1.95
Q7    1   0.6583  0.2411  0.4020  11.00000  0.05    1.86
Q8    1   0.6772  0.3201  0.4908  11.00000  0.05    1.77
Q9    1   0.5050  0.5801  0.3985  11.00000  0.05    1.73
Q10   1   0.8178  0.3549  0.2345  11.00000  0.05    1.66
Q11   1   0.7094  0.4425  0.3435  11.00000  0.05    1.63
Q12   1   0.6067  0.5054  0.3753  11.00000  0.05    1.61
Q13   1   0.7924  0.5942  0.2824  11.00000  0.05    1.50
Q14   1   0.4176  0.4392  0.4581  11.00000  0.05    1.49
Q15   1   0.7490  0.1537  0.4508  11.00000  0.05    1.48
Q16   1   0.4301  0.6882  0.2533  11.00000  0.05    1.46
Q17   1   1.1023  0.3585  0.4965  11.00000  0.05    1.43
Q18   1   1.1033  0.1917  0.6142  11.00000  0.05    1.40
Q19   1   0.6391  0.0601  0.5157  11.00000  0.05    1.38
Q20   1   1.0602  0.4634  0.4985  11.00000  0.05    1.37
;
_shelx_res_checksum              6346
_shelx_hkl_file
;
   0   0   2  718.76    9.53
   0   0  -2  737.38   10.46
   0   0  -2  673.85   16.93
   0   0  -3  796.65   23.07
   0   0   3  845.45   12.12
   0   0  -3  842.86   14.07
   0   0   4   49.95    3.03
   0   0  -4   53.54    7.22
   0   0  -4   51.52    3.93
   0   0  -5  135.87   13.12
   0   0   5  137.39    5.59
   0   0  -5  142.66    8.16
   0   0  -6   52.05    6.00
   0   0  -6   37.24    8.00
   0   0   6   43.39    3.38
   0   0   7 1938.04   26.63
   0   0  -7 1904.33   46.33
   0   0   8 2134.62   29.22
   0   0  -8 2012.77   59.19
   0   0  -8 2105.44   75.30
   0   0  -9  538.43   42.60
   0   0  -9  619.98   38.00
   0   0   9  542.26   14.04
   0   0 -10  109.44   20.72
   0   0 -11   24.67   10.35
   0   0 -12   87.86   24.82
   0   0 -13    6.59    6.89
   0   0 -14    4.33    7.30
   0   1 -14    1.37   12.15
   0   1 -13    0.75    9.67
   0   1 -12   31.96   13.72
   0   1 -11   28.49   13.59
   0   1 -10   34.75   12.48
   0   1  -9   -0.11    5.85
   0   1  -8 1230.67   61.19
   0   1  -8 1260.06   37.88
   0   1  -7  672.19   22.46
   0   1  -7  766.08   43.60
   0   1  -6   -1.96    4.14
   0   1  -6    7.07    1.80
   0   1  -5    5.50    3.28
   0   1  -5    8.78    1.52
   0   1  -4   68.18    3.30
   0   1  -4   56.38    8.82
   0   1  -3  357.75    6.65
   0   1  -3  323.36   19.26
   0  -1   2  187.18   13.22
   0   1  -2  159.70   12.69
   0   1   2   85.44    5.10
   0  -1  -2   94.87    6.02
   0   1   2   83.23    3.87
   0  -1  -3  161.52    8.61
   0   1   3  154.57    7.06
   0  -1  -4 1421.64   29.83
   0   1   4 1412.41   23.30
   0  -1  -5  309.97   16.56
   0  -1  -5  329.28   16.01
   0   1   5  330.35   11.15
   0   1   6  164.98    8.09
   0  -1  -6  172.12   13.31
   0  -1  -6  165.94   14.44
   0  -1  -7  167.93   16.90
   0  -1  -7  140.36   13.99
   0   1   7  172.89    8.51
   0  -1  -8  269.37   24.71
   0  -1  -8  268.13   23.10
   0   1   8  255.99   10.69
   0  -1  -9  101.00   17.16
   0  -1  -9   90.05   16.76
   0   1   9  112.00    7.17
   0  -1 -10  182.71   26.63
   0  -1 -10  146.05   23.91
   0   1  10  151.88    8.74
   0  -1 -11  481.50   49.42
   0  -1 -12 1085.89   84.10
   0   1  13   71.67    9.89
   0  -1 -13   96.42   27.48
   0   1  14    5.90    3.17
   0  -1 -14   -1.29    9.61
   0  -1 -15   26.78   14.59
   0   2 -13  105.65   24.93
   0   2 -12   90.86   23.49
   0   2 -11   19.12   11.54
   0   2 -10   75.42   18.51
   0   2  -9   31.56   11.28
   0   2  -8  518.91   41.25
   0   2  -7  631.42   42.02
   0   2  -6   48.73   10.72
   0   2  -6   53.77    3.44
   0   2  -5  171.16   19.41
   0   2  -5  200.23    5.97
   0   2  -4   10.38    5.85
   0   2  -4    4.84    0.91
   0  -2   3  180.68   17.68
   0   2  -3  177.33   17.28
   0   2  -2 1327.06   46.38
   0  -2   2 1243.19   46.94
   0   2  -1  474.96   22.57
   0  -2   1  493.08   18.88
   0  -2   1  422.36   28.93
   0   2  -1  479.09   28.15
   0   2   0  279.84   19.83
   0   2   0  281.08   18.40
   0  -2   0  308.92   21.25
   0   2   0  252.90   17.77
   0   2   1   32.75    4.74
   0  -2  -1   28.35    2.85
   0   2   1   34.18    3.08
   0  -2  -1   33.96    4.76
   0   2   1   32.06    5.40
   0  -2  -1   26.27    5.00
   0  -2  -2  123.43    9.98
   0  -2  -2  135.45    6.91
   0   2   2  139.42   10.05
   0   2   2  130.52    7.10
   0  -2  -2  126.42    4.15
   0   2   3   88.63    7.35
   0  -2  -3   92.46    5.70
   0   2   3   94.74    5.73
   0  -2  -3   94.11    9.00
   0   2   4 1368.87   23.69
   0  -2  -4 1392.31   36.87
   0   2   4 1380.30   29.09
   0   2   5   95.69    6.26
   0   2   5  100.74    7.52
   0  -2  -5  107.06   11.05
   0  -2  -6  559.32   27.56
   0   2   6  547.59   18.03
   0   2   6  512.22   16.09
   0  -2  -7  203.56   16.62
   0   2   7  183.24   10.43
   0  -2  -7  207.12   19.25
   0   2   7  175.36    9.91
   0  -2  -8   54.65   10.66
   0  -2  -8   52.34   11.23
   0   2   8   48.80    5.69
   0   2   8   58.61    6.00
   0   2   9  388.40   17.24
   0   2   9  389.59   15.97
   0  -2  -9  378.70   35.66
   0  -2  -9  381.28   32.09
   0  -2 -10   82.53   19.67
   0  -2 -10  115.82   20.85
   0   2  10   99.79    9.36
   0   2  10  106.48    8.34
   0   2  11  384.82   16.14
   0   2  11  423.72   21.00
   0   2  12  839.97   31.44
   0  -2 -12 1010.47   83.04
   0   2  13   12.84    4.32
   0  -2 -13   28.39   16.97
   0  -2 -14   78.46   29.69
   0   2  14   72.07   10.60
   0  -2 -15   29.33   20.25
   0   3 -12   63.37   19.40
   0   3 -11  733.03   60.45
   0   3 -10  121.05   22.49
   0   3  -9   12.35    9.68
   0   3  -8  236.28   28.98
   0   3  -7   49.40   12.96
   0   3  -6   91.12    6.43
   0   3  -6   98.31   16.26
   0   3  -6   87.27    3.94
   0   3  -5  163.12   20.73
   0   3  -5  173.89    6.11
   0   3  -5  192.85   10.91
   0   3  -4 2213.73   72.19
   0  -3   4 2100.73   73.17
   0   3  -3 2719.64   51.85
   0   3  -3 2592.55   76.02
   0   3  -2  426.82   22.28
   0   3  -2  398.22   28.65
   0  -3   2  389.66   19.64
   0  -3   1   61.79    9.03
   0  -3   1   76.01   13.59
   0   3  -1   65.40   10.11
   0   3  -1   62.15   11.15
   0   3   0  390.39   25.92
   0   3   0  475.85   26.68
   0   3   0  432.36   29.17
   0  -3   0  512.29   31.50
   0  -3   0  525.95   30.02
   0   3   1   86.57   11.76
   0  -3  -1   90.16   11.16
   0  -3  -1   89.24    8.00
   0   3   1   90.76    7.64
   0   3   1   87.45   11.08
   0  -3  -1   85.26   11.24
   0   3   2  117.72    5.69
   0  -3  -2  117.78    5.96
   0  -3  -2  129.95   13.10
   0   3   2  116.59   12.48
   0   3   2  119.76    9.41
   0  -3  -2  118.20    8.95
   0  -3  -3  630.79   27.96
   0  -3  -3  619.38   18.55
   0   3   3  649.71   26.76
   0   3   3  654.95   19.69
   0  -3  -3  613.17   11.57
   0   3   4 4259.87   54.09
   0  -3  -4 4238.10   53.16
   0  -3  -4 4185.06   78.58
   0   3   4 4218.52   67.94
   0   3   5 2587.52   49.69
   0   3   5 2569.96   40.09
   0  -3  -5 2677.88   64.08
   0   3   6   58.41    6.92
   0  -3  -6   60.46   10.44
   0   3   6   59.86    5.77
   0   3   7  202.07   11.27
   0  -3  -7  231.01   22.00
   0   3   7  208.83   13.07
   0  -3  -8   40.67    8.67
   0  -3  -8   26.33    7.66
   0   3   8   29.74    4.66
   0   3   8   33.01    5.13
   0   3   9   45.35    6.06
   0  -3  -9   62.92   14.58
   0   3   9   54.36    6.79
   0  -3  -9   60.48   12.61
   0  -3 -10   20.10    8.71
   0   3  10   21.38    4.47
   0  -3 -10   29.90   10.78
   0   3  10   21.47    4.27
   0   3  11  155.75   12.78
   0  -3 -11  150.02   31.43
   0   3  11  134.68   10.83
   0  -3 -11  188.71   29.68
   0  -3 -12  926.24   78.89
   0   3  12  755.17   29.95
   0   3  13  101.59   11.45
   0  -3 -13  150.17   37.34
   0   3  14    2.34    2.20
   0  -3 -14   -4.11   16.51
   0   3  15    0.22    1.66
   0   4 -11  740.59   59.90
   0   4 -10  132.74   24.32
   0   4  -9   56.15   15.59
   0   4  -8   12.66    8.10
   0   4  -7  187.27   25.07
   0   4  -6  460.25   11.06
   0   4  -6  532.11   40.02
   0   4  -6  529.22   19.01
   0  -4   5  395.06   23.63
   0   4  -5  395.43   33.30
   0  -4   4 1768.38   73.84
   0  -4   4 1933.01   51.94
   0   4  -4 1793.34   69.50
   0   4  -3 3950.43   70.65
   0  -4   3 3854.15  106.47
   0   4  -2  146.42   13.94
   0   4  -2  140.54   18.39
   0  -4   2  108.12   12.65
   0  -4   2  159.05   20.92
   0   4  -1   15.61    4.96
   0   4  -1   11.65    6.56
   0  -4   1   16.90    7.54
   0  -4   1    5.84    3.97
   0   4   0  108.82   16.44
   0  -4   0  133.28   16.37
   0   4   0   97.79   12.26
   0   4   0   88.11   12.70
   0  -4   0  114.01   16.15
   0   4   1 1096.55   47.34
   0  -4  -1  991.26   35.69
   0   4   1  997.65   32.93
   0  -4  -1 1113.97   47.34
   0   4   1 1066.86   44.55
   0  -4  -2  349.24   14.70
   0   4   2  331.87   24.47
   0  -4  -2  349.01   24.77
   0  -4  -2  361.78   21.11
   0   4   2  378.54   14.23
   0   4   2  341.48   21.27
   0  -4  -3  341.54   11.17
   0  -4  -3  360.62   17.38
   0  -4  -3  330.30   23.99
   0   4   3  373.32   18.90
   0   4   3  341.72   10.65
   0   4   3  342.86   24.05
   0   4   4 2769.58   65.67
   0  -4  -4 2910.10   48.29
   0   4   4 2833.02   50.41
   0  -4  -4 2869.28   32.64
   0  -4  -4 2749.33   70.96
   0  -4  -5 1298.45   49.62
   0   4   5 1351.79   42.17
   0  -4  -5 1322.41   20.38
   0  -4  -5 1382.17   31.73
   0   4   5 1387.35   32.75
   0  -4  -6    2.04    1.95
   0   4   6    3.47    2.32
   0   4   6    1.38    1.73
   0  -4  -6    4.94    4.02
   0  -4  -7    5.99    4.76
   0   4   7    8.34    2.49
   0   4   7    8.38    2.84
   0   4   8  374.20   17.56
   0  -4  -8  367.85   32.47
   0   4   8  376.31   20.00
   0   4   9  479.71   22.42
   0   4   9  452.02   20.29
   0  -4  -9  532.82   32.38
   0  -4  -9  473.97   42.56
   0   4  10    5.43    2.08
   0  -4 -10    8.12    5.75
   0   4  10    7.86    3.10
   0  -4 -10    0.75    5.81
   0  -4 -11   50.05   14.64
   0  -4 -11   43.10   14.91
   0   4  11   38.74    6.41
   0   4  12  395.38   22.07
   0  -4 -12  541.12   58.31
   0   4  13    7.31    3.19
   0  -4 -13   20.11   13.09
   0   4  14   27.55    6.53
   0   4  15   47.78    9.22
   0   5 -10  136.35   24.58
   0   5  -9   -1.34    4.71
   0   5  -8   15.01    5.97
   0   5  -7   18.53    7.06
   0   5  -6    4.79    1.36
   0   5  -6    6.77    5.58
   0   5  -6    5.29    2.32
   0   5  -5  310.67   30.54
   0   5  -5  349.01   19.39
   0  -5   4   42.89    8.75
   0   5  -4   41.15   10.75
   0   5  -4   55.00    7.94
   0  -5   3  458.01   36.92
   0   5  -3  387.25   31.53
   0   5  -3  390.45   22.47
   0   5  -2   68.63   12.67
   0  -5   2   65.20   14.33
   0   5  -2   43.80    8.51
   0  -5   2   41.18    9.61
   0   5  -1   94.73   14.34
   0   5  -1   94.24   12.94
   0  -5   1   69.39   12.05
   0  -5   1  112.83   17.19
   0  -5   0  225.90   22.09
   0   5   0  184.27   17.70
   0   5   0  196.56   21.86
   0  -5   0  227.53   23.96
   0   5   0  198.13   19.16
   0   5   1  356.21   22.16
   0  -5  -1  429.87   26.64
   0  -5  -1  474.05   34.17
   0   5   1  414.00   31.56
   0   5   1  382.73   28.48
   0   5   2  133.78   11.02
   0  -5  -2  111.83   11.15
   0   5   2  133.39   16.65
   0  -5  -2  137.55   16.22
   0   5   2  117.75   15.28
   0  -5  -3  750.36   22.21
   0   5   3  730.79   40.03
   0   5   3  840.34   21.35
   0  -5  -3  816.63   33.22
   0  -5  -3  736.45   39.70
   0   5   3  820.98   34.81
   0  -5  -4   18.46    2.77
   0   5   4   21.46    5.26
   0  -5  -4   14.53    3.77
   0   5   4   16.88    5.76
   0  -5  -4   13.09    5.50
   0   5   5  153.81   12.72
   0  -5  -5  159.97   11.96
   0  -5  -5  139.29   17.71
   0  -5  -5  164.49    7.42
   0   5   5  163.54   17.42
   0  -5  -6  766.39   16.30
   0  -5  -6  811.26   26.83
   0   5   6  794.44   36.43
   0  -5  -6  716.59   42.57
   0   5   6  792.64   28.13
   0   5   7  484.20   27.05
   0  -5  -7  485.40   20.56
   0  -5  -7  428.06   34.56
   0   5   7  465.92   21.20
   0  -5  -8  939.43   55.11
   0   5   8  987.86   37.65
   0   5   8  986.69   31.83
   0  -5  -9  627.40   49.57
   0   5   9  714.72   27.32
   0   5  10  140.75   12.64
   0  -5 -10  127.19   24.16
   0  -5 -10  177.35   21.53
   0  -5 -11  191.62   27.24
   0   5  11  168.40   14.46
   0   5  12   47.23    8.02
   0  -5 -12   36.49   14.87
   0   5  13  335.66   22.46
   0  -5 -13  445.84   59.79
   0   5  14  289.37   21.76
   0   5  15  274.93   22.18
   0   6  -9    5.29    7.99
   0   6  -8   13.09    7.46
   0   6  -7  310.80   33.44
   0   6  -6   96.57   18.49
   0   6  -6  102.50   10.41
   0   6  -5  124.26   12.53
   0   6  -5  102.47   17.78
   0   6  -4   26.68    8.97
   0   6  -4   23.78    6.11
   0   6  -3  119.85   13.49
   0   6  -3  127.84   18.48
   0  -6   2   49.71   11.80
   0   6  -2   38.23    9.11
   0   6  -2   39.32    8.00
   0   6  -1   60.30   10.13
   0  -6   1   65.81   12.78
   0   6  -1   61.74   10.98
   0  -6   1   48.37   11.20
   0  -6   0  370.39   28.74
   0  -6   0  376.23   31.76
   0   6   0  331.50   25.88
   0   6   0  350.04   30.15
   0   6   0  309.61   23.77
   0   6   1 1311.73   46.81
   0  -6  -1 1620.37   56.32
   0  -6  -1 1801.33   69.20
   0   6   1 1539.00   63.76
   0   6   1 1477.18   56.90
   0  -6  -2   41.39   10.23
   0   6   2   23.18    8.48
   0   6   2   33.30    9.88
   0   6   2   32.77    6.29
   0  -6  -2   26.80    6.16
   0   6   3  294.65   15.85
   0  -6  -3  270.10   17.15
   0   6   3  301.39   25.11
   0   6   3  287.08   27.95
   0  -6  -3  312.82   24.62
   0  -6  -4    0.27    1.02
   0   6   4    1.63    3.79
   0   6   4    5.51    4.22
   0  -6  -4    8.72    3.77
   0  -6  -4   -2.15    4.44
   0   6   5   42.94   11.22
   0  -6  -5   50.52    5.01
   0  -6  -5   38.54    9.56
   0  -6  -5   50.99    7.97
   0   6   5   55.39    9.19
   0  -6  -6  160.68   20.78
   0   6   6  173.77   19.88
   0   6   6  200.05   16.46
   0  -6  -6  194.39    8.98
   0  -6  -6  200.44   14.96
   0  -6  -7   54.09   12.65
   0   6   7   56.84    8.35
   0  -6  -7   58.36    4.64
   0  -6  -7   66.06    8.37
   0  -6  -8  541.30   15.24
   0   6   8  550.49   26.26
   0   6   9  623.92   28.20
   0  -6  -9  581.45   48.28
   0  -6  -9  664.57   18.16
   0  -6 -10   14.06    4.93
   0   6  10   29.42    6.15
   0  -6 -10   29.84    9.04
   0   6  11   75.50   10.37
   0  -6 -11   82.99   18.39
   0   6  12   22.33    6.03
   0  -6 -12   19.51    9.37
   0   6  13  121.00   14.05
   0   6  14    6.61    2.56
   0   6  15    4.39    2.54
   0   7  -8  427.33   40.68
   0   7  -7 1200.18   65.57
   0   7  -6  886.83   54.53
   0   7  -5    4.78    5.16
   0   7  -4   12.95    6.40
   0   7  -4   11.98    4.45
   0   7  -3   68.56   13.58
   0   7  -3   70.22   10.58
   0   7  -2  613.22   31.97
   0   7  -2  630.00   38.08
   0   7  -1  611.38   35.72
   0   7  -1  606.56   33.48
   0   7   0 1452.67   52.72
   0   7   0 1419.49   54.21
   0   7   0 1453.86   64.28
   0   7   1 3573.77   81.48
   0   7   1 3666.76   92.11
   0   7   1 3760.52  104.26
   0   7   2  733.07   45.17
   0   7   2  676.85   32.17
   0   7   2  745.26   42.17
   0  -7  -2  761.84   37.66
   0   7   3    7.80    4.41
   0   7   3    8.36    3.12
   0   7   3    8.04    5.72
   0  -7  -3    9.20    3.39
   0  -7  -4   27.83    5.45
   0   7   4   27.12    7.53
   0   7   4   33.40    5.25
   0   7   5  181.96   19.21
   0  -7  -5  158.20   11.47
   0  -7  -6  255.67   12.38
   0   7   6  261.27   21.68
   0   7   7    9.74    3.96
   0  -7  -7    7.15    1.83
   0   7   8  949.77   39.42
   0  -7  -8  953.07   21.30
   0  -7  -9  805.02   19.49
   0   7   9  817.72   36.08
   0   7  10   38.19    7.91
   0   7  11   14.98    5.17
   0   7  12    9.21    4.22
   0   7  13   87.23   12.69
   0   7  14   12.74    4.79
   0   7  15   12.04    5.99
   0   8  -7  453.92   39.89
   0   8  -6  178.60   24.58
   0   8  -5   70.46   14.92
   0   8  -4   88.21   16.18
   0   8  -3  138.93   18.72
   0   8  -3  128.95   14.96
   0   8  -2  445.53   32.08
   0   8  -2  413.93   27.13
   0   8  -1   22.69    7.04
   0   8  -1   26.92    7.83
   0   8   0   17.71    6.31
   0   8   1  400.49   27.15
   0  -8  -1  439.94   31.58
   0   8   1  397.26   34.24
   0  -8  -2   13.36    5.36
   0   8   2    7.12    2.78
   0  -8  -3  308.76   23.57
   0   8   3  318.29   31.97
   0   8   3  259.16   19.28
   0  -8  -4  256.57   19.98
   0   8   4  284.48   17.48
   0   8   4  252.87   27.06
   0   8   5  659.82   41.78
   0  -8  -5  589.40   27.68
   0  -8  -6   60.66    7.79
   0   8   6   75.27   13.80
   0   8   7   40.48    9.89
   0  -8  -7   37.05    5.14
   0   8   8    1.52    2.60
   0  -8  -8    7.70    1.98
   0   8   9    7.16    3.98
   0   8  10  241.63   22.04
   0   8  11  239.58   22.16
   0   8  12  366.26   27.69
   0   8  13  529.34   34.15
   0   8  14   13.56    6.03
   0   8  15   67.26   12.98
   0   9  -6   66.40   14.54
   0   9  -5   10.27    7.09
   0   9  -4    5.54    4.59
   0   9  -3   87.10   15.35
   0   9  -2   22.27    7.37
   0   9  -1  383.30   29.03
   0   9   0  328.71   25.75
   0   9   1   14.12    6.35
   0   9   1   15.03    5.79
   0   9   2  214.00   26.20
   0   9   2  214.89   19.87
   0  -9  -2  241.65   22.55
   0  -9  -3  265.71   22.77
   0   9   3  235.69   27.95
   0   9   3  221.69   19.42
   0   9   4   75.44   10.57
   0   9   4   92.98   17.52
   0   9   5  328.43   32.70
   0  -9  -5  413.10   25.73
   0  -9  -6   13.11    4.31
   0   9   6    6.00    3.19
   0   9   7  522.57   38.13
   0   9   8  249.33   25.36
   0   9   9  186.21   21.75
   0   9  10  363.52   29.77
   0   9  11  127.09   18.23
   0   9  12  179.40   21.45
   0   9  13  199.34   23.10
   0   9  14    3.29    4.34
   0  10  -5  176.38   23.66
   0  10  -4  166.51   22.70
   0  10  -3  624.10   41.04
   0  10  -2  691.82   41.71
   0  10  -1    7.17    4.77
   0  10   0   19.52    6.59
   0  10   1    4.97    2.98
   0  10   2  116.37   15.09
   0  10   2  120.14   20.04
   0  10   3   99.52   14.02
   0  10   3   98.10   18.58
   0  10   4  171.36   17.27
   0  10   4  202.16   26.69
   0 -10  -4  201.38   19.88
   0  10   5  636.24   49.00
   0  10   6  299.92   33.21
   0  10   7   -6.28    5.97
   0  10   8    3.04    3.32
   0  10   9   10.22    5.48
   0  10  10   43.91   12.23
   0  10  11    7.92    6.96
   0  10  12    5.77    3.67
   0  10  13  131.64   20.43
   0  11  -3  381.18   33.20
   0  11  -2  371.57   31.07
   0  11  -1    1.93    1.95
   0  11   0   72.92   12.27
   0  11   1  110.63   15.19
   0  11   2  332.69   25.60
   0  11   2  340.38   34.52
   0  11   3  118.19   15.57
   0  11   3  138.19   22.83
   0  11   4   10.80    4.28
   0  11   4   12.79    4.51
   0  11   5  323.98   35.99
   0  11   6   64.61   16.54
   0  11   7   32.17   10.67
   0  11   8   47.24   14.20
   0  11   9  119.77   21.86
   0  11  10  104.95   20.46
   0  11  11   11.08    6.12
   0  11  12    1.08    5.12
   0  12  -2    1.68    1.97
   0  12  -1  111.55   16.32
   0  12   0  105.48   15.24
   0  12   1   81.68   13.40
   0  12   2   94.28   14.22
   0  12   3   68.23   16.55
   0  12   4  326.71   36.22
   0  12   5  139.38   23.63
   0  12   6  171.92   25.83
   0  12   7  343.67   37.88
   0  12   8  161.54   26.65
   0  12   9  168.55   28.07
  -1  12   9   33.25   11.86
  -1  12   8   26.67   11.89
  -1  12   7  128.70   22.95
  -1  12   6    3.68    4.46
  -1  12   5  166.96   25.61
  -1  12   4  136.78   22.59
  -1  12   3  219.57   22.82
  -1  12   2   77.74   13.82
  -1  12   1   18.10    6.29
  -1  12   0    0.93    4.25
  -1  12  -1   12.68    6.46
  -1  11  12    7.31    4.17
  -1  11  11   17.33    9.22
  -1  11  10    1.97    4.37
  -1  11   9  165.08   26.33
  -1  11   8  155.87   25.30
  -1  11   7   13.12    6.77
  -1  11   6   56.73   14.87
  -1  11   5  186.36   26.45
  -1  11   4   17.55    6.06
  -1  11   4   17.56    7.57
  -1  11   3   49.57   14.19
  -1  11   3   26.97    7.86
  -1  11   2   52.41   11.29
  -1  11   1  781.29   42.50
  -1  11   0  481.56   33.86
  -1  11  -1  234.93   24.72
  -1  11  -2  307.63   28.70
  -1  11  -3   99.41   16.65
  -1  10  13   51.38   13.34
  -1  10  12   18.26    8.05
  -1  10  11   56.54   13.11
  -1  10  10   62.03   14.01
  -1  10   9   75.03   15.61
  -1  10   8  211.22   28.18
  -1  10   7   40.13   12.41
  -1  10   6  124.40   21.15
  -1  10   5   92.49   18.61
  -1  10   4    6.09    4.73
  -1  10   4   10.09    4.84
  -1  10   3  209.15   21.22
  -1  10   3  217.70   27.33
  -1  10   2    8.24    4.46
  -1  10   1  373.47   29.18
  -1  10   0  200.57   21.86
  -1  10  -1   56.40   11.76
  -1  10  -2  136.60   19.12
  -1  10  -3    6.47    2.79
  -1  10  -4    3.51    4.12
  -1   9  13  321.12   30.30
  -1   9  12   72.01   13.93
  -1   9  11  202.50   23.70
   1  -9 -10  204.15   29.74
  -1   9  10  227.15   25.09
  -1   9   9   71.94   14.78
   1  -9  -9   83.66   17.93
   1  -9  -8  391.95   38.08
  -1   9   8  423.62   35.88
  -1   9   7  194.85   24.64
   1  -9  -7  137.68   22.08
  -1   9   6  549.92   43.31
   1  -9  -6  489.38   40.58
   1  -9  -6  518.40   26.35
  -1   9   5  214.19   26.43
   1  -9  -5  175.12   16.78
  -1   9   4   48.43    8.95
  -1   9   4   73.49   16.79
   1  -9  -4   51.25    9.68
   1  -9  -3  432.53   31.10
  -1   9   3  464.04   30.30
  -1   9   2  202.19   25.82
  -1   9   2  168.24   18.99
  -1   9   1  105.86   15.70
  -1   9   0   45.69   10.33
  -1   9  -1  226.46   23.51
  -1   9  -2   36.06   10.00
  -1   9  -3   28.12    9.31
  -1   9  -4   10.60    6.74
  -1   9  -5  126.64   19.64
  -1   9  -6    8.07    4.96
  -1   8  13   16.39    6.24
  -1   8  12   84.36   14.33
   1  -8 -12   91.79   20.84
  -1   8  11    3.73    3.73
   1  -8 -11    0.50    4.77
   1  -8 -10   15.09    7.53
  -1   8  10   13.53    6.19
  -1   8   9  249.76   23.96
   1  -8  -9  221.34   28.01
   1  -8  -8  198.57   25.42
   1  -8  -8  205.70   12.45
  -1   8   8  190.81   21.24
   1  -8  -7  141.51   10.82
   1  -8  -7  139.00   20.60
  -1   8   7  143.62   19.44
   1  -8  -6   96.58   16.52
   1  -8  -6  113.83   10.33
  -1   8   6   94.08   15.88
  -1   8   5  175.33   23.09
   1  -8  -5  163.09   13.63
   1  -8  -5  155.57   20.65
   1  -8  -4  704.57   32.04
  -1   8   4  792.71   49.82
  -1   8   4  757.80   30.91
  -1   8   3  130.48   19.86
   1  -8  -3   90.89   12.73
  -1   8   3   92.17   11.98
   1  -8  -3   79.37   14.75
   1  -8  -2  127.86   16.41
  -1   8   2  129.44   16.03
  -1   8   2  160.78   21.53
  -1   8   1  545.34   34.13
  -1   8   0  216.95   22.31
  -1   8  -1   80.37   13.39
  -1   8  -1   82.12   14.23
  -1   8  -2   20.72    6.27
  -1   8  -2   20.45    8.02
  -1   8  -3  622.33   34.03
  -1   8  -3  806.85   46.49
  -1   8  -4  924.75   50.88
  -1   8  -5  238.65   26.95
  -1   8  -6  349.21   32.98
  -1   8  -7  194.38   25.68
   1  -7 -13  -19.84   15.02
  -1   7  13    3.50    2.92
   1  -7 -12  419.92   45.71
  -1   7  12  445.76   28.95
   1  -7 -11  103.19   20.19
  -1   7  11  126.42   15.34
  -1   7  10    4.92    3.54
   1  -7 -10    3.66    4.09
   1  -7  -9   66.23    6.74
  -1   7   9   57.73   10.24
   1  -7  -9   47.48   12.20
   1  -7  -8   22.48    7.88
   1  -7  -8   13.60    2.99
  -1   7   8   16.44    5.86
   1  -7  -7   21.24    7.24
  -1   7   7   12.88    6.18
   1  -7  -7   16.13    3.54
   1  -7  -6    6.71    5.05
   1  -7  -6    1.11    1.47
   1  -7  -5  655.89   39.03
   1  -7  -5  727.64   25.08
  -1   7   5  676.21   41.90
   1  -7  -4 1749.53   63.75
  -1   7   4 1985.12   76.05
   1  -7  -4 1836.20   44.33
  -1   7   4 1904.40   44.87
   1  -7  -3  434.36   31.82
  -1   7   3  506.36   25.28
   1  -7  -3  480.75   25.00
   1  -7  -2  291.77   21.98
  -1   7   2  346.72   23.50
  -1   7   2  273.09   24.79
   1  -7  -2  283.03   25.01
   1  -7  -1  136.02   16.58
  -1   7   1  174.40   22.97
  -1   7   1  147.79   16.82
  -1   7   1  111.72   16.36
  -1   7   0    8.07    4.99
   1  -7   0   17.62    6.57
  -1   7   0    7.23    3.28
  -1   7  -1    9.44    4.34
  -1   7  -1    7.58    5.16
  -1   7  -2    7.82    4.82
  -1   7  -2   14.73    6.30
  -1   7  -3  982.74   40.79
  -1   7  -3 1394.64   60.32
  -1   7  -4  991.72   38.15
  -1   7  -4 1445.45   63.13
  -1   7  -5  388.87   33.93
  -1   7  -6  279.63   29.37
  -1   7  -7   21.54    8.91
  -1   7  -8   41.83   12.56
  -1   6  14  202.41   19.23
  -1   6  13   16.84    5.49
   1  -6 -13  -13.20   11.62
   1  -6 -12  478.06   39.16
  -1   6  12  435.25   26.34
   1  -6 -12  399.43   43.93
   1  -6 -11  259.13   31.41
  -1   6  11  274.12   20.39
  -1   6  10  181.63   16.28
   1  -6 -10  189.43   24.54
  -1   6   9  425.91   24.23
   1  -6  -9  411.53   16.88
   1  -6  -9  367.16   31.66
   1  -6  -8  136.13    9.21
  -1   6   8  137.38   13.95
   1  -6  -8  109.98   16.14
   1  -6  -8  133.32   11.84
   1  -6  -7  177.43   13.86
   1  -6  -7  184.44   10.33
   1  -6  -7  190.33   20.30
  -1   6   7  176.30   16.25
   1  -6  -6  692.67   20.25
   1  -6  -6  725.53   29.18
   1  -6  -6  623.02   35.35
  -1   6   6  679.45   33.54
   1  -6  -5    5.23    1.51
   1  -6  -5    5.37    2.98
   1  -6  -5    4.36    3.17
  -1   6   5    7.96    4.95
  -1   6   5    6.36    3.18
   1  -6  -4  658.69   34.39
   1  -6  -4  718.14   23.47
  -1   6   4  663.01   39.29
   1  -6  -4  674.45   34.94
  -1   6   4  708.56   37.07
   1  -6  -3  199.79   22.33
  -1   6   3  216.73   24.09
   1  -6  -3  174.16   17.42
   1  -6  -3  204.72   13.65
  -1   6   3  212.37   14.23
  -1   6   3  199.15   19.44
   1  -6  -2   79.19   11.71
  -1   6   2   97.13   10.89
   1  -6  -2   84.93    9.91
  -1   6   2  138.15   19.52
  -1   6   2   82.69   12.88
   1  -6  -2  142.16   19.65
  -1   6   1  193.77   18.94
   1  -6  -1  216.80   18.85
   1  -6  -1  202.44   19.08
  -1   6   1  271.16   27.95
  -1   6   1  215.29   18.73
   1  -6   0   73.74   13.90
   1  -6   0   44.65    9.71
  -1   6   0   56.04   10.29
  -1   6   0   56.76   11.07
   1  -6   1  190.29   21.75
   1  -6   1  165.21   19.94
  -1   6  -1  144.54   16.10
  -1   6  -1  185.89   20.95
  -1   6  -2  550.36   37.34
  -1   6  -2  392.05   24.84
  -1   6  -3   35.33    7.56
  -1   6  -3   39.82   10.43
  -1   6  -4   75.42   15.15
  -1   6  -4   40.04    6.98
  -1   6  -5    4.85    1.86
  -1   6  -5   10.37    5.02
  -1   6  -6    2.49    2.42
  -1   6  -7  277.70   29.96
  -1   6  -8  307.78   32.28
  -1   6  -9    1.70    3.62
   1  -5 -14   34.89   11.81
  -1   5  14   44.81    8.28
   1  -5 -13   11.46    8.99
   1  -5 -13    9.01    4.42
  -1   5  13    9.14    3.80
   1  -5 -12  614.30   54.02
  -1   5  12  653.82   30.21
  -1   5  11  697.65   29.91
   1  -5 -11  628.28   47.44
   1  -5 -10  304.07   29.86
  -1   5  10  341.23   20.05
  -1   5   9  455.57   22.52
   1  -5  -9  435.72   32.35
   1  -5  -8   11.79    4.99
  -1   5   8    3.99    2.28
  -1   5   7   22.38    4.97
  -1   5   7   18.93    4.89
   1  -5  -7   19.55    4.02
   1  -5  -7   26.79    7.50
   1  -5  -6  256.70   11.46
   1  -5  -6  249.30   20.61
  -1   5   6  259.24   18.32
  -1   5   6  243.24   16.92
   1  -5  -6  270.61   15.12
  -1   5   5  103.16   11.80
   1  -5  -5  112.29   10.40
  -1   5   5   94.37   11.34
   1  -5  -5   90.45   11.94
   1  -5  -5   92.61    6.82
  -1   5   4  886.54   38.75
   1  -5  -4  956.80   23.44
   1  -5  -4  919.80   33.76
  -1   5   4  965.64   37.12
   1  -5  -4  954.96   37.12
   1  -5  -3  221.91   12.09
   1  -5  -3  197.08   18.74
  -1   5   3  222.06   12.17
  -1   5   3  226.97   18.08
  -1   5   3  218.33   22.02
   1  -5  -3  203.34   16.68
   1  -5  -2  702.67   41.70
  -1   5   2  540.43   29.17
   1  -5  -2  566.69   21.86
   1  -5  -2  578.30   27.88
  -1   5   2  630.19   23.68
  -1   5   2  673.09   41.75
  -1   5   1    2.72    1.94
   1  -5  -1    6.94    4.60
   1  -5  -1   -0.16    2.29
   1  -5  -1    1.85    1.35
  -1   5   1    2.76    2.84
  -1   5   1   -0.15    2.57
   1  -5   0  737.64   41.32
  -1   5   0  626.29   29.85
   1  -5   0  702.88   34.09
   1  -5   0  634.56   29.92
  -1   5   0  630.34   33.03
   1  -5   1   65.74   12.26
   1  -5   1   54.35   10.41
  -1   5  -1   60.99   11.72
  -1   5  -1   50.77    8.23
  -1   5  -2   61.43   12.10
   1  -5   2   43.03    8.63
  -1   5  -2   39.93    7.18
   1  -5   2   46.17   11.12
  -1   5  -3  192.33   14.30
   1  -5   3  220.15   19.43
   1  -5   3  324.80   31.46
  -1   5  -3  288.66   27.49
  -1   5  -4   82.01    8.19
  -1   5  -4  111.68   17.80
  -1   5  -5   24.75    3.44
  -1   5  -5   33.82   10.08
  -1   5  -6   77.56   16.41
  -1   5  -7  299.52   31.33
  -1   5  -8  678.05   48.82
  -1   5  -9   42.70   13.20
  -1   5 -10   10.94    9.32
   1  -4 -14   -6.81   13.35
  -1   4  13   12.59    4.50
   1  -4 -13   14.68   10.98
  -1   4  12  164.01   14.14
   1  -4 -12  184.15   26.80
   1  -4 -12  158.96   26.80
  -1   4  11    5.82    3.06
   1  -4 -11    5.42    4.92
   1  -4 -11    5.22    4.98
  -1   4  10    7.29    2.91
   1  -4 -10    3.35    4.31
   1  -4  -9   72.16   12.23
  -1   4   9   67.28    7.79
   1  -4  -8 1670.13   55.09
  -1   4   8 1682.20   38.69
  -1   4   8 1681.35   42.75
   1  -4  -7 1772.70   53.15
  -1   4   7 1798.06   43.76
  -1   4   7 1819.26   39.73
   1  -4  -6  141.33    9.55
   1  -4  -6  136.12   13.62
  -1   4   6  131.92   11.41
  -1   4   6  137.58   10.67
  -1   4   5  434.50   19.56
   1  -4  -5  454.24   17.45
   1  -4  -5  423.76   13.84
  -1   4   5  431.58   20.72
   1  -4  -5  448.59   23.44
  -1   4   4  257.58   16.07
   1  -4  -4  252.28   13.79
   1  -4  -4  253.40   16.65
   1  -4  -4  241.12   10.31
  -1   4   4  240.25   16.06
  -1   4   3   40.18    8.16
   1  -4  -3   43.87    7.38
  -1   4   3   38.03    6.18
   1  -4  -3   42.13    6.70
   1  -4  -3   40.93    4.44
   1  -4  -2   19.05    4.58
   1  -4  -2   18.84    6.32
  -1   4   2   17.25    4.17
   1  -4  -2   15.85    2.98
  -1   4   2   17.49    3.39
  -1   4   2   11.40    5.74
  -1   4   1 1081.97   50.62
  -1   4   1 1019.25   30.60
   1  -4  -1 1006.93   28.62
  -1   4   1 1076.70   33.62
   1  -4  -1 1034.42   31.51
  -1   4   0 5304.01   78.67
   1  -4   0 5194.88   84.62
  -1   4   0 5322.81   88.71
   1  -4   0 5198.25  103.99
   1  -4   0 5267.39   77.27
   1  -4   1 2482.06   68.96
  -1   4  -1 2520.27   50.93
   1  -4   1 2298.10   52.10
  -1   4  -1 2502.61   69.08
   1  -4   1 2480.22   61.33
  -1   4  -2  779.57   43.05
   1  -4   2  850.49   33.45
  -1   4  -2  809.32   26.01
  -1   4  -3 1049.63   53.76
   1  -4   3  987.72   35.87
  -1   4  -4   95.68    6.55
  -1   4  -4  105.92   17.30
  -1   4  -5    1.45    0.53
  -1   4  -5    6.41    5.64
  -1   4  -6   27.68   10.63
  -1   4  -7  824.67   53.02
  -1   4  -8 1841.11   82.76
  -1   4  -9  549.79   46.21
  -1   4 -10  347.97   38.65
  -1   4 -11  105.36   21.28
   1  -3 -14   -2.77   14.03
  -1   3  13    4.24    2.30
   1  -3 -13    0.91    9.54
   1  -3 -13   -4.65    8.00
   1  -3 -12   79.47   18.04
  -1   3  12   69.28    8.79
   1  -3 -12   81.35   18.35
   1  -3 -11    7.18    4.73
   1  -3 -11    4.70    6.04
  -1   3  11    0.75    1.11
   1  -3 -10   14.32    6.15
  -1   3  10    7.81    2.65
  -1   3  10   14.82    3.74
  -1   3   9   24.48    4.82
  -1   3   9   15.28    3.44
   1  -3  -9   22.79    6.46
  -1   3   8 1047.42   27.53
  -1   3   8 1049.09   30.52
   1  -3  -8 1019.62   39.60
  -1   3   7 1288.53   29.29
  -1   3   7 1247.48   32.83
   1  -3  -7 1278.45   40.62
   1  -3  -6  130.21   11.77
  -1   3   6  120.52    9.72
  -1   3   6  126.64    8.57
  -1   3   5   51.57    6.19
  -1   3   5   59.08    5.76
   1  -3  -5   60.45    7.64
   1  -3  -5   57.85    5.20
  -1   3   4   36.83    4.93
   1  -3  -4   32.75    4.07
   1  -3  -4   33.65    5.37
  -1   3   4   30.38    4.64
  -1   3   3  187.39   12.91
   1  -3  -3  206.06   11.07
   1  -3  -3  190.04    8.47
   1  -3  -3  209.47   12.58
  -1   3   3  204.59   12.03
  -1   3   2   97.45    8.19
   1  -3  -2  105.25    6.53
  -1   3   2   88.56    6.47
  -1   3   2   87.63   11.93
   1  -3  -2   86.71    9.90
   1  -3  -2   98.65    8.27
  -1   3   1   29.36    7.57
   1  -3  -1   30.11    8.04
  -1   3   1   28.70    4.27
   1  -3  -1   23.30    3.55
   1  -3  -1   27.72    4.59
  -1   3   1   24.17    4.24
  -1   3   0 2504.52   48.85
   1  -3   0 2337.65   56.27
  -1   3   0 2543.19   42.30
   1  -3   0 2399.06   41.59
   1  -3   0 2369.36   45.34
   1  -3   1  609.60   19.72
  -1   3  -1  657.37   19.35
   1  -3   1  689.98   25.68
   1  -3   1  624.40   29.86
  -1   3  -2   36.00    8.35
   1  -3   2   51.68   11.35
   1  -3   2   30.62    5.11
  -1   3  -2   50.03    4.81
  -1   3  -3   65.12   13.50
   1  -3   3   64.02   14.52
  -1   3  -3   46.16    3.83
  -1   3  -4  647.09   45.49
  -1   3  -4  525.47   10.06
   1  -3   5  221.06   28.56
  -1   3  -5  210.68   26.13
  -1   3  -6   80.75   16.34
  -1   3  -7  196.31   26.44
  -1   3  -8  490.48   43.12
  -1   3  -9    2.31    2.86
  -1   3 -10    4.73    6.40
  -1   3 -11  137.41   25.65
  -1   3 -12  593.47   55.50
   1  -2 -15  791.50   87.39
   1  -2 -14  419.11   57.19
   1  -2 -13  244.15   38.33
  -1   2  13  226.96   16.90
   1  -2 -12  325.91   37.62
   1  -2 -12  278.71   35.38
  -1   2  12  301.86   18.15
  -1   2  11   19.33    4.16
   1  -2 -11   19.89    8.29
   1  -2 -11   19.79    8.27
  -1   2  11   15.08    3.30
  -1   2  10  146.23   11.10
   1  -2 -10  125.86   16.74
  -1   2  10  137.77   10.35
   1  -2 -10  164.76   21.03
   1  -2  -9  263.06   20.93
  -1   2   9  251.34   13.40
  -1   2   9  250.91   13.58
  -1   2   8  494.83   17.35
  -1   2   8  516.05   19.12
   1  -2  -8  508.75   25.63
   1  -2  -7 1178.99   35.25
  -1   2   7 1181.33   28.71
  -1   2   7 1134.88   25.12
  -1   2   6  210.67    9.66
   1  -2  -6  212.41   13.57
  -1   2   6  209.89   11.52
  -1   2   5 1076.38   21.57
   1  -2  -5 1070.06   28.53
  -1   2   5 1080.95   25.76
  -1   2   4   26.02    3.76
   1  -2  -4   28.11    4.31
   1  -2  -4   24.35    2.86
  -1   2   4   25.40    3.06
  -1   2   3   86.40    6.06
   1  -2  -3   83.59    5.21
   1  -2  -3   79.63    6.63
  -1   2   3   84.92    6.48
   1  -2  -2 1619.91   29.20
   1  -2  -2 1563.01   28.95
  -1   2   2 1602.12   28.27
   1  -2  -2 1592.44   23.56
   1  -2  -1  636.00   31.09
  -1   2   1  646.78   15.61
  -1   2   1  620.52   16.35
   1  -2  -1  612.73   16.45
   1  -2  -1  647.65   15.45
  -1   2   0  364.35   11.36
  -1   2   0  368.49   14.12
   1  -2   0  366.98   16.15
   1  -2   0  355.09   13.72
   1  -2   0  371.01   11.65
   1  -2   1    4.66    2.36
  -1   2  -1    7.81    3.24
  -1   2  -1    5.62    1.31
   1  -2   1    7.73    1.74
  -1   2  -2    8.38    4.44
   1  -2   2   11.35    5.31
   1  -2   2    6.51    1.43
  -1   2  -2    9.50    1.38
   1  -2   3   -2.03    3.12
  -1   2  -3    1.12    0.43
  -1   2  -4  897.64   53.06
   1  -2   4  874.30   54.78
  -1   2  -5  259.30   28.88
   1  -2   5  203.53   26.02
  -1   2  -6  318.48   32.88
   1  -2   6  256.67   27.85
  -1   2  -7   30.52   10.55
  -1   2  -8   30.78   11.13
  -1   2  -9   97.58   20.81
  -1   2 -10   75.43   19.07
  -1   2 -11  250.98   36.14
  -1   2 -12  882.26   71.02
  -1   2 -13  128.58   27.69
   1  -1 -15  559.62   72.06
   1  -1 -14   37.07   15.98
   1  -1 -13   34.67   14.51
  -1   1  13   38.39    6.81
   1  -1 -12    6.98    5.25
  -1   1  12    6.71    2.75
   1  -1 -11  535.02   39.28
   1  -1 -11  616.04   47.67
  -1   1  11  577.34   23.43
  -1   1  10  156.20    9.90
   1  -1 -10  161.00   18.03
  -1   1   9    7.80    2.28
   1  -1  -9    8.93    5.87
   1  -1  -9   11.65    5.06
   1  -1  -8  454.19   22.05
  -1   1   8  445.05   15.99
   1  -1  -7  426.05   19.09
  -1   1   7  418.09   14.91
   1  -1  -6   10.57    2.74
  -1   1   6   14.05    2.57
  -1   1   5    0.49    0.74
   1  -1  -5    0.03    1.17
   1  -1  -4 1582.45   28.78
  -1   1   4 1574.61   26.63
  -1   1   4 1514.27   21.11
  -1   1   3 4006.25   45.05
   1  -1  -3 4129.24   46.96
  -1   1   3 4010.82   37.17
  -1   1   2  546.71   11.01
   1  -1  -2  529.85   13.45
   1  -1  -2  536.93    9.54
  -1   1   2  502.58   12.91
   1  -1  -1  622.63   13.11
  -1   1   1  629.84   13.22
  -1   1   1  600.62   17.85
  -1   1   0  848.33   14.15
   1  -1   0  870.71   16.82
  -1   1   0  882.61   16.98
   1  -1   0  847.30   13.97
  -1   1  -1   21.42    1.81
   1  -1   1   22.56    3.51
  -1   1  -1   22.80    3.77
   1  -1   1   24.73    1.91
  -1   1  -2   37.05    7.25
   1  -1   2   40.88    8.86
   1  -1   2   50.48    2.25
  -1   1  -2   45.18    2.12
  -1   1  -3   57.81   12.13
   1  -1   3   83.86   16.17
  -1   1  -4 3197.79  102.05
   1  -1   4 3202.30   95.45
   1  -1   5 2741.36   83.93
  -1   1  -5 2874.43   98.35
  -1   1  -6  308.09   33.07
   1  -1   6  300.46   26.32
  -1   1  -7  342.82   35.61
  -1   1  -8  243.26   31.72
  -1   1  -9    6.67    8.95
  -1   1 -10   91.49   21.61
  -1   1 -11   37.91   14.33
  -1   1 -12  899.94   75.45
  -1   1 -13  283.29   43.65
  -1   1 -14   64.25   22.43
   1   0 -14    4.02    7.23
   1   0 -13  -17.74   15.25
   1   0 -12  192.59   30.76
   1   0 -11 1082.09   53.82
   1   0 -11 1273.39   71.62
   1   0 -10  368.31   34.08
   1   0 -10  316.74   23.78
   1   0  -9   34.09    9.97
  -1   0   9   20.85    3.42
   1   0  -9   25.37    5.44
   1   0  -8   66.64   12.16
  -1   0   8   65.19    5.67
   1   0  -8   67.58    8.10
   1   0  -7  160.29   10.54
   1   0  -7  161.06   15.90
  -1   0   7  152.50    8.37
  -1   0   6  407.96   13.05
   1   0  -6  426.22   15.55
   1   0  -5  173.43    8.90
  -1   0   5  176.82    8.14
  -1   0   4 3063.43   36.67
   1   0  -4 3135.78   38.95
   1   0  -3 6357.92   58.68
  -1   0   3 6237.88   57.29
  -1   0   2 1384.81   20.01
   1   0  -2 1412.45   20.58
  -1   0   1  150.66    5.49
   1   0  -1  149.36    5.65
   1   0   2  375.40   20.41
  -1   0  -2  355.80   14.74
  -1   0  -3  242.50   21.77
   1   0   3  277.67   24.49
   1   0   4 3169.99   32.89
   1   0   4 3536.34   78.62
   1   0   5 2720.69   27.28
   1   0   5 2622.24   64.55
  -1   0  -6  372.61   35.74
   1   0   6  366.05    8.23
   1   0   7  129.39    4.79
  -1   0  -7  140.32   23.08
   1   0   8   86.46    4.04
  -1   0  -8  108.61   21.58
  -1   0  -9  411.09   44.21
   1   0   9  250.87    6.63
  -1   0 -10   11.21    8.31
  -1   0 -11   90.20   24.28
  -1   0 -12  799.03   75.25
  -1   0 -13  175.18   36.29
  -1   0 -14    4.09    9.60
  -1   0 -15   17.24   14.74
   1   1 -13   57.02   18.92
   1   1 -12   -0.14   12.39
   1   1 -11  699.27   55.58
   1   1 -10  334.54   34.74
   1   1 -10  267.24   20.11
   1   1  -9   92.52   17.05
   1   1  -9   82.25    9.39
   1   1  -8   86.99   14.30
   1   1  -8   78.84    7.83
   1   1  -7    3.51    2.82
   1   1  -7    0.98    0.94
   1   1  -6   15.30    5.14
   1   1  -6    9.99    2.12
   1   1  -5  537.94   14.73
   1   1  -4   67.27    4.69
   1   1  -3  888.12   16.86
   1   1  -2   36.81    3.07
   1   1  -1   10.72    3.13
  -1  -1   1    8.85    3.08
  -1  -1  -1  991.96   14.92
   1   1   1 1022.92   12.35
  -1  -1  -2   33.03    2.44
   1   1   2   34.73    4.20
  -1  -1  -3 1361.76   36.96
   1   1   3 1366.09   35.73
   1   1   4   12.88    3.74
  -1  -1  -4   22.61    7.98
   1   1   4   14.66    3.34
  -1  -1  -5   12.27    7.95
   1   1   5   25.64    3.94
  -1  -1  -6  532.55   40.95
   1   1   6  644.44   16.40
   1   1   7  163.36    8.01
  -1  -1  -7  130.15   22.48
  -1  -1  -8 1047.61   67.02
   1   1   8 1058.85   21.11
  -1  -1  -9 1226.24   78.88
   1   1   9 1052.52   20.73
   1   1  10   11.43    1.95
  -1  -1 -10   28.18   14.19
  -1  -1 -11   69.06   21.80
  -1  -1 -12   24.57   15.15
  -1  -1 -13  251.25   47.44
  -1  -1 -14  195.60   43.61
   1   1  14   99.24   12.73
   1   1  15  185.61   18.52
  -1  -1 -15  325.58   55.17
   1   2 -13    9.45   10.10
   1   2 -12   15.54    8.43
   1   2 -11  701.65   57.62
   1   2 -10  387.90   38.87
   1   2  -9   68.00    7.75
   1   2  -9   75.49   15.03
   1   2  -8   86.02    7.24
   1   2  -8   78.84   14.69
   1   2  -7  213.45   10.39
   1   2  -7  215.56   21.84
   1   2  -6  225.15    9.85
   1   2  -6  231.05   20.74
   1   2  -5  187.03    8.58
   1   2  -5  206.79   17.75
   1   2  -4   15.43    2.39
   1   2  -4   17.38    5.32
   1   2  -3  840.78   28.84
  -1  -2   3  849.05   24.29
  -1  -2   2    9.10    3.43
   1   2  -1   35.14    6.69
  -1  -2   1   32.20    6.80
   1   2   0  105.13    8.34
  -1  -2   0  113.52    8.21
   1   2   1 2764.42   36.22
  -1  -2  -1 2722.15   35.62
   1   2   2  110.97    6.11
  -1  -2  -2  114.61    6.32
   1   2   3  272.34   24.83
   1   2   3  283.76   10.15
  -1  -2  -4   90.52   11.82
   1   2   4   95.47   12.49
   1   2   4   91.59    6.11
   1   2   5   55.90    5.21
  -1  -2  -5   50.69   10.90
   1   2   5   59.76    7.87
   1   2   6   39.23    5.21
  -1  -2  -6   43.57   10.74
   1   2   7    8.45    2.35
  -1  -2  -7    3.60    3.49
  -1  -2  -8  713.07   54.83
   1   2   8  755.65   21.98
   1   2   9 1177.07   27.74
  -1  -2  -9 1204.36   78.84
  -1  -2 -10   13.05   13.21
   1   2  10    7.69    2.18
  -1  -2 -11   14.90    7.17
   1   2  11   15.68    4.05
   1   2  11   17.28    3.06
   1   2  12    2.72    1.18
  -1  -2 -12    1.12    6.86
   1   2  13   78.46   10.48
  -1  -2 -13  134.21   36.55
  -1  -2 -14   15.90   10.61
   1   2  14   16.48    4.65
   1   2  15    5.51    2.20
   1   3 -12    7.99    7.52
   1   3 -11   40.00   14.67
   1   3 -10   18.13    8.59
   1   3  -9  156.77   24.10
   1   3  -9  125.21    9.35
   1   3  -8  325.88   13.48
   1   3  -8  317.70   32.08
   1   3  -7 2352.48   36.48
   1   3  -7 2171.66   77.60
   1   3  -6 1982.16   31.94
   1   3  -6 1881.81   66.24
   1   3  -5   75.11    5.66
   1   3  -5   77.29   12.29
  -1  -3   5   83.85    9.59
  -1  -3   4  166.07   13.24
   1   3  -4  157.85   15.91
  -1  -3   3   10.85    4.38
   1   3  -3    7.80    3.15
   1   3  -2  563.05   25.32
  -1  -3   2  542.42   28.62
   1   3  -1  415.66   19.34
   1   3  -1  417.70   28.36
   1   3   0 1843.80   51.66
  -1  -3   0 1805.83   48.98
   1   3   0 1948.91   39.72
   1   3   1 7501.75   86.20
  -1  -3  -1 7310.19   84.57
   1   3   2 3121.06   43.40
  -1  -3  -2 3163.58   46.19
   1   3   3  460.23   15.51
   1   3   3  502.39   37.58
  -1  -3  -3  475.88   15.98
   1   3   4  381.40   30.17
   1   3   4  401.61   14.52
  -1  -3  -4  436.72   15.33
  -1  -3  -5   15.78    4.29
   1   3   5   17.69    3.13
  -1  -3  -6  163.00   17.84
   1   3   6  179.52   15.10
   1   3   6  172.95   10.22
   1   3   7   10.43    2.85
   1   3   7    6.33    2.61
  -1  -3  -7    3.59    3.63
   1   3   8  986.84   27.87
  -1  -3  -8 1009.26   61.83
   1   3   8 1003.30   30.50
   1   3   9 1762.70   40.09
   1   3   9 1847.26   41.19
   1   3  10  288.80   16.82
   1   3  10  305.97   15.88
  -1  -3 -10  347.38   46.43
   1   3  11   85.09    8.37
   1   3  11   74.78    8.89
  -1  -3 -12   53.36   23.29
   1   3  12   15.42    4.13
  -1  -3 -13  121.36   32.93
   1   3  13   86.70   10.93
   1   3  14    6.30    2.01
  -1  -3 -14   18.86   13.20
   1   3  15   21.76    6.15
   1   4 -11   -4.16    5.58
   1   4 -10  102.41   21.27
   1   4  -9   34.13   10.83
   1   4  -8   22.74    9.10
   1   4  -8   31.40    4.08
   1   4  -7  941.02   22.49
   1   4  -7  857.56   52.08
   1   4  -6  814.03   20.73
  -1  -4   6  803.54   35.16
   1   4  -5   -0.87    4.73
  -1  -4   5    5.81    3.25
  -1  -4   4   16.61    5.04
   1   4  -4   19.41    6.38
   1   4  -3  144.35   16.21
  -1  -4   3  149.23   15.87
  -1  -4   2  728.95   38.07
   1   4  -2  673.94   33.09
   1   4  -1   13.56    7.38
   1   4  -1    4.32    1.83
  -1  -4   1   13.90    6.27
   1   4   0   89.68   11.12
  -1  -4   0   97.10   13.77
   1   4   0   79.34   12.40
  -1  -4  -1 1467.55   43.68
   1   4   1 1380.14   42.96
   1   4   2  353.02   16.25
   1   4   2  355.89   28.80
   1   4   2  320.71   17.44
  -1  -4  -2  318.13   16.67
  -1  -4  -3  222.04   12.82
   1   4   3  242.27   13.73
  -1  -4  -4  125.35    9.55
   1   4   4  117.00   18.47
   1   4   4  121.65    9.17
  -1  -4  -5 1337.24   31.74
   1   4   5 1271.10   56.13
   1   4   5 1296.09   30.81
   1   4   6  545.07   19.98
  -1  -4  -6  552.49   26.85
   1   4   6  583.05   33.51
  -1  -4  -7   69.11   11.70
   1   4   7   71.51    7.30
   1   4   7   74.17   10.87
   1   4   8   79.54    8.07
   1   4   8   67.42    9.47
   1   4   9  161.73   13.76
   1   4   9  145.24   11.49
   1   4  10   99.98   10.39
   1   4  10   91.61    9.67
   1   4  11   93.36   10.16
  -1  -4 -11   97.30   24.98
   1   4  11   89.84    9.80
  -1  -4 -12  660.82   67.29
   1   4  12  400.34   22.72
  -1  -4 -13 1110.70   89.72
   1   4  13  807.35   34.11
   1   4  14   91.45   11.88
   1   4  15    2.90    2.66
   1   5 -10   11.15    7.22
   1   5  -9   25.71   11.38
   1   5  -8   62.72   15.53
   1   5  -7  161.28   23.73
   1   5  -7  155.96    9.77
   1   5  -7  152.34   12.77
   1   5  -6  302.07   30.77
   1   5  -6  335.09   14.84
   1   5  -5    3.34    3.50
  -1  -5   5    6.87    4.06
  -1  -5   4   31.66    8.69
   1   5  -4   30.42    9.18
   1   5  -3   24.36    7.30
  -1  -5   3   36.52    8.66
  -1  -5   2  178.44   20.42
   1   5  -2  138.96   16.91
   1   5  -1  557.96   32.46
   1   5  -1  666.75   41.30
  -1  -5   0  769.41   42.70
   1   5   0  647.77   33.28
   1   5   0  723.73   41.52
  -1  -5  -1   27.52    6.87
   1   5   1   32.24    8.07
   1   5   1   27.17    6.16
  -1  -5  -1   36.38    8.53
   1   5   1   37.26    7.09
   1   5   2  449.71   21.27
   1   5   2  405.09   24.19
  -1  -5  -2  364.73   20.93
  -1  -5  -2  404.00   23.70
   1   5   3  178.48   22.55
   1   5   3  149.31   13.34
  -1  -5  -3  153.02   13.09
   1   5   3  155.12    8.22
  -1  -5  -3  123.18   10.61
  -1  -5  -4  166.31   12.64
   1   5   4  166.91   13.04
   1   5   5 1217.81   34.18
   1   5   5 1240.89   60.91
  -1  -5  -5 1277.41   34.69
   1   5   6  186.97   12.88
  -1  -5  -6  199.93   13.36
   1   5   6  191.96   22.42
   1   5   7  490.01   21.16
   1   5   7  492.57   32.99
   1   5   8  254.91   15.62
   1   5   8  269.90   22.29
  -1  -5  -9  321.11   29.98
   1   5   9  193.86   14.09
  -1  -5 -10  681.19   49.21
   1   5  10  451.44   22.36
   1   5  11  241.62   17.10
  -1  -5 -11  308.66   37.22
  -1  -5 -12  377.35   42.35
   1   5  12  315.03   20.59
   1   5  13  665.88   31.69
   1   5  14   35.47    8.05
   1   5  15   62.47   10.33
   1   6  -9  148.89   25.96
   1   6  -8   28.77   10.49
   1   6  -7  133.13   22.21
   1   6  -6   13.17    7.08
   1   6  -6   14.75    4.42
   1   6  -5  106.74   12.05
   1   6  -5   95.70   17.87
   1   6  -4   97.92   17.17
   1   6  -4  106.12   12.46
   1   6  -3 1037.02   52.60
   1   6  -3 1053.82   41.64
   1   6  -2 1959.59   69.09
   1   6  -2 1961.93   59.84
  -1  -6   1  215.30   23.61
   1   6  -1  157.59   16.87
   1   6  -1  173.41   22.03
   1   6  -1  176.83   19.13
   1   6   0   14.28    5.62
  -1  -6   0   13.02    5.49
   1   6   0   10.21    3.88
   1   6   0    4.74    5.46
  -1  -6  -1   58.08   10.26
  -1  -6  -1   54.56   11.42
   1   6   1   49.68    8.64
   1   6   1   41.86    9.76
   1   6   1   63.05   11.81
  -1  -6  -2   51.35    8.86
   1   6   2   57.54   12.42
   1   6   2   37.88    8.63
  -1  -6  -2   41.86    9.16
   1   6   2   49.67    7.82
   1   6   3   95.52   12.63
  -1  -6  -3  126.00   13.91
   1   6   3  141.94   19.61
   1   6   3  101.39    8.87
  -1  -6  -3  134.13   12.90
  -1  -6  -4  191.91   15.73
   1   6   4  173.55    7.79
   1   6   4  234.69   27.07
  -1  -6  -4  255.90   14.94
   1   6   4  184.68   16.24
   1   6   5 1928.13   49.84
  -1  -6  -5 1966.85   48.18
   1   6   6 1190.84   38.29
   1   6   6 1145.42   60.08
  -1  -6  -6 1239.70   37.35
   1   6   7   18.79    4.82
  -1  -6  -8   45.82    6.07
  -1  -6  -8   31.83    2.41
   1   6   8   35.28    6.65
  -1  -6  -9    4.86    3.14
  -1  -6  -9    4.81    1.14
   1   6   9    5.54    3.02
  -1  -6 -10   74.95   11.90
   1   6  10   61.96    8.71
  -1  -6 -11   32.50    8.19
   1   6  11   19.49    5.03
   1   6  12   16.46    4.52
   1   6  13  382.86   24.74
   1   6  14   37.69    8.52
   1   6  15   14.24    5.34
   1   7  -8   27.86    9.68
   1   7  -7   36.10   11.87
   1   7  -6  232.21   29.10
   1   7  -5  563.01   43.78
   1   7  -5  575.68   28.99
   1   7  -4  235.40   26.85
   1   7  -4  300.83   21.32
   1   7  -3 1403.69   63.33
   1   7  -3 1449.29   49.41
   1   7  -2 2218.90   75.59
   1   7  -2 2268.63   64.85
   1   7  -1  109.80   15.62
   1   7  -1  117.01   19.65
   1   7  -1  107.75   14.10
   1   7   0    4.11    2.76
   1   7   0    6.58    5.20
   1   7   0   -1.50    2.36
   1   7   1  100.33   12.42
   1   7   1  110.51   15.44
   1   7   1   85.03   14.74
  -1  -7  -1  108.30   14.54
   1   7   2  979.52   49.23
  -1  -7  -2  972.93   40.56
   1   7   3  249.89   23.53
   1   7   3  270.06   17.36
  -1  -7  -3  408.71   24.54
   1   7   3  407.17   33.09
   1   7   4  132.47   15.88
   1   7   4  124.67    8.82
   1   7   5 1238.71   46.04
  -1  -7  -5 1450.12   34.10
   1   7   6  821.93   36.01
   1   7   7   16.12    5.20
   1   7   8   27.46    6.57
   1   7   9  130.38   13.53
   1   7  10  345.12   22.37
   1   7  11    5.40    2.75
   1   7  12    0.84    1.97
   1   7  13  146.76   16.23
   1   7  14    3.99    2.53
   1   7  15   15.28    6.19
   1   8  -7    9.21    9.13
   1   8  -6   84.84   18.22
   1   8  -5   20.71    9.28
   1   8  -4  144.69   22.03
   1   8  -3    4.23    3.77
   1   8  -3    6.73    5.53
   1   8  -2   27.18    7.19
   1   8  -2   32.56    8.40
   1   8  -1   17.98    6.54
   1   8   0  257.90   22.03
   1   8   0  269.52   27.78
   1   8   1  161.60   16.11
   1   8   1  178.60   22.83
   1   8   2  538.40   27.95
  -1  -8  -2  602.82   33.28
  -1  -8  -3   22.80    5.96
   1   8   3    9.68    5.02
   1   8   3   10.09    3.43
   1   8   4  472.81   21.09
   1   8   4  418.88   32.45
   1   8   5   66.78   12.39
  -1  -8  -5   84.86    9.19
   1   8   6  155.67   17.81
   1   8   7  682.59   36.10
   1   8   8  286.47   22.73
   1   8   9  704.29   35.63
   1   8  10  569.32   31.76
   1   8  11   38.73    8.42
   1   8  12  169.42   18.27
   1   8  13   38.88    9.02
   1   8  14  278.67   24.43
   1   9  -6  149.55   23.89
   1   9  -5   85.12   17.68
   1   9  -4  114.28   19.11
   1   9  -3   47.54   11.61
   1   9  -2   29.93    8.64
   1   9  -1  134.00   16.85
   1   9   0   37.67    8.68
   1   9   0   41.83   12.23
   1   9   1  132.48   14.78
   1   9   1  115.95   19.49
   1   9   2  634.33   31.34
   1   9   2  563.50   42.25
   1   9   3    7.02    3.90
   1   9   3    3.92    2.87
   1   9   4  265.17   28.53
   1   9   4  272.39   18.31
   1   9   5   67.66   13.68
   1   9   5   55.48    6.78
   1   9   6  117.27   17.60
   1   9   7  158.65   19.70
   1   9   8   28.89    8.34
   1   9   9  250.11   23.46
   1   9  10  234.30   22.42
   1   9  11   33.51    8.24
   1   9  12   82.88   13.67
   1   9  13   80.23   13.86
   1   9  14  130.79   18.43
   1  10  -5  514.12   42.16
   1  10  -4   -4.85    5.43
   1  10  -3   21.47    7.96
   1  10  -2   52.95   11.75
   1  10  -1  327.00   27.09
   1  10   0  202.58   20.24
   1  10   1  491.02   40.54
   1  10   1  530.51   30.93
   1  10   2 1510.95   50.82
   1  10   2 1490.73   70.79
   1  10   3  426.33   26.16
   1  10   3  377.12   36.65
   1  10   4    3.10    2.42
   1  10   4    3.79    4.38
   1  10   5   -4.35    7.95
   1  10   5    5.48    2.61
   1  10   6   63.52   14.68
   1  10   7   62.21   14.64
   1  10   8    1.44    2.93
   1  10   9  125.57   18.64
   1  10  10  298.72   28.52
   1  10  11   22.04    8.17
   1  10  12   -0.78    1.86
   1  10  13    6.00    4.90
   1  11  -4   50.86   12.70
   1  11  -3   65.88   13.81
   1  11  -2  183.92   21.92
   1  11  -1  261.18   25.12
   1  11   0    7.35    4.20
   1  11   1    3.14    2.66
   1  11   1    1.31    3.61
   1  11   2  128.98   15.25
   1  11   2  109.12   19.81
   1  11   3    5.53    3.12
   1  11   3    3.23    4.61
   1  11   4  166.75   16.32
   1  11   4  143.94   23.15
   1  11   5  146.84   24.41
   1  11   6  309.92   34.87
   1  11   7   78.15   17.51
   1  11   8   44.02   12.44
   1  11   9   10.80    7.00
   1  11  10   -1.22    5.43
   1  11  11  106.49   19.09
   1  12  -2   29.27    8.44
   1  12  -1   23.70    7.69
   1  12   0  172.40   19.34
   1  12   1  323.38   25.00
   1  12   2   85.91   18.78
   1  12   3  233.55   29.40
   1  12   4  195.55   27.92
   1  12   5   78.09   17.67
   1  12   6  160.52   26.52
   1  12   7   20.34   10.34
   1  12   8  252.25   32.64
   1  12   9  157.08   25.01
  -2  12   9   42.02   11.73
  -2  12   8  104.17   20.63
  -2  12   7   76.26   17.96
  -2  12   6  162.15   25.71
  -2  12   4  130.28   18.55
  -2  12   3   -5.51    4.22
  -2  12   2   35.10   10.12
  -2  12   1  136.99   19.71
  -2  12   0  103.04   16.71
  -2  12  -1  118.25   17.96
  -2  11  11   18.42    9.22
  -2  11  10   -1.75    2.82
  -2  11   9   42.75   12.96
  -2  11   8   14.63    8.95
  -2  11   7    3.56    4.91
  -2  11   6   40.79   13.85
  -2  11   5  132.20   22.40
  -2  11   4  450.07   33.10
  -2  11   3  264.32   25.85
  -2  11   2  150.25   20.82
  -2  11   1  148.73   19.87
  -2  11   0   19.16    7.16
  -2  11  -1   28.20    8.39
  -2  11  -2   14.63    6.75
  -2  10  12   56.22   14.11
  -2  10  11   79.71   16.88
   2 -10 -10   59.60   14.68
  -2  10  10   52.25   14.08
   2 -10  -9  181.20   27.21
  -2  10   9  192.84   26.54
   2 -10  -8   85.70   18.35
  -2  10   8   88.55   17.78
   2 -10  -7   90.60   17.83
  -2  10   7  107.20   19.63
   2 -10  -6  401.02   37.71
  -2  10   6  581.23   45.31
   2 -10  -5   13.76    6.60
  -2  10   5   23.93   10.15
   2 -10  -4  128.76   20.45
  -2  10   4  134.00   17.05
  -2  10   4  186.52   25.08
  -2  10   3   64.08   12.65
  -2  10   2  132.06   18.61
  -2  10   1  110.67   17.72
  -2  10   0    4.78    3.59
  -2  10  -1   95.77   16.61
  -2  10  -2  203.08   24.14
  -2  10  -3   10.05    5.95
  -2  10  -4   46.13   12.34
  -2   9  12  179.94   23.35
   2  -9 -12  149.70   26.00
   2  -9 -11  260.62   33.26
  -2   9  11  233.47   26.71
   2  -9 -10  273.93   32.54
  -2   9  10  241.87   27.44
  -2   9   9  342.15   34.12
   2  -9  -9  369.63   36.90
  -2   9   8   15.96    8.07
   2  -9  -8   20.12    7.97
   2  -9  -7   32.70   10.14
  -2   9   7   42.04   11.94
   2  -9  -6  124.86   19.58
  -2   9   6  163.51   23.69
  -2   9   5   14.21    7.67
   2  -9  -5    1.67    2.57
  -2   9   4  214.67   20.17
   2  -9  -4  198.16   23.84
  -2   9   3  156.90   18.49
   2  -9  -3  140.46   19.95
   2  -9  -2  246.69   26.28
  -2   9   2  312.34   27.14
  -2   9   1  126.63   17.99
  -2   9   0   83.76   14.78
  -2   9  -1    7.10    4.15
  -2   9  -2   82.66   15.32
  -2   9  -3   82.68   15.86
  -2   9  -4   55.16   13.22
  -2   9  -5   40.28   11.83
   2  -8 -13    3.43    5.82
  -2   8  12   61.28   12.62
   2  -8 -12   68.46   16.48
   2  -8 -11   38.71   12.15
  -2   8  11   37.14   10.40
   2  -8 -10   12.77    6.16
  -2   8  10   14.14    6.54
   2  -8  -9   15.85    7.64
  -2   8   9    6.23    6.64
  -2   8   8  273.73   28.48
   2  -8  -8  319.99   30.23
   2  -8  -8  331.74   17.89
   2  -8  -7  873.56   48.12
   2  -8  -7  872.89   29.62
  -2   8   7  842.24   51.15
   2  -8  -6   30.07    5.59
   2  -8  -6   38.91    9.97
   2  -8  -5  193.95   21.64
   2  -8  -5  215.77   15.96
  -2   8   5  233.15   28.04
   2  -8  -4  272.12   19.34
   2  -8  -4  279.58   25.53
  -2   8   3   29.05   10.33
   2  -8  -3    4.14    4.34
  -2   8   3   23.28    7.12
   2  -8  -2   38.64    9.21
  -2   8   2   47.34   10.15
  -2   8   1   34.49    9.77
   2  -8  -1   37.35    9.42
  -2   8   0 1466.86   61.55
  -2   8  -1 1048.51   53.53
  -2   8  -2  332.92   25.75
  -2   8  -2  570.80   40.13
  -2   8  -3  645.81   43.51
  -2   8  -4  155.96   21.79
  -2   8  -5   78.97   16.28
  -2   8  -6   96.29   17.89
  -2   8  -7  171.23   24.44
   2  -7 -14    5.94    4.78
   2  -7 -13    4.57    4.29
  -2   7  12   52.98   10.37
   2  -7 -12   69.54   15.59
   2  -7 -11    4.50    4.47
  -2   7  11    7.19    5.05
  -2   7  10   28.59    8.40
   2  -7 -10   35.73   11.04
   2  -7  -9   81.01   15.26
  -2   7   9   79.14   13.09
   2  -7  -9   88.27    8.96
  -2   7   8  323.46   27.24
   2  -7  -8  362.98   29.93
   2  -7  -8  368.27   18.15
  -2   7   7  542.12   37.55
   2  -7  -7  598.25   36.89
   2  -7  -7  605.85   22.95
  -2   7   6  130.45   19.45
   2  -7  -6  128.77   10.62
   2  -7  -6  116.30   15.76
   2  -7  -5  210.23   14.13
   2  -7  -5  211.04   20.43
  -2   7   5  236.18   27.38
   2  -7  -4   48.01    9.74
   2  -7  -4   56.61    7.82
  -2   7   4   58.05   13.72
   2  -7  -3   17.59    4.72
  -2   7   3    8.86    5.73
  -2   7   3   20.74    5.56
   2  -7  -3   18.21    6.13
   2  -7  -2  159.75   17.09
   2  -7  -2  162.95   15.63
  -2   7   2  141.49   16.03
  -2   7   1   -0.90    3.55
  -2   7   1    0.90    2.84
   2  -7  -1   10.15    5.04
   2  -7  -1    5.34    3.10
   2  -7   0  725.48   37.60
  -2   7   0  741.37   41.85
  -2   7   0  699.37   36.51
   2  -7   1  333.96   25.75
  -2   7  -1  380.05   26.03
  -2   7  -2  182.54   22.34
  -2   7  -2  154.89   16.11
  -2   7  -3  140.75   20.53
  -2   7  -3   94.38   11.54
  -2   7  -4   24.03    5.39
  -2   7  -4   22.56    8.22
  -2   7  -5   41.83   12.64
  -2   7  -6   53.72   13.60
  -2   7  -7   53.03   13.55
  -2   7  -8  275.86   31.41
   2  -6 -14  249.17   38.38
   2  -6 -13  247.44   32.97
  -2   6  12  406.90   26.18
   2  -6 -12  347.63   36.03
  -2   6  11   86.65   12.07
   2  -6 -11   68.91   15.24
  -2   6  10  217.08   18.66
   2  -6 -10  199.73   23.27
  -2   6   9  445.05   27.10
   2  -6  -9  493.12   20.86
   2  -6  -9  460.99   33.08
  -2   6   8   97.28   12.97
   2  -6  -8  133.08   11.33
   2  -6  -8  125.15   16.28
   2  -6  -8  122.39    9.98
  -2   6   7  480.24   30.94
   2  -6  -7  518.40   31.70
   2  -6  -7  595.91   24.88
   2  -6  -7  567.89   21.34
  -2   6   6  296.34   26.31
   2  -6  -6  349.38   20.40
   2  -6  -6  310.66   23.21
   2  -6  -6  315.62   15.73
   2  -6  -5  726.94   33.57
   2  -6  -5  695.54   33.86
   2  -6  -5  665.60   22.99
  -2   6   5  688.84   44.66
   2  -6  -4  194.92   20.48
   2  -6  -4  196.67   12.94
   2  -6  -4  194.39   17.37
  -2   6   4  225.34   26.62
   2  -6  -3    1.33    1.33
  -2   6   3    8.51    5.86
  -2   6   3    3.67    2.27
   2  -6  -3    2.45    3.28
  -2   6   3    2.48    1.94
   2  -6  -3    5.81    4.38
   2  -6  -2  610.86   29.73
  -2   6   2  580.12   30.88
  -2   6   2  639.04   43.33
  -2   6   2  634.25   29.72
   2  -6  -2  592.16   26.29
   2  -6  -1  357.48   22.55
  -2   6   1  344.57   23.22
   2  -6  -1  325.43   21.59
  -2   6   1  333.72   24.06
  -2   6   0   38.11    9.16
   2  -6   0   49.66    8.87
   2  -6   0   45.14    9.11
   2  -6   0   39.07    9.88
  -2   6   0   47.81    8.42
   2  -6   1   31.38    7.17
  -2   6  -1   35.03    7.00
  -2   6  -1   30.38    8.08
  -2   6  -2   36.14    9.35
  -2   6  -2   41.38    7.06
   2  -6   2   33.38    6.57
  -2   6  -3   66.09   14.20
  -2   6  -3   65.56    8.18
  -2   6  -4  215.68   25.54
  -2   6  -4  160.53   11.42
  -2   6  -5   93.91    7.21
  -2   6  -5  142.09   21.18
  -2   6  -6  148.39   21.86
  -2   6  -7   12.02    7.47
  -2   6  -8    3.17    2.75
  -2   6  -9   27.19   10.24
   2  -5 -14  146.88   30.66
   2  -5 -13  136.02   23.66
  -2   5  12   54.82    8.55
   2  -5 -12   57.28   13.66
  -2   5  11  230.48   17.28
   2  -5 -11  213.57   24.65
  -2   5  10   36.92    6.75
   2  -5 -10   41.88   10.57
  -2   5   9    4.33    1.30
   2  -5  -9    9.65    4.50
  -2   5   8  306.79   19.68
   2  -5  -8  292.54   23.10
   2  -5  -7  488.82   28.27
  -2   5   7  454.64   25.37
   2  -5  -7  520.34   20.20
   2  -5  -7  510.33   19.46
   2  -5  -6  157.34   11.70
  -2   5   6  140.39   15.51
   2  -5  -6  162.16   15.70
   2  -5  -6  146.37   10.10
  -2   5   5  235.38   23.12
   2  -5  -5  247.13   15.87
  -2   5   5  239.79   17.33
   2  -5  -5  232.17   12.57
   2  -5  -5  246.04   18.27
   2  -5  -4  201.41   17.07
  -2   5   4  221.87   16.37
   2  -5  -4  202.68   11.89
   2  -5  -4  228.02   16.78
  -2   5   4  239.29   25.68
   2  -5  -3 1652.00   37.11
   2  -5  -3 1654.39   45.07
  -2   5   3 1662.68   45.44
   2  -5  -3 1770.31   64.01
   2  -5  -2  270.23   17.58
  -2   5   2  260.65   17.69
  -2   5   2  245.95   15.98
   2  -5  -2  279.48   15.96
  -2   5   2  248.61   25.40
   2  -5  -1  174.64   13.85
   2  -5  -1  189.62   21.84
   2  -5  -1  176.28   14.01
  -2   5   1  161.59   13.65
  -2   5   1  171.02   14.59
  -2   5   0  739.92   28.05
   2  -5   0  680.33   27.48
   2  -5   0  663.55   30.47
  -2   5   0  666.57   33.07
   2  -5   0  671.68   37.47
  -2   5  -1  163.78   12.62
   2  -5   1  157.33   17.49
   2  -5   1  148.30   12.76
  -2   5  -1  159.00   17.64
   2  -5   1  161.35   16.92
   2  -5   2  116.69   16.69
   2  -5   2  112.97   11.48
  -2   5  -2  123.18   17.22
  -2   5  -2  132.08   10.64
   2  -5   2  153.36   16.10
  -2   5  -3   66.25   13.47
  -2   5  -3   68.66    7.02
  -2   5  -4 1164.42   59.30
  -2   5  -4  970.16   23.94
  -2   5  -5 1305.55   64.43
  -2   5  -5  939.17   19.25
  -2   5  -6  311.30   31.91
  -2   5  -7  346.98   34.12
  -2   5  -8  175.15   25.27
  -2   5  -9   11.31    7.83
  -2   5 -10  122.33   21.80
   2  -4 -14   -2.20    7.95
   2  -4 -13    3.76    6.20
   2  -4 -13   -0.79    5.92
  -2   4  12   34.32    6.14
   2  -4 -12   31.09   10.60
  -2   4  11  887.42   31.20
   2  -4 -11  766.27   44.37
  -2   4  10  427.00   20.66
   2  -4 -10  417.73   29.87
   2  -4  -9   17.61    6.38
  -2   4   9   13.68    3.69
  -2   4   8  124.58   10.79
   2  -4  -8  138.85   15.03
  -2   4   7    3.22    1.81
   2  -4  -7    5.90    3.17
  -2   4   7    5.21    2.39
  -2   4   6  129.29   11.92
  -2   4   6  129.92   11.52
   2  -4  -6  148.83    9.36
   2  -4  -6  146.10   13.32
   2  -4  -5    5.04    2.67
   2  -4  -5   -0.05    0.54
  -2   4   5   -1.47    3.35
   2  -4  -5    1.11    1.00
  -2   4   5    1.25    1.72
  -2   4   4 1441.58   56.89
  -2   4   4 1416.13   37.25
   2  -4  -4 1368.58   35.59
   2  -4  -4 1360.12   29.75
   2  -4  -4 1421.47   38.60
   2  -4  -3 4223.03   57.68
  -2   4   3 4187.48   66.90
   2  -4  -3 4267.57   67.49
  -2   4   2 1455.03   36.51
   2  -4  -2 1495.73   33.60
   2  -4  -2 1521.71   36.74
  -2   4   2 1461.49   34.44
   2  -4  -1  588.36   35.26
  -2   4   1  602.24   23.78
   2  -4  -1  581.49   22.34
   2  -4  -1  597.06   22.00
  -2   4   1  602.78   22.42
   2  -4   0  392.64   20.45
  -2   4   0  414.25   17.81
  -2   4   0  412.62   22.20
   2  -4   0  412.85   17.87
   2  -4   0  384.70   24.00
  -2   4  -1   68.34   10.66
   2  -4   1   73.14   10.24
  -2   4  -1   87.01    7.70
   2  -4   1   91.68   10.93
   2  -4   1   84.96    8.05
  -2   4  -2    0.27    1.60
   2  -4   2    0.91    1.72
   2  -4   2    1.05    2.36
   2  -4   2    1.76    2.80
  -2   4  -2    2.27    0.98
  -2   4  -3   63.01   12.65
  -2   4  -3   43.63    4.66
   2  -4   3   45.30   11.10
   2  -4   3   36.15    5.58
  -2   4  -4 1352.20   62.80
  -2   4  -4 1220.99   22.35
  -2   4  -5 2131.45   83.20
  -2   4  -5 1375.41   18.17
  -2   4  -6  691.30   48.14
  -2   4  -7  445.14   39.28
  -2   4  -8   16.57    8.41
  -2   4  -9   80.24   17.09
  -2   4 -10   13.77    7.95
  -2   4 -11   14.32    7.43
   2  -3 -15  112.39   27.44
   2  -3 -14   27.08   12.09
   2  -3 -13  155.53   25.03
   2  -3 -13  163.32   25.96
   2  -3 -12   35.21   11.02
   2  -3 -12   32.86    9.83
  -2   3  12   32.36    5.97
  -2   3  11  558.64   23.16
   2  -3 -11  536.28   35.52
  -2   3  10  498.43   20.66
   2  -3 -10  461.77   29.66
   2  -3  -9  140.62   14.82
  -2   3   9  125.05    9.69
  -2   3   8  374.71   16.13
  -2   3   8  374.43   18.87
   2  -3  -8  355.49   21.82
  -2   3   7   19.99    3.66
   2  -3  -7   14.72    4.13
  -2   3   7   11.69    3.12
  -2   3   6   61.93    6.48
   2  -3  -6   69.25    8.42
  -2   3   6   64.32    7.34
  -2   3   5  618.74   22.81
  -2   3   5  674.99   23.53
   2  -3  -5  664.04   17.25
   2  -3  -5  656.20   25.00
   2  -3  -4   12.69    2.49
  -2   3   4    9.62    3.88
  -2   3   4    7.01    2.36
   2  -3  -4    7.70    2.73
   2  -3  -3  919.35   28.34
  -2   3   3  965.54   26.72
   2  -3  -3  949.79   27.00
   2  -3  -3  941.86   23.08
  -2   3   3 1032.20   47.06
   2  -3  -2  169.47   18.75
   2  -3  -2  152.64    9.29
  -2   3   2  151.15   10.06
   2  -3  -2  161.61   10.39
  -2   3   2  143.76   14.82
  -2   3   1  157.82    9.91
   2  -3  -1  162.04   10.33
   2  -3  -1  165.17    9.97
  -2   3   1  167.50   10.76
   2  -3  -1  173.78   16.54
   2  -3   0   49.46    6.38
  -2   3   0   45.33    6.20
   2  -3   0   44.55    6.67
   2  -3   0   49.89    5.33
  -2   3   0   48.31    5.14
   2  -3   1  420.84   21.22
  -2   3  -1  430.64   22.39
  -2   3  -1  426.19   14.65
   2  -3   1  448.65   15.35
  -2   3  -2    6.87    3.18
   2  -3   2   10.35    2.25
  -2   3  -2   10.55    2.14
   2  -3   2    6.35    3.29
   2  -3   3  640.05   39.77
  -2   3  -3  561.79   34.87
  -2   3  -3  624.40   15.13
   2  -3   3  616.73   17.70
  -2   3  -4   49.54    3.41
  -2   3  -4   54.15   11.95
   2  -3   4   44.85    5.17
  -2   3  -5   38.46   10.69
   2  -3   5   69.88   17.51
  -2   3  -6   43.50   12.32
  -2   3  -7    5.21    6.51
  -2   3  -8  419.72   40.01
  -2   3  -9  680.51   52.55
  -2   3 -10   21.45    9.57
  -2   3 -11    5.42    5.02
  -2   3 -12   16.69    7.71
   2  -2 -15   57.02   22.70
   2  -2 -14   20.82   12.28
   2  -2 -13   72.25   18.20
   2  -2 -12   15.92    9.84
   2  -2 -12    6.73    3.99
  -2   2  12    4.82    2.38
   2  -2 -11  701.41   39.34
  -2   2  11  749.96   25.86
  -2   2  10  638.37   22.24
   2  -2 -10  573.77   31.53
   2  -2  -9  359.15   22.46
  -2   2   9  386.42   18.30
  -2   2   9  395.76   16.18
  -2   2   8  564.01   18.15
   2  -2  -8  534.20   25.14
  -2   2   8  538.67   21.11
  -2   2   7   29.24    3.74
  -2   2   7   29.76    4.79
   2  -2  -7   37.46    6.09
  -2   2   6  103.98    6.70
   2  -2  -6   99.55    9.38
  -2   2   6  106.56    8.73
  -2   2   5  363.51   12.63
  -2   2   5  372.99   15.85
   2  -2  -5  373.33   17.10
   2  -2  -4   14.32    3.33
   2  -2  -4   11.72    1.86
  -2   2   4   18.07    3.28
  -2   2   4   14.84    3.08
   2  -2  -3  728.89   16.55
   2  -2  -3  734.62   21.33
  -2   2   3  740.61   21.05
  -2   2   3  677.66   31.44
   2  -2  -2  220.22   16.50
   2  -2  -2  211.79   10.24
   2  -2  -2  220.57   10.85
  -2   2   2  219.90   10.87
  -2   2   2  220.30   12.96
   2  -2  -1  459.84   15.42
   2  -2  -1  452.77   14.82
  -2   2   1  466.55   15.83
  -2   2   1  461.41   15.03
   2  -2  -1  448.66   20.36
   2  -2   0   30.32    3.56
   2  -2   0   30.61    4.25
  -2   2   0   37.08    4.78
  -2   2   0   27.92    3.32
  -2   2  -1  705.11   23.67
   2  -2   1  687.49   16.02
  -2   2  -1  687.95   16.41
   2  -2   1  720.91   24.18
   2  -2   2  327.67   19.45
  -2   2  -2  326.49   18.76
  -2   2  -2  333.52   10.52
   2  -2   2  335.40   10.19
   2  -2   3  132.80   16.63
  -2   2  -3  134.93   14.41
  -2   2  -3  129.02    5.75
   2  -2   3  139.05    6.05
  -2   2  -4   45.94   10.18
   2  -2   4   52.24    3.47
  -2   2  -5   10.37    5.81
   2  -2   5   14.00    6.88
  -2   2  -6    1.38    4.48
   2  -2   6    2.11    5.51
  -2   2  -7   40.89   12.39
  -2   2  -8  300.06   33.84
  -2   2  -9 1309.64   74.11
  -2   2 -10   28.38   12.22
  -2   2 -11   14.38    8.54
  -2   2 -12    4.41    6.08
  -2   2 -13   53.81   17.47
   2  -1 -14  401.75   48.79
   2  -1 -13   56.72   15.64
   2  -1 -12    4.61    6.70
   2  -1 -12   -1.04    4.30
  -2   1  12    5.95    2.30
  -2   1  11  142.56   10.99
   2  -1 -11  119.46   15.42
   2  -1 -11  148.66   21.81
  -2   1  10    4.24    1.78
   2  -1 -10    3.42    2.34
  -2   1  10    4.39    1.82
   2  -1  -9    3.59    2.27
  -2   1   9    0.01    0.83
  -2   1   9    2.21    1.38
   2  -1  -8  136.55   11.81
  -2   1   8  145.90    8.58
  -2   1   8  139.79    9.83
  -2   1   7 1912.06   37.49
   2  -1  -7 1861.74   42.03
  -2   1   7 1907.44   30.14
  -2   1   6 2872.29   35.56
   2  -1  -6 2840.83   49.70
  -2   1   6 2933.33   46.06
   2  -1  -5  395.96   16.37
  -2   1   5  403.80   10.42
  -2   1   5  387.76   15.11
  -2   1   4  420.31    9.81
   2  -1  -4  434.56   16.04
  -2   1   4  425.95   15.15
  -2   1   3  402.44   15.16
  -2   1   3  417.21   14.39
   2  -1  -3  434.80   15.06
   2  -1  -2   97.72    5.45
   2  -1  -2  100.27    6.76
  -2   1   2  105.59    6.78
   2  -1  -1  182.21    8.44
  -2   1   1  178.51    8.48
   2  -1  -1  184.86    8.80
   2  -1   0  147.47    7.06
  -2   1   0  164.16    7.64
   2  -1   0  147.05    8.20
  -2   1   0  160.73    8.44
   2  -1   1 9999.00   97.21
   2  -1   1 9919.02   81.50
  -2   1  -1 9965.21   82.62
  -2   1  -1 9814.51   95.39
   2  -1   2 3346.96   56.53
  -2   1  -2 3302.57   52.86
   2  -1   2 3454.93   35.62
   2  -1   3  995.15   40.00
   2  -1   3  995.44   15.30
  -2   1  -3  954.07   32.28
  -2   1  -4 1083.71   42.27
   2  -1   4 1123.70   14.84
  -2   1  -5   26.39    8.06
   2  -1   5   51.64   14.06
  -2   1  -6    4.54    3.19
   2  -1   6   11.78    8.34
   2  -1   7   52.99   14.23
  -2   1  -7   48.28   15.55
  -2   1  -8  614.51   50.84
  -2   1  -9 1480.88   82.22
  -2   1 -10  735.29   60.17
  -2   1 -11  263.80   37.87
  -2   1 -12   77.83   20.24
  -2   1 -13   19.78    9.70
  -2   1 -14   17.02    9.32
   2   0 -14  440.58   52.96
   2   0 -13   44.76   13.94
   2   0 -12   -6.46    9.01
  -2   0  12    3.18    1.74
   2   0 -11   19.31    6.83
   2   0 -11   21.75    7.05
   2   0 -10   35.38   10.95
   2   0 -10   21.72    6.03
   2   0  -9   73.17    9.29
   2   0  -8   17.06    3.99
  -2   0   8   22.59    3.99
   2   0  -7 1269.67   32.52
  -2   0   7 1306.88   29.08
   2   0  -6 1834.26   36.83
  -2   0   6 1832.69   33.78
  -2   0   5  125.57    8.10
   2   0  -5  133.88    8.93
  -2   0   4   85.39    6.46
   2   0  -4   90.91    6.96
   2   0  -3   33.07    3.94
  -2   0   3   37.35    4.02
  -2   0   2  798.65   18.45
   2   0  -2  835.22   19.28
   2   0  -1  106.67    6.35
  -2   0   1  104.51    6.22
   2   0   0  461.22   13.15
   2   0   0  466.00   12.63
   2   0   1 2287.10   29.67
   2   0   1 2229.89   33.08
  -2   0  -1 2253.72   31.64
  -2   0  -2 1050.43   22.86
   2   0   2 1034.64   25.11
   2   0   3   88.71    9.89
  -2   0  -3   94.07    7.81
  -2   0  -4    9.49    3.21
   2   0   4   12.28    6.99
   2   0   5  753.85   52.58
  -2   0  -5  753.09   35.76
  -2   0  -6  522.06   35.97
   2   0   6  485.10   14.03
   2   0   6  555.17   41.27
   2   0   7   30.92    9.68
   2   0   7   26.00    2.35
  -2   0  -7   34.23   11.55
   2   0   8   90.20    3.14
  -2   0  -8   92.48   19.57
  -2   0  -9  411.23   43.88
  -2   0 -10   17.25   11.13
  -2   0 -11    1.13    3.59
  -2   0 -12  108.19   24.24
  -2   0 -13  686.20   66.88
  -2   0 -14  193.07   35.23
   2   1 -13  290.86   39.20
   2   1 -12  189.48   29.99
   2   1 -11  199.71   27.82
   2   1 -10    7.76    6.46
   2   1 -10    8.93    4.02
   2   1  -9   89.48    9.78
   2   1  -9  108.82   16.92
   2   1  -8  261.94   15.04
   2   1  -8  318.22   25.90
   2   1  -7  210.49   12.38
   2   1  -6  706.21   21.45
   2   1  -5  108.86    7.81
   2   1  -4  374.26   13.92
  -2  -1   4  348.06   12.82
  -2  -1   3   30.26    4.70
   2   1  -3   24.50    3.40
  -2  -1   2  444.70   12.01
   2   1  -2  478.76   14.63
   2   1  -1  890.55   16.29
  -2  -1   1  911.28   13.19
   2   1   0 1114.78   16.20
   2   1   1   40.23    3.47
   2   1   2   46.71    4.13
  -2  -1  -2   44.24    3.51
   2   1   3  108.41    8.99
  -2  -1  -3  105.92    6.49
   2   1   4   36.03    9.25
  -2  -1  -4   35.02    4.57
   2   1   5 1245.57   56.53
  -2  -1  -5 1266.29   36.61
  -2  -1  -6  427.66   27.12
   2   1   6  420.89   21.79
   2   1   6  435.74   28.13
  -2  -1  -7  154.34   19.87
   2   1   7  180.95   10.26
   2   1   7  143.41   15.53
   2   1   8  134.56    7.79
  -2  -1  -8  111.11   20.83
   2   1   9   62.06    4.78
  -2  -1  -9   37.30   11.51
  -2  -1 -10  310.60   38.42
   2   1  10  288.79    9.43
  -2  -1 -11   79.57   21.01
  -2  -1 -12  254.86   39.74
  -2  -1 -13  843.42   73.88
  -2  -1 -14  161.35   32.04
   2   2 -12    9.69    5.74
   2   2 -11    4.54    5.03
   2   2 -10  528.85   25.74
   2   2 -10  633.25   47.67
   2   2  -9  228.87   15.09
   2   2  -9  285.24   29.23
   2   2  -8   10.16    6.11
   2   2  -8    9.55    2.96
   2   2  -7  295.06   14.49
   2   2  -7  371.94   27.86
   2   2  -6  236.15   12.14
  -2  -2   6  243.38   14.76
  -2  -2   5    1.65    1.44
   2   2  -5    1.05    0.89
  -2  -2   4   30.91    5.51
   2   2  -4   29.17    3.94
  -2  -2   3 1412.75   45.06
   2   2  -3 1454.90   28.64
  -2  -2   2 2805.81   58.77
   2   2  -2 3185.89   56.81
  -2  -2   1  624.37   17.34
   2   2  -1  561.98   23.65
   2   2   0  108.61    6.74
  -2  -2   0  103.86    6.07
   2   2   1  639.96   15.47
  -2  -2  -1  622.83   15.27
   2   2   2    5.10    1.12
   2   2   2    6.05    2.00
  -2  -2  -3    2.27    0.63
   2   2   3    2.96    1.12
   2   2   3    5.32    1.43
   2   2   4   24.81    6.15
  -2  -2  -4   24.55    2.78
   2   2   4   20.54    3.34
  -2  -2  -5 2067.24   35.47
   2   2   5 2067.31   49.88
  -2  -2  -6 2266.12   48.56
   2   2   6 2283.19   72.08
   2   2   6 2234.39   48.88
  -2  -2  -7  160.03   15.91
   2   2   7  137.40   12.81
  -2  -2  -8  171.99   20.65
   2   2   8  164.80   11.66
   2   2   9   40.88    5.36
  -2  -2  -9   39.85   10.85
  -2  -2 -10   46.44   13.34
   2   2  10   31.65    4.38
  -2  -2 -11   44.63   15.79
  -2  -2 -12    5.57    5.46
  -2  -2 -13  434.06   49.58
   2   2  13  449.01   26.47
   2   2  14  124.46   14.54
  -2  -2 -14  133.84   28.00
   2   2  15    5.35    2.99
   2   3 -12   39.03   14.61
   2   3 -11  200.18   30.72
   2   3 -10 1155.58   68.91
   2   3  -9  535.58   22.78
   2   3  -9  567.90   44.17
   2   3  -8    1.19    2.81
   2   3  -8    5.83    1.88
  -2  -3   8    0.22    2.58
   2   3  -7   10.87    6.41
  -2  -3   7   12.80    4.26
   2   3  -7   10.19    2.63
   2   3  -6  131.40    9.43
   2   3  -6  137.34   17.34
  -2  -3   6  132.40   13.00
   2   3  -5  577.48   19.10
   2   3  -5  619.59   32.17
   2   3  -4  355.74   14.71
   2   3  -4  361.17   22.64
  -2  -3   4  319.95   22.02
  -2  -3   3 2158.25   64.02
  -2  -3   2 5820.80  106.13
   2   3  -2 5359.85   98.68
  -2  -3   1 1186.49   36.66
   2   3  -1 1276.53   47.19
   2   3   0  257.23   14.80
  -2  -3   0  278.37   13.66
   2   3   1   38.28    4.83
  -2  -3  -1   31.63    4.16
  -2  -3  -2  788.81   21.10
   2   3   2  806.51   21.05
   2   3   3  314.95   13.04
  -2  -3  -3  326.02   13.48
   2   3   3  318.21    8.16
   2   3   4  138.81    8.61
   2   3   4  156.32    9.26
   2   3   5 2417.01   41.18
  -2  -3  -5 2537.17   29.17
   2   3   6 2220.92   40.83
  -2  -3  -6 2190.31   34.20
   2   3   6 2115.41   84.13
  -2  -3  -7  310.44   16.00
   2   3   7  307.35   25.29
   2   3   7  308.46   15.37
   2   3   8  150.34   11.30
  -2  -3  -8  148.38   14.19
   2   3   8  154.80   14.71
   2   3   9   74.27    8.72
   2   3   9   77.29    8.43
  -2  -3  -9   76.60   12.91
   2   3  10  327.99   18.66
  -2  -3 -10  345.46   30.56
   2   3  10  315.01   17.15
   2   3  11    8.88    3.03
   2   3  11    7.27    2.79
  -2  -3 -11    8.53    5.83
  -2  -3 -12   11.38    7.55
   2   3  12   10.34    3.24
  -2  -3 -13  326.69   36.46
   2   3  13  325.39   22.38
   2   3  14   64.32   10.31
   2   3  15    1.84    2.15
   2   4 -11    3.24    4.14
   2   4 -10  509.69   47.99
   2   4  -9  243.81   31.03
   2   4  -8    2.40    4.92
   2   4  -8    5.11    2.15
   2   4  -7   19.39    7.23
  -2  -4   7   23.28    6.67
   2   4  -7   27.21    4.71
   2   4  -6   63.50   12.49
   2   4  -6   57.94    6.72
  -2  -4   6   50.64   10.11
   2   4  -5   60.88   11.40
  -2  -4   5   50.52    9.71
   2   4  -5   58.03    6.43
  -2  -4   4  284.83   23.95
   2   4  -4  322.64   24.08
   2   4  -3   16.86    5.75
  -2  -4   3   16.16    6.64
  -2  -4   2  621.86   36.35
   2   4  -2  588.39   34.63
   2   4  -2  566.85   26.48
   2   4  -1    7.62    3.62
   2   4  -1    4.56    3.42
  -2  -4   1    5.14    3.33
   2   4   0   39.22    5.69
  -2  -4   0   32.27    6.20
   2   4   0   25.77    6.14
   2   4   1  236.92   15.22
  -2  -4  -1  241.53   14.66
   2   4   1  267.07   12.90
   2   4   2 1051.07   29.61
  -2  -4  -2 1059.89   28.89
   2   4   2 1097.45   22.73
  -2  -4  -3   33.97    5.07
   2   4   3   28.94    4.50
   2   4   3   25.78    2.65
   2   4   4  485.37   18.36
  -2  -4  -4  492.07   19.20
   2   4   5    6.06    6.46
   2   4   5    9.13    2.76
   2   4   6   35.49   12.26
   2   4   6   27.83    4.60
  -2  -4  -6   25.65    1.97
   2   4   7  424.89   36.16
  -2  -4  -7  432.06   12.47
   2   4   7  411.75   18.40
  -2  -4  -8  281.22   13.41
   2   4   8  310.19   25.73
   2   4   8  287.28   15.96
  -2  -4  -9  912.80   31.39
   2   4   9  928.12   38.84
   2   4   9  900.45   30.14
  -2  -4 -10 1316.76   45.19
   2   4  10 1260.50   37.67
   2   4  10 1257.55   41.53
   2   4  11    7.99    3.45
   2   4  11   14.93    3.94
  -2  -4 -11   18.41    6.12
   2   4  12   40.54    7.61
  -2  -4 -12   52.26   11.11
   2   4  13    0.67    2.04
   2   4  14  150.48   15.82
   2   4  15  149.16   16.68
   2   5 -10  338.11   40.92
   2   5  -9  216.31   30.32
   2   5  -8   44.04    6.37
   2   5  -8   42.86   12.77
   2   5  -7   44.63   12.96
   2   5  -7   55.49    7.02
   2   5  -6  168.78   12.05
   2   5  -6  167.62   22.61
  -2  -5   5  122.03   16.83
   2   5  -5  128.78   18.46
  -2  -5   4  204.23   21.46
   2   5  -4  174.84   19.93
  -2  -5   3   20.10    7.22
   2   5  -3    6.06    4.82
  -2  -5   2  137.52   18.31
   2   5  -2   97.55   15.33
   2   5  -2   93.83   12.39
   2   5  -1   17.91    5.00
  -2  -5   1   11.88    6.09
   2   5  -1   20.95    7.11
   2   5   0    2.97    2.11
  -2  -5   0   -0.12    2.53
   2   5   0   -1.70    4.23
  -2  -5  -1   67.68    9.69
   2   5   1   71.15   10.14
   2   5   1   73.31    8.77
   2   5   2 1268.48   39.11
  -2  -5  -2 1265.38   37.77
   2   5   3  222.64   12.22
   2   5   3  181.52   13.56
  -2  -5  -3  187.23   13.52
   2   5   4  358.82   18.20
  -2  -5  -4  358.11   18.19
   2   5   4  356.23   31.90
   2   5   5   41.15    5.95
  -2  -5  -5   46.01    6.37
   2   5   5   55.48   14.56
   2   5   6  111.30    9.92
   2   5   6  108.75   20.13
   2   5   7  209.83   13.83
   2   5   7  226.87   28.68
   2   5   8   40.47    6.36
  -2  -5  -8   31.58    2.46
   2   5   8   44.41   11.00
   2   5   9  391.48   20.47
  -2  -5  -9  374.42   13.04
   2   5   9  370.93   29.45
  -2  -5 -10  752.92   23.63
   2   5  10  719.55   28.97
  -2  -5 -11   12.47    3.87
   2   5  11    5.54    3.16
   2   5  12   56.37    8.69
   2   5  13   34.62    7.12
   2   5  14  179.55   17.46
   2   5  15   48.13    9.52
   2   6  -9   28.06   13.82
   2   6  -8  141.87   24.73
   2   6  -7  204.67   28.03
   2   6  -7  272.71   16.88
   2   6  -6 1228.28   65.75
   2   6  -6 1285.51   38.38
   2   6  -5 1407.15   66.91
   2   6  -4  131.52   18.65
  -2  -6   3   46.62   10.54
   2   6  -3   29.44    8.62
   2   6  -2   -4.05    4.81
  -2  -6   2   13.93    6.65
   2   6  -1  268.03   22.71
  -2  -6   1  356.51   30.25
   2   6  -1  320.74   29.61
   2   6   0  250.24   20.46
  -2  -6   0  261.13   24.68
   2   6   0  285.17   26.65
   2   6   1  629.03   36.27
   2   6   1  714.83   32.29
  -2  -6  -1  732.07   38.15
   2   6   2 3583.26   80.42
   2   6   2 3845.64   71.32
  -2  -6  -2 3680.86   79.61
   2   6   3 1655.52   49.26
  -2  -6  -3 1801.10   50.16
   2   6   3 1831.36   69.70
   2   6   4  180.95   14.95
  -2  -6  -4  174.78   14.42
   2   6   5  236.53   16.41
  -2  -6  -5  249.98   16.78
   2   6   6   18.13    4.55
   2   6   7  230.77   15.95
   2   6   8   58.03    7.98
   2   6   9  393.56   21.54
   2   6  10  839.67   32.48
  -2  -6 -10  482.16    8.09
   2   6  11  121.42   12.81
   2   6  12   40.35    7.82
   2   6  13    1.80    2.14
   2   6  14   81.69   12.10
   2   6  15    2.96    3.13
   2   7  -8  125.00   24.06
   2   7  -7   36.34   11.45
   2   7  -6  527.45   45.42
   2   7  -5  544.89   44.24
   2   7  -4    7.32    6.34
   2   7  -3   55.54   13.10
   2   7  -2  125.17   17.98
   2   7  -1  831.12   43.92
   2   7  -1 1017.68   53.85
   2   7   0   45.04    9.59
   2   7   0   52.73   11.56
   2   7   1   52.88    9.25
   2   7   1   33.59    9.52
   2   7   2  749.81   41.01
   2   7   2  941.09   35.24
   2   7   3  102.62   13.87
   2   7   3  121.44   10.79
   2   7   4   54.11    9.70
   2   7   4   44.46    4.93
   2   7   5  110.85   12.74
   2   7   6  977.06   37.14
   2   7   7  341.97   21.41
   2   7   8    2.35    1.88
   2   7   9    7.83    3.80
   2   7  10   66.38    9.70
   2   7  11   41.20    7.71
   2   7  12   88.83   12.04
   2   7  13  204.90   19.11
   2   7  14  571.04   33.17
   2   8  -7   96.65   20.81
   2   8  -6   13.50    7.57
   2   8  -5   81.50   17.69
   2   8  -4   11.43    4.64
   2   8  -3   11.57    7.25
   2   8  -2  101.51   16.46
   2   8  -1  136.94   18.25
   2   8  -1  192.28   24.01
   2   8   0  242.60   22.04
   2   8   0  262.73   27.31
   2   8   1  550.12   30.46
   2   8   1  540.14   39.37
   2   8   2   58.30    8.83
   2   8   2   48.75   11.64
   2   8   3  277.90   26.72
   2   8   3  348.81   19.71
   2   8   4  341.73   27.53
   2   8   4  358.41   17.21
   2   8   5  151.29   17.39
   2   8   6  649.93   34.66
   2   8   7  236.15   19.93
   2   8   8  278.26   21.41
   2   8   9  260.07   20.80
   2   8  10  256.51   20.60
   2   8  11  426.25   27.36
   2   8  12  191.31   18.66
   2   8  13  236.74   21.68
   2   8  14  380.96   28.47
   2   9  -6   -0.88    5.31
   2   9  -5    6.74    6.05
   2   9  -4  103.96   19.57
   2   9  -3   50.88   13.39
   2   9  -2  506.78   38.25
   2   9  -1 1071.64   51.68
   2   9   0   72.49   15.49
   2   9   0   76.77   12.79
   2   9   1    4.94    3.31
   2   9   1   10.56    5.52
   2   9   2    1.49    1.89
   2   9   2    8.14    5.80
   2   9   3  127.06   12.59
   2   9   3   84.18   16.75
   2   9   4   43.30    6.93
   2   9   4   31.48    9.97
   2   9   5   51.10   11.75
   2   9   5   34.56    4.35
   2   9   6  556.60   36.25
   2   9   7  438.25   30.81
   2   9   8   -4.23    2.27
   2   9   9   -0.85    2.97
   2   9  10   15.82    5.79
   2   9  11   68.13   12.01
   2   9  12    2.85    3.90
   2   9  13   11.01    5.54
   2  10  -5  231.02   30.40
   2  10  -4  336.92   34.94
   2  10  -3  184.54   24.24
   2  10  -2  633.75   42.35
   2  10  -1 1081.27   50.90
   2  10   0  143.95   16.93
   2  10   0  147.65   22.26
   2  10   1    3.88    1.70
   2  10   1    5.26    5.41
   2  10   2   33.81   10.65
   2  10   2   41.85    8.11
   2  10   3  361.46   22.16
   2  10   3  322.11   34.12
   2  10   4  186.75   25.75
   2  10   4  241.48   17.09
   2  10   5   11.99    5.61
   2  10   6  395.70   34.24
   2  10   7  299.21   28.85
   2  10   8    2.98    5.72
   2  10   9    6.03    4.39
   2  10  10   68.58   13.38
   2  10  11  163.59   20.06
   2  10  12    5.45    4.61
   2  11  -4   59.78   14.97
   2  11  -3   56.83   13.63
   2  11  -2   20.37    8.40
   2  11  -1    8.77    4.83
   2  11   0   78.78   12.86
   2  11   1  142.73   16.28
   2  11   1  133.53   22.15
   2  11   2  157.36   15.90
   2  11   2  147.96   23.70
   2  11   3  400.51   24.12
   2  11   3  323.24   35.06
   2  11   4    9.54    8.99
   2  11   5  178.92   26.71
   2  11   6   53.87   13.01
   2  11   7   92.71   18.55
   2  11   8  271.72   30.16
   2  11   9  205.16   25.26
   2  11  10  349.22   32.02
   2  12  -2   67.02   13.72
   2  12  -1   19.88    7.20
   2  12   0  103.36   15.24
   2  12   1   42.49   12.71
   2  12   2   71.83   16.59
   2  12   3  160.82   25.65
   2  12   4   -4.96    5.82
   2  12   5  181.45   27.69
   2  12   6   96.72   20.46
   2  12   7  108.79   21.49
   2  12   8  124.51   22.23
  -3  12   9   51.73   14.28
  -3  12   8   41.09   12.14
  -3  12   3   32.70   10.34
  -3  12   2   78.13   15.40
  -3  12   1   14.13    7.15
  -3  11  10   21.65    9.87
  -3  11   9   82.98   17.37
  -3  11   8   26.99   10.01
  -3  11   7  176.61   25.61
   3 -11  -7  133.23   22.71
   3 -11  -6   32.65   10.84
   3 -11  -5   68.74   15.48
   3 -11  -4   45.31   12.50
  -3  11   3    1.31    2.61
  -3  11   2   95.11   17.60
  -3  11   1   21.87    8.70
  -3  11   0  156.19   22.42
  -3  11  -1  182.42   24.93
  -3  10  10  166.98   24.25
   3 -10  -9  355.90   37.07
  -3  10   9  387.36   36.75
  -3  10   8    1.89    3.47
   3 -10  -8    1.25    3.79
   3 -10  -7  149.16   22.65
  -3  10   7  206.41   27.69
  -3  10   6  115.70   20.75
   3 -10  -6   75.14   14.71
   3 -10  -5  283.60   30.69
   3 -10  -4  159.81   22.25
  -3  10   3   22.44    7.23
   3 -10  -3   11.99    6.07
   3 -10  -2  214.50   25.66
  -3  10   2  279.44   28.31
  -3  10   1  243.22   27.39
  -3  10   0    7.98    6.16
  -3  10  -1    6.87    5.33
  -3  10  -2  104.14   18.06
  -3  10  -3   33.87   10.89
   3  -9 -11    8.21    4.60
  -3   9  10    2.23    5.43
   3  -9 -10   -4.98    3.26
  -3   9   9   60.13   14.49
   3  -9  -9   59.01   14.24
   3  -9  -8   85.28   16.29
  -3   9   8  119.66   20.84
   3  -9  -7  145.92   20.54
  -3   9   7  159.29   24.39
   3  -9  -6  143.31   20.16
  -3   9   6  183.64   26.06
   3  -9  -5  299.35   28.03
  -3   9   5  352.22   35.24
   3  -9  -4    0.89    2.84
   3  -9  -3  257.38   25.44
  -3   9   3  236.96   23.94
  -3   9   2   30.09    9.13
   3  -9  -2   25.91    8.21
  -3   9   1   26.98    9.88
   3  -9  -1   24.27    7.79
   3  -9   0  155.06   20.76
  -3   9   0  196.41   24.33
  -3   9  -1  151.00   22.25
  -3   9  -2  106.66   18.93
  -3   9  -3  164.60   23.19
  -3   9  -4  119.37   20.40
  -3   9  -5  374.17   36.22
   3  -8 -12   16.95    7.60
   3  -8 -11  277.88   31.21
   3  -8 -10  183.77   24.03
  -3   8  10  159.91   22.17
  -3   8   9   17.14    8.77
   3  -8  -9   11.69    4.96
  -3   8   8   79.77   16.68
   3  -8  -8   69.38   14.03
  -3   8   7   34.10   11.17
   3  -8  -7   25.34    8.60
  -3   8   6    2.05    2.39
   3  -8  -6    3.84    4.17
  -3   8   5   67.80   15.21
   3  -8  -5   58.49   11.40
   3  -8  -4  203.03   20.72
   3  -8  -3 1139.96   48.95
  -3   8   3 1232.52   49.71
   3  -8  -2  530.28   33.35
  -3   8   2  541.32   34.76
   3  -8  -1  424.51   29.65
  -3   8   1  416.53   33.00
  -3   8   0  259.62   27.47
   3  -8   0  236.00   22.40
  -3   8  -1   10.60    4.90
   3  -8   1    5.27    3.95
  -3   8  -2   32.97   10.25
  -3   8  -3   21.43    8.65
  -3   8  -4  390.87   36.61
  -3   8  -5  875.50   55.69
  -3   8  -6  401.88   38.09
   3  -7 -13  175.58   27.11
   3  -7 -12  112.61   20.41
  -3   7  11  143.89   19.24
   3  -7 -11  189.72   24.94
  -3   7  10  150.04   19.91
   3  -7 -10  185.71   23.22
   3  -7  -9  129.67   18.59
  -3   7   9  103.65   17.47
   3  -7  -8  287.48   25.93
  -3   7   8  272.03   29.78
  -3   7   7   74.35   15.87
   3  -7  -7   73.20   12.74
  -3   7   6   57.15   14.65
   3  -7  -6   42.74    9.47
   3  -7  -5  503.47   31.06
  -3   7   5  612.14   45.43
   3  -7  -4   48.67   10.02
  -3   7   4   37.05   11.77
  -3   7   3  288.78   21.32
   3  -7  -3  270.69   21.82
   3  -7  -2  201.87   18.32
  -3   7   2  211.32   19.68
   3  -7  -1  101.62   12.84
  -3   7   1   92.57   14.20
   3  -7   0  157.48   16.33
  -3   7   0  144.83   19.48
  -3   7  -1   31.16    9.37
   3  -7   1   46.33    8.89
  -3   7  -1   27.60    6.95
  -3   7  -2   19.50    7.87
   3  -7   2   13.96    5.61
  -3   7  -2   11.97    4.31
  -3   7  -3  245.75   28.57
  -3   7  -3  184.81   15.42
  -3   7  -4    3.81    4.08
  -3   7  -5   77.91   17.36
  -3   7  -6    9.43    6.12
  -3   7  -7   37.69   12.23
   3  -6 -14   13.49    8.08
   3  -6 -13  112.95   21.42
   3  -6 -12   51.19   13.54
  -3   6  11  176.82   18.76
   3  -6 -11  212.27   24.60
  -3   6  10  395.17   29.03
   3  -6 -10  479.04   34.82
  -3   6   9  317.25   27.45
   3  -6  -9  363.67   28.78
  -3   6   8  596.35   40.67
   3  -6  -8  664.89   37.05
   3  -6  -8  685.20   24.96
  -3   6   7   44.28   12.19
   3  -6  -7   47.83    9.77
   3  -6  -7   33.01    5.82
  -3   6   6    0.61    3.12
   3  -6  -6    1.39    1.46
   3  -6  -6    7.45    4.74
   3  -6  -6    4.92    2.98
   3  -6  -5  363.06   24.92
   3  -6  -5  356.64   18.78
   3  -6  -5  338.15   23.14
   3  -6  -4   28.65    5.58
  -3   6   4   32.44   10.38
   3  -6  -4   30.10    6.37
   3  -6  -4   27.62    9.01
   3  -6  -3  281.07   20.10
   3  -6  -3  306.28   18.47
   3  -6  -2   83.10   10.92
   3  -6  -2   91.34   10.85
  -3   6   2  102.25   12.37
  -3   6   1  460.63   25.23
   3  -6  -1  450.03   24.33
  -3   6   1  460.57   28.12
   3  -6   0  122.84   12.63
  -3   6   0  111.79   12.13
  -3   6   0  108.58   14.88
   3  -6   1  251.34   17.88
  -3   6  -1  220.11   16.54
  -3   6  -1  201.48   22.12
  -3   6  -2   45.33   11.66
   3  -6   2   43.84    7.86
  -3   6  -2   52.66    7.82
  -3   6  -3   44.90    6.98
   3  -6   3   53.37    8.90
  -3   6  -3   67.31   14.32
  -3   6  -4   26.04    8.83
  -3   6  -4   25.39    4.56
  -3   6  -5   18.04    7.32
  -3   6  -6    5.45    6.01
  -3   6  -7   71.54   17.28
  -3   6  -8   56.18   15.35
  -3   6  -9  403.10   40.10
   3  -5 -14  136.16   25.24
   3  -5 -13   12.65    8.43
   3  -5 -12   10.51    6.48
  -3   5  11  141.74   14.53
   3  -5 -11  174.49   21.12
  -3   5  10   43.26    8.41
   3  -5 -10   60.40   12.25
   3  -5  -9   32.01    8.37
  -3   5   9   22.23    6.28
  -3   5   8   24.02    7.06
   3  -5  -8   21.86    6.15
  -3   5   7  660.11   41.76
   3  -5  -7  685.57   22.61
   3  -5  -7  696.00   33.43
   3  -5  -7  725.59   26.22
   3  -5  -6 1560.17   37.16
   3  -5  -6 1542.36   47.97
   3  -5  -6 1581.48   38.85
   3  -5  -5  259.94   17.13
   3  -5  -5  257.51   18.54
   3  -5  -5  247.64   14.84
  -3   5   5  285.16   29.55
   3  -5  -4  451.17   28.40
   3  -5  -4  442.94   23.52
   3  -5  -4  441.49   19.97
  -3   5   4  441.15   34.25
   3  -5  -3  402.22   21.50
  -3   5   3  406.86   21.95
   3  -5  -3  404.17   19.42
   3  -5  -2   26.72    9.43
   3  -5  -2   17.15    4.47
   3  -5  -2   24.08    5.09
  -3   5   2   23.09    5.41
  -3   5   2   23.88    5.46
   3  -5  -1   99.03   10.90
   3  -5  -1   93.56    9.81
  -3   5   1   85.54   10.84
  -3   5   1   94.22   10.09
   3  -5  -1   72.63   12.99
   3  -5   0   46.50    8.25
   3  -5   0   44.86    6.74
  -3   5   0   45.40    6.99
  -3   5   0   50.76    9.35
   3  -5   0   47.36    9.39
   3  -5   1 2145.60   47.58
  -3   5  -1 2118.76   46.22
  -3   5  -1 2143.52   65.55
   3  -5   1 2200.68   63.09
  -3   5  -2 1763.23   39.94
   3  -5   2 1881.90   43.76
   3  -5   3  720.58   27.01
  -3   5  -3  682.80   22.93
  -3   5  -4  659.76   45.77
   3  -5   4  630.30   26.59
  -3   5  -4  697.94   21.49
  -3   5  -5  188.81   25.57
  -3   5  -5  164.61    8.88
  -3   5  -6   27.88    9.74
  -3   5  -7  149.27   23.90
  -3   5  -8   81.53   18.00
  -3   5  -9  736.28   55.30
  -3   5 -10  392.87   41.01
   3  -4 -14  325.97   38.06
   3  -4 -13   40.39   12.33
   3  -4 -12   19.08    8.06
  -3   4  11   51.37    7.72
   3  -4 -11   60.42   11.80
  -3   4  10   13.70    4.26
   3  -4 -10   10.15    4.65
   3  -4  -9    2.44    4.11
  -3   4   9    4.05    3.19
  -3   4   8   41.32    7.29
   3  -4  -8   57.12    9.35
  -3   4   7  578.81   33.28
   3  -4  -7  621.25   29.68
   3  -4  -6 1424.00   43.23
   3  -4  -6 1364.79   28.66
  -3   4   6 1450.84   61.66
   3  -4  -5  426.80   17.07
   3  -4  -5  436.90   22.50
  -3   4   5  428.84   21.50
   3  -4  -5  401.56   18.26
  -3   4   5  460.60   34.68
   3  -4  -4  202.14   14.74
   3  -4  -4  217.46   15.13
  -3   4   4  216.43   14.93
   3  -4  -4  222.53   13.31
  -3   4   4  179.82   19.88
   3  -4  -3   61.07    7.74
   3  -4  -3   60.58    7.00
   3  -4  -3   74.06   12.80
  -3   4   3   62.20    7.73
   3  -4  -2  169.96   21.02
   3  -4  -2  132.11   10.92
   3  -4  -2  139.99   11.06
  -3   4   2  130.43   10.96
  -3   4   1   16.20    4.23
   3  -4  -1   20.56    6.26
   3  -4  -1   19.07    4.06
   3  -4  -1   19.60    4.28
  -3   4   1   21.85    4.46
   3  -4   0    3.83    1.54
   3  -4   0    6.14    3.17
   3  -4   0    5.47    2.48
  -3   4   0    4.21    1.90
  -3   4   0    6.24    2.65
   3  -4   1 1411.17   44.62
   3  -4   1 1361.38   32.58
  -3   4  -1 1362.39   32.69
  -3   4  -1 1478.48   47.33
   3  -4   1 1457.32   44.05
   3  -4   2  961.23   26.38
   3  -4   2  958.80   41.36
  -3   4  -2  930.07   41.62
  -3   4  -2  902.83   25.11
   3  -4   3  294.25   14.19
  -3   4  -3  254.78   24.48
  -3   4  -3  266.79   12.70
   3  -4   4  271.41   13.83
  -3   4  -4  253.69   11.20
  -3   4  -4  241.93   25.77
   3  -4   5  101.91    8.86
  -3   4  -5  115.17   18.98
  -3   4  -6  136.50   21.66
  -3   4  -7   24.64    9.75
  -3   4  -8   39.50   13.59
  -3   4  -9  429.14   42.16
  -3   4 -10   83.74   19.74
  -3   4 -11   68.34   17.62
   3  -3 -14  387.95   41.50
   3  -3 -13  302.80   31.53
   3  -3 -12  231.31   25.31
   3  -3 -11  326.02   26.55
  -3   3  10   29.82    4.88
   3  -3 -10   38.55    8.14
  -3   3   9  123.26    9.89
   3  -3  -9  127.07   14.26
  -3   3   8  520.90   21.05
   3  -3  -8  540.23   27.56
  -3   3   7   58.42    8.03
   3  -3  -7   58.03    8.54
  -3   3   6  656.34   34.88
  -3   3   6  719.02   26.59
   3  -3  -6  707.25   28.21
   3  -3  -5  145.26    7.45
   3  -3  -5  147.92   12.16
  -3   3   5  152.99   11.87
  -3   3   5  127.55   16.27
   3  -3  -4  837.51   25.47
   3  -3  -4  800.47   21.25
   3  -3  -4  819.72   27.52
  -3   3   4  820.84   26.91
  -3   3   4  750.34   31.40
   3  -3  -3  135.57   13.32
   3  -3  -3  108.54    9.56
  -3   3   3  110.37    9.55
   3  -3  -3  131.81    9.81
   3  -3  -2  165.37   19.45
   3  -3  -2  156.38   10.83
   3  -3  -2  144.53   10.38
  -3   3   2  159.55   10.96
   3  -3  -1  516.50   20.55
  -3   3   1  518.97   19.36
   3  -3  -1  491.76   18.40
   3  -3  -1  482.99   24.67
  -3   3   1  514.31   21.02
   3  -3   0  765.00   26.81
   3  -3   0  720.55   21.46
  -3   3   0  718.49   22.18
  -3   3   0  735.45   26.74
   3  -3   0  744.65   27.23
   3  -3   1   47.48    7.44
   3  -3   1   43.39    4.94
  -3   3  -1   38.44    4.89
  -3   3  -1   41.23    7.04
   3  -3   2    2.69    2.08
  -3   3  -2    8.15    3.99
   3  -3   2    9.24    2.20
  -3   3  -2    6.62    2.04
   3  -3   3    5.66    1.81
  -3   3  -3    3.44    1.65
   3  -3   3    5.54    3.90
  -3   3  -3    3.63    4.10
   3  -3   4   13.57    6.48
  -3   3  -4    9.29    4.96
   3  -3   4   10.71    2.22
  -3   3  -5  403.76   33.39
   3  -3   5  430.25   13.75
  -3   3  -6  292.71   31.51
  -3   3  -7   34.60   12.63
  -3   3  -8    4.28    4.02
  -3   3  -9   25.07   10.79
  -3   3 -10   30.51   11.70
  -3   3 -11    9.62    7.49
  -3   3 -12   98.11   21.58
   3  -2 -14  430.90   46.47
   3  -2 -13  187.85   27.56
   3  -2 -12  165.96   20.15
   3  -2 -11   61.20   11.33
  -3   2  10  269.32   13.30
   3  -2 -10  271.47   21.36
  -3   2   9  163.90    9.66
   3  -2  -9  149.77   14.81
  -3   2   8   18.86    3.07
   3  -2  -8    9.86    3.53
  -3   2   7  252.85   11.82
   3  -2  -7  259.43   16.82
  -3   2   6  462.62   20.03
   3  -2  -6  476.25   21.79
  -3   2   6  508.86   21.07
  -3   2   5  166.39   11.50
   3  -2  -5  157.66   11.75
  -3   2   5  131.66   13.28
   3  -2  -4  286.81    8.27
   3  -2  -4  320.29   16.06
  -3   2   4  312.22   15.42
   3  -2  -3  214.72   10.47
   3  -2  -3  214.77   12.49
  -3   2   3  224.73   12.68
   3  -2  -2 2267.83   40.86
  -3   2   2 2340.51   41.83
   3  -2  -2 2305.36   41.74
   3  -2  -2 2342.70   64.62
   3  -2  -1  345.86   14.36
  -3   2   1  344.68   14.76
   3  -2  -1  362.52   15.97
   3  -2  -1  341.37   15.93
  -3   2   0  258.92   12.39
   3  -2   0  255.57   11.64
   3  -2   0  247.91   13.78
  -3   2   0  249.86   13.97
   3  -2   1  597.12   17.19
  -3   2  -1  594.28   17.97
  -3   2  -1  601.85   22.89
   3  -2   1  604.56   23.42
  -3   2  -2   39.08    6.12
   3  -2   2   37.98    6.67
   3  -2   2   40.23    4.10
  -3   2  -2   38.62    4.31
   3  -2   3   95.52   12.16
   3  -2   3  102.41    6.22
  -3   2  -3  100.25   11.16
   3  -2   4   87.63   15.00
  -3   2  -4   84.87   11.78
   3  -2   4   80.08    5.13
   3  -2   5  978.59   60.57
  -3   2  -5  879.50   43.35
   3  -2   5  917.90   16.68
  -3   2  -6 1360.97   60.84
  -3   2  -7  239.39   27.50
  -3   2  -8  119.80   20.83
  -3   2  -9   93.41   19.20
  -3   2 -10   -2.02    3.28
  -3   2 -11   32.97   13.00
  -3   2 -12    1.58    5.01
  -3   2 -13  306.87   41.27
   3  -1 -13   14.18    9.01
   3  -1 -12    9.12    5.79
   3  -1 -12    2.92    2.19
   3  -1 -11   50.86    9.62
  -3   1  10 1318.29   29.01
   3  -1 -10 1183.80   43.49
  -3   1   9  925.24   22.09
   3  -1  -9  861.24   34.30
  -3   1   8   26.77    3.29
   3  -1  -8   34.09    6.31
  -3   1   8   26.57    4.84
  -3   1   7  211.75    8.34
   3  -1  -7  227.83   15.23
  -3   1   7  223.98   13.50
  -3   1   6    8.85    1.65
   3  -1  -6   15.84    3.90
  -3   1   6    9.52    2.75
   3  -1  -5  275.97   15.00
  -3   1   5  273.00   13.97
   3  -1  -4   18.34    3.87
  -3   1   4   17.65    3.32
  -3   1   3 1516.99   32.18
   3  -1  -3 1505.34   32.90
  -3   1   2 5629.01   66.68
   3  -1  -2 5581.98   66.94
   3  -1  -1 2673.92   41.31
  -3   1   1 2586.61   41.26
   3  -1  -1 2733.17   43.93
  -3   1   0  925.64   22.49
   3  -1   0  913.81   21.86
   3  -1   0  945.94   25.19
   3  -1   1  391.70   13.31
   3  -1   1  397.02   16.96
  -3   1  -1  378.01   13.86
  -3   1  -1  378.36   16.01
   3  -1   2   71.73    7.95
   3  -1   2   68.28    5.20
  -3   1  -2   76.09    7.60
   3  -1   3   53.47    7.91
   3  -1   3   53.90    4.41
  -3   1  -3   60.13    7.43
   3  -1   4   14.42    2.20
  -3   1  -4   17.47    4.97
   3  -1   4   16.71    6.40
   3  -1   5 1740.23   78.80
   3  -1   5 1730.63   24.18
  -3   1  -5 1641.46   51.26
  -3   1  -6 2094.01   66.71
   3  -1   6 2060.17   24.51
  -3   1  -7  672.62   41.72
  -3   1  -8  437.39   37.41
  -3   1  -9   -1.89    5.27
  -3   1 -10   98.00   20.23
  -3   1 -11   -4.48    8.69
  -3   1 -12    2.43    5.06
  -3   1 -13  207.75   33.75
  -3   1 -14  140.20   29.80
   3   0 -13   10.99    9.31
   3   0 -12   65.02   15.96
   3   0 -11   23.62    9.39
   3   0 -11   15.49    4.76
  -3   0  10  573.31   18.70
   3   0 -10  504.72   27.63
   3   0  -9  384.10   22.01
  -3   0   9  420.36   14.57
  -3   0   8  159.24    7.93
   3   0  -8  150.76   12.79
  -3   0   7  137.22    6.46
   3   0  -7  123.77   10.81
  -3   0   7  140.67   10.56
  -3   0   6    7.39    1.29
   3   0  -6    8.17    2.57
  -3   0   6    7.25    2.09
  -3   0   5   31.08    4.79
   3   0  -5   29.78    4.93
   3   0  -4  436.06   17.60
  -3   0   4  436.30   16.96
   3   0  -3   12.28    3.09
  -3   0   3   12.61    2.83
   3   0  -2  844.22   22.94
  -3   0   2  834.93   22.38
   3   0  -1  153.34    9.23
   3   0   0   36.41    4.29
   3   0   0   35.62    4.40
   3   0   1    0.80    0.73
   3   0   1    0.76    0.58
   3   0   2  940.05   26.18
   3   0   2  931.55   20.90
  -3   0  -2  965.31   24.37
   3   0   3  159.76   12.22
   3   0   3  157.35    8.03
  -3   0  -3  158.05   10.40
   3   0   4  369.69   23.72
  -3   0  -4  351.23   16.96
   3   0   4  339.93   11.51
  -3   0  -5    8.36    2.99
   3   0   5   15.33    7.03
   3   0   5   11.38    2.02
   3   0   6   94.07    5.43
  -3   0  -6   87.01   11.20
   3   0   7  104.68   10.92
   3   0   7  102.42   22.95
  -3   0  -7  120.82   15.30
   3   0   7  112.41    5.48
   3   0   8   13.92    6.41
  -3   0  -8   23.49    6.93
   3   0   8   22.29    2.17
   3   0   8   19.86    2.66
  -3   0  -9  433.12   36.30
  -3   0 -10  909.71   56.73
  -3   0 -11   58.88   15.10
  -3   0 -12   -0.52    6.36
  -3   0 -13   -1.50    4.68
  -3   0 -14   12.56    6.16
   3   1 -12   38.49   14.34
   3   1 -11   21.72    9.42
   3   1 -11   14.92    5.53
   3   1 -10  405.00   24.23
   3   1 -10  485.51   37.70
   3   1  -9  497.54   24.59
  -3  -1   9  520.96   22.40
   3   1  -8  211.62   14.73
  -3  -1   8  232.02   13.93
   3   1  -7  404.07   19.39
  -3  -1   7  396.76   17.64
  -3  -1   6   20.18    4.14
   3   1  -6   23.30    4.18
  -3  -1   5  206.66   15.09
   3   1  -5  181.26   11.69
  -3  -1   4  205.62    8.39
   3   1  -4  233.78   13.06
   3   1  -3   91.61    7.77
   3   1  -2  347.86   14.87
   3   1  -2  346.31   16.41
   3   1  -1   13.37    1.84
   3   1  -1   11.59    2.55
   3   1   0   99.02    5.13
   3   1   1   10.68    2.29
   3   1   2 1645.63   31.91
   3   1   3  247.12   13.51
  -3  -1  -3  267.32   11.51
   3   1   4  212.16   15.89
  -3  -1  -4  231.09   11.69
   3   1   5   13.13    5.36
  -3  -1  -5   13.61    3.31
  -3  -1  -6   99.55    9.97
   3   1   6   86.93   18.72
   3   1   7   83.85   17.17
   3   1   7   78.31   14.68
  -3  -1  -7   99.45   11.62
   3   1   8    5.35    5.70
  -3  -1  -8    4.58    2.55
   3   1   8    4.09    2.73
  -3  -1  -9  317.40   26.71
   3   1   9  328.53   13.41
   3   1   9  283.31   26.32
   3   1  10  925.25   18.89
  -3  -1 -10  939.28   51.05
  -3  -1 -11   73.88   14.79
  -3  -1 -12   -2.51    7.47
  -3  -1 -13   -6.68    8.22
  -3  -1 -14   76.63   19.52
   3   2 -12   98.96   21.76
   3   2 -11   11.26    4.50
   3   2 -10  108.51   12.31
   3   2 -10  151.56   22.36
   3   2  -9   19.62    8.56
   3   2  -9    7.55    3.37
  -3  -2   8   24.23    5.94
   3   2  -8   27.30    5.27
  -3  -2   7   41.65    7.10
   3   2  -7   40.95    6.29
   3   2  -6 1709.90   39.09
  -3  -2   6 1652.27   49.46
  -3  -2   5 3420.15   76.13
   3   2  -5 2893.36   51.73
  -3  -2   4  395.14   21.56
   3   2  -4  398.95   17.12
  -3  -2   3  437.98   15.47
   3   2  -3  450.46   17.79
  -3  -2   2  229.57    8.90
   3   2  -2  234.10   12.49
   3   2  -1  119.78    8.04
  -3  -2   1  119.36    6.15
   3   2   0   27.92    3.35
  -3  -2   0   24.98    2.92
   3   2   1  492.24   14.06
   3   2   2 5178.40   57.35
   3   2   2 5146.16   58.17
   3   2   3 3487.08   47.64
   3   2   3 3423.57   47.23
   3   2   4  890.15   28.49
  -3  -2  -4  919.55   20.21
   3   2   5  667.52   38.95
  -3  -2  -5  680.65   19.42
   3   2   6   25.65    7.24
  -3  -2  -6   33.12    4.64
   3   2   7   29.76    8.04
  -3  -2  -7   33.14    5.49
   3   2   7   24.29    8.90
   3   2   8   50.85    9.71
  -3  -2  -8   61.78    8.51
   3   2   8   65.78   11.71
  -3  -2  -9  241.91   19.51
   3   2   9  232.49   15.82
  -3  -2 -10 1142.98   47.31
   3   2  10 1138.34   30.01
  -3  -2 -11  377.12   29.74
  -3  -2 -12  142.33   19.52
  -3  -2 -13   43.30   12.12
   3   2  13   65.80   10.67
   3   2  14   37.02    8.35
   3   3 -11    2.46    5.46
   3   3 -10   12.53    8.91
   3   3  -9  133.49   12.81
   3   3  -9  172.50   24.32
   3   3  -8  112.99   11.03
  -3  -3   8   98.35   13.29
   3   3  -8  124.12   18.65
   3   3  -7   21.83    7.34
  -3  -3   7   17.06    5.69
   3   3  -7   19.40    4.23
  -3  -3   6 1067.31   44.97
   3   3  -6 1023.98   31.04
  -3  -3   5 2127.40   64.76
   3   3  -5 1572.43   37.48
  -3  -3   4  212.50   19.55
   3   3  -4  202.35   12.61
  -3  -3   3   32.54    6.34
  -3  -3   2   60.00    6.89
   3   3  -2   75.37   12.05
   3   3  -1  887.25   32.85
  -3  -3   1  964.74   24.44
   3   3   0   84.67    7.48
  -3  -3   0   74.85    6.23
   3   3   1  118.63    8.10
  -3  -3  -1  106.62    7.45
   3   3   2 1709.87   31.81
  -3  -3  -2 1522.40   30.54
   3   3   3 1150.03   26.58
   3   3   3 1181.88   23.07
   3   3   4   32.31    4.51
   3   3   4   30.73    4.34
  -3  -3  -5    8.11    1.58
   3   3   5    7.76    3.77
   3   3   5    9.21    2.38
   3   3   6  716.92   24.04
  -3  -3  -6  723.51   17.86
   3   3   7  670.10   54.28
   3   3   7  801.95   26.74
  -3  -3  -7  800.13   21.62
   3   3   7  715.15   27.65
   3   3   8    8.78    4.63
  -3  -3  -8    7.28    2.09
   3   3   8    6.18    2.73
   3   3   9   90.50   13.14
  -3  -3  -9   81.48    9.03
   3   3   9   80.03    9.25
  -3  -3 -10  326.17   20.35
   3   3  10  340.93   20.65
   3   3  10  320.82   19.75
  -3  -3 -11   12.87    3.66
   3   3  11   -3.35    2.55
  -3  -3 -12   -0.41    3.32
   3   3  12    1.58    2.34
  -3  -3 -13   93.98   14.29
   3   3  13  102.68   12.94
   3   3  14  569.11   32.61
   3   4 -10   99.14   20.26
   3   4  -9   22.00   11.00
   3   4  -8   10.50    6.04
   3   4  -8    7.40    2.56
  -3  -4   7  204.47   21.06
   3   4  -7  216.88   15.16
   3   4  -7  245.83   26.07
   3   4  -6   34.97    5.90
   3   4  -6   43.59   10.24
  -3  -4   6   49.12    9.91
   3   4  -5  282.03   16.29
   3   4  -5  317.22   24.68
  -3  -4   4    8.81    4.19
  -3  -4   3   72.69   11.68
   3   4  -2   21.91    6.94
  -3  -4   2   17.19    4.59
   3   4  -1  432.73   28.40
  -3  -4   1  436.17   21.37
   3   4   0  199.26   15.10
  -3  -4   0  209.01   13.13
   3   4   1  908.14   28.48
  -3  -4  -1  884.51   26.02
   3   4   2   13.33    3.04
  -3  -4  -2    8.57    2.44
   3   4   3  402.47   17.02
  -3  -4  -3  408.39   17.38
   3   4   3  400.50   11.88
   3   4   4  256.60   13.59
   3   4   4  236.57    9.59
   3   4   5  100.15    8.96
   3   4   5  103.12    8.85
   3   4   6 1250.89   33.06
   3   4   6 1126.62   23.99
   3   4   7  704.11   25.59
  -3  -4  -7  700.83   14.99
   3   4   8   83.25    9.23
  -3  -4  -8   85.71    6.05
   3   4   9  124.64   19.16
   3   4   9  127.57   11.84
  -3  -4  -9  151.18    9.63
  -3  -4 -10  142.93   10.63
   3   4  10  151.86   17.63
   3   4  10  152.75   13.49
   3   4  11  378.63   22.49
  -3  -4 -11  374.89   19.92
   3   4  12  195.98   17.28
  -3  -4 -12  195.83   15.77
   3   4  13  287.56   21.82
   3   4  14  749.23   37.26
   3   5  -9  389.13   40.75
   3   5  -8  268.73   18.47
   3   5  -8  258.96   30.71
   3   5  -7   14.64    4.81
   3   5  -7   15.22    4.29
  -3  -5   6  144.60   18.43
   3   5  -6  104.92   10.84
   3   5  -6  138.60   19.61
  -3  -5   5  115.36   16.20
   3   5  -5   83.86    9.41
   3   5  -5  105.01   16.04
   3   5  -4   14.55    6.56
  -3  -5   4   11.05    4.62
   3   5  -3   10.23    4.46
  -3  -5   3    3.44    2.81
  -3  -5   2  425.72   29.22
   3   5  -2  495.73   26.72
   3   5  -1 2182.53   52.97
   3   5  -1 2207.06   72.74
   3   5   0  298.85   22.83
  -3  -5   0  343.66   21.02
  -3  -5  -1   25.02    5.24
   3   5   1   23.64    5.68
   3   5   2   62.64    8.19
  -3  -5  -2   62.17    7.74
   3   5   3   27.29    5.29
  -3  -5  -3   30.57    5.38
   3   5   4   17.30    3.88
   3   5   4   20.31    2.41
  -3  -5  -4   22.68    4.50
   3   5   4   19.52    2.34
   3   5   5    7.87    2.71
   3   5   6 1026.55   31.49
   3   5   7 1093.17   33.80
   3   5   7 1523.88   80.82
   3   5   8   50.88    7.30
   3   5   8   63.98   17.16
  -3  -5  -9   35.84    3.11
   3   5   9   41.12    6.87
  -3  -5 -10    3.31    1.26
   3   5  10    2.22    1.32
   3   5  11   89.87   11.11
  -3  -5 -11   94.64    7.53
   3   5  12   10.99    4.34
   3   5  13    8.10    3.76
   3   5  14  233.63   20.71
   3   6  -9  889.36   65.51
   3   6  -8  530.59   47.47
   3   6  -7   10.40    7.85
   3   6  -7   16.24    4.80
   3   6  -6    7.49    5.61
   3   6  -6    7.37    3.53
   3   6  -5  130.85   19.15
  -3  -6   4  688.77   41.55
   3   6  -4  557.02   37.11
  -3  -6   3  245.67   24.70
   3   6  -3  218.16   21.79
  -3  -6   2 1277.16   56.08
   3   6  -2 1231.28   49.17
   3   6  -1 3727.30   80.65
   3   6  -1 3922.29  102.88
   3   6   0  639.74   38.96
  -3  -6   0  699.15   36.57
   3   6   1  214.22   19.94
  -3  -6  -1  236.05   19.35
   3   6   1  253.22   17.49
   3   6   2   26.24    5.25
   3   6   2   34.40    7.34
   3   6   3  450.24   24.19
  -3  -6  -3  434.46   22.94
   3   6   4  255.48   11.44
   3   6   4  276.68   17.98
  -3  -6  -4  275.19   17.77
   3   6   5   68.89    8.67
   3   6   6  983.01   33.33
   3   6   7 1174.46   36.82
   3   6   8  278.37   18.10
   3   6   9   41.47    7.20
   3   6  10   20.75    5.23
   3   6  11  224.91   18.03
   3   6  12    7.32    3.74
   3   6  13    6.05    3.55
   3   6  14  135.22   15.97
   3   7  -8  114.32   23.04
   3   7  -7   -1.23    7.36
   3   7  -6   -7.16    6.41
   3   7  -6   -1.63    2.07
   3   7  -5  109.69   19.67
   3   7  -4  116.18   18.95
   3   7  -3   57.27   11.23
   3   7  -2   11.19    5.46
   3   7  -2    6.69    7.61
   3   7  -1   58.38   11.75
   3   7  -1   97.97   16.56
   3   7   0    3.37    3.72
   3   7   0   -0.95    5.30
   3   7   1  102.45   12.76
   3   7   1   95.00   14.65
   3   7   2  197.54   16.34
   3   7   2  180.06   19.31
   3   7   3  845.69   38.75
   3   7   3  840.86   29.95
   3   7   4  121.32   13.76
   3   7   4  151.04    9.48
   3   7   5  169.61   15.36
   3   7   6   20.76    5.36
   3   7   7   21.95    5.36
   3   7   8  431.67   24.20
   3   7   9  190.24   16.30
   3   7  10  603.07   29.91
   3   7  11  947.24   38.82
   3   7  12   51.99    9.26
   3   7  13   39.19    8.63
   3   7  14   11.70    4.99
   3   8  -7   13.56    8.64
   3   8  -6   11.93    9.67
   3   8  -5  100.08   20.30
   3   8  -4  122.74   20.17
   3   8  -3  104.65   18.52
   3   8  -2  120.14   18.82
   3   8  -1   14.21    6.77
   3   8  -1    7.65    5.42
   3   8   0  120.44   18.62
   3   8   0  123.37   17.05
   3   8   1   30.93    9.27
   3   8   1   35.92    8.02
   3   8   2   27.50    7.99
   3   8   2   58.68    9.35
   3   8   3  534.82   35.61
   3   8   3  658.66   27.17
   3   8   4   91.19   14.15
   3   8   4  106.60    8.83
   3   8   5  245.80   21.31
   3   8   6  131.28   14.81
   3   8   7  233.24   19.51
   3   8   8  304.27   22.36
   3   8   9   38.58    8.09
   3   8  10  234.61   19.90
   3   8  11  381.55   26.12
   3   8  12   -4.93    3.69
   3   8  13   48.23    9.79
   3   9  -6  147.20   25.17
   3   9  -5  738.88   55.73
   3   9  -4  844.68   57.49
   3   9  -3  121.70   20.78
   3   9  -2   17.65    7.11
   3   9  -1    7.22    5.45
   3   9  -1    3.56    3.56
   3   9   0  240.47   24.08
   3   9   0  220.51   26.68
   3   9   1  113.22   15.03
   3   9   1   86.99   16.05
   3   9   2  196.11   25.54
   3   9   2  283.34   20.83
   3   9   3 1164.85   59.08
   3   9   3 1596.93   43.01
   3   9   4  650.27   41.98
   3   9   4  939.95   29.03
   3   9   5   79.49   14.02
   3   9   6   68.47   12.42
   3   9   7   19.83    6.96
   3   9   8   53.13   10.61
   3   9   9   11.68    4.98
   3   9  10   48.36    9.84
   3   9  11  263.56   23.35
   3   9  12   49.67   10.15
   3  10  -5  287.19   34.82
   3  10  -4  393.39   38.72
   3  10  -3   -0.61    3.60
   3  10  -2   27.05    9.01
   3  10  -1  192.82   22.76
   3  10   0  519.19   35.05
   3  10   0  494.51   40.60
   3  10   1   78.26   12.30
   3  10   1   75.84   16.80
   3  10   2   25.62    6.23
   3  10   2   20.98    7.95
   3  10   3  236.73   29.17
   3  10   3  321.25   19.73
   3  10   4   66.62    8.07
   3  10   4   40.08   12.15
   3  10   5   14.75    6.66
   3  10   6   60.94   12.83
   3  10   7  348.92   29.55
   3  10   8  292.98   26.48
   3  10   9    0.73    1.77
   3  10  10    0.66    2.46
   3  10  11   16.48    6.13
   3  11  -3   25.63    8.12
   3  11  -2   28.33    8.91
   3  11  -1   58.83   12.22
   3  11   0  116.56   16.30
   3  11   0   99.13   18.57
   3  11   1   66.25   11.21
   3  11   1   61.99   15.90
   3  11   2  380.65   24.11
   3  11   2  311.88   33.82
   3  11   3  110.42   21.14
   3  11   4  222.07   29.40
   3  11   5  235.06   29.73
   3  11   6  127.70   20.37
   3  11   7  298.43   30.62
   3  11   8  121.78   19.61
   3  11   9  111.02   17.80
   3  11  10  116.73   18.42
   3  12  -2   20.07    8.76
   3  12  -1  117.85   17.78
   3  12   1   14.54    9.19
   3  12   2   17.46    8.87
   3  12   3   14.80    7.69
   3  12   4   60.80   16.35
   3  12   5   32.66   11.51
   3  12   6    7.57    5.80
   3  12   7  107.19   19.85
   4 -11  -5  194.96   26.98
   4 -11  -4   54.45   13.42
   4 -11  -3   22.53    8.92
  -4  11   2   37.15   11.60
   4 -11  -2   15.78    7.72
  -4  11   1   65.85   15.24
  -4  11   0   90.86   17.79
   4 -10  -7   50.93   13.47
   4 -10  -6   41.07   11.40
   4 -10  -5  168.73   22.52
   4 -10  -4   48.83   11.42
   4 -10  -3   15.72    6.95
  -4  10   2   36.51   10.95
   4 -10  -2   33.15    9.57
   4 -10  -1  115.21   18.44
  -4  10   1  157.92   23.53
   4 -10   0   93.00   16.52
  -4  10   0  144.89   22.18
  -4  10  -1    7.21    6.60
  -4  10  -2   -3.92    5.12
   4  -9  -9   50.59   12.92
   4  -9  -8   87.51   16.59
   4  -9  -7   38.70   10.50
   4  -9  -6  444.36   34.66
   4  -9  -5   54.32   11.88
   4  -9  -4  100.02   15.79
   4  -9  -3  159.54   20.11
  -4   9   2   43.17   10.98
   4  -9  -2   38.97    9.93
   4  -9  -1  100.21   15.17
  -4   9   1  105.56   18.83
  -4   9   0   19.87    8.12
   4  -9   0   26.29    8.31
   4  -9   1  294.10   27.35
  -4   9  -1  363.49   36.34
  -4   9  -2  503.74   42.91
  -4   9  -3  315.63   34.36
  -4   9  -4  401.78   39.20
   4  -8 -10    1.81    3.13
   4  -8  -9   23.11    7.97
  -4   8   9   15.27    8.34
   4  -8  -8  113.65   17.57
  -4   8   8  100.41   18.80
   4  -8  -7  125.60   17.71
   4  -8  -6  477.65   33.37
   4  -8  -5  187.32   20.64
   4  -8  -4  247.44   22.85
   4  -8  -3  116.38   15.46
   4  -8  -2   13.79    5.65
  -4   8   2   13.15    6.35
   4  -8  -1   70.54   11.97
  -4   8   1   50.52   11.93
  -4   8   0   36.48   10.81
   4  -8   0   24.13    7.21
   4  -8   1  289.70   23.90
  -4   8  -1  326.95   32.70
   4  -8   2  309.22   25.85
  -4   8  -2  326.77   35.52
  -4   8  -3  258.83   31.22
  -4   8  -4  208.53   29.55
  -4   8  -5   -5.96    8.46
   4  -7 -12  185.81   25.50
   4  -7 -11  303.54   31.19
   4  -7 -10   72.81   14.52
   4  -7  -9  138.31   19.10
  -4   7   9  136.13   21.35
   4  -7  -8  543.42   36.00
  -4   7   8  502.50   40.97
   4  -7  -7    9.26    6.19
  -4   7   7    4.96    5.42
   4  -7  -6  182.42   19.39
   4  -7  -5  158.57   17.60
   4  -7  -4  413.68   27.23
   4  -7  -3  163.48   16.57
  -4   7   2    5.13    3.84
   4  -7  -2    2.74    2.63
   4  -7  -1  214.94   18.45
  -4   7   1  218.28   22.38
   4  -7   0  280.97   21.06
  -4   7   0  291.10   27.63
   4  -7   1    8.42    4.28
  -4   7  -1    2.16    2.24
  -4   7  -2    7.74    5.52
   4  -7   2    6.65    2.21
  -4   7  -3   24.63    8.69
   4  -7   3   12.06    4.57
  -4   7  -4   65.53   16.90
  -4   7  -5   59.47   15.51
  -4   7  -6  129.88   23.77
  -4   7  -7   17.88   11.29
   4  -6 -13  153.38   24.09
   4  -6 -12  233.52   27.53
   4  -6 -11  222.25   25.25
   4  -6 -10   53.47   11.75
  -4   6   9   14.55    6.31
   4  -6  -9   18.51    7.50
  -4   6   8   40.54   11.93
   4  -6  -8   33.27    8.48
   4  -6  -7   63.64    7.99
   4  -6  -7   79.46   12.47
  -4   6   7   50.60   13.23
   4  -6  -6  296.96   19.21
   4  -6  -6  274.95   21.85
   4  -6  -5  163.22   17.30
   4  -6  -5  157.09   15.98
   4  -6  -4  472.63   36.69
   4  -6  -4  443.19   25.88
   4  -6  -3   26.72   10.33
   4  -6  -3    3.36    2.97
  -4   6   2  525.76   30.06
   4  -6  -2  529.20   26.67
   4  -6  -1  125.10   12.63
  -4   6   1  115.30   14.69
  -4   6   0   35.92    8.97
   4  -6   0   42.81    7.21
   4  -6   1  232.95   17.07
  -4   6  -1  227.42   17.12
  -4   6  -1  227.64   23.79
   4  -6   2   80.03   10.13
  -4   6  -2   67.13   13.76
  -4   6  -2   76.19    9.67
  -4   6  -3   74.10   16.84
   4  -6   3   95.94   10.94
  -4   6  -3   87.30    9.98
   4  -6   4  179.47   15.44
  -4   6  -4  187.59   25.91
  -4   6  -5  154.87   25.19
  -4   6  -6  432.82   42.47
  -4   6  -7  119.55   22.08
  -4   6  -8  146.12   24.90
   4  -5 -14   23.09   12.29
   4  -5 -13   11.88    7.40
   4  -5 -12   23.60   10.57
   4  -5 -11    2.22    2.92
   4  -5 -10  518.92   34.59
   4  -5  -9  512.84   32.45
  -4   5   9  454.44   36.27
  -4   5   8   49.65   12.68
   4  -5  -8   84.34   12.18
   4  -5  -7  198.51   11.42
   4  -5  -7  191.70   17.97
   4  -5  -6   52.44    6.51
   4  -5  -6   48.41    8.73
   4  -5  -5   34.43    6.41
   4  -5  -5   28.56    6.54
   4  -5  -4   60.75   11.08
   4  -5  -4   63.76    9.14
   4  -5  -3  447.71   36.33
   4  -5  -3  258.77   18.21
   4  -5  -2 2679.12   88.71
   4  -5  -2 2184.97   51.80
   4  -5  -1 1297.23   38.66
  -4   5   1 1282.45   39.36
  -4   5   1 1395.95   45.73
   4  -5  -1 1303.41   55.26
   4  -5   0  754.97   28.05
  -4   5   0  768.38   29.21
  -4   5   0  763.72   35.89
   4  -5   0  749.13   37.99
   4  -5   1  609.41   24.62
  -4   5  -1  609.25   25.45
  -4   5  -1  615.75   34.84
  -4   5  -2   -1.76    3.99
   4  -5   2    2.68    2.24
  -4   5  -2    2.93    2.21
  -4   5  -3   28.81    9.43
   4  -5   3   33.43    5.77
  -4   5  -3   23.42    4.86
   4  -5   4   15.23    3.96
  -4   5  -4   14.11    3.24
   4  -5   5  252.02   15.64
  -4   5  -5  304.94   32.73
  -4   5  -6  856.33   57.69
  -4   5  -7  506.48   45.73
  -4   5  -8  442.95   43.15
  -4   5  -9   84.93   19.44
   4  -4 -13    9.05    6.39
   4  -4 -12   83.09   15.71
   4  -4 -11   82.21   13.83
   4  -4 -10  205.84   20.89
   4  -4  -9  409.54   27.60
  -4   4   9  324.65   27.85
   4  -4  -8  134.05   15.09
  -4   4   8  104.63   14.16
   4  -4  -7  345.35   23.13
  -4   4   7  320.27   21.98
   4  -4  -6    5.87    2.48
   4  -4  -6   12.30    2.41
   4  -4  -5    1.48    1.43
   4  -4  -5    1.29    1.89
   4  -4  -4  378.85   21.93
   4  -4  -4  342.08   20.15
   4  -4  -3   26.73    5.19
   4  -4  -3   25.32    5.40
   4  -4  -2  576.66   38.55
   4  -4  -2  519.30   22.86
  -4   4   2  537.63   23.81
   4  -4  -2  554.07   24.47
  -4   4   1  217.87   16.19
   4  -4  -1  192.67   13.39
   4  -4  -1  213.54   15.73
  -4   4   1  200.14   14.20
   4  -4  -1  182.63   17.55
   4  -4   0  207.57   13.38
  -4   4   0  225.02   14.66
  -4   4   0  206.44   16.99
   4  -4   0  221.53   17.88
   4  -4   1  126.91   10.21
  -4   4  -1  130.26   10.83
  -4   4  -1  115.25   13.50
   4  -4   1  141.95   14.10
   4  -4   2  215.43   12.83
  -4   4  -2  220.69   13.45
  -4   4  -2  213.22   19.49
  -4   4  -3   39.37    9.56
   4  -4   3   46.12    5.94
  -4   4  -3   47.40    6.12
   4  -4   4  191.77   11.60
  -4   4  -4  205.16   22.96
  -4   4  -4  195.67   11.76
   4  -4   5   20.16    3.89
  -4   4  -5   19.55    7.78
   4  -4   6   66.70    6.54
  -4   4  -6   55.23   15.03
  -4   4  -7    1.87    2.75
  -4   4  -8    4.40    3.25
  -4   4  -9   60.54   17.37
  -4   4 -10  325.97   38.78
   4  -3 -13    5.82    6.95
   4  -3 -12   78.77   14.76
   4  -3 -11   91.76   14.21
   4  -3 -10  238.46   21.28
   4  -3  -9  393.87   25.89
  -4   3   9  323.69   22.81
   4  -3  -8  346.67   22.96
  -4   3   8  317.03   17.96
   4  -3  -7  773.74   32.71
   4  -3  -6   20.27    4.88
   4  -3  -5   47.81    3.95
   4  -3  -5   45.34    7.07
   4  -3  -4  346.40   14.51
   4  -3  -4  320.88   18.40
   4  -3  -4  359.30   18.72
   4  -3  -3   87.45   12.80
   4  -3  -3   87.96    9.19
  -4   3   3   91.12    9.46
   4  -3  -3   86.20    9.17
   4  -3  -2  149.89   11.48
  -4   3   2  146.02   11.68
   4  -3  -2  154.29   12.19
   4  -3  -2  138.86   16.64
   4  -3  -1   39.38    6.11
   4  -3  -1   44.96    6.17
   4  -3  -1   39.68    6.95
  -4   3   1   52.41    6.86
   4  -3   0  387.90   17.31
   4  -3   0  414.10   21.50
  -4   3   0  430.55   19.04
  -4   3   0  417.40   21.38
  -4   3  -1   27.20    6.01
   4  -3   1   21.39    5.18
   4  -3   1   20.87    3.84
  -4   3  -1   21.96    4.06
  -4   3  -2  313.13   15.07
   4  -3   2  311.32   21.59
   4  -3   2  366.88   15.49
  -4   3  -2  317.13   20.96
   4  -3   3  223.31   11.43
  -4   3  -3  208.77   18.47
  -4   3  -3  216.39   12.17
  -4   3  -4   45.25    9.54
   4  -3   4   50.66    5.20
   4  -3   5    8.90    2.03
  -4   3  -5    5.04    3.92
   4  -3   6    4.97    1.51
  -4   3  -6    4.63    2.28
  -4   3  -7   15.91    9.11
  -4   3  -8   21.27    8.85
  -4   3  -9   25.39    9.72
  -4   3 -10  508.51   48.50
  -4   3 -11   49.64   15.40
   4  -2 -12   62.61   12.83
   4  -2 -11   12.77    5.41
   4  -2 -10  185.90   18.38
   4  -2  -9   33.24    7.20
   4  -2  -8   68.45    9.75
   4  -2  -7   16.93    4.68
   4  -2  -6  726.66   29.07
   4  -2  -5 2104.37   48.55
   4  -2  -4  547.85   23.14
  -4   2   4  560.58   22.82
   4  -2  -3  519.51   22.01
   4  -2  -3  494.26   20.92
   4  -2  -3  486.79   20.95
  -4   2   3  516.75   21.40
   4  -2  -2  534.49   21.14
  -4   2   2  573.91   21.95
   4  -2  -2  558.57   22.60
   4  -2  -2  575.65   27.83
   4  -2  -1   19.29    3.74
  -4   2   1   21.15    4.13
   4  -2  -1   23.71    4.65
   4  -2   0    1.73    1.77
   4  -2   0    4.29    1.79
  -4   2   0    2.77    1.81
   4  -2   1   50.35    7.32
   4  -2   1   51.15    5.84
  -4   2  -1   48.66    5.86
  -4   2  -1   51.63    7.07
   4  -2   2 3127.81   65.28
   4  -2   2 3088.29   46.64
  -4   2  -2 3004.48   48.58
  -4   2  -2 3035.22   60.43
   4  -2   3 2324.22   60.98
   4  -2   3 2336.56   38.53
  -4   2  -3 2334.79   55.84
   4  -2   4  785.94   40.00
   4  -2   4  847.51   21.02
  -4   2  -4  801.04   34.49
   4  -2   5  908.16   20.51
  -4   2  -5  861.76   39.77
   4  -2   6  130.75    6.83
  -4   2  -6  126.83   16.70
   4  -2   7    2.50    0.85
  -4   2  -7    7.59    6.18
  -4   2  -8  155.86   22.06
  -4   2  -9   76.69   16.80
  -4   2 -10  416.29   41.16
  -4   2 -11  282.60   36.01
  -4   2 -12  177.30   30.16
   4  -1 -13  486.36   44.40
   4  -1 -12  121.44   17.26
   4  -1 -11   18.17    6.17
   4  -1 -10   27.87    7.00
   4  -1  -9    9.08    4.20
   4  -1  -8   90.74   11.06
   4  -1  -7   25.21    5.72
   4  -1  -6  794.65   29.50
   4  -1  -5 2051.04   46.94
  -4   1   5 2093.08   44.96
   4  -1  -4  546.60   22.56
  -4   1   4  574.79   22.37
   4  -1  -3  411.33   18.83
  -4   1   3  433.53   18.81
   4  -1  -2   35.14    4.71
   4  -1  -2   30.43    4.90
  -4   1   2   27.28    4.67
   4  -1  -1  575.11   20.49
  -4   1   1  584.86   21.04
   4  -1  -1  600.62   22.66
   4  -1   0   17.89    3.24
  -4   1   0   21.51    3.77
   4  -1   0   20.95    4.17
  -4   1  -1   99.09    8.95
   4  -1   1   90.89    7.45
   4  -1   1   96.35    9.36
   4  -1   2 1611.54   42.03
   4  -1   2 1532.20   30.93
  -4   1  -2 1547.70   38.11
   4  -1   3 1208.09   26.25
   4  -1   3 1226.90   40.27
  -4   1  -3 1217.34   35.34
   4  -1   4  424.65   26.92
   4  -1   4  437.93   14.95
  -4   1  -4  427.85   22.04
   4  -1   5  286.09   27.41
   4  -1   5  291.88   11.61
  -4   1  -5  273.15   19.14
  -4   1  -6  133.17   14.82
   4  -1   6  135.32    7.30
  -4   1  -7  360.47   27.03
   4  -1   7  391.04   11.34
   4  -1   8    2.74    1.17
  -4   1  -8    4.84    3.02
   4  -1   8    4.99    1.00
  -4   1  -9   42.88   10.69
  -4   1 -10  284.71   31.20
  -4   1 -11   88.17   18.93
  -4   1 -12   28.34   12.16
  -4   1 -13    0.86    7.06
   4   0 -12  301.02   32.93
   4   0 -11  214.58   20.36
   4   0 -10  286.96   21.63
   4   0  -9    1.30    2.44
   4   0  -8   45.10    7.71
   4   0  -7  427.65   22.32
   4   0  -6   21.53    4.93
   4   0  -5  443.00   20.71
   4   0  -4  103.24    9.58
   4   0  -3  298.03   15.90
   4   0  -2   42.85    2.68
   4   0  -2   59.59    6.75
   4   0  -1  486.70   19.17
   4   0   0  136.45    9.61
   4   0   0  145.14   10.61
   4   0   1  633.53   20.25
   4   0   1  668.85   23.61
   4   0   2    7.59    2.34
   4   0   2    8.22    2.19
   4   0   3   32.07    4.24
   4   0   3   31.21    5.58
  -4   0  -3   34.86    5.31
   4   0   4   67.38    9.52
   4   0   4   51.49    5.19
  -4   0  -4   55.40    7.02
  -4   0  -5   -0.43    1.71
   4   0   5    1.43    0.84
   4   0   5    2.66    1.37
   4   0   6  809.17   57.19
   4   0   6  810.28   19.81
  -4   0  -6  782.90   31.41
  -4   0  -7  697.90   32.33
   4   0   7  701.44   17.41
   4   0   8    2.77    1.91
   4   0   8    5.11    1.21
   4   0   9   20.66    3.19
   4   0   9   22.93    2.44
  -4   0  -9   24.70    6.62
  -4   0 -10   15.77    5.70
  -4   0 -11  164.38   22.33
  -4   0 -12   39.72   11.99
  -4   0 -13  105.82   20.35
  -4   0 -14  529.80   49.47
   4   1 -12  219.68   30.82
   4   1 -11  127.53   20.70
   4   1 -11  100.98   14.01
   4   1 -10   91.24   12.27
   4   1  -9  241.04   18.52
  -4  -1   8  115.82    9.26
  -4  -1   8  136.56    5.41
   4   1  -7   12.69    4.09
   4   1  -6  169.46   13.29
   4   1  -5  263.64   16.15
   4   1  -4   27.74    5.15
   4   1  -3  381.00   18.20
   4   1  -2  193.20    8.79
   4   1  -2  220.07   13.20
   4   1  -1 1864.45   25.58
   4   1  -1 1902.99   39.54
   4   1   0  541.74   13.91
   4   1   0  563.95   20.40
   4   1   1   53.26    6.00
   4   1   1   49.92    6.06
   4   1   2  339.01   16.13
  -4  -1  -3    5.53    2.25
   4   1   3    2.32    1.74
   4   1   4    7.74    3.29
  -4  -1  -4    6.97    2.53
   4   1   5   54.28    9.84
  -4  -1  -5   64.66    7.06
   4   1   6  642.49   47.89
  -4  -1  -6  623.41   23.95
   4   1   7 1385.46   87.14
  -4  -1  -7 1367.70   39.98
   4   1   8  159.02   28.07
  -4  -1  -8  190.20   15.90
   4   1   9   99.86   11.46
  -4  -1  -9  101.27   12.85
  -4  -1 -10   19.36    6.35
   4   1  10   14.86    2.44
  -4  -1 -11   43.25   10.02
  -4  -1 -12   20.29    6.68
  -4  -1 -13    5.43    2.91
   4   2 -11   -0.06    3.40
   4   2 -10   95.75   17.62
   4   2 -10   81.36   11.42
   4   2  -9 1119.75   40.67
   4   2  -8 1016.84   36.40
  -4  -2   7   89.04    9.49
   4   2  -7  131.22   12.27
  -4  -2   6  115.52    7.88
   4   2  -6  146.53   12.51
  -4  -2   5    6.56    1.39
   4   2  -5    7.30    2.91
  -4  -2   4  224.00    7.09
   4   2  -4  268.63   15.99
  -4  -2   3   91.42    4.56
   4   2  -3  104.80    9.46
   4   2  -2 1014.39   35.10
   4   2  -2  992.93   29.45
   4   2  -1 4718.83   56.06
   4   2  -1 4690.63   68.25
   4   2   0 2240.29   34.18
   4   2   1  936.32   21.40
   4   2   2  504.56   16.69
   4   2   2  482.77   18.49
   4   2   3  149.59    9.69
   4   2   3  145.10   10.35
   4   2   4  103.53    9.82
   4   2   5    6.98    2.70
  -4  -2  -5    8.35    2.28
   4   2   6 1047.55   57.21
  -4  -2  -6 1142.77   29.09
   4   2   7 1579.99   83.63
  -4  -2  -7 1848.09   40.40
  -4  -2  -8  596.55   24.34
   4   2   8  489.71   40.73
   4   2   9  435.06   33.99
  -4  -2  -9  411.24   22.34
   4   2   9  380.07   31.35
   4   2  10   13.25    6.21
  -4  -2 -10    7.92    3.80
  -4  -2 -11  112.77   13.83
  -4  -2 -12    7.86    3.82
  -4  -2 -13    8.01    5.17
   4   3 -10   19.70    6.92
   4   3  -9  385.97   24.23
   4   3  -9  463.68   38.09
   4   3  -8  387.87   22.77
  -4  -3   7   46.09    8.81
   4   3  -7   42.39    6.98
   4   3  -6   78.11    9.36
  -4  -3   6   63.64    8.99
  -4  -3   5   50.85    6.72
   4   3  -5   51.57    7.46
  -4  -3   4  250.16   12.43
   4   3  -4  248.85   15.62
  -4  -3   3  104.75    7.14
   4   3  -3  103.11    9.71
   4   3  -2   10.38    3.01
  -4  -3   2    9.59    1.88
   4   3  -1  582.85   23.36
  -4  -3   1  571.07   16.64
   4   3   0   57.33    6.05
  -4  -3   0   56.57    5.20
   4   3   1   17.08    3.02
   4   3   2   50.09    5.55
   4   3   2   51.58    5.66
   4   3   3 1113.69   28.01
   4   3   3 1092.99   27.50
   4   3   4  359.33   16.42
   4   3   4  335.21   16.16
   4   3   5   94.91   10.53
   4   3   5   95.77    8.82
  -4  -3  -6   19.73    3.13
   4   3   6    9.98    4.94
   4   3   6   20.36    4.20
  -4  -3  -7   13.18    2.85
   4   3   7    8.29    2.13
   4   3   7   14.56    3.72
   4   3   8   84.54   12.23
   4   3   8   98.28   10.43
  -4  -3  -8   88.73    8.17
   4   3   9   53.47    9.23
  -4  -3  -9   56.83    7.22
   4   3   9   53.06    8.03
   4   3   9   51.24   14.05
   4   3  10  436.00   31.74
   4   3  10  434.42   24.15
  -4  -3 -10  400.38   20.38
   4   3  11 1174.74   42.73
  -4  -3 -11 1159.41   38.86
   4   3  12  148.82   15.60
  -4  -3 -12  152.63   14.73
   4   3  13    0.88    2.63
   4   4 -10   41.80   13.07
   4   4  -9  185.38   17.20
   4   4  -9  210.65   27.50
   4   4  -8  190.13   16.42
   4   4  -8  235.58   27.05
   4   4  -7   95.61   11.27
   4   4  -7  130.37   18.95
  -4  -4   6  208.44   19.83
   4   4  -6  208.38   16.11
   4   4  -5   51.12    7.49
  -4  -4   5   36.56    7.93
  -4  -4   4  187.95   15.36
   4   4  -4  191.69   14.29
  -4  -4   3  180.25   13.15
  -4  -4   2   83.90    8.20
   4   4  -2  115.41   15.83
   4   4  -1   17.33    5.34
  -4  -4   1   17.48    3.35
   4   4   0   40.96    6.86
  -4  -4   0   35.86    5.09
   4   4   1    0.66    0.99
  -4  -4  -1    1.72    0.91
   4   4   2    8.71    2.62
  -4  -4  -2    8.01    2.77
   4   4   3  923.14   27.03
   4   4   3  925.18   23.53
   4   4   4  377.29   17.56
   4   4   4  379.39   15.44
   4   4   5  139.11   11.19
   4   4   5  126.51   10.43
   4   4   6   78.00    8.51
   4   4   6   77.61   11.27
   4   4   7  163.57   14.25
   4   4   7  198.06   14.25
   4   4   8  256.82   35.56
   4   4   8  252.95   17.03
  -4  -4  -8  249.68   10.80
   4   4   8  226.84   14.61
   4   4   9   38.00   14.86
  -4  -4  -9   44.15    5.13
   4   4   9   44.13    7.17
   4   4  10  239.24   29.72
   4   4  10  267.28   19.01
  -4  -4 -10  247.88   13.45
   4   4  11  797.22   34.64
  -4  -4 -11  766.41   25.96
   4   4  12   81.15   11.46
   4   4  13    3.40    2.91
   4   5  -9   75.73   17.51
   4   5  -8    8.09    5.53
   4   5  -8   -2.33    2.02
   4   5  -7   24.85    9.79
   4   5  -7   26.57    6.85
   4   5  -6   64.69   12.94
   4   5  -6   44.85    7.61
  -4  -5   5  882.86   43.49
   4   5  -5  890.09   34.08
   4   5  -5  985.13   46.70
  -4  -5   4 1557.16   55.10
   4   5  -4 1663.75   45.47
  -4  -5   3  418.83   25.79
  -4  -5   2  218.68   16.93
   4   5  -2  315.61   27.97
  -4  -5   1   63.89    8.53
   4   5  -1   61.25   11.64
   4   5   0   66.59   10.26
  -4  -5   0   77.37    8.50
  -4  -5  -1   44.32    6.38
   4   5   1   39.69    6.86
   4   5   2  157.22   12.69
  -4  -5  -2  151.86   11.59
   4   5   3 2392.11   49.85
  -4  -5  -3 2457.09   49.54
   4   5   4 1954.54   44.38
   4   5   4 2010.93   34.86
   4   5   5  381.27   19.23
   4   5   5  384.12   16.17
   4   5   6  336.88   16.48
   4   5   6  354.00   19.22
   4   5   7   31.62    6.02
   4   5   7   19.85    2.66
   4   5   8  147.18   13.28
   4   5   9  107.68   11.84
   4   5  10   76.66   10.27
  -4  -5 -10   63.58    4.80
   4   5  11  524.55   28.23
   4   5  12  164.44   16.28
   4   5  13   72.85   11.63
   4   6  -8  177.67   26.42
   4   6  -7  205.01   18.67
   4   6  -7  203.92   26.72
   4   6  -6   38.01   10.99
   4   6  -6   39.84    7.62
   4   6  -5  546.27   28.75
   4   6  -5  666.04   42.16
  -4  -6   4 1109.35   51.53
   4   6  -4 1274.68   54.22
  -4  -6   3  161.44   18.79
   4   6  -3  202.89   19.89
   4   6  -2   10.46    4.10
   4   6  -2    8.96    5.81
  -4  -6   2    4.98    4.40
   4   6  -1   18.00    6.10
   4   6  -1   18.81    6.75
  -4  -6   1   14.11    4.92
   4   6   0  804.25   41.87
  -4  -6   0  883.57   35.76
   4   6   1  168.05   17.06
  -4  -6  -1  180.27   15.18
   4   6   2   72.93   10.23
  -4  -6  -2   67.96    8.86
   4   6   3 1031.24   36.34
  -4  -6  -3  985.39   33.96
   4   6   4  496.50   24.16
   4   6   4  495.84   15.56
   4   6   5   39.44    4.24
   4   6   5   43.61    7.12
   4   6   5   39.47    3.55
   4   6   6   17.47    4.36
   4   6   7  567.29   26.52
   4   6   8  433.37   23.70
   4   6   9   35.22    7.04
   4   6  10   28.90    6.38
   4   6  11  139.06   14.76
   4   6  12    8.74    5.30
   4   6  13    2.71    1.71
   4   7  -7    9.61    7.21
   4   7  -6  118.73   20.14
   4   7  -6  100.66   13.52
   4   7  -5   10.53    6.87
   4   7  -5    3.95    2.94
   4   7  -4   36.77    9.75
   4   7  -3   16.83    6.97
   4   7  -2   11.49    5.73
   4   7  -2    6.75    5.22
   4   7  -1   93.57   13.49
   4   7  -1  118.19   18.58
   4   7   0  434.18   26.80
   4   7   0  381.85   31.94
   4   7   1   40.37    7.57
   4   7   1   20.17    6.98
   4   7   2  405.88   28.16
   4   7   2  439.34   23.28
   4   7   3   68.99   11.13
   4   7   3   77.68    8.71
   4   7   4  239.29   18.88
   4   7   4  222.62   13.05
   4   7   5  421.02   24.45
   4   7   6  150.66   14.56
   4   7   7  745.72   32.60
   4   7   8  677.50   31.79
   4   7   9   16.84    5.20
   4   7  10   98.36   12.61
   4   7  11  153.60   16.11
   4   7  12  402.61   27.09
   4   7  13  174.59   18.19
   4   8  -6    3.97    4.79
   4   8  -5   -2.04    6.45
   4   8  -4   16.52    6.66
   4   8  -3   33.75    9.57
   4   8  -2   -0.08    3.39
   4   8  -2    2.34    4.64
   4   8  -1  165.19   22.16
   4   8  -1  150.30   18.94
   4   8   0  873.32   51.95
   4   8   0  856.54   43.18
   4   8   1  127.01   15.18
   4   8   1  109.26   18.01
   4   8   2    1.28    3.68
   4   8   2    9.06    5.22
   4   8   3    3.75    2.39
   4   8   3    4.14    2.92
   4   8   4  118.96   15.12
   4   8   4  131.78   10.78
   4   8   5   34.20    7.85
   4   8   6   12.69    4.53
   4   8   7  345.17   23.88
   4   8   8  475.80   28.07
   4   8   9   10.60    4.50
   4   8  10    6.89    3.99
   4   8  11   30.82    8.11
   4   8  12  116.90   15.18
   4   9  -5    2.85    4.55
   4   9  -4   90.05   17.88
   4   9  -3  264.51   30.11
   4   9  -2  156.35   22.23
   4   9  -1  476.01   37.33
   4   9  -1  559.46   42.30
   4   9   0 1336.10   59.54
   4   9   0 1535.20   70.30
   4   9   1  506.13   33.80
   4   9   1  501.32   40.95
   4   9   2  100.69   13.32
   4   9   2   91.56   16.87
   4   9   3   13.82    7.15
   4   9   3    6.65    2.47
   4   9   4  146.14   19.40
   4   9   4  169.88   12.00
   4   9   5  164.77   19.33
   4   9   6    5.69    3.50
   4   9   7  311.43   25.00
   4   9   8  451.50   29.77
   4   9   9   92.73   13.57
   4   9  10   35.66    8.30
   4   9  11   14.65    6.01
   4  10  -4  104.62   20.56
   4  10  -3  174.21   25.24
   4  10  -2   10.04    4.28
   4  10  -1    5.02    6.51
   4  10  -1    6.74    2.90
   4  10   0   51.23   12.97
   4  10   0   47.43   11.71
   4  10   1   15.46    7.84
   4  10   1   18.46    6.70
   4  10   2   89.66   12.61
   4  10   2   67.55   15.68
   4  10   3  143.75   13.58
   4  10   3  101.82   18.82
   4  10   4  452.34   37.71
   4  10   5  104.90   17.79
   4  10   6   25.30    8.36
   4  10   7   14.63    6.47
   4  10   8   39.98   10.26
   4  10   9  211.08   22.35
   4  10  10  130.93   17.40
   4  11  -3   62.19   15.25
   4  11  -2   70.44   15.58
   4  11  -1  135.52   20.54
   4  11   0   31.01   11.13
   4  11   0   49.07   11.36
   4  11   1  148.17   23.98
   4  11   2   53.53   14.54
   4  11   3   39.95   12.42
   4  11   4  199.41   27.54
   4  11   5   18.84    7.67
   4  11   6  121.39   20.27
   4  11   7  142.35   20.68
   4  11   8  199.00   23.70
   4  11   9  256.34   26.81
   4  12   1   72.10   16.97
   4  12   2   76.61   18.48
   4  12   3   45.79   13.88
   4  12   4  320.87   37.59
   4  12   5  200.14   28.32
   5 -11  -2   -3.12    5.46
   5 -11  -1   82.61   15.96
   5 -10  -5   59.72   13.73
   5 -10  -4  210.86   24.86
   5 -10  -3   43.54   11.50
   5 -10  -2   50.08   11.67
   5 -10  -1    0.77    2.38
  -5  10   1    4.53    7.14
  -5  10   0    2.25    2.36
   5 -10   0   -1.97    2.64
   5  -9  -7   75.43   14.73
   5  -9  -6   54.32   12.32
   5  -9  -5    2.51    3.52
   5  -9  -4   98.23   16.00
   5  -9  -3    2.39    3.05
   5  -9  -2  421.39   31.65
   5  -9  -1  299.68   26.66
  -5   9   1  293.35   32.00
   5  -9   0  304.80   26.77
  -5   9   0  326.85   34.81
   5  -9   1  234.97   23.38
  -5   9  -1  272.49   32.25
  -5   9  -2   31.18   11.42
   5  -8  -9  109.71   18.71
   5  -8  -8   85.24   15.53
   5  -8  -7  202.59   22.97
   5  -8  -6   51.50   11.81
   5  -8  -5    7.74    4.89
   5  -8  -4  206.86   21.57
   5  -8  -3   55.99   11.02
   5  -8  -2   77.71   12.64
   5  -8  -1  144.39   16.90
  -5   8   1  142.11   20.44
  -5   8   0   95.73   17.77
   5  -8   0  107.84   14.50
   5  -8   1  145.48   16.69
  -5   8  -1  135.83   21.92
  -5   8  -2   -5.74    6.00
   5  -8   2    3.75    2.88
  -5   8  -3   -0.16    5.19
  -5   8  -4   77.04   19.21
   5  -7 -10   14.20    7.96
   5  -7  -9  163.99   20.90
   5  -7  -8  237.07   24.06
   5  -7  -7  539.99   35.19
   5  -7  -6   99.60   15.06
   5  -7  -5   -0.02    1.75
   5  -7  -4  206.30   19.65
   5  -7  -3  108.34   14.40
   5  -7  -2   31.95    7.19
  -5   7   1   15.78    6.77
   5  -7  -1    7.87    3.94
   5  -7   0  175.28   16.85
  -5   7   0  191.49   23.25
   5  -7   1  135.96   14.69
  -5   7  -1  129.11   20.03
  -5   7  -2   38.33   11.99
   5  -7   2   50.24    8.97
   5  -7   3   46.79    8.70
  -5   7  -3   29.22   12.03
  -5   7  -4   24.84   10.27
  -5   7  -5   -2.46    4.13
   5  -6 -11   15.74    7.15
   5  -6 -10   95.52   15.82
   5  -6  -9   67.05   12.97
   5  -6  -8   84.55   13.75
   5  -6  -7  167.00   18.57
   5  -6  -6   74.87   12.22
   5  -6  -5  703.41   36.19
   5  -6  -5  691.63   35.00
   5  -6  -4  187.55   23.41
   5  -6  -4  164.95   16.45
   5  -6  -3  227.65   19.10
   5  -6  -2  272.55   19.81
   5  -6  -1   36.29    7.28
  -5   6   1   39.14    9.40
   5  -6   0  166.41   15.07
  -5   6   0  181.28   20.50
  -5   6  -1   60.46   12.60
   5  -6   1   45.52    7.75
   5  -6   2  456.76   24.16
  -5   6  -2  462.86   36.30
   5  -6   3  765.38   31.13
  -5   6  -3  662.85   46.84
   5  -6   4  378.56   22.09
  -5   6  -4  337.76   35.02
  -5   6  -5  321.18   37.17
  -5   6  -6   82.55   20.30
  -5   6  -7   12.50    6.53
   5  -5 -12   81.75   15.84
   5  -5 -11   24.16    8.93
   5  -5 -10   86.70   14.23
   5  -5  -9    4.96    3.19
   5  -5  -8    4.66    2.40
   5  -5  -7   80.64   12.17
   5  -5  -6  203.79   12.27
   5  -5  -6  202.21   18.77
   5  -5  -5  905.12   33.19
   5  -5  -5  921.98   38.66
   5  -5  -4  568.73   35.00
   5  -5  -4  552.37   28.83
   5  -5  -3  612.10   43.85
   5  -5  -3  420.95   24.17
   5  -5  -2  190.81   23.69
   5  -5  -2  163.61   14.58
   5  -5  -1   22.43    7.21
   5  -5  -1   25.09    5.83
  -5   5   0   21.50    6.49
   5  -5   0   10.80    3.68
   5  -5   1   28.54    5.84
  -5   5  -1   23.29    7.37
   5  -5   2  450.25   22.02
  -5   5  -2  464.31   23.48
  -5   5  -2  521.65   34.48
   5  -5   3  619.00   25.16
  -5   5  -3  617.29   26.66
  -5   5  -3  668.10   41.93
   5  -5   4  351.39   18.74
  -5   5  -4  345.68   32.34
   5  -5   5  423.90   20.43
  -5   5  -5  386.32   36.98
  -5   5  -6    2.15    4.19
  -5   5  -7   22.23   10.40
  -5   5  -8    8.09    6.06
   5  -4 -13  130.64   21.01
   5  -4 -12  187.72   22.65
   5  -4 -11  195.11   21.94
   5  -4 -10  307.93   26.36
   5  -4  -9   14.25    4.65
   5  -4  -8   46.41    9.43
   5  -4  -7  494.49   29.00
   5  -4  -6   16.59    5.13
   5  -4  -6   18.30    2.65
   5  -4  -5  269.44   13.23
   5  -4  -5  282.44   20.05
   5  -4  -4   72.82    9.89
   5  -4  -4   75.46   10.20
   5  -4  -3  611.47   41.48
   5  -4  -3  441.17   23.58
   5  -4  -2  170.13   20.55
   5  -4  -2  170.16   13.95
   5  -4  -1   99.35   10.32
   5  -4  -1  107.90   13.80
  -5   4   0   77.60   10.82
   5  -4   0   58.68    7.68
   5  -4   0   64.86   10.23
   5  -4   1  369.45   19.00
  -5   4  -1  364.21   19.94
  -5   4  -1  361.04   24.71
  -5   4  -2    5.83    3.54
   5  -4   2    4.36    1.54
  -5   4  -2    4.67    1.90
   5  -4   3    7.72    2.67
  -5   4  -3    9.07    3.38
  -5   4  -3    8.54    4.76
  -5   4  -4    3.90    3.42
   5  -4   4   10.09    3.02
  -5   4  -5   23.19    8.13
   5  -4   5   35.98    5.21
   5  -4   6  164.79   10.89
  -5   4  -6  163.56   22.96
  -5   4  -7  256.60   31.44
  -5   4  -8    5.80    4.85
  -5   4  -9   23.92   11.28
   5  -3 -13  222.26   26.45
   5  -3 -12  159.67   20.64
   5  -3 -11  254.88   24.40
   5  -3 -10  281.52   24.18
   5  -3  -9   35.46    8.19
   5  -3  -8   67.56   10.48
   5  -3  -7   30.25    6.86
   5  -3  -6   58.03    9.06
   5  -3  -5  163.83    6.59
   5  -3  -5  208.84   16.64
   5  -3  -4  127.51    9.07
   5  -3  -4  126.26   12.46
   5  -3  -3  583.70   36.09
   5  -3  -3  499.30   23.97
   5  -3  -2   16.33    6.24
   5  -3  -2   19.69    4.65
   5  -3  -1  806.53   28.52
   5  -3  -1  813.11   32.94
   5  -3   0  184.74   13.08
  -5   3   0  165.59   13.00
   5  -3   1   58.69    7.22
  -5   3  -1   55.21    7.39
  -5   3  -1   51.65    8.61
   5  -3   2  242.15   14.12
  -5   3  -2  229.27   14.75
  -5   3  -2  227.56   18.44
  -5   3  -3    9.52    3.40
   5  -3   3   12.56    3.24
   5  -3   4   44.89    5.59
  -5   3  -4   45.88    9.18
   5  -3   5  157.75   10.11
  -5   3  -5  149.66   18.14
   5  -3   6  110.91    8.05
  -5   3  -6  127.77   17.98
  -5   3  -7  635.87   43.88
  -5   3  -8  188.23   25.96
  -5   3  -9   72.48   17.38
  -5   3 -10   45.92   14.66
  -5   3 -11    6.55    8.38
   5  -2 -12    6.17    4.48
   5  -2 -11    7.33    3.89
   5  -2 -10   -1.69    3.27
   5  -2  -9  663.08   34.22
   5  -2  -8  951.48   39.51
   5  -2  -7  143.21   14.46
   5  -2  -6  375.37   22.61
   5  -2  -5   66.32    9.21
   5  -2  -4   28.62    1.92
   5  -2  -4   57.46    8.05
   5  -2  -3   25.16    5.86
   5  -2  -3   25.06    5.35
   5  -2  -2  258.66   16.24
   5  -2  -2  273.21   18.83
   5  -2  -1 2625.72   52.02
  -5   2   1 2772.83   54.73
   5  -2   0 2055.50   43.96
  -5   2   0 2115.99   46.61
   5  -2   1 1178.27   31.86
  -5   2  -1 1212.27   34.05
   5  -2   2  719.21   23.73
  -5   2  -2  705.44   29.40
  -5   2  -3    8.69    3.47
   5  -2   3    6.33    1.76
   5  -2   4    2.98    1.69
  -5   2  -4    2.66    2.60
   5  -2   5   58.09    5.98
  -5   2  -5   57.13    9.96
   5  -2   6  401.80   15.09
  -5   2  -6  411.03   28.52
   5  -2   7  999.77   22.05
  -5   2  -7  999.72   48.75
  -5   2  -8  585.64   40.51
  -5   2  -9  544.05   41.80
  -5   2 -10   84.13   18.45
  -5   2 -11    9.40    5.71
  -5   2 -12    5.64    4.26
   5  -1 -12   11.61    5.20
   5  -1 -11   22.91    6.97
   5  -1 -10   66.55   11.25
   5  -1  -9  296.81   22.32
   5  -1  -8  391.06   24.76
   5  -1  -7  249.90   18.79
   5  -1  -6  276.42   19.13
   5  -1  -5    3.08    1.14
   5  -1  -4  119.93   11.59
   5  -1  -3  174.31   13.50
   5  -1  -2    5.72    2.21
   5  -1  -2    4.98    1.95
   5  -1  -1  572.16   22.99
   5  -1  -1  620.03   26.17
   5  -1   0  276.94   15.26
   5  -1   0  304.47   18.42
   5  -1   1  179.20   11.89
   5  -1   1  179.80   14.36
  -5   1  -2   77.87    9.10
   5  -1   2   88.78   10.66
   5  -1   2   75.27    7.39
   5  -1   3  396.81   24.20
   5  -1   3  360.94   15.97
  -5   1  -3  376.51   20.52
   5  -1   4  263.72   13.21
  -5   1  -4  261.20   17.78
   5  -1   5   37.71    4.85
  -5   1  -5   43.99    7.62
  -5   1  -6   13.89    4.75
   5  -1   6   10.75    2.47
   5  -1   7  122.82    8.01
  -5   1  -7  120.57   14.86
  -5   1  -8    2.38    2.92
   5  -1   8    2.46    1.21
  -5   1  -9   13.54    6.55
  -5   1 -10   77.92   15.42
  -5   1 -11  553.09   43.32
  -5   1 -12  118.88   21.92
  -5   1 -13   11.79    7.63
   5   0 -11   24.54    7.35
   5   0 -10   85.76   12.92
   5   0  -9  100.76   12.95
   5   0  -8  324.34   22.02
   5   0  -7  219.16   17.41
   5   0  -6  522.12   25.95
   5   0  -5   12.68    4.24
   5   0  -4  115.25   11.51
   5   0  -3  125.57   11.59
   5   0  -2  181.66    6.33
   5   0  -2  199.86   14.15
   5   0  -1   52.22    7.00
   5   0  -1   47.97    7.10
   5   0   0    3.92    2.48
   5   0   0    6.58    2.48
   5   0   1   52.93    6.57
   5   0   1   45.75    7.01
   5   0   2   69.13    8.80
   5   0   2   64.49    6.99
  -5   0  -3  742.10   26.78
   5   0   3  741.99   30.99
   5   0   3  706.64   23.13
   5   0   4  378.43   24.15
   5   0   4  403.23   16.66
  -5   0  -4  404.43   20.47
   5   0   5   52.73   10.09
   5   0   5   52.91    5.91
  -5   0  -5   68.65    8.75
  -5   0  -6    8.42    3.41
   5   0   6    4.54    1.48
   5   0   7   66.26    6.28
  -5   0  -7   83.03   10.69
   5   0   8   91.27    7.05
  -5   0  -8  116.34   13.76
  -5   0  -9    3.92    1.31
   5   0   9    0.03    0.78
  -5   0 -10  120.29   16.48
  -5   0 -11  663.54   41.48
  -5   0 -12  153.50   21.77
  -5   0 -13   17.56    8.23
   5   1 -11  134.10   17.05
   5   1 -10   13.53    4.66
   5   1  -9  154.10   16.12
   5   1  -8   45.11    8.10
   5   1  -7    0.59    1.89
   5   1  -6   43.85    7.46
   5   1  -5  542.28   25.57
   5   1  -4 2200.52   51.65
   5   1  -3  586.22   25.44
   5   1  -2  470.68   12.92
   5   1  -2  488.47   22.43
   5   1  -1  398.22   12.00
   5   1  -1  404.03   19.72
   5   1   0    5.22    2.59
   5   1   0    2.96    1.02
   5   1   0    6.53    2.50
   5   1   1   27.15    5.28
   5   1   1   25.19    4.55
   5   1   2    3.67    1.90
   5   1   2    7.51    2.52
   5   1   3 1879.36   47.27
   5   1   3 1934.96   41.76
  -5  -1  -4 2050.20   43.35
   5   1   4 1993.30   53.24
   5   1   4 2085.79   43.27
   5   1   5  763.62   36.64
   5   1   5  819.71   25.59
  -5  -1  -5  820.19   27.71
   5   1   6  592.80   40.51
   5   1   6  605.48   21.54
  -5  -1  -6  630.00   25.71
   5   1   7   79.09    7.39
   5   1   7   65.58   18.74
  -5  -1  -7   85.40    9.74
  -5  -1  -8    8.92    3.25
   5   1   8    4.59    1.68
  -5  -1  -9   92.13   11.68
   5   1   9   97.15    7.51
  -5  -1 -10   18.92    5.77
  -5  -1 -11  446.07   29.56
  -5  -1 -12  284.14   25.18
  -5  -1 -13  126.41   18.30
   5   2 -10   25.76    6.95
   5   2  -9   30.33    6.82
   5   2  -8   73.07   10.49
   5   2  -7  130.18   13.50
   5   2  -6    6.22    3.03
   5   2  -5  724.51   30.15
   5   2  -4 1918.94   48.80
   5   2  -3  684.67   27.41
   5   2  -2  347.51   17.37
   5   2  -2  356.60   19.31
   5   2  -1   30.30    3.83
   5   2  -1   25.37    4.88
   5   2   0  545.50   16.86
   5   2   0  535.76   23.11
   5   2   1   83.07    6.81
   5   2   1   88.90    9.33
   5   2   1   94.08    9.30
   5   2   2   57.41    6.02
   5   2   2   58.76    7.34
   5   2   3 1141.91   29.78
   5   2   3 1111.32   33.80
   5   2   4 1269.55   39.39
   5   2   5  343.31   22.73
   5   2   6  213.97   22.44
  -5  -2  -6  254.39   14.52
   5   2   7   96.52   20.76
  -5  -2  -7  102.40    9.53
   5   2   8  410.16   49.41
  -5  -2  -8  454.19   22.15
   5   2   9    4.98    7.35
  -5  -2  -9    9.25    2.98
  -5  -2 -10   34.37    6.57
  -5  -2 -11  276.59   20.37
  -5  -2 -12   34.29    7.24
   5   3  -9  125.55   14.94
   5   3  -8   16.49    5.72
   5   3  -7    4.98    2.09
   5   3  -6  189.04   16.43
  -5  -3   5    4.80    1.19
   5   3  -5    7.26    3.16
  -5  -3   4  150.98    6.78
   5   3  -4  195.36   15.14
   5   3  -3   14.66    4.01
   5   3  -2   76.12    8.96
   5   3  -2   90.77   11.88
   5   3  -1    4.55    2.05
   5   3  -1    1.37    0.94
   5   3   0  602.75   20.54
   5   3   1    7.13    1.97
   5   3   2  492.97   18.64
   5   3   2  509.25   21.03
   5   3   3    6.97    2.14
   5   3   3    9.99    2.91
   5   3   4  164.00   11.94
   5   3   4  159.98   12.82
   5   3   5  178.36   15.56
   5   3   5  190.15   13.59
   5   3   6   23.84    6.88
   5   3   6   36.96    6.15
   5   3   7  732.79   53.28
   5   3   7  839.83   31.47
  -5  -3  -7  772.19   23.85
   5   3   8  960.37   63.37
   5   3   8 1017.85   36.36
  -5  -3  -8  959.89   28.06
  -5  -3  -9   26.80    5.04
   5   3   9   22.07    8.21
   5   3   9   29.55    6.09
  -5  -3 -10    9.52    3.11
   5   3  10    6.81    3.15
  -5  -3 -11   40.95    6.83
   5   3  11   47.73    9.03
   5   3  12  190.48   18.74
   5   4  -9   70.28   16.46
   5   4  -9   59.72   10.67
   5   4  -8  158.33   16.60
   5   4  -8  194.17   24.53
   5   4  -7  280.89   21.10
   5   4  -6   19.40    5.21
  -5  -4   5   46.57    5.21
   5   4  -5   59.07    8.97
  -5  -4   4   84.51    6.88
   5   4  -4   93.31   10.71
  -5  -4   3    0.81    1.18
   5   4  -3   -1.22    2.15
  -5  -4   2   72.86    6.44
   5   4  -2   96.78   14.29
  -5  -4   1   42.36    5.11
   5   4  -1   45.32    7.92
   5   4   0 1223.81   35.97
   5   4   1  353.40   17.47
   5   4   2   28.90    4.81
   5   4   3   28.80    4.81
   5   4   3   31.28    4.96
   5   4   4   42.27    6.22
   5   4   4   46.06    6.39
   5   4   5   24.92    5.06
   5   4   5   23.33    4.78
   5   4   6   22.71    6.61
   5   4   6   14.37    3.81
   5   4   7  477.45   37.18
   5   4   7  433.57   23.19
   5   4   8  784.70   42.92
   5   4   8  931.24   35.08
   5   4   9   76.08   10.63
   5   4   9  102.24   11.95
  -5  -4  -9   82.25    7.27
   5   4  10   35.86    7.01
  -5  -4 -10   39.04    5.31
   5   4  11    0.75    2.33
   5   4  12  118.70   14.57
   5   5  -8  794.66   39.11
   5   5  -8  987.86   57.85
   5   5  -7  859.45   39.37
   5   5  -7  969.85   53.29
   5   5  -6  172.23   16.65
   5   5  -5   96.86   12.21
  -5  -5   4    5.26    2.48
   5   5  -4    2.20    1.48
  -5  -5   3  268.64   15.85
  -5  -5   2   64.25    7.30
   5   5  -2   81.31   13.87
   5   5  -1  433.59   30.33
  -5  -5   1  458.40   19.49
   5   5   0 2844.56   66.90
  -5  -5   0 2828.62   51.38
   5   5   1 1351.78   41.06
  -5  -5  -1 1299.34   33.94
   5   5   2  642.49   26.20
   5   5   3  306.70   17.62
   5   5   3  293.96   15.25
   5   5   4   84.51    9.30
   5   5   4   80.07    8.16
   5   5   5  124.74   11.66
   5   5   5  117.71   10.50
   5   5   6    8.89    3.66
   5   5   6    5.39    3.44
   5   5   7  473.07   28.22
   5   5   7  464.84   24.32
   5   5   8  880.14   34.93
   5   5   8  756.58   27.52
   5   5   9  492.35   26.93
   5   5  10  216.77   18.37
   5   5  11   15.99    4.51
   5   5  12  101.04   13.59
   5   6  -7  244.84   22.15
   5   6  -7  305.87   32.50
   5   6  -6   19.39    8.19
   5   6  -6   21.02    5.72
   5   6  -5   23.55    7.89
   5   6  -5   11.87    4.69
   5   6  -4   89.64   12.10
   5   6  -4  105.95   15.09
  -5  -6   3  300.82   20.89
   5   6  -2   17.85    8.35
  -5  -6   2    9.59    3.26
   5   6  -1   23.24    7.91
  -5  -6   1   33.78    6.18
   5   6   0  119.50   16.27
  -5  -6   0  140.25   12.48
  -5  -6  -1   53.03    7.57
   5   6   1   56.08    9.80
   5   6   2   -0.06    2.30
   5   6   3   43.22    7.58
   5   6   4  822.48   31.95
   5   6   4  808.08   25.43
   5   6   5  438.07   23.28
   5   6   5  438.36   19.16
   5   6   6   15.47    3.84
   5   6   6   12.70    4.20
   5   6   7    2.76    0.98
   5   6   7    5.12    3.11
   5   6   8    8.69    4.07
   5   6   9  137.92   14.55
   5   6  10   57.30    9.64
   5   6  11  270.71   21.95
   5   6  12  825.57   39.65
   5   7  -6   16.89    8.52
   5   7  -6   11.43    4.48
   5   7  -5   50.69   12.33
   5   7  -5   55.07   10.42
   5   7  -4   41.65   11.20
   5   7  -3  173.74   19.56
   5   7  -2   54.03   10.55
   5   7  -2   50.17   11.65
   5   7  -1  208.76   18.69
   5   7  -1  217.78   24.70
   5   7   0    7.06    3.39
   5   7   0    3.86    5.13
   5   7   1  116.59   16.47
   5   7   2   49.17   10.08
   5   7   3   39.30    8.18
   5   7   4  520.59   28.27
   5   7   4  513.04   19.65
   5   7   5  259.58   19.51
   5   7   5  264.14   13.89
   5   7   5  273.87   12.53
   5   7   6   55.68    9.13
   5   7   7   97.30   12.16
   5   7   8  267.82   20.72
   5   7   9  407.36   26.14
   5   7  10   61.29   10.49
   5   7  11  234.68   20.92
   5   7  12  501.51   31.78
   5   8  -6   28.73    9.59
   5   8  -6   18.56    6.99
   5   8  -5   22.41    8.35
   5   8  -5   12.27    4.86
   5   8  -4  404.10   35.11
   5   8  -3  843.99   47.73
   5   8  -2  310.28   29.73
   5   8  -2  249.51   24.66
   5   8  -1   98.69   17.44
   5   8  -1   92.66   14.26
   5   8   0   21.06    6.82
   5   8   0   13.44    6.45
   5   8   1   84.63   15.58
   5   8   1  111.07   13.80
   5   8   2   31.64    6.55
   5   8   2   18.30    6.60
   5   8   3   40.45    6.99
   5   8   3   36.16    8.29
   5   8   4  855.51   40.77
   5   8   4  837.17   29.99
   5   8   5  622.71   21.05
   5   8   5  782.62   37.30
   5   8   6  150.77   16.28
   5   8   7  111.76   13.92
   5   8   8    3.08    3.27
   5   8   9   57.23   10.64
   5   8  10    8.68    2.65
   5   8  11    3.87    3.04
   5   9  -5   40.92   12.40
   5   9  -5   55.93   11.53
   5   9  -4  268.59   30.71
   5   9  -3  587.98   43.59
   5   9  -2   85.74   15.77
   5   9  -1   13.69    5.37
   5   9  -1    9.93    6.69
   5   9   0   41.26   10.57
   5   9   0   55.32   13.69
   5   9   1  389.20   29.36
   5   9   1  374.68   35.88
   5   9   2  164.34   17.58
   5   9   2  135.41   20.09
   5   9   3   41.34    7.74
   5   9   3   39.06   10.51
   5   9   4  317.48   27.98
   5   9   5  262.32   24.09
   5   9   6   22.67    6.93
   5   9   7   10.29    4.67
   5   9   8  161.47   18.42
   5   9   9  358.23   27.55
   5   9  10   18.37    6.32
   5  10  -4   -1.22    3.68
   5  10  -3    2.45    3.18
   5  10  -2   25.04    7.13
   5  10  -1   12.42    6.70
   5  10  -1   13.87    5.27
   5  10   0   57.74   12.36
   5  10   0   78.65   16.95
   5  10   1  264.19   25.86
   5  10   1  244.46   30.29
   5  10   2   -8.23    7.16
   5  10   3  141.62   21.78
   5  10   4   57.33   13.53
   5  10   5  192.84   22.98
   5  10   6  296.80   28.05
   5  10   7  147.09   19.31
   5  10   8  379.51   30.54
   5  10   9  444.29   32.74
   5  11  -2   25.91   10.30
   5  11   0   34.53   11.02
   5  11   1  375.54   37.29
   5  11   2   31.33   11.89
   5  11   3   15.64    8.42
   5  11   4   10.46    6.22
   5  11   5  102.75   19.28
   5  11   6   69.67   15.96
   5  11   7   10.74    5.98
   5  12   2  218.19   30.28
   6 -10  -2   57.06   12.75
   6 -10  -1   21.97    7.33
   6  -9  -4  130.77   18.78
   6  -9  -3  208.35   23.41
   6  -9  -2  140.40   18.88
   6  -9  -1    5.10    4.13
   6  -9   0   36.89    9.38
   6  -8  -6   50.95   11.88
   6  -8  -5   24.13    7.37
   6  -8  -4   44.39   10.24
   6  -8  -3  227.89   22.74
   6  -8  -2  112.31   15.88
   6  -8  -1   -1.98    2.16
  -6   8   0   44.17   12.11
   6  -8   0   40.29    9.62
   6  -8   1  139.34   16.64
  -6   8  -1  129.34   22.72
  -6   8  -2    1.24    4.05
   6  -8   2    7.04    3.86
   6  -7  -8   10.20    5.56
   6  -7  -7   75.56   13.76
   6  -7  -6    1.41    2.56
   6  -7  -5   60.69   11.40
   6  -7  -4   58.24   10.82
   6  -7  -3  303.93   24.15
   6  -7  -2   90.31   13.32
   6  -7  -1  116.25   14.51
  -6   7   0   32.53   10.24
   6  -7   0   39.58    8.41
   6  -7   1    7.92    3.39
  -6   7  -1    4.92    5.22
  -6   7  -2   53.38   14.37
   6  -7   2   52.38    9.76
  -6   7  -3   20.09    9.04
   6  -7   3   17.79    5.96
  -6   7  -4   16.13    7.34
   6  -6  -9  178.53   21.48
   6  -6  -8  401.35   31.23
   6  -6  -7  113.04   16.12
   6  -6  -6  186.69   19.79
   6  -6  -5   92.89   13.44
   6  -6  -4    5.41    3.36
   6  -6  -3  102.40   13.36
   6  -6  -2    2.57    2.25
   6  -6  -1  689.85   33.24
  -6   6   0  736.84   42.38
   6  -6   0  700.38   33.01
   6  -6   1  517.29   27.64
  -6   6  -1  549.82   37.91
   6  -6   2  521.75   27.31
  -6   6  -2  517.30   39.34
  -6   6  -3   36.09   11.67
   6  -6   3   33.39    7.07
  -6   6  -4   50.40   14.35
  -6   6  -5   72.21   17.73
   6  -5 -10  115.80   17.12
   6  -5  -9   65.62   12.63
   6  -5  -8  253.89   23.96
   6  -5  -7  160.78   18.32
   6  -5  -6  334.06   25.58
   6  -5  -5   24.74    6.80
   6  -5  -4    8.67    4.34
   6  -5  -3  178.28   24.00
   6  -5  -3  149.78   15.29
   6  -5  -2   40.32   11.39
   6  -5  -2   43.50    7.93
   6  -5  -1  197.53   16.77
   6  -5   0  184.43   15.83
   6  -5   1  234.59   17.49
  -6   5  -1  225.79   22.33
   6  -5   2  218.94   16.48
  -6   5  -2  201.00   21.70
  -6   5  -3   25.64    8.38
   6  -5   3   26.39    5.80
  -6   5  -4   59.90   13.85
   6  -5   4   46.73    7.33
  -6   5  -5   49.15   13.49
  -6   5  -6    8.59    5.30
  -6   5  -7   45.95   13.37
   6  -4 -11   52.99   11.86
   6  -4 -10  188.02   21.48
   6  -4  -9   22.64    7.71
   6  -4  -8  168.86   18.85
   6  -4  -7  176.30   18.43
   6  -4  -6  576.71   31.90
   6  -4  -5   93.81   12.46
   6  -4  -4   13.55    3.81
   6  -4  -4   19.34    5.05
   6  -4  -3  203.06   24.37
   6  -4  -3  145.44   14.41
   6  -4  -2  115.75   12.40
   6  -4  -2  123.73   17.96
   6  -4  -1    7.40    3.09
   6  -4  -1    9.87    3.33
   6  -4   0   10.19    3.33
  -6   4  -1  179.75   18.28
   6  -4   1  168.57   14.05
   6  -4   2   60.98    8.22
  -6   4  -2   75.59   12.30
   6  -4   3  104.49   10.43
  -6   4  -3  112.40   15.43
   6  -4   4  158.97   12.59
  -6   4  -4  152.75   19.18
   6  -4   5    5.58    2.34
  -6   4  -5    3.41    3.36
  -6   4  -6    1.75    3.37
  -6   4  -7    6.45    5.69
  -6   4  -8   27.24   10.15
   6  -3 -11   53.73   11.94
   6  -3 -10    6.62    4.94
   6  -3  -9  149.64   18.02
   6  -3  -8   40.70    8.86
   6  -3  -7  107.53   13.81
   6  -3  -6  200.82   18.35
   6  -3  -5   71.30   10.47
   6  -3  -4  816.60   22.71
   6  -3  -4  918.39   36.61
   6  -3  -3  394.59   29.86
   6  -3  -3  366.30   22.25
   6  -3  -2  296.28   19.32
   6  -3  -2  281.93   24.96
   6  -3  -1  323.03   19.58
   6  -3  -1  325.61   22.10
   6  -3   0   59.17    8.14
   6  -3   1   26.87    5.25
   6  -3   2  194.92   14.12
  -6   3  -2  197.98   18.09
   6  -3   3  544.15   23.19
  -6   3  -3  558.09   31.16
   6  -3   4 1030.19   31.19
  -6   3  -4  990.62   44.20
   6  -3   5  480.80   20.20
  -6   3  -5  460.63   31.68
   6  -3   6  540.33   20.36
  -6   3  -6  510.67   35.76
  -6   3  -7  116.70   18.73
  -6   3  -8    5.97    3.79
  -6   3  -9  123.85   21.07
  -6   3 -10   13.37    6.20
   6  -2 -12  262.42   27.00
   6  -2 -11  217.05   23.14
   6  -2 -10   54.05   10.91
   6  -2  -9   53.16   10.20
   6  -2  -8    2.25    2.44
   6  -2  -7   66.19   10.69
   6  -2  -6   37.97    7.69
   6  -2  -5  250.95   19.37
   6  -2  -4 1359.81   44.26
   6  -2  -3  675.43   30.77
   6  -2  -3  741.46   31.09
   6  -2  -2  661.67   28.49
   6  -2  -2  647.33   31.09
   6  -2  -1  251.86   16.94
   6  -2   0  148.25   12.48
   6  -2   1    8.84    3.00
   6  -2   2    2.26    1.21
   6  -2   3  547.78   22.62
  -6   2  -3  590.45   29.61
   6  -2   4  830.35   27.17
  -6   2  -4  781.31   35.48
   6  -2   5  535.61   21.18
  -6   2  -5  525.94   30.36
   6  -2   6  539.95   20.38
  -6   2  -6  474.96   30.58
   6  -2   7    1.78    1.15
  -6   2  -7    4.57    3.03
  -6   2  -8  122.41   18.00
  -6   2  -9    6.55    5.44
  -6   2 -10   11.71    6.12
  -6   2 -11   98.26   19.46
   6  -1 -12  147.19   20.37
   6  -1 -11  135.64   18.05
   6  -1 -10  158.03   18.37
   6  -1  -9  282.30   23.55
   6  -1  -8    1.84    2.52
   6  -1  -7   -0.05    1.26
   6  -1  -6  316.26   22.25
   6  -1  -5   14.65    4.97
   6  -1  -4  200.31   16.52
   6  -1  -3   83.95   10.38
   6  -1  -2  209.26   15.72
   6  -1  -2  237.31   14.57
   6  -1  -1   94.27   10.13
   6  -1   0  259.97   16.49
   6  -1   1    4.09    1.93
   6  -1   2  177.98   12.75
   6  -1   3    8.18    2.41
   6  -1   4   12.17    3.24
  -6   1  -4   12.66    4.33
   6  -1   5   16.10    3.58
  -6   1  -5   18.57    5.81
  -6   1  -6   13.94    4.88
   6  -1   6   15.81    3.52
   6  -1   7  301.38   14.66
  -6   1  -7  269.50   22.09
  -6   1  -8  509.84   32.31
  -6   1  -9   63.64   12.20
  -6   1 -10   14.02    6.00
  -6   1 -11    3.14    2.54
  -6   1 -12   42.47   10.62
   6   0 -11  157.28   19.20
   6   0 -10  177.76   19.57
   6   0  -9  274.33   23.11
   6   0  -8   31.01    7.32
   6   0  -7  140.74   15.05
   6   0  -6   23.64    6.49
   6   0  -5   35.93    7.49
   6   0  -4  130.45   13.39
   6   0  -3   11.87    3.87
   6   0  -2  386.04   10.78
   6   0  -2  397.22   21.98
   6   0  -1    7.05    1.73
   6   0  -1    4.37    2.21
   6   0   0  730.64   28.66
   6   0   1  350.59   19.14
   6   0   2   22.86    4.64
   6   0   3  122.82   10.65
   6   0   4    3.79    1.73
   6   0   5    1.57    2.20
  -6   0  -5    1.87    1.29
   6   0   6   71.06    7.51
  -6   0  -6   75.58   10.22
   6   0   7  127.53    9.75
  -6   0  -7  115.76   13.10
   6   0   8  701.67   22.33
  -6   0  -8  642.14   32.50
  -6   0  -9  181.76   18.47
  -6   0 -10   66.83   11.97
  -6   0 -11   10.04    4.90
  -6   0 -12   39.17   10.55
   6   1 -11    6.69    3.43
   6   1 -10   -1.84    2.03
   6   1  -9    1.30    2.53
   6   1  -8  595.06   32.85
   6   1  -7 1032.37   41.50
   6   1  -6  321.58   22.25
   6   1  -5  341.66   22.17
   6   1  -4   40.78    7.71
   6   1  -3   58.82    9.04
   6   1  -2    1.22    0.67
   6   1  -2    1.66    1.26
   6   1  -1  179.48    8.78
   6   1  -1  177.55   14.57
   6   1   0 2320.39   38.00
   6   1   0 2394.49   53.83
   6   1   1 1970.65   37.22
   6   1   1 1879.57   46.70
   6   1   2 1097.58   34.50
   6   1   3  806.98   28.80
   6   1   4    0.78    1.08
   6   1   5   10.61    2.96
  -6  -1  -6   46.47    7.16
   6   1   6   40.82    6.15
   6   1   7  202.81   13.26
  -6  -1  -7  214.72   16.14
   6   1   8  833.18   26.39
  -6  -1  -8  792.97   33.37
   6   1   9  463.27   18.49
  -6  -1  -9  437.73   25.56
  -6  -1 -10  443.68   27.70
  -6  -1 -11   68.16   10.89
  -6  -1 -12   18.87    6.18
   6   2 -10    6.30    4.82
   6   2  -9   18.17    5.45
   6   2  -8  257.30   21.75
   6   2  -7  458.22   27.81
   6   2  -6  147.05   15.13
   6   2  -5  174.50   16.16
   6   2  -4    7.69    3.42
   6   2  -3  307.88   20.54
   6   2  -2    7.10    1.81
   6   2  -2    8.15    3.27
   6   2  -1    6.89    1.92
   6   2  -1    4.72    2.23
   6   2   0  529.48   17.71
   6   2   0  516.94   24.91
   6   2   1  185.63   11.00
   6   2   1  191.15   14.97
   6   2   2  168.21   11.30
   6   2   2  159.62   13.59
   6   2   2  161.72   14.06
   6   2   3   24.96    5.70
   6   2   3   33.78    5.31
   6   2   3   36.50    6.40
   6   2   4  521.26   22.63
   6   2   4  486.00   26.69
   6   2   4  521.40   24.54
   6   2   5  428.60   27.42
   6   2   5  434.35   22.13
   6   2   6    9.57    3.41
  -6  -2  -7   45.09    6.87
   6   2   8   61.40    7.81
  -6  -2  -8   65.94    8.52
  -6  -2  -9    1.85    0.96
   6   2   9    1.70    0.96
  -6  -2 -10    1.07    1.60
  -6  -2 -11   53.06    9.04
   6   3  -9   74.16   12.36
   6   3  -8   58.53   10.72
   6   3  -7  111.67   13.75
   6   3  -6   70.03   10.67
   6   3  -5  276.86   20.79
   6   3  -4    0.48    1.78
   6   3  -3  213.19   16.86
   6   3  -2   75.00   10.53
   6   3  -2   60.48    8.81
   6   3  -1  117.71   10.02
   6   3  -1  123.60   12.54
   6   3   0    5.86    1.84
   6   3   0    3.75    1.37
   6   3   1   74.63    7.37
   6   3   1   68.19    9.06
   6   3   1   69.52    9.03
   6   3   2    6.96    2.48
   6   3   2    7.40    2.39
   6   3   3    0.45    1.88
   6   3   3    2.49    1.17
   6   3   4  604.03   24.59
   6   3   4  529.16   26.68
   6   3   5  509.87   23.68
   6   3   5  476.51   27.84
   6   3   6   11.95    5.18
   6   3   6    8.05    2.56
   6   3   7   13.06    3.72
   6   3   7   19.24    9.13
   6   3   8  133.97   13.77
   6   3   8  128.76   27.74
   6   3   9  213.07   18.13
  -6  -3  -9  220.18   14.62
  -6  -3 -10   44.82    6.96
   6   3  10   47.57    8.79
   6   3  11  147.00   16.54
   6   4  -9   27.61    8.60
   6   4  -8   87.89   13.62
   6   4  -7   22.82    6.33
   6   4  -6    5.04    3.33
   6   4  -5   14.01    4.81
   6   4  -4  263.80   19.79
   6   4  -3 1184.99   41.64
   6   4  -2  429.89   24.59
   6   4  -2  592.37   34.22
   6   4  -1  299.49   20.48
   6   4  -1  302.35   20.10
   6   4   0  131.31   11.83
   6   4   1   13.13    3.78
   6   4   2   -0.11    1.40
   6   4   2    2.81    1.86
   6   4   3    4.27    1.80
   6   4   3    4.94    2.69
   6   4   4  933.22   31.69
   6   4   4  920.85   34.16
   6   4   5 1351.87   40.03
   6   4   5 1293.75   43.62
   6   4   6  370.91   26.79
   6   4   6  424.18   23.16
   6   4   7  316.84   31.29
   6   4   7  306.28   20.47
   6   4   8   84.63   10.98
   6   4   9   91.02   11.85
   6   4  10   54.12    9.67
   6   4  11    9.70    4.09
   6   5  -8   15.98    5.81
   6   5  -7   79.11   12.65
   6   5  -6  188.76   19.12
   6   5  -5   30.39    7.30
   6   5  -4  376.07   24.71
   6   5  -3 1103.79   42.26
  -6  -5   2  546.90   19.55
   6   5  -2  550.23   28.83
   6   5  -2  587.96   36.37
   6   5  -1  155.74   17.87
   6   5   0   54.75    9.31
   6   5   1  396.88   22.51
   6   5   2  175.28   14.03
   6   5   3   35.21    6.09
   6   5   3   31.67    5.73
   6   5   4  698.04   28.36
   6   5   4  701.18   28.96
   6   5   5  679.76   29.04
   6   5   5  656.88   29.85
   6   5   6  226.51   17.38
   6   5   6  217.89   19.14
   6   5   7  269.11   19.54
   6   5   8  132.43   14.25
   6   5   9  279.63   21.44
   6   5  10   25.58    6.07
   6   5  11   21.03    5.80
   6   6  -7   31.05    8.74
   6   6  -6   42.95   11.36
   6   6  -6   31.09    7.96
   6   6  -5   53.71   10.30
   6   6  -4    6.86    3.99
   6   6  -3   48.94    9.03
   6   6  -2   23.15    7.82
   6   6  -1   15.27    6.08
  -6  -6   1   16.19    3.93
   6   6   0   21.92    7.02
  -6  -6   0   30.94    5.39
   6   6   1  507.12   29.13
   6   6   2   62.73    9.60
   6   6   3  128.86   13.14
   6   6   3  118.52   11.36
   6   6   4   24.47    5.34
   6   6   4   26.89    5.95
   6   6   5   97.19   11.34
   6   6   5  107.45   11.59
   6   6   6  267.28   19.51
   6   6   7   88.54   11.70
   6   6   8  509.78   29.38
   6   6   9  895.55   39.96
   6   6  10   76.63   11.86
   6   6  11    2.42    2.73
   6   7  -6  125.08   17.04
   6   7  -6  169.28   23.81
   6   7  -5    6.88    4.33
   6   7  -5    0.65    4.13
   6   7  -4    4.63    4.45
   6   7  -4    2.99    2.25
   6   7  -3   11.96    5.78
   6   7  -2   27.54    9.01
   6   7  -1    7.61    3.01
   6   7   0   31.63    9.65
   6   7   1  492.32   33.66
   6   7   2  137.33   16.35
   6   7   3    3.59    3.41
   6   7   4    2.73    2.61
   6   7   5  159.66   15.63
   6   7   6   79.87   11.11
   6   7   7   12.04    4.65
   6   7   8  190.74   18.45
   6   7   9  456.08   29.36
   6   7  10   44.50    9.34
   6   7  11   -0.35    1.70
   6   8  -5  112.14   19.72
   6   8  -5  100.46   15.59
   6   8  -4   99.85   16.96
   6   8  -4   58.15   11.84
   6   8  -3   12.71    6.33
   6   8  -2  183.19   20.42
   6   8  -2  219.59   24.71
   6   8  -1   64.70   11.41
   6   8  -1   81.97   15.82
   6   8   0  247.13   21.20
   6   8   0  219.34   25.87
   6   8   1  974.99   52.64
   6   8   1 1176.94   43.21
   6   8   2  696.77   41.84
   6   8   2  799.70   33.36
   6   8   3  301.83   25.55
   6   8   3  341.50   20.28
   6   8   4  122.47   15.78
   6   8   4  129.62   11.46
   6   8   5   24.66    6.61
   6   8   6   85.22   13.19
   6   8   7    5.87    2.70
   6   8   8  148.51   17.11
   6   8   9  342.73   26.57
   6   8  10  153.69   18.24
   6   9  -5    9.64    5.72
   6   9  -4    5.28    3.91
   6   9  -4    1.54    1.64
   6   9  -3   65.88   13.68
   6   9  -2  275.88   27.15
   6   9  -1   17.12    5.50
   6   9  -1   30.12    9.36
   6   9   0    7.96    4.32
   6   9   0    6.78    6.30
   6   9   1   99.80   18.64
   6   9   1   90.60   13.33
   6   9   2   13.27    4.98
   6   9   2    3.29    4.28
   6   9   3   -0.98    3.58
   6   9   4   23.22    7.84
   6   9   5  441.33   31.90
   6   9   6  316.32   26.32
   6   9   7    1.23    1.75
   6   9   8    5.69    3.41
   6   9   9    3.67    2.63
   6  10  -3   27.85    9.40
   6  10  -2   95.71   17.45
   6  10  -1    9.72    4.60
   6  10  -1   24.26    9.17
   6  10   0   92.24   15.47
   6  10   0  123.91   20.60
   6  10   1   48.52   13.66
   6  10   2  177.68   25.75
   6  10   3   66.13   15.30
   6  10   4   40.45   11.21
   6  10   5  253.74   27.33
   6  10   6  139.45   19.25
   6  10   7   21.40    8.44
   6  10   8   89.59   15.18
   6  11   0   14.67    4.65
   6  11   1   14.72    7.96
   6  11   2   50.15   14.71
   6  11   3   24.39   11.16
   6  11   4    8.42    5.79
   6  11   5  187.72   25.52
   6  11   6  200.55   25.49
   7  -9  -1   13.67    6.86
   7  -9   0   61.71   12.47
   7  -8  -3   81.83   13.89
   7  -8  -2  113.61   16.87
   7  -8  -1    7.90    6.20
   7  -8   0    4.80    3.16
   7  -8   1   51.06   10.97
   7  -7  -5   11.91    6.25
   7  -7  -4  180.95   20.43
   7  -7  -3   61.00   11.58
   7  -7  -2   93.38   14.11
   7  -7  -1  118.37   15.49
   7  -7   0   16.06    5.76
   7  -7   1   82.57   12.38
   7  -7   2  126.20   15.34
   7  -6  -6  100.63   15.24
   7  -6  -5   36.94    9.60
   7  -6  -4  371.11   27.72
   7  -6  -3  362.32   26.56
   7  -6  -2  398.24   27.50
   7  -6  -1  223.30   20.46
   7  -6   0    5.22    3.91
   7  -6   1   14.09    5.34
   7  -6   2   64.90   10.33
  -7   6  -2   49.48   12.47
   7  -6   3   67.91   10.38
  -7   6  -3   90.62   17.96
   7  -5  -7    9.10    4.33
   7  -5  -6  225.81   22.51
   7  -5  -5   55.35   10.64
   7  -5  -4   74.22   11.64
   7  -5  -3   36.95    7.88
   7  -5  -2  229.16   19.76
   7  -5  -1  171.88   16.86
   7  -5   0   26.42    6.47
   7  -5   1   -0.07    1.62
  -7   5  -2  117.02   17.58
   7  -5   2  114.28   13.04
  -7   5  -3    4.09    3.78
   7  -5   3    5.31    2.43
  -7   5  -4    1.61    4.34
   7  -5   4    7.65    3.78
  -7   5  -5    8.13    6.38
   7  -4  -8    4.09    2.78
   7  -4  -7   23.17    6.82
   7  -4  -6   36.88    8.95
   7  -4  -5    5.15    4.16
   7  -4  -4   38.99    8.20
   7  -4  -3   27.55    7.07
   7  -4  -2  292.63   21.41
   7  -4  -1  126.23   13.81
   7  -4   0  198.28   16.90
   7  -4   1   96.95   11.46
   7  -4   2   15.55    4.44
   7  -4   3   69.98    9.31
  -7   4  -3   90.18   14.97
  -7   4  -4   11.37    5.74
   7  -4   4    4.83    2.29
  -7   4  -5   10.13    5.53
  -7   4  -6  115.14   18.90
  -7   4  -7    6.06    6.08
   7  -3  -9   73.27   13.04
   7  -3  -8  171.18   19.68
   7  -3  -7  653.14   36.97
   7  -3  -6  181.29   18.98
   7  -3  -5  317.08   24.07
   7  -3  -4  138.17   15.37
   7  -3  -3    5.51    3.48
   7  -3  -2   70.86   10.27
   7  -3  -1    6.82    4.67
   7  -3  -1    1.25    1.19
   7  -3   0  726.53   31.19
   7  -3   1  928.30   34.73
   7  -3   2  798.98   31.70
  -7   3  -3  640.10   35.16
   7  -3   3  644.58   27.78
   7  -3   4   54.55    7.98
  -7   3  -4   59.32   11.19
  -7   3  -5   10.99    5.28
   7  -3   5    8.43    2.66
  -7   3  -6   92.27   15.30
  -7   3  -7   30.48    9.24
  -7   3  -8  325.65   32.41
   7  -2  -9   88.55   14.45
   7  -2  -8  128.68   16.47
   7  -2  -7  288.83   24.23
   7  -2  -6  243.94   21.54
   7  -2  -5  379.31   25.87
   7  -2  -4   32.95    7.52
   7  -2  -3   97.34   12.48
   7  -2  -2   43.17    7.84
   7  -2  -1   10.91    3.64
   7  -2  -1    8.19    3.13
   7  -2   0  246.09   17.73
   7  -2   1  245.09   17.21
   7  -2   2  263.03   17.49
   7  -2   3  206.32   15.21
  -7   2  -4   51.46    9.60
   7  -2   4   35.98    5.94
   7  -2   5  126.86   11.33
  -7   2  -5  128.34   15.24
  -7   2  -6    2.93    2.16
   7  -2   6    0.75    0.90
  -7   2  -7    6.54    4.42
  -7   2  -8   66.61   12.99
  -7   2  -9   21.46    7.99
  -7   2 -10   55.08   13.36
   7  -1 -10   20.29    6.58
   7  -1  -9  141.85   17.82
   7  -1  -8   10.62    5.10
   7  -1  -7  106.10   14.47
   7  -1  -6  111.92   14.51
   7  -1  -5  434.92   27.58
   7  -1  -4   52.13    9.03
   7  -1  -3   65.24    9.86
   7  -1  -2   30.29    3.43
   7  -1  -2   27.56    5.45
   7  -1  -2   25.36    5.82
   7  -1  -1  138.92   13.53
   7  -1   0    3.21    2.12
   7  -1   1   15.16    4.12
   7  -1   2   11.37    3.35
   7  -1   3   63.82    8.32
   7  -1   4  202.46   14.50
  -7   1  -5  343.33   23.53
   7  -1   5  367.29   19.15
  -7   1  -6    7.83    3.99
   7  -1   6    9.40    2.88
  -7   1  -7   10.69    4.43
   7  -1   7   15.19    3.65
  -7   1  -8   19.48    7.02
  -7   1  -9   83.67   13.77
  -7   1 -10   -1.94    3.01
  -7   1 -11   25.54    8.31
   7   0 -10   90.32   14.95
   7   0  -9   15.13    6.67
   7   0  -8  121.35   16.27
   7   0  -7   57.38   10.68
   7   0  -6   19.23    6.14
   7   0  -5  198.31   18.53
   7   0  -4   40.67    8.26
   7   0  -3  960.05   38.64
   7   0  -2  358.91   11.28
   7   0  -2  385.09   23.58
   7   0  -2  363.05   15.93
   7   0  -1  312.10   12.57
   7   0  -1  310.29   20.75
   7   0   0  288.83   13.89
   7   0   0  284.69   19.39
   7   0   1    2.71    1.57
   7   0   2   34.84    6.45
   7   0   3   85.10    9.89
   7   0   4  379.43   20.52
   7   0   5  791.98   29.21
  -7   0  -6  458.57   26.48
   7   0   6  429.70   20.88
   7   0   7  392.57   19.39
  -7   0  -7  411.23   25.63
  -7   0  -8   61.77   10.37
   7   0   8   77.02    8.08
  -7   0  -9    4.90    3.30
  -7   0 -10   45.93    9.96
  -7   0 -11    5.43    4.37
   7   1 -10  278.25   26.47
   7   1  -9   87.23   14.19
   7   1  -8  128.34   16.54
   7   1  -7    7.43    3.80
   7   1  -6   91.22   13.11
   7   1  -5    2.35    1.46
   7   1  -4  257.62   20.49
   7   1  -3 1299.68   45.51
   7   1  -2  770.71   18.65
   7   1  -2  829.17   35.43
   7   1  -1  680.80   19.02
   7   1  -1  692.11   32.05
   7   1   0  261.15   12.92
   7   1   0  255.70   18.99
   7   1   1  106.20    8.81
   7   1   1  105.45   11.78
   7   1   2   23.08    4.52
   7   1   2   24.19    5.48
   7   1   3    7.46    2.80
   7   1   4  380.68   21.48
   7   1   5  744.39   29.61
   7   1   6  474.40   22.78
   7   1   7  455.76   21.79
  -7  -1  -8   15.34    4.64
   7   1   8   14.03    3.97
  -7  -1  -9  131.83   14.32
  -7  -1 -10    7.09    3.25
  -7  -1 -11    5.35    3.96
   7   2 -10  136.38   18.98
   7   2  -9  101.18   15.50
   7   2  -8  172.53   19.27
   7   2  -7    7.57    4.30
   7   2  -6   16.85    5.37
   7   2  -5   77.85   11.62
   7   2  -4   10.13    4.03
   7   2  -3  104.93   13.04
   7   2  -2   24.89    4.52
   7   2  -2   27.54    6.33
   7   2  -1  115.21    8.51
   7   2  -1  116.37   13.04
   7   2   0   16.98    3.50
   7   2   0   11.29    3.74
   7   2   1  373.87   16.92
   7   2   1  360.40   22.40
   7   2   2  114.95   10.03
   7   2   2  142.27   13.88
   7   2   3  108.32   10.36
   7   2   3  108.49   12.20
   7   2   4    9.73    3.05
   7   2   4    8.10    3.79
   7   2   5   26.58    5.48
   7   2   5   26.58    5.56
   7   2   6   57.40    8.84
   7   2   6   66.66    9.01
   7   2   7   -0.88    2.61
   7   2   8  289.15   18.34
  -7  -2  -9  668.72   30.44
   7   2   9  734.23   28.59
  -7  -2 -10  130.58   13.39
   7   3  -9   98.70   15.66
   7   3  -8  161.10   19.25
   7   3  -7   16.43    6.15
   7   3  -6  178.05   18.37
   7   3  -5   11.51    4.43
   7   3  -4   13.03    4.95
   7   3  -3   35.47    7.98
   7   3  -2    3.82    2.76
   7   3  -2    0.12    1.30
   7   3  -1   59.80    7.38
   7   3  -1   74.41   10.39
   7   3   0    8.41    2.50
   7   3   0    3.56    1.64
   7   3   1  550.47   21.72
   7   3   1  536.22   28.21
   7   3   2  251.66   15.21
   7   3   2  261.13   19.62
   7   3   3   39.90    6.29
   7   3   3   40.99    7.60
   7   3   4   20.98    4.66
   7   3   4   29.61    6.58
   7   3   5   66.16    9.61
   7   3   5   51.09    7.95
   7   3   6   58.90    8.65
   7   3   7   10.54    3.91
   7   3   8  134.39   14.51
   7   3   8  144.82   14.18
   7   3   9  570.51   31.79
   7   3   9  580.20   28.22
   7   3  10  126.42   15.66
   7   4  -8   -0.40    1.84
   7   4  -7  385.26   29.01
   7   4  -6  717.76   38.21
   7   4  -5  290.86   23.51
   7   4  -4  236.08   20.58
   7   4  -3   39.68    7.81
   7   4  -2   91.21   12.64
   7   4  -2   81.05   11.25
   7   4  -1    4.96    2.95
   7   4  -1    7.97    3.80
   7   4   0   58.14    7.76
   7   4   0   52.80    8.69
   7   4   1 1510.25   40.63
   7   4   1 1504.99   49.08
   7   4   2 1164.78   35.21
   7   4   3  718.40   28.21
   7   4   4  542.96   25.52
   7   4   5    6.37    3.93
   7   4   5    2.94    2.10
   7   4   6   31.56    6.60
   7   4   7   25.17    5.90
   7   4   8  104.29   13.05
   7   4   9  393.28   26.52
   7   4  10  338.00   25.42
   7   5  -8    5.39    2.48
   7   5  -7  191.60   21.37
   7   5  -6  341.02   27.30
   7   5  -5   92.32   13.58
   7   5  -4   89.04   13.26
   7   5  -3   15.85    5.16
   7   5  -2  289.99   22.31
   7   5  -1    5.79    3.30
   7   5  -1    6.49    2.80
   7   5   0   56.87    9.13
   7   5   0   55.58    9.65
   7   5   1  215.55   16.93
   7   5   2  159.25   14.01
   7   5   3   68.95    9.32
   7   5   4   12.74    4.16
   7   5   4   26.17    5.86
   7   5   5  340.94   21.62
   7   5   6  454.12   26.01
   7   5   7   24.90    6.48
   7   5   8   21.36    6.08
   7   5   9   51.67    8.99
   7   5  10    3.38    1.47
   7   6  -7    9.10    6.16
   7   6  -6   25.55    7.81
   7   6  -5    1.21    1.42
   7   6  -4   71.17   11.84
   7   6  -3    4.93    2.85
   7   6  -2  148.73   16.74
   7   6  -1   -0.85    5.17
   7   6  -1    3.49    2.19
   7   6   0  110.64   15.28
   7   6   1   16.12    5.73
   7   6   2  138.97   14.68
   7   6   3   77.98   10.67
   7   6   4   27.99    6.35
   7   6   5  410.26   24.89
   7   6   6  445.47   26.67
   7   6   7   14.08    5.12
   7   6   8   14.89    5.19
   7   6   9  112.33   14.92
   7   6  10  378.53   28.27
   7   7  -6    6.23    4.70
   7   7  -5    5.47    3.19
   7   7  -4    9.96    4.68
   7   7  -3  112.21   16.16
   7   7  -2  554.99   35.06
   7   7  -1  263.44   26.61
   7   7   0   88.78   15.39
   7   7   1   51.22   11.29
   7   7   2   44.78    9.20
   7   7   3   11.26    4.30
   7   7   4    5.93    3.62
   7   7   5  320.40   23.31
   7   7   6  554.82   31.38
   7   7   7  177.92   18.01
   7   7   8  137.82   16.65
   7   7   9    1.88    1.93
   7   7  10   67.36   11.60
   7   8  -4   52.38   11.83
   7   8  -4   49.31   11.28
   7   8  -3  186.49   21.90
   7   8  -3  210.69   23.50
   7   8  -2  740.79   41.90
   7   8  -1  294.97   24.62
   7   8   0  145.57   20.90
   7   8   1   17.06    6.85
   7   8   2  163.19   20.37
   7   8   3  143.32   18.08
   7   8   4   33.02    8.86
   7   8   5  266.81   23.21
   7   8   6  290.79   24.34
   7   8   7  117.99   15.77
   7   8   8   99.13   14.67
   7   8   9   23.76    7.05
   7   9  -3    1.39    4.11
   7   9  -2   11.95    6.02
   7   9  -1   14.61    5.55
   7   9   0    7.40    4.78
   7   9   0   12.07    7.17
   7   9   1   29.63   11.02
   7   9   2  251.51   28.05
   7   9   3   90.18   16.55
   7   9   4   16.33    6.66
   7   9   5   17.12    7.02
   7   9   6   89.79   14.50
   7   9   7  166.14   19.89
   7   9   8  102.67   16.17
   7  10   1    4.65    4.59
   7  10   2  216.88   28.62
   7  10   3   47.44   12.97
   7  10   4    5.05    3.70
   7  10   5   21.26    8.82
   7  10   6  116.74   17.77
   7  11   2  358.89   38.41
   7  11   3  212.80   29.92
   7  11   4   87.77   17.90
   8  -7  -1   31.73    8.44
   8  -7   0  116.81   15.99
   8  -7   1  223.10   21.64
   8  -6  -3    1.74    1.53
   8  -6  -2   34.02    8.72
   8  -6  -1   40.98    9.58
   8  -6   0   37.31    9.40
   8  -6   1   94.72   13.56
   8  -6   2  169.59   17.71
   8  -5  -4  121.15   16.41
   8  -5  -3    1.28    1.43
   8  -5  -2   38.63    8.87
   8  -5  -1   68.39   11.37
   8  -5   0    5.36    2.85
   8  -5   1   23.01    6.48
   8  -5   2   44.13    8.92
   8  -5   3   76.04   11.08
   8  -4  -5  245.74   23.06
   8  -4  -4    8.60    3.55
   8  -4  -3  227.06   20.80
   8  -4  -2  137.81   15.97
   8  -4  -1  140.93   15.67
   8  -4   0  108.21   13.38
   8  -4   1   42.04    8.46
   8  -4   2   20.48    6.12
   8  -4   3  172.45   16.13
   8  -4   4   47.79    8.59
   8  -3  -6   13.57    5.54
   8  -3  -5   45.60    9.81
   8  -3  -4   19.96    6.77
   8  -3  -3  553.25   32.34
   8  -3  -2  485.51   29.18
   8  -3  -1  545.57   29.98
   8  -3   0  446.27   26.55
   8  -3   1    5.19    2.92
   8  -3   2    8.83    3.74
   8  -3   3   22.15    5.34
   8  -3   4  104.52   11.95
  -8   3  -5  318.71   27.86
   8  -3   5  305.84   20.12
  -8   3  -6  312.98   28.51
   8  -2  -6   -2.68    2.91
   8  -2  -5  119.46   15.71
   8  -2  -4   29.24    7.44
   8  -2  -3   58.70   10.38
   8  -2  -2   65.23   10.68
   8  -2  -1  182.43   17.44
   8  -2   0  126.77   13.78
   8  -2   1   80.04   10.85
   8  -2   2   20.86    5.03
   8  -2   3   26.08    5.89
   8  -2   4    4.69    2.14
   8  -2   5    4.21    2.38
  -8   2  -6    5.41    4.34
  -8   2  -7   56.42   11.64
  -8   2  -8   36.97   10.25
   8  -1  -7   -0.77    1.92
   8  -1  -6   60.30   11.42
   8  -1  -5   16.72    5.59
   8  -1  -4    8.78    3.97
   8  -1  -3   37.23    8.23
   8  -1  -2    6.16    3.25
   8  -1  -1  196.53   17.74
   8  -1   0   81.89   11.14
   8  -1   1  179.05   16.06
   8  -1   2  186.08   15.97
   8  -1   3   24.18    5.66
   8  -1   4   53.71    8.07
   8  -1   5    7.91    2.97
   8  -1   6    7.85    3.43
  -8   1  -7   28.68    8.12
  -8   1  -8   20.67    6.68
  -8   1  -9  254.52   24.24
   8   0  -7  158.25   19.23
   8   0  -6  654.14   37.41
   8   0  -5  316.32   25.61
   8   0  -4  388.75   27.36
   8   0  -3  116.32   14.47
   8   0  -2    3.30    3.08
   8   0  -1   18.13    4.75
   8   0   0    1.36    1.56
   8   0   0    1.82    1.91
   8   0   1  739.88   26.29
   8   0   1  655.36   31.75
   8   0   2  892.17   36.32
   8   0   3  680.29   31.02
   8   0   4  623.26   29.03
   8   0   5   51.96    8.02
   8   0   6   -2.01    1.25
   8   0   7   61.08    8.27
  -8   0  -9  229.18   21.47
  -8   0 -10  195.81   20.47
   8   1  -7  108.25   15.76
   8   1  -6  421.75   30.13
   8   1  -5  223.36   21.34
   8   1  -4  305.41   24.21
   8   1  -3   37.36    7.98
   8   1  -2  132.23   15.26
   8   1  -1    2.95    1.99
   8   1   0    5.33    2.05
   8   1   0    5.18    3.23
   8   1   1  290.55   16.04
   8   1   1  296.55   22.03
   8   1   2  210.05   14.54
   8   1   2  224.05   18.88
   8   1   3  261.34   17.35
   8   1   3  280.36   20.69
   8   1   4  210.98   16.35
   8   1   4  225.10   18.14
   8   1   5   57.20    8.95
   8   1   6  215.95   17.19
   8   1   7    3.78    2.72
   8   1   8   27.65    5.75
  -8  -1 -10   22.54    6.92
   8   2  -7   -0.27    2.17
   8   2  -6   42.10    9.37
   8   2  -5   31.08    7.91
   8   2  -4  240.45   21.50
   8   2  -3   25.62    7.09
   8   2  -2  174.65   17.88
   8   2  -1    4.88    2.11
   8   2   0   56.63    6.66
   8   2   0   52.49    9.63
   8   2   1    8.46    2.48
   8   2   1    9.17    4.01
   8   2   2   52.26    7.18
   8   2   2   55.55    9.47
   8   2   3   12.06    4.00
   8   2   3   10.18    3.71
   8   2   4    6.22    2.87
   8   2   4    0.52    1.15
   8   2   5  260.43   18.92
   8   2   5  264.83   20.20
   8   2   6  415.75   25.08
   8   2   6  448.00   26.00
   8   2   7   52.57    8.69
   8   2   7   50.80    8.55
   8   2   8   15.50    4.89
   8   2   8   20.34    5.05
   8   2   9   57.88   10.29
   8   3  -6   15.48    5.78
   8   3  -5    1.45    2.96
   8   3  -4   85.67   13.00
   8   3  -3   23.07    6.61
   8   3  -2  548.35   32.08
   8   3  -1  295.66   22.89
   8   3   0  273.71   16.11
   8   3   0  270.09   21.61
   8   3   1  141.55   11.58
   8   3   1  153.76   16.49
   8   3   2    6.68    2.03
   8   3   2    6.70    3.98
   8   3   3   -0.27    1.44
   8   3   3    2.75    1.75
   8   3   4   33.77    6.38
   8   3   4   36.91    8.13
   8   3   5  222.22   17.60
   8   3   5  231.14   19.69
   8   3   6  616.30   30.81
   8   3   6  625.05   32.60
   8   3   7  328.75   23.26
   8   3   7  340.77   23.72
   8   3   8  167.90   17.16
   8   3   8  170.01   16.42
   8   3   9   83.00   12.60
   8   3   9   82.17   11.15
   8   4  -6    2.34    2.65
   8   4  -5   98.56   14.50
   8   4  -4    6.11    3.21
   8   4  -3  179.29   18.71
   8   4  -2  747.90   37.47
   8   4  -1  686.82   35.59
   8   4   0  408.65   22.52
   8   4   0  373.28   26.17
   8   4   1  254.68   17.26
   8   4   1  230.25   20.49
   8   4   2   68.41    8.73
   8   4   2   53.74    9.82
   8   4   3   68.46    9.08
   8   4   3   67.90   10.97
   8   4   4    4.88    2.93
   8   4   4    6.98    2.78
   8   4   5  278.74   20.08
   8   4   5  293.64   23.34
   8   4   6  471.42   27.28
   8   4   6  484.54   29.97
   8   4   7  252.03   20.64
   8   4   7  266.49   22.15
   8   4   8  437.28   28.46
   8   4   8  469.30   29.20
   8   4   9    1.52    2.13
   8   4   9    2.41    3.87
   8   5  -5   62.16   11.93
   8   5  -4   13.70    5.52
   8   5  -3    2.75    1.69
   8   5  -2   63.63   11.35
   8   5  -1    2.09    2.78
   8   5   0   33.28    7.74
   8   5   1    0.09    2.53
   8   5   1    4.68    3.48
   8   5   2  367.38   22.61
   8   5   2  338.68   25.54
   8   5   3  175.49   15.48
   8   5   4    9.42    3.30
   8   5   5    5.50    3.43
   8   5   6   16.98    5.36
   8   5   7   71.77   11.61
   8   5   8   12.68    3.80
   8   5   9  192.10   19.73
   8   6  -3   47.47   10.25
   8   6  -2    1.63    1.75
   8   6  -1   26.59    7.34
   8   6   0    6.71    4.17
   8   6   1    3.82    3.81
   8   6   1   -1.17    3.54
   8   6   2  361.27   24.73
   8   6   3  196.86   17.86
   8   6   4   14.05    5.67
   8   6   5   13.93    4.46
   8   6   6  114.96   14.31
   8   6   7  125.47   15.29
   8   6   8   10.00    4.03
   8   6   9   93.95   14.11
   8   7  -1   56.85   11.84
   8   7   0    9.03    3.27
   8   7   1   33.40    8.89
   8   7   2  513.95   33.50
   8   7   3  583.68   34.27
   8   7   4  378.52   26.76
   8   7   5  212.93   19.85
   8   7   6    5.41    4.30
   8   7   7   39.81    8.48
   8   7   8    8.93    3.66
   8   8   2  118.13   18.27
   8   8   3   61.76   12.24
   8   8   4    7.35    4.42
   8   8   5   16.63    7.00
   8   8   6  156.80   18.57
   8   8   7  269.67   24.73
   8   8   8   32.23    8.63
   8   9   3  138.42   20.56
   8   9   4   99.05   16.58
   8   9   5   52.42   13.33
   8   9   6  259.05   25.49
   8  10   3   27.17   10.11
   8  10   4   19.41    8.33
   8  10   5   13.05    5.31
   9  -5   0  130.56   16.40
   9  -5   1   30.91    8.39
   9  -5   2   31.57    7.56
   9  -4  -1   57.16   11.03
   9  -4   0   35.47    8.48
   9  -4   1  122.09   15.07
   9  -4   2  289.77   22.97
   9  -4   3  362.25   25.15
   9  -3  -2   17.20    6.15
   9  -3  -1   11.60    4.13
   9  -3   0   17.53    5.45
   9  -3   1   62.08   10.64
   9  -3   2  113.63   13.96
   9  -3   3  209.80   18.69
   9  -3   4  253.56   20.17
   9  -2  -3   74.28   12.67
   9  -2  -2   15.52    5.46
   9  -2  -1    5.25    4.50
   9  -2   0   37.80    8.30
   9  -2   1    2.24    1.96
   9  -2   2   18.29    5.51
   9  -2   3    4.64    3.24
   9  -2   4   64.34    9.89
   9  -2   5   28.18    6.05
   9  -1  -3   20.72    7.03
   9  -1  -2  261.01   23.06
   9  -1  -1  181.24   18.70
   9  -1   0  149.55   16.61
   9  -1   1  152.86   16.31
   9  -1   2    1.62    1.98
   9  -1   3   14.28    5.06
   9  -1   4   79.60   10.96
   9  -1   5   45.69    7.94
   9   0  -3   38.13    9.18
   9   0  -2  563.82   34.00
   9   0  -1  538.43   32.74
   9   0   0  625.43   34.69
   9   0   1  406.87   27.36
   9   0   2   -4.29    2.76
   9   0   2    0.05    1.86
   9   0   3   -1.54    2.31
   9   0   3   -4.19    3.44
   9   0   4    1.32    1.25
   9   0   5   57.29    9.29
   9   0   6  261.37   19.50
   9   1  -3    7.67    3.98
   9   1  -2   58.64   10.77
   9   1  -1   30.11    7.88
   9   1   0  127.50   15.61
   9   1   1   86.98   12.98
   9   1   2   96.74   10.59
   9   1   2  101.41   13.80
   9   1   3  149.51   13.92
   9   1   3  160.05   16.77
   9   1   4    7.34    2.00
   9   1   4    7.03    2.76
   9   1   5   24.46    6.37
   9   1   5   15.66    5.01
   9   1   6    9.47    3.79
   9   1   6    0.67    3.61
   9   1   7    6.16    3.30
   9   1   7    7.33    3.61
   9   2  -3   10.12    5.22
   9   2  -2   13.59    5.19
   9   2  -1    8.81    4.02
   9   2   0   39.09    9.09
   9   2   1   38.89    8.84
   9   2   2  198.09   15.14
   9   2   2  218.52   20.84
   9   2   3  171.50   14.63
   9   2   3  192.33   19.21
   9   2   4   41.01    7.98
   9   2   4   45.52    9.19
   9   2   5   31.76    6.86
   9   2   5   31.92    7.97
   9   2   6   27.37    6.82
   9   2   6   28.86    7.31
   9   2   7   61.47   10.18
   9   2   7   59.02   10.19
   9   2   8    3.35    1.36
   9   3  -2  116.31   15.75
   9   3  -1    9.72    5.49
   9   3   0   -3.88    3.33
   9   3   1   15.29    5.76
   9   3   2  475.44   31.21
   9   3   3  640.41   29.45
   9   3   3  657.41   36.48
   9   3   4  501.77   27.11
   9   3   4  533.33   32.75
   9   3   5  467.35   27.37
   9   3   5  476.19   30.94
   9   3   6   33.70    6.96
   9   3   6   27.61    7.30
   9   3   7    4.73    3.37
   9   3   7    9.57    3.84
   9   3   8   25.00    7.05
   9   3   8   19.32    5.52
   9   4  -1  187.63   19.91
   9   4   0    6.43    3.79
   9   4   1   38.34    8.86
   9   4   2  148.70   17.70
   9   4   3  162.38   14.98
   9   4   3  171.96   19.08
   9   4   4  148.23   14.91
   9   4   4  137.96   16.95
   9   4   5  156.52   15.89
   9   4   5  155.59   17.90
   9   4   6   34.94    8.15
   9   4   6   35.46    8.65
   9   4   7  194.83   19.33
   9   4   7  202.72   20.51
   9   4   8   27.77    7.46
   9   4   8   30.41    7.22
   9   4   9   17.92    5.84
   9   5   0   31.22    8.30
   9   5   1   18.15    6.26
   9   5   2    6.23    1.85
   9   5   3   84.10   11.54
   9   5   3   79.87   13.22
   9   5   4   53.81    9.33
   9   5   4   48.42   10.26
   9   5   5    5.06    2.70
   9   5   5    8.52    3.91
   9   5   6  234.57   20.76
   9   5   6  219.45   21.96
   9   5   7  401.16   28.53
   9   5   7  380.61   29.20
   9   5   8   85.22   13.86
   9   5   8   70.40   11.93
   9   5   9    6.89    3.30
   9   6   4   25.67    7.15
   9   6   4   16.26    6.10
   9   6   5    4.71    3.71
   9   6   5   -0.20    2.95
   9   6   6   92.64   13.56
   9   6   7  306.33   25.24
   9   7   4   68.60   12.16
   9   7   5    9.86    5.21
   9   7   6  101.31   14.30
   9   7   7  213.81   21.84
   9   8   5    5.00    3.38
   9   8   6    3.40    2.16
  10  -2   3   74.39   11.95
  10  -1   3  292.67   23.57
  10  -1   4  312.99   24.01
  10   0   3   89.55   13.64
  10   0   4  176.92   18.43
  10   0   5  248.23   21.23
  10   1   3   19.49    5.83
  10   1   4    4.80    1.90
  10   1   5   13.31    4.38
  10   1   6   45.68    9.39
  10   1   6   50.75    9.41
  10   2   4    4.26    3.21
  10   2   5   21.22    7.03
  10   2   6   31.03    7.57
  10   2   6   35.17    8.98
  10   3   6   67.36   11.42
  10   4   6   16.29    6.02
   0   0   0    0.00    0.00


TITL AU91 in P-1
REM P-1 (#2 in standard setting)
CELL 0.71073   7.674868  10.038895  11.477775  71.8094  84.8373  83.2901
ZERR   12.00   0.000288   0.000392   0.000496   0.0037   0.0033   0.0031
LATT  1
SFAC C H N I Bi
UNIT 12.00 12.00 12.00 12.00 12.00
TREF
HKLF 4
END
_computing_structure_solution     'SHELXT 2014/5 (Sheldrick, 2014)'
;
_shelx_hkl_checksum              78476
loop_
_space_group_symop_operation_xyz
'x, y, z'
'-x, -y, -z'
loop_
_atom_site_label
_atom_site_type_symbol
_atom_site_fract_x
_atom_site_fract_y
_atom_site_fract_z
_atom_site_U_iso_or_equiv
_atom_site_adp_type
_atom_site_occupancy
_atom_site_site_symmetry_order
_atom_site_calc_flag
_atom_site_refinement_flags_posn
_atom_site_refinement_flags_adp
C1 C 0.4046(13) 1.3454(11) 0.1366(10) 0.034(3) Uani 1 1 d . .
H1A H 0.3864 1.3444 0.2224 0.051 Uiso 1 1 calc R U
H1B H 0.5304 1.3452 0.1124 0.051 Uiso 1 1 calc R U
H1C H 0.3414 1.4303 0.0840 0.051 Uiso 1 1 calc R U
C2 C 0.2693(11) 1.1224(10) 0.2237(8) 0.021(2) Uani 1 1 d . .
H2A H 0.2645 1.1380 0.3014 0.025 Uiso 1 1 calc R U
C3 C 0.3484(10) 1.1979(9) 0.0135(8) 0.0185(19) Uani 1 1 d . .
H3A H 0.3982 1.2653 -0.0555 0.022 Uiso 1 1 calc R U
C4 C 0.2078(11) 1.0041(10) 0.2157(8) 0.0203(19) Uani 1 1 d . .
H4A H 0.1580 0.9396 0.2868 0.024 Uiso 1 1 calc R U
C5 C 0.2887(10) 1.0795(9) -0.0024(8) 0.0145(17) Uani 1 1 d . .
C6 C 0.2183(10) 0.9779(9) 0.1017(8) 0.0175(19) Uani 1 1 d . .
C7 C 0.1576(11) 0.8563(10) 0.0860(9) 0.023(2) Uani 1 1 d . .
H7A H 0.1087 0.7875 0.1543 0.028 Uiso 1 1 calc R U
C8 C 0.1699(11) 0.8393(11) -0.0275(10) 0.030(3) Uani 1 1 d . .
H8A H 0.1311 0.7573 -0.0375 0.036 Uiso 1 1 calc R U
C9 C 0.2389(11) 0.9405(11) -0.1300(9) 0.027(2) Uani 1 1 d . .
H9A H 0.2444 0.9257 -0.2081 0.033 Uiso 1 1 calc R U
C10 C 0.2988(11) 1.0603(11) -0.1208(8) 0.022(2) Uani 1 1 d . .
H10A H 0.3454 1.1280 -0.1910 0.026 Uiso 1 1 calc R U
N1 N 0.3380(9) 1.2196(8) 0.1228(7) 0.0184(16) Uani 1 1 d . .
I1 I 0.43100(7) 0.59797(6) 0.31297(5) 0.01637(14) Uani 1 1 d . .
I2 I 0.92069(7) 0.47638(6) 0.17018(5) 0.01981(14) Uani 1 1 d . .
I3 I 0.65437(8) 0.15239(6) 0.44416(5) 0.02106(15) Uani 1 1 d . .
I4 I 1.11074(7) 0.27873(6) 0.54563(5) 0.01843(14) Uani 1 1 d . .
Bi1 Bi 0.77322(4) 0.42212(3) 0.42594(3) 0.01312(10) Uani 1 1 d . .
loop_
_atom_site_aniso_label
_atom_site_aniso_U_11
_atom_site_aniso_U_22
_atom_site_aniso_U_33
_atom_site_aniso_U_23
_atom_site_aniso_U_13
_atom_site_aniso_U_12
C1 0.034(6) 0.027(6) 0.046(7) -0.014(6) -0.012(5) -0.005(4)
C2 0.016(4) 0.033(6) 0.014(4) -0.008(4) 0.004(3) -0.007(4)
C3 0.010(4) 0.017(5) 0.023(5) 0.002(4) 0.002(3) -0.004(3)
C4 0.020(4) 0.018(5) 0.021(5) 0.000(4) -0.007(4) -0.005(4)
C5 0.008(4) 0.017(5) 0.016(4) -0.003(4) -0.003(3) 0.004(3)
C6 0.014(4) 0.016(5) 0.024(5) -0.009(4) -0.008(3) 0.003(3)
C7 0.016(4) 0.025(6) 0.027(5) -0.007(5) -0.003(4) 0.001(4)
C8 0.010(4) 0.030(6) 0.060(7) -0.029(6) -0.011(4) 0.005(4)
C9 0.020(5) 0.040(7) 0.026(5) -0.018(5) -0.012(4) 0.009(4)
C10 0.020(4) 0.031(6) 0.013(4) -0.005(4) -0.005(3) 0.004(4)
N1 0.017(4) 0.019(4) 0.019(4) -0.005(4) -0.006(3) 0.002(3)
I1 0.0151(3) 0.0209(3) 0.0112(3) -0.0027(2) -0.0007(2) -0.0004(2)
I2 0.0202(3) 0.0244(3) 0.0136(3) -0.0049(3) 0.0034(2) -0.0030(2)
I3 0.0291(3) 0.0175(3) 0.0181(3) -0.0047(3) -0.0035(2) -0.0088(2)
I4 0.0148(3) 0.0159(3) 0.0238(3) -0.0035(3) -0.0055(2) -0.0020(2)
Bi1 0.01258(16) 0.01518(19) 0.01164(18) -0.00350(14) -0.00064(12) -0.00316(12)
loop_
_atom_type_symbol
_atom_type_description
_atom_type_scat_dispersion_real
_atom_type_scat_dispersion_imag
_atom_type_scat_source
C C 0.0033 0.0016 'International Tables Vol C Tables 4.2.6.8 and 6.1.1.4'
H H 0.0000 0.0000 'International Tables Vol C Tables 4.2.6.8 and 6.1.1.4'
N N 0.0061 0.0033 'International Tables Vol C Tables 4.2.6.8 and 6.1.1.4'
I I -0.4742 1.8119 'International Tables Vol C Tables 4.2.6.8 and 6.1.1.4'
Bi Bi -4.1077 10.2566 'International Tables Vol C Tables 4.2.6.8 and 6.1.1.4'
loop_
_geom_angle_atom_site_label_1
_geom_angle_atom_site_label_2
_geom_angle_atom_site_label_3
_geom_angle
_geom_angle_site_symmetry_1
_geom_angle_site_symmetry_3
N1 C1 H1A 109.5 . .
N1 C1 H1B 109.5 . .
H1A C1 H1B 109.5 . .
N1 C1 H1C 109.5 . .
H1A C1 H1C 109.5 . .
H1B C1 H1C 109.5 . .
C4 C2 N1 121.9(8) . .
C4 C2 H2A 119.1 . .
N1 C2 H2A 119.1 . .
N1 C3 C5 121.9(8) . .
N1 C3 H3A 119.0 . .
C5 C3 H3A 119.0 . .
C2 C4 C6 119.6(8) . .
C2 C4 H4A 120.2 . .
C6 C4 H4A 120.2 . .
C3 C5 C6 118.6(8) . .
C3 C5 C10 120.7(8) . .
C6 C5 C10 120.7(8) . .
C4 C6 C5 118.1(8) . .
C4 C6 C7 123.0(9) . .
C5 C6 C7 118.9(8) . .
C8 C7 C6 119.5(9) . .
C8 C7 H7A 120.2 . .
C6 C7 H7A 120.2 . .
C7 C8 C9 121.3(9) . .
C7 C8 H8A 119.4 . .
C9 C8 H8A 119.4 . .
C10 C9 C8 121.9(9) . .
C10 C9 H9A 119.0 . .
C8 C9 H9A 119.0 . .
C9 C10 C5 117.7(9) . .
C9 C10 H10A 121.1 . .
C5 C10 H10A 121.1 . .
C3 N1 C2 119.8(8) . .
C3 N1 C1 120.4(8) . .
C2 N1 C1 119.8(8) . .
Bi1 I1 Bi1 94.684(16) . 2_666
Bi1 I4 Bi1 92.930(16) . 2_766
I3 Bi1 I2 95.076(19) . .
I3 Bi1 I4 91.065(18) . .
I2 Bi1 I4 95.771(17) . .
I3 Bi1 I1 94.708(18) . .
I2 Bi1 I1 86.377(17) . .
I4 Bi1 I1 173.645(18) . .
I3 Bi1 I1 88.167(18) . 2_666
I2 Bi1 I1 171.305(18) . 2_666
I4 Bi1 I1 92.226(16) . 2_666
I1 Bi1 I1 85.316(16) . 2_666
I3 Bi1 I4 170.483(19) . 2_766
I2 Bi1 I4 94.397(18) . 2_766
I4 Bi1 I4 87.070(16) . 2_766
I1 Bi1 I4 86.802(16) . 2_766
I1 Bi1 I4 82.585(17) 2_666 2_766
loop_
_geom_bond_atom_site_label_1
_geom_bond_atom_site_label_2
_geom_bond_distance
_geom_bond_site_symmetry_2
C1 N1 1.474(11) .
C1 H1A 0.9800 .
C1 H1B 0.9800 .
C1 H1C 0.9800 .
C2 C4 1.359(12) .
C2 N1 1.370(11) .
C2 H2A 0.9500 .
C3 N1 1.332(11) .
C3 C5 1.392(12) .
C3 H3A 0.9500 .
C4 C6 1.408(12) .
C4 H4A 0.9500 .
C5 C6 1.418(12) .
C5 C10 1.425(12) .
C6 C7 1.423(12) .
C7 C8 1.359(13) .
C7 H7A 0.9500 .
C8 C9 1.401(15) .
C8 H8A 0.9500 .
C9 C10 1.373(13) .
C9 H9A 0.9500 .
C10 H10A 0.9500 .
I1 Bi1 3.1299(6) .
I1 Bi1 3.2138(6) 2_666
I2 Bi1 2.9569(6) .
I3 Bi1 2.8977(7) .
I4 Bi1 3.0339(6) .
I4 Bi1 3.3478(7) 2_766
Bi1 I1 3.2138(6) 2_666
Bi1 I4 3.3479(7) 2_766
