#------------------------------------------------------------------------------
#$Date: 2019-11-24 11:23:51 +0200 (Sun, 24 Nov 2019) $
#$Revision: 237787 $
#$URL: file:///home/coder/svn-repositories/cod/cif/7/23/75/7237580.cif $
#------------------------------------------------------------------------------
#
# This file is available in the Crystallography Open Database (COD),
# http://www.crystallography.net/
#
# All data on this site have been placed in the public domain by the
# contributors.
#
data_7237580
loop_
_publ_author_name
'Wechwithayakhlung, Chayanit'
'Packwood, Daniel M.'
'Chaopaknam, Jidapa'
'Worakajit, Pimpisut'
'Ittisanronnachai, Somlak'
'Chanlek, Narong'
'Promarak, Vinich'
'Kongpatpanich, Kanokwan'
'Harding, David J.'
'Pattanasattayavong, Pichaya'
_publ_section_title
;
 Tin(ii) thiocyanate Sn(NCS)2 -- a wide band gap coordination polymer
 semiconductor with a 2D structure
;
_journal_issue                   12
_journal_name_full               'Journal of Materials Chemistry C'
_journal_page_first              3452
_journal_paper_doi               10.1039/C8TC06150E
_journal_volume                  7
_journal_year                    2019
_chemical_formula_moiety         'C2 N2 S2 Sn'
_chemical_formula_sum            'C2 N2 S2 Sn'
_chemical_formula_weight         234.85
_chemical_name_systematic        Sn(NCS)2
_space_group_crystal_system      triclinic
_space_group_IT_number           2
_space_group_name_Hall           '-P 1'
_space_group_name_H-M_alt        'P -1'
_atom_sites_solution_primary     dual
_audit_creation_date             2018-06-16
_audit_creation_method
;
Olex2 1.2
(compiled 2018.05.29 svn.r3508 for OlexSys, GUI svn.r5506)
;
_audit_update_record
;
2018-11-12 deposited with the CCDC.
2019-02-08 downloaded from the CCDC.
;
_cell_angle_alpha                100.369(2)
_cell_angle_beta                 97.316(2)
_cell_angle_gamma                93.225(2)
_cell_formula_units_Z            2
_cell_length_a                   4.8792(4)
_cell_length_b                   5.6694(4)
_cell_length_c                   10.1845(8)
_cell_measurement_reflns_used    9831
_cell_measurement_temperature    143.(2)
_cell_measurement_theta_max      30.622
_cell_measurement_theta_min      3.666
_cell_volume                     273.96(4)
_computing_cell_refinement       'SAINT v8.37A (Bruker, 2015)'
_computing_data_collection       'Bruker Instrument Service vV6.2.4'
_computing_data_reduction        'SAINT v8.37A (Bruker, 2015)'
_computing_molecular_graphics    'Olex2 (Dolomanov et al., 2009)'
_computing_publication_material  'Olex2 (Dolomanov et al., 2009)'
_computing_structure_refinement  'ShelXL (Sheldrick, 2015)'
_computing_structure_solution    'ShelXT (Sheldrick, 2015)'
_diffrn_ambient_temperature      143.(2)
_diffrn_detector                 'Bruker APEX2 area detector'
_diffrn_detector_area_resol_mean 7.9
_diffrn_detector_type            'CCD area detector'
_diffrn_measured_fraction_theta_full 0.999
_diffrn_measured_fraction_theta_max 0.999
_diffrn_measurement_device       'three-circle diffractometer'
_diffrn_measurement_device_type  'Bruker APEX-II CCD'
_diffrn_measurement_method       '\f and \w scans'
_diffrn_radiation_monochromator  'mirror optics'
_diffrn_radiation_probe          x-ray
_diffrn_radiation_type           MoK\a
_diffrn_radiation_wavelength     0.71073
_diffrn_reflns_av_R_equivalents  0.0236
_diffrn_reflns_av_unetI/netI     0.0091
_diffrn_reflns_Laue_measured_fraction_full 0.999
_diffrn_reflns_Laue_measured_fraction_max 0.999
_diffrn_reflns_limit_h_max       6
_diffrn_reflns_limit_h_min       -6
_diffrn_reflns_limit_k_max       8
_diffrn_reflns_limit_k_min       -8
_diffrn_reflns_limit_l_max       14
_diffrn_reflns_limit_l_min       -14
_diffrn_reflns_number            26218
_diffrn_reflns_point_group_measured_fraction_full 0.999
_diffrn_reflns_point_group_measured_fraction_max 0.999
_diffrn_reflns_theta_full        25.242
_diffrn_reflns_theta_max         30.633
_diffrn_reflns_theta_min         3.666
_diffrn_source                   'microfocus sealed X-ray tube'
_diffrn_source_type              'Incoatec I\ms'
_diffrn_standards_number         0
_exptl_absorpt_coefficient_mu    5.283
_exptl_absorpt_correction_T_max  0.2657
_exptl_absorpt_correction_T_min  0.2147
_exptl_absorpt_correction_type   multi-scan
_exptl_absorpt_process_details
;
SADABS-2016/2 - Bruker AXS area detector scaling and absorption correction
;
_exptl_crystal_colour            colourless
_exptl_crystal_colour_primary    colourless
_exptl_crystal_density_diffrn    2.847
_exptl_crystal_density_meas      ?
_exptl_crystal_density_method    'not measured'
_exptl_crystal_description       block
_exptl_crystal_F_000             216
_exptl_crystal_size_max          0.4
_exptl_crystal_size_mid          0.4
_exptl_crystal_size_min          0.36
_refine_diff_density_max         1.312
_refine_diff_density_min         -0.301
_refine_diff_density_rms         0.115
_refine_ls_extinction_coef       0.0099(14)
_refine_ls_extinction_expression Fc^*^=kFc[1+0.001xFc^2^\l^3^/sin(2\q)]^-1/4^
_refine_ls_extinction_method     'SHELXL-2014/7 (Sheldrick 2014'
_refine_ls_goodness_of_fit_ref   1.141
_refine_ls_hydrogen_treatment    undef
_refine_ls_matrix_type           full
_refine_ls_number_parameters     65
_refine_ls_number_reflns         1672
_refine_ls_number_restraints     0
_refine_ls_restrained_S_all      1.141
_refine_ls_R_factor_all          0.0152
_refine_ls_R_factor_gt           0.0143
_refine_ls_shift/su_max          0.000
_refine_ls_shift/su_mean         0.000
_refine_ls_structure_factor_coef Fsqd
_refine_ls_weighting_details
'w=1/[\s^2^(Fo^2^)+(0.0252P)^2^+0.1621P] where P=(Fo^2^+2Fc^2^)/3'
_refine_ls_weighting_scheme      calc
_refine_ls_wR_factor_gt          0.0396
_refine_ls_wR_factor_ref         0.0400
_reflns_Friedel_coverage         0.000
_reflns_number_gt                1626
_reflns_number_total             1672
_reflns_threshold_expression     'I > 2\s(I)'
_cod_data_source_file            c8tc06150e2.cif
_cod_data_source_block           Sn(NCS)2
_cod_depositor_comments
;
The following automatic conversions were performed:

data item '_exptl_absorpt_correction_type' value 'Multi-Scan' was
changed to 'multi-scan' in accordance with the
/home/saulius/struct/COD-crude-data/automatic-downloads/DataCite-retrospective/RSC/depositions/lib/dictionaries/cif_core.dic
dictionary named 'cif_core.dic' version 2.4.2 last updated on
2011-04-26.

data item '_exptl_crystal_density_meas' value 'not measured' was
changed to '?' -- the value is perceived as not measured.

Automatic conversion script
Id: cif_fix_values 6909 2019-04-08 15:41:33Z antanas 
;
_cod_database_code               7237580
_shelx_shelxl_version_number     2014/7
_shelx_space_group_comment
;
The symmetry employed for this shelxl refinement is uniquely defined
by the following loop, which should always be used as a source of
symmetry information in preference to the above space-group names.
They are only intended as comments.
;
_shelx_estimated_absorpt_t_max   0.252
_shelx_estimated_absorpt_t_min   0.226
_olex2_refinement_description
;
;
_shelx_res_file
;
    ppcyn_a.res created by SHELXL-2014/7

TITL PPCYN_a.res in P-1
REM Old TITL PPCYN in P-1
REM SHELXT solution in P-1
REM R1 0.039, Rweak 0.010, Alpha 0.028, Orientation as input
REM Formula found by SHELXT: C N3 S2 Sn
CELL 0.71073 4.8792 5.6694 10.1845 100.369 97.316 93.225
ZERR 2 0.0004 0.0004 0.0008 0.002 0.002 0.002
LATT 1
SFAC C N S Sn
UNIT 4 4 4 2

L.S. 10
PLAN  5
SIZE 0.4 0.4 0.36
TEMP 24.85
LIST 4
fmap 2
acta
REM <olex2.extras>
REM <HklSrc "%.\\PPCYN_a.hkl">
REM </olex2.extras>

WGHT    0.025200    0.162100
EXTI    0.009916
FVAR       0.80556
SN1   4    0.678381    0.182637    0.243644    11.00000    0.01524    0.01247 =
         0.01539    0.00420    0.00491    0.00290
S1    3    0.237409    0.861448    0.095923    11.00000    0.01828    0.00994 =
         0.01567    0.00371    0.00117    0.00357
S2    3    0.120902    0.283201    0.625176    11.00000    0.01849    0.01723 =
         0.01631    0.00038    0.00754   -0.00247
N1    2    0.362666    0.409295    0.150433    11.00000    0.02236    0.01385 =
         0.02132    0.00495   -0.00033    0.00231
N2    2    0.420809    0.222868    0.407145    11.00000    0.02214    0.01596 =
         0.01781    0.00180    0.00629   -0.00039
C1    1    0.316134    0.598049    0.128389    11.00000    0.01418    0.01207 =
         0.01235    0.00112    0.00242    0.00064
C2    1    0.300306    0.249441    0.499370    11.00000    0.01488    0.01117 =
         0.01418    0.00228    0.00031   -0.00111
HKLF 4

REM  PPCYN_a.res in P-1
REM R1 =  0.0143 for    1626 Fo > 4sig(Fo)  and  0.0152 for all    1672 data
REM     65 parameters refined using      0 restraints

END

WGHT      0.0252      0.1621

REM Highest difference peak  1.312,  deepest hole -0.301,  1-sigma level  0.115
Q1    1   0.6788  0.0038  0.2400  11.00000  0.05    1.31
Q2    1   0.6772 -0.1449  0.2422  11.00000  0.05    1.27
Q3    1   0.3180  0.4492  0.7585  11.00000  0.05    1.20
Q4    1   0.6764  0.3636  0.2406  11.00000  0.05    1.20
Q5    1   0.3272  0.3057  0.7591  11.00000  0.05    1.17
;
_shelx_res_checksum              32535
_shelx_hkl_file
;
  -1   0   0 1240.78   32.00
  -1   0   0 1115.49   31.50
  -1   0   0 1223.18   31.90
  -1   0   0 1207.68   32.10
  -1   0   0 1244.28   32.00
  -1   0   0 1211.98   31.90
  -1   0   0 1241.18   31.90
  -1   0   0 1177.88   32.30
  -1   0   0 1224.28   32.10
  -1   0   0 1293.27   32.20
  -1   0   0 1076.99   31.80
  -1   0   0 1241.58   31.70
  -1   0   0 1260.17   32.10
   1   0   0 1266.57   31.80
   1   0   0 1219.48   31.90
   1   0   0 1206.18   32.20
   1   0   0 1237.68   32.10
   1   0   0 1223.38   32.00
   1   0   0 1192.38   31.80
   1   0   0 1227.28   31.80
   1   0   0 1266.67   32.30
   1   0   0 1231.18   32.00
   1   0   0 1249.07   32.00
   1   0   0 1236.08   31.90
   1   0   0 1206.08   31.90
   1   0   0 1152.48   31.90
   1   0   0 1204.08   31.60
  -2   0   0 3581.84   93.39
  -2   0   0 3545.85   91.79
  -2   0   0 3742.03   92.59
  -2   0   0 3566.34   93.09
  -2   0   0 3576.14   92.79
  -2   0   0 3542.35   92.89
  -2   0   0 3677.53   92.69
  -2   0   0 3485.95   92.49
  -2   0   0 3583.44   92.99
  -2   0   0 3230.48   92.29
  -2   0   0 3520.25   92.69
  -2   0   0 3318.87   92.29
  -2   0   0 3571.34   92.59
  -2   0   0 3624.04   91.99
   2   0   0 3600.34   92.59
   2   0   0 3545.15   92.59
   2   0   0 3730.03   92.89
   2   0   0 3637.34   92.79
   2   0   0 3599.84   92.29
   2   0   0 3547.85   92.39
   2   0   0 3514.45   92.59
   2   0   0 3679.13   92.59
   2   0   0 3478.95   92.29
   2   0   0 3525.85   92.09
   2   0   0 3573.04   93.09
   2   0   0 3576.64   92.49
   2   0   0 3493.55   91.79
   2   0   0 3681.03   93.09
  -3   0   0 2256.87   60.99
  -3   0   0 2223.28   61.19
  -3   0   0 2250.57   60.89
  -3   0   0 2249.18   60.29
  -3   0   0 2196.08   60.69
  -3   0   0 2260.07   59.29
  -3   0   0 2191.18   61.49
  -3   0   0 2194.28   60.69
  -3   0   0 2276.47   60.29
  -3   0   0 2223.28   58.79
  -3   0   0 2247.38   60.69
  -3   0   0 2329.67   60.39
   3   0   0 2209.98   57.69
   3   0   0 2253.27   59.59
   3   0   0 2268.37   60.29
   3   0   0 2261.07   59.49
   3   0   0 2268.67   60.69
   3   0   0 2206.88   60.19
   3   0   0 2297.77   61.09
   3   0   0 2194.78   59.79
   3   0   0 2249.68   58.99
   3   0   0 2248.88   59.89
   3   0   0 2201.78   60.19
   3   0   0 2301.67   59.89
  -4   0   0  159.08    8.50
  -4   0   0  170.68    9.70
  -4   0   0  153.18    6.40
  -4   0   0  151.78    7.70
  -4   0   0  164.18    8.60
  -4   0   0  170.18    9.30
  -4   0   0  156.58    8.40
  -4   0   0  145.49    8.80
  -4   0   0  167.88    8.90
  -4   0   0  158.28    8.60
   4   0   0  159.58    8.00
   4   0   0  167.08    8.00
   4   0   0  153.08    7.90
   4   0   0  162.28    6.70
   4   0   0  159.38    5.80
   4   0   0  168.38    7.90
   4   0   0  157.58    8.90
   4   0   0  165.48    7.60
   4   0   0  168.08    8.40
   4   0   0  163.18    7.20
  -5   0   0  815.62   27.10
  -5   0   0  774.12   26.00
  -5   0   0  795.52   26.90
  -5   0   0  753.62   26.80
  -5   0   0  811.52   28.30
  -5   0   0  785.12   26.70
  -5   0   0  822.42   26.90
  -5   0   0  808.42   23.80
   5   0   0  798.22   27.00
   5   0   0  824.92   25.80
   5   0   0  808.52   25.40
   5   0   0  800.42   25.10
   5   0   0  802.22   25.90
   5   0   0  738.73   23.40
   5   0   0  835.42   26.20
   5   0   0  778.92   24.10
   5   0   0  772.12   25.30
  -6   0   0  284.07   16.70
  -6   0   0  240.48   14.40
  -6   0   0  238.88   14.20
  -6   0   0  222.48   13.70
  -6   0   0  238.08   13.80
  -6   0   0  225.18   13.80
  -6   0   0  240.78   14.20
   6   0   0  259.47   13.30
   6   0   0  265.97   13.60
   6   0   0  218.28   12.70
   6   0   0  242.98   10.90
   6   0   0  234.18   10.30
   6   0   0  258.27   12.80
   6   0   0  237.58   14.20
   6   0   0  238.48   12.30
   6  -1   0   17.10    4.00
   6  -1   0   17.20    5.30
   6  -1   0   13.10    5.90
   6  -1   0   19.30    6.00
   6  -1   0   29.70    5.90
   6  -1   0   27.40    4.80
   6  -1   0   23.20    5.20
   6  -1   0   23.40    5.60
   6  -1   0   22.40    5.10
  -6   1   0   29.10    7.00
  -6   1   0   19.60    6.50
  -6   1   0   21.60    7.00
  -6   1   0   25.90    5.40
  -6   1   0    9.80    6.40
  -6   1   0   16.50    6.10
  -6   1   0   16.20    7.70
  -6   1   0   16.40    6.00
  -6   1   0   16.60    5.70
   5  -1   0    6.70    2.60
   5  -1   0    4.30    3.00
   5  -1   0   15.40    4.60
   5  -1   0    5.00    2.80
   5  -1   0   -1.80    2.50
   5  -1   0    4.30    4.00
   5  -1   0    7.50    3.10
   5  -1   0    5.30    3.80
   5  -1   0   10.20    3.40
  -5   1   0   -0.40    4.00
  -5   1   0   10.50    3.80
  -5   1   0    4.90    3.80
  -5   1   0   14.70    5.50
  -5   1   0    8.70    4.20
  -5   1   0    6.20    4.10
  -5   1   0    6.10    3.80
  -5   1   0   12.40    4.50
  -5   1   0    9.00    3.70
   4  -1   0  610.44   18.20
   4  -1   0  592.54   19.30
   4  -1   0  597.84   19.00
   4  -1   0  594.04   19.40
   4  -1   0  599.94   18.90
   4  -1   0  599.44   18.80
   4  -1   0  581.94   19.50
   4  -1   0  573.94   17.20
   4  -1   0  587.34   17.20
   4  -1   0  593.74   19.20
  -4   1   0  571.54   19.90
  -4   1   0  606.24   18.90
  -4   1   0  565.84   18.40
  -4   1   0  590.84   20.90
  -4   1   0  587.64   21.40
  -4   1   0  582.34   19.90
  -4   1   0  563.44   20.30
  -4   1   0  607.44   20.30
  -4   1   0  601.74   20.40
   3  -1   0 1966.00   53.49
   3  -1   0 2039.40   53.59
   3  -1   0 2001.00   52.89
   3  -1   0 1953.70   53.39
   3  -1   0 2003.10   51.49
   3  -1   0 1924.91   53.59
   3  -1   0 1994.00   54.09
   3  -1   0 1929.91   53.49
   3  -1   0 1930.21   53.49
  -3   1   0 2018.60   53.39
  -3   1   0 2040.10   53.99
  -3   1   0 1976.10   53.29
  -3   1   0 1982.50   54.19
  -3   1   0 2078.99   53.39
  -3   1   0 1918.31   54.49
  -3   1   0 1944.41   54.39
  -3   1   0 2025.90   55.19
  -3   1   0 1977.80   53.49
  -3   1   0 1914.41   53.89
  -3   1   0 1969.70   55.39
  -3   1   0 1997.50   54.49
   2  -1   0  607.24   18.10
   2  -1   0  587.74   17.00
   2  -1   0  610.64   17.80
   2  -1   0  598.34   17.40
   2  -1   0  614.94   17.90
   2  -1   0  588.24   17.60
   2  -1   0  615.54   17.50
   2  -1   0  607.74   17.30
   2  -1   0  546.55   16.50
   2  -1   0  589.24   17.40
   2  -1   0  575.14   17.40
   2  -1   0  586.44   17.70
   2  -1   0  593.14   18.40
   2  -1   0  602.04   16.40
   2  -1   0  604.04   17.30
  -2   1   0  595.94   18.10
  -2   1   0  607.04   17.80
  -2   1   0  611.54   17.60
  -2   1   0  611.54   17.20
  -2   1   0  585.94   17.80
  -2   1   0  618.44   17.60
  -2   1   0  604.64   18.60
  -2   1   0  583.54   18.00
  -2   1   0  612.54   17.70
  -2   1   0  596.74   17.50
  -2   1   0  601.04   17.00
  -2   1   0  608.54   18.10
  -2   1   0  598.54   17.70
  -2   1   0  588.54   18.50
  -2   1   0  624.44   17.70
  -2   1   0  613.04   17.50
   1  -1   0 2892.11   75.49
   1  -1   0 2933.81   75.69
   1  -1   0 2900.61   74.49
   1  -1   0 2921.31   75.29
   1  -1   0 2930.51   75.19
   1  -1   0 2848.22   75.19
   1  -1   0 2828.02   75.09
   1  -1   0 2898.21   75.89
   1  -1   0 3023.20   75.49
   1  -1   0 3003.30   74.99
   1  -1   0 2946.11   75.29
   1  -1   0 2946.41   74.99
   1  -1   0 2856.51   75.49
   1  -1   0 2935.41   74.89
   1  -1   0 2872.51   74.79
   1  -1   0 2901.41   75.29
  -1   1   0 3009.40   75.29
  -1   1   0 2857.41   75.99
  -1   1   0 3005.10   75.19
  -1   1   0 2626.54   75.49
  -1   1   0 3051.19   75.19
  -1   1   0 2902.91   75.69
  -1   1   0 2930.41   75.19
  -1   1   0 2922.31   75.29
  -1   1   0 2890.31   75.19
  -1   1   0 2762.82   74.79
  -1   1   0 2956.60   74.79
  -1   1   0 2842.72   75.39
  -1   1   0 2760.62   75.49
  -1   1   0 2958.30   75.39
   0  -1   0  721.13   18.70
   0  -1   0  696.03   18.70
   0  -1   0  743.23   18.40
   0  -1   0  716.13   18.30
   0  -1   0  699.63   18.70
   0  -1   0  713.73   18.90
   0  -1   0  698.43   18.80
   0  -1   0  702.33   19.00
   0  -1   0  666.43   19.10
   0  -1   0  680.33   18.40
   0  -1   0  722.53   18.90
   0  -1   0  710.93   18.20
   0  -1   0  660.13   18.20
   0  -1   0  680.63   18.60
   0  -1   0  720.73   18.90
   0  -1   0  629.44   18.10
   0  -1   0  705.33   19.00
   0  -1   0  732.43   18.30
   0  -1   0  682.43   18.70
   0  -1   0  714.23   18.10
   0  -1   0  686.33   18.20
   0   1   0  677.93   18.30
   0   1   0  710.93   18.40
   0   1   0  693.63   19.00
   0   1   0  672.73   18.80
   0   1   0  689.83   18.60
   0   1   0  722.43   18.10
   0   1   0  702.93   18.00
   0   1   0  720.73   19.00
   0   1   0  700.43   18.90
   0   1   0  695.93   18.80
   0   1   0  710.93   18.80
   0   1   0  692.03   19.10
   0   1   0  701.23   18.20
   0   1   0  701.73   18.80
  -1  -1   0 1362.46   36.70
  -1  -1   0 1489.25   38.00
  -1  -1   0 1411.36   36.40
  -1  -1   0 1430.56   36.90
  -1  -1   0 1455.95   37.00
  -1  -1   0 1340.07   36.50
  -1  -1   0 1470.45   37.10
  -1  -1   0 1369.76   37.00
  -1  -1   0 1431.46   37.30
  -1  -1   0 1385.66   37.30
  -1  -1   0 1446.96   36.60
  -1  -1   0 1471.15   37.30
  -1  -1   0 1439.86   37.50
  -1  -1   0 1376.16   36.70
  -1  -1   0 1335.47   36.60
  -1  -1   0 1451.55   37.20
  -1  -1   0 1372.06   36.60
  -1  -1   0 1413.96   36.50
  -1  -1   0 1413.56   36.60
   1   1   0 1436.06   37.10
   1   1   0 1412.26   37.40
   1   1   0 1347.47   37.30
   1   1   0 1393.36   37.40
   1   1   0 1455.95   37.20
   1   1   0 1359.16   36.50
   1   1   0 1388.06   37.00
   1   1   0 1449.65   36.60
   1   1   0 1426.26   37.40
   1   1   0 1412.06   37.30
  -2  -1   0 4051.49  103.89
  -2  -1   0 3997.00  103.59
  -2  -1   0 4097.89  104.39
  -2  -1   0 4074.59  104.49
  -2  -1   0 3936.61  103.39
  -2  -1   0 3931.71  104.49
  -2  -1   0 4116.99  105.49
  -2  -1   0 3968.10  104.19
  -2  -1   0 3924.51  104.19
  -2  -1   0 4028.10  104.49
  -2  -1   0 3971.60  103.59
  -2  -1   0 4113.89  103.59
  -2  -1   0 4136.99  103.99
  -2  -1   0 4043.60  104.79
  -2  -1   0 4103.89  104.09
  -2  -1   0 4129.29  104.39
   2   1   0 3940.51  103.99
   2   1   0 4160.28  103.59
   2   1   0 3949.20  104.59
   2   1   0 4165.98  103.69
   2   1   0 3963.10  103.69
   2   1   0 3940.01  104.49
   2   1   0 4001.80  103.39
   2   1   0 4036.10  103.19
   2   1   0 4071.79  103.49
   2   1   0 4020.90  105.69
   2   1   0 3960.30  104.49
   2   1   0 4018.10  103.79
   2   1   0 3993.20  104.19
   2   1   0 3926.51  104.69
   2   1   0 3891.11  103.39
  -3  -1   0  335.77   11.60
  -3  -1   0  328.87   11.40
  -3  -1   0  322.07   10.20
  -3  -1   0  327.17   11.80
  -3  -1   0  333.07   11.80
  -3  -1   0  336.77   10.90
  -3  -1   0  316.17   12.10
  -3  -1   0  327.17   10.30
  -3  -1   0  324.57   12.60
  -3  -1   0  343.07   11.30
   3   1   0  334.87   11.50
   3   1   0  339.27    9.80
   3   1   0  332.47   11.90
   3   1   0  316.77   11.80
   3   1   0  340.27   10.50
   3   1   0  328.57   11.00
   3   1   0  313.77   10.40
   3   1   0  327.87   10.20
   3   1   0  338.37   13.10
   3   1   0  330.57   10.60
   3   1   0  326.77   10.30
   3   1   0  316.27   11.00
   3   1   0  324.67   11.60
  -4  -1   0 1226.08   36.40
  -4  -1   0 1259.47   38.20
  -4  -1   0 1289.47   35.10
  -4  -1   0 1305.17   36.30
  -4  -1   0 1314.27   34.70
  -4  -1   0 1260.27   36.80
  -4  -1   0 1296.07   37.40
  -4  -1   0 1278.47   37.20
  -4  -1   0 1255.57   38.20
  -4  -1   0 1266.97   37.20
  -4  -1   0 1265.77   36.80
   4   1   0 1285.47   35.30
   4   1   0 1192.58   35.80
   4   1   0 1287.47   37.00
   4   1   0 1308.07   35.00
   4   1   0 1325.77   37.40
   4   1   0 1284.27   36.10
   4   1   0 1288.17   38.80
   4   1   0 1269.67   34.70
   4   1   0 1263.97   36.70
   4   1   0 1274.67   35.20
   4   1   0 1220.78   36.90
  -5  -1   0  123.49    8.60
  -5  -1   0  139.39    9.10
  -5  -1   0  131.59    9.70
  -5  -1   0  128.09    8.30
  -5  -1   0  140.09   10.50
  -5  -1   0  119.79    8.80
  -5  -1   0  132.69    9.10
   5   1   0  119.09    9.70
   5   1   0  121.39    8.00
   5   1   0  127.29    6.40
   5   1   0  126.99    6.50
   5   1   0  141.69    8.60
   5   1   0  132.19    8.60
   5   1   0  125.39    8.60
   5   1   0  121.19    8.20
   5   1   0  123.59    7.70
  -6  -1   0    0.20    4.80
  -6  -1   0   13.70    5.90
  -6  -1   0    5.80    5.20
  -6  -1   0    6.30    5.30
  -6  -1   0    9.80    5.40
  -6  -1   0    1.00    5.30
  -6  -1   0    6.50    6.60
   6   1   0   10.90    4.90
   6   1   0    2.80    5.10
   6   1   0    8.90    3.70
   6   1   0   14.40    5.40
   6   1   0    5.20    4.50
   6   1   0    6.90    6.00
   6   1   0   17.80    5.90
   6  -2   0   34.60    5.70
   6  -2   0   40.90    6.50
   6  -2   0   41.60    6.70
   6  -2   0   36.30    4.80
   6  -2   0   25.70    6.40
   6  -2   0   24.70    6.00
   6  -2   0   28.50    6.00
   6  -2   0   33.90    5.90
   6  -2   0   31.80    5.80
  -6   2   0   31.40    6.40
  -6   2   0   23.50    7.30
  -6   2   0   35.40    8.80
  -6   2   0   35.50    6.50
  -6   2   0   18.20    7.20
  -6   2   0   30.00    8.20
  -6   2   0   27.70    7.00
  -6   2   0   47.90    8.90
  -6   2   0   39.30    6.90
   5  -2   0  838.62   26.70
   5  -2   0  889.61   26.30
   5  -2   0  810.72   26.20
   5  -2   0  795.42   27.00
   5  -2   0  855.61   26.60
   5  -2   0  813.62   25.70
   5  -2   0  786.82   26.10
   5  -2   0  803.72   25.00
  -5   2   0  825.52   28.80
  -5   2   0  821.12   28.00
  -5   2   0  836.92   29.20
  -5   2   0  818.02   28.20
  -5   2   0  834.82   26.20
  -5   2   0  812.42   26.50
  -5   2   0  814.22   28.50
  -5   2   0  781.02   26.60
  -5   2   0  812.02   29.80
   4  -2   0  144.29    7.30
   4  -2   0  132.99    8.30
   4  -2   0  142.29    7.30
   4  -2   0  140.99    7.50
   4  -2   0  130.09    7.40
   4  -2   0  143.09    6.40
   4  -2   0  144.49    7.60
   4  -2   0  128.39    8.30
   4  -2   0  137.39    7.50
   4  -2   0  149.69    7.60
  -4   2   0  144.59    9.50
  -4   2   0  133.89    9.10
  -4   2   0  141.29    8.20
  -4   2   0  148.39    8.60
  -4   2   0  137.59    8.30
  -4   2   0  140.39    9.60
  -4   2   0  150.28    9.10
  -4   2   0  153.08    8.00
  -4   2   0  134.29    8.90
   3  -2   0   65.59    4.50
   3  -2   0   68.19    4.80
   3  -2   0   70.19    4.90
   3  -2   0   74.69    5.40
   3  -2   0   65.19    4.20
   3  -2   0   68.69    4.80
   3  -2   0   71.29    5.50
   3  -2   0   64.89    4.90
   3  -2   0   65.89    4.60
  -3   2   0   72.19    6.50
  -3   2   0   67.09    5.40
  -3   2   0   66.49    5.50
  -3   2   0   67.09    5.90
  -3   2   0   59.09    6.00
  -3   2   0   76.19    4.90
  -3   2   0   68.99    5.40
  -3   2   0   51.19    5.80
  -3   2   0   66.89    5.80
   2  -2   0 2174.18   60.99
   2  -2   0 2305.87   58.59
   2  -2   0 2226.58   60.09
   2  -2   0 2215.98   59.99
   2  -2   0 2300.87   59.79
   2  -2   0 2200.48   60.59
   2  -2   0 2236.38   59.49
   2  -2   0 2285.37   60.79
   2  -2   0 2255.57   60.39
   2  -2   0 2202.28   60.29
   2  -2   0 2274.37   60.29
   2  -2   0 2215.08   60.29
   2  -2   0 2232.08   59.59
   2  -2   0 2291.47   60.59
  -2   2   0 2226.48   61.39
  -2   2   0 2232.78   60.99
  -2   2   0 2337.97   60.09
  -2   2   0 2252.27   60.29
  -2   2   0 2250.37   60.49
  -2   2   0 2274.97   61.79
  -2   2   0 2254.67   59.09
  -2   2   0 2202.98   61.09
  -2   2   0 2262.57   60.79
  -2   2   0 2249.07   59.19
  -2   2   0 2290.67   60.09
  -2   2   0 2268.27   60.89
  -2   2   0 2291.77   59.49
  -2   2   0 2304.87   60.39
   1  -2   0 2625.14   67.89
   1  -2   0 2529.05   66.49
   1  -2   0 2570.54   66.79
   1  -2   0 2493.15   67.29
   1  -2   0 2514.05   66.49
   1  -2   0 2637.04   67.69
   1  -2   0 2638.74   66.79
   1  -2   0 2540.15   67.69
   1  -2   0 2474.55   66.69
   1  -2   0 2547.95   66.39
   1  -2   0 2508.15   65.79
   1  -2   0 2636.04   66.19
   1  -2   0 2515.15   67.09
   1  -2   0 2486.55   66.69
   1  -2   0 2525.35   67.09
   1  -2   0 2709.63   66.69
  -1   2   0 2538.75   66.99
  -1   2   0 2619.14   66.49
  -1   2   0 2515.05   65.89
  -1   2   0 2574.34   67.89
  -1   2   0 2524.25   66.79
  -1   2   0 2548.95   66.29
  -1   2   0 2440.56   66.19
  -1   2   0 2537.45   65.69
  -1   2   0 2525.85   67.89
  -1   2   0 2545.35   67.59
  -1   2   0 2545.75   67.79
  -1   2   0 2597.94   66.59
  -1   2   0 2246.38   66.49
  -1   2   0 2559.64   66.69
  -1   2   0 2539.45   66.49
  -1   2   0 2547.45   66.79
   0  -2   0 4635.14  118.59
   0  -2   0 4624.94  117.09
   0  -2   0 4565.44  118.29
   0  -2   0 4618.54  118.09
   0  -2   0 4619.74  118.99
   0  -2   0 4723.03  118.09
   0  -2   0 4664.73  116.99
   0  -2   0 4584.64  116.89
   0  -2   0 4643.04  117.39
   0  -2   0 4467.65  118.29
   0  -2   0 4749.52  117.29
   0  -2   0 4594.94  118.49
   0  -2   0 4592.84  118.09
   0  -2   0 4682.33  117.19
   0  -2   0 4520.65  117.09
   0  -2   0 4648.23  118.59
   0  -2   0 4611.34  118.29
   0  -2   0 4369.56  118.39
   0  -2   0 4240.68  117.89
   0  -2   0 4575.44  117.39
   0  -2   0 4726.13  118.09
   0   2   0 4529.35  118.79
   0   2   0 4496.55  118.79
   0   2   0 4431.76  118.29
   0   2   0 4471.35  117.29
   0   2   0 4595.54  118.59
   0   2   0 4526.55  118.39
   0   2   0 4567.94  116.89
   0   2   0 4503.15  118.39
   0   2   0 4591.44  117.89
  -1  -2   0 4574.04  119.09
  -1  -2   0 4678.83  118.89
  -1  -2   0 4530.65  118.49
  -1  -2   0 4429.06  119.19
  -1  -2   0 4677.73  118.19
  -1  -2   0 4340.67  118.89
  -1  -2   0 4628.84  119.09
  -1  -2   0 4534.75  118.69
  -1  -2   0 4471.55  118.89
  -1  -2   0 4542.75  118.89
  -1  -2   0 4667.93  118.99
  -1  -2   0 4721.53  119.09
  -1  -2   0 4756.02  119.49
  -1  -2   0 4579.74  119.89
  -1  -2   0 4759.72  119.09
   1   2   0 4682.43  119.69
   1   2   0 4625.74  119.19
   1   2   0 4679.63  118.69
   1   2   0 4535.75  119.09
   1   2   0 4590.44  119.39
   1   2   0 4571.44  118.99
   1   2   0 4693.93  119.39
   1   2   0 4560.94  118.29
   1   2   0 4730.13  119.39
   1   2   0 4529.35  119.99
   1   2   0 4576.64  119.29
   1   2   0 4552.04  118.99
  -2  -2   0    1.80    2.20
  -2  -2   0    0.30    1.50
  -2  -2   0   -0.10    2.10
  -2  -2   0    2.10    1.90
  -2  -2   0    0.70    1.00
  -2  -2   0    0.20    1.30
  -2  -2   0   -0.40    1.00
  -2  -2   0    0.50    1.10
  -2  -2   0    1.80    2.40
  -2  -2   0   -0.90    1.60
  -2  -2   0    0.60    1.40
  -2  -2   0    2.60    1.30
  -2  -2   0    0.60    1.20
  -2  -2   0   -0.70    1.50
  -2  -2   0   -1.10    1.90
  -2  -2   0    2.00    1.80
  -2  -2   0    1.80    1.40
  -2  -2   0   -0.50    1.70
  -2  -2   0    1.60    1.50
  -2  -2   0   -1.90    1.50
   2   2   0    1.20    1.50
   2   2   0   -0.40    1.80
   2   2   0    1.10    1.50
   2   2   0    1.60    1.40
   2   2   0   -1.00    1.00
   2   2   0    1.60    1.30
   2   2   0   -1.00    1.70
   2   2   0   -0.20    1.60
   2   2   0    3.70    1.80
   2   2   0    2.30    1.70
  -3  -2   0 1034.50   28.50
  -3  -2   0 1046.30   28.30
  -3  -2   0 1045.80   29.30
  -3  -2   0 1035.60   29.80
  -3  -2   0 1009.80   30.90
  -3  -2   0 1036.10   28.70
  -3  -2   0  978.90   28.10
  -3  -2   0 1011.70   29.20
  -3  -2   0 1034.10   28.90
  -3  -2   0 1042.00   29.80
  -3  -2   0 1022.60   28.80
   3   2   0 1096.49   30.60
   3   2   0 1043.00   30.40
   3   2   0 1018.40   28.50
   3   2   0 1036.20   31.90
   3   2   0  975.20   28.10
   3   2   0 1025.20   30.20
   3   2   0 1054.89   29.20
  -4  -2   0 1006.40   29.10
  -4  -2   0  959.60   27.90
  -4  -2   0  934.81   28.10
  -4  -2   0  987.80   28.80
  -4  -2   0  960.70   27.50
  -4  -2   0  970.30   30.40
  -4  -2   0  974.40   31.20
  -4  -2   0 1010.20   28.20
  -4  -2   0 1032.60   29.40
  -4  -2   0  991.30   29.30
  -4  -2   0  996.50   29.80
   4   2   0 1017.60   30.10
   4   2   0  982.00   30.30
   4   2   0  969.50   27.90
   4   2   0  927.51   27.00
   4   2   0  994.60   28.20
   4   2   0 1020.50   30.30
   4   2   0  893.21   27.60
   4   2   0  987.40   26.70
   4   2   0  994.00   30.00
   4   2   0  981.30   32.10
  -5  -2   0  100.99    9.80
  -5  -2   0  111.39    7.70
  -5  -2   0   92.09    8.60
  -5  -2   0   92.39    8.90
  -5  -2   0   99.19    7.90
  -5  -2   0   90.69    7.50
  -5  -2   0   87.69    8.00
   5   2   0   82.89    7.40
   5   2   0   93.89    9.70
   5   2   0   85.09    8.00
   5   2   0   98.59    8.30
   5   2   0  103.19    8.00
   5   2   0   86.99    7.90
   5   2   0   91.89    6.80
  -6  -2   0  177.68   13.40
  -6  -2   0  188.78   12.90
  -6  -2   0  171.18   11.60
  -6  -2   0  169.68   14.90
  -6  -2   0  159.38   11.60
  -6  -2   0  160.28   11.80
  -6  -2   0  203.58   12.00
   6   2   0  171.18   12.40
   6   2   0  165.38   11.80
   6   2   0  166.48   14.80
   6   2   0  178.18   12.10
   6   2   0  175.88   12.00
   6  -3   0  110.09    9.80
   6  -3   0  111.69    9.50
   6  -3   0  116.89    8.70
   6  -3   0  129.39   12.10
   6  -3   0  113.49    9.90
   6  -3   0  114.69   11.70
   6  -3   0  105.99    9.80
   6  -3   0  105.19    9.80
   6  -3   0  106.49   10.30
  -6   3   0  101.99   11.30
  -6   3   0  116.69   12.70
  -6   3   0  101.99   10.20
  -6   3   0  116.99   13.90
  -6   3   0  104.69   12.50
  -6   3   0  128.79   14.50
  -6   3   0  114.69   11.90
  -6   3   0  128.99   18.00
  -6   3   0  108.89   10.60
   5  -3   0   44.70    5.60
   5  -3   0   42.90    6.40
   5  -3   0   42.10    5.80
   5  -3   0   50.39    6.50
   5  -3   0   62.69    6.80
   5  -3   0   47.80    5.70
   5  -3   0   44.20    6.10
   5  -3   0   48.30    6.20
  -5   3   0   58.09    7.10
  -5   3   0   47.40    7.80
  -5   3   0   49.10    7.20
  -5   3   0   49.00    6.50
  -5   3   0   40.00    8.20
  -5   3   0   49.60    8.00
  -5   3   0   43.50    6.40
  -5   3   0   51.89    6.80
   4  -3   0   16.60    3.60
   4  -3   0   25.20    4.70
   4  -3   0   14.10    3.50
   4  -3   0   17.80    3.70
   4  -3   0   19.80    3.60
   4  -3   0   21.40    3.80
   4  -3   0   18.10    3.20
  -4   3   0   18.10    4.70
  -4   3   0   17.40    5.10
  -4   3   0   18.70    4.70
  -4   3   0   23.50    4.60
  -4   3   0   10.20    4.20
  -4   3   0   15.40    4.80
  -4   3   0   19.70    4.70
  -4   3   0   18.60    4.10
  -4   3   0   15.30    5.20
   3  -3   0 1594.44   45.80
   3  -3   0 1615.74   45.40
   3  -3   0 1626.74   45.70
   3  -3   0 1561.44   44.60
   3  -3   0 1620.64   42.60
   3  -3   0 1644.24   45.30
   3  -3   0 1574.94   45.40
   3  -3   0 1554.14   45.60
  -3   3   0 1627.94   43.70
  -3   3   0 1619.24   46.20
  -3   3   0 1626.34   47.70
  -3   3   0 1671.33   46.60
  -3   3   0 1695.73   45.90
  -3   3   0 1568.14   47.30
  -3   3   0 1612.94   49.20
  -3   3   0 1627.04   47.10
  -3   3   0 1566.94   46.30
  -3   3   0 1640.14   46.80
   2  -3   0  369.46   13.00
   2  -3   0  370.56   12.50
   2  -3   0  376.56   13.10
   2  -3   0  373.06   13.30
   2  -3   0  340.47   12.80
   2  -3   0  381.66   10.90
   2  -3   0  387.16   13.70
   2  -3   0  390.26   13.70
   2  -3   0  383.06   11.80
   2  -3   0  394.96   13.30
   2  -3   0  381.96   12.90
  -2   3   0  370.56   14.80
  -2   3   0  381.26   12.00
  -2   3   0  387.26   15.30
  -2   3   0  388.16   14.30
  -2   3   0  379.66   13.50
  -2   3   0  374.46   14.40
  -2   3   0  386.06   13.00
  -2   3   0  384.96   13.00
  -2   3   0  403.76   13.10
  -2   3   0  375.06   13.80
  -2   3   0  380.06   10.80
  -2   3   0  388.46   13.40
   1  -3   0  455.65   13.90
   1  -3   0  460.55   14.20
   1  -3   0  450.95   15.30
   1  -3   0  455.35   14.90
   1  -3   0  465.35   14.20
   1  -3   0  447.56   15.10
   1  -3   0  477.65   13.50
   1  -3   0  449.56   13.60
   1  -3   0  444.56   13.90
   1  -3   0  430.36   14.80
   1  -3   0  463.05   13.30
   1  -3   0  456.75   14.10
   1  -3   0  453.35   14.50
  -1   3   0  447.76   15.50
  -1   3   0  454.85   13.00
  -1   3   0  458.25   14.20
  -1   3   0  468.65   14.70
  -1   3   0  430.56   15.60
  -1   3   0  474.25   13.90
  -1   3   0  464.05   15.60
  -1   3   0  459.65   15.40
  -1   3   0  461.35   14.10
  -1   3   0  443.86   13.80
  -1   3   0  472.65   14.40
  -1   3   0  460.05   14.90
  -1   3   0  470.15   13.60
  -1   3   0  464.35   15.00
  -1   3   0  463.55   15.80
  -1   3   0  462.85   13.50
   0  -3   0 3057.19   82.29
   0  -3   0 3059.49   79.89
   0  -3   0 3090.09   81.29
   0  -3   0 3032.90   79.99
   0  -3   0 3081.59   79.49
   0  -3   0 3002.80   80.79
   0  -3   0 3123.29   79.19
   0  -3   0 2942.71   81.69
   0  -3   0 3153.58   79.89
   0  -3   0 3061.69   81.19
   0  -3   0 3003.10   81.59
   0  -3   0 3077.79   79.49
   0  -3   0 3083.09   79.49
   0  -3   0 3100.69   80.99
   0  -3   0 2954.90   81.19
   0  -3   0 3047.40   80.89
   0  -3   0 3198.68   80.99
   0  -3   0 3168.58   81.79
   0  -3   0 3152.88   79.59
   0  -3   0 3149.39   79.59
   0  -3   0 3131.99   80.99
   0  -3   0 3005.40   79.99
   0  -3   0 3140.59   81.59
   0   3   0 2968.50   79.79
   0   3   0 3057.19   82.29
   0   3   0 3071.69   81.39
   0   3   0 3182.98   79.09
   0   3   0 2987.00   81.39
   0   3   0 3086.59   80.49
   0   3   0 3034.80   81.59
   0   3   0 3117.39   81.79
   0   3   0 3056.69   82.19
   0   3   0 3078.89   81.29
  -1  -3   0 1119.49   31.20
  -1  -3   0 1113.19   32.00
  -1  -3   0 1086.89   30.70
  -1  -3   0 1086.99   29.40
  -1  -3   0 1088.09   30.40
  -1  -3   0 1078.99   31.90
  -1  -3   0 1113.19   30.70
  -1  -3   0 1151.28   31.60
  -1  -3   0 1105.49   30.60
  -1  -3   0 1118.19   30.60
  -1  -3   0 1103.99   30.70
   1   3   0 1090.79   30.20
   1   3   0 1058.99   31.20
   1   3   0 1113.09   30.00
   1   3   0 1088.29   31.50
   1   3   0 1085.39   30.70
   1   3   0 1098.19   32.10
   1   3   0 1087.19   30.60
   1   3   0 1091.59   30.80
   1   3   0 1092.49   31.20
   1   3   0 1107.59   31.60
   1   3   0 1107.39   32.00
   1   3   0 1074.79   31.30
   1   3   0 1100.79   31.70
  -2  -3   0 2651.03   68.79
  -2  -3   0 2703.03   71.69
  -2  -3   0 2677.93   69.19
  -2  -3   0 2760.12   68.89
  -2  -3   0 2631.54   70.09
  -2  -3   0 2698.03   71.09
  -2  -3   0 2611.64   70.39
  -2  -3   0 2613.64   69.19
  -2  -3   0 2730.13   70.19
  -2  -3   0 2597.64   68.99
  -2  -3   0 2508.35   71.49
  -2  -3   0 2684.83   68.69
  -2  -3   0 2679.13   69.39
   2   3   0 2699.53   71.19
   2   3   0 2627.94   70.99
   2   3   0 2646.04   71.69
   2   3   0 2652.03   72.19
   2   3   0 2749.32   73.49
   2   3   0 2756.02   71.89
   2   3   0 2648.33   72.09
   2   3   0 2602.04   69.89
   2   3   0 2682.83   71.59
  -3  -3   0  976.10   28.40
  -3  -3   0  921.91   29.20
  -3  -3   0  963.60   28.30
  -3  -3   0 1027.00   31.20
  -3  -3   0  989.60   28.10
  -3  -3   0 1025.80   28.30
  -3  -3   0 1074.99   28.00
  -3  -3   0  997.30   27.70
  -3  -3   0 1059.99   28.70
  -3  -3   0 1030.20   30.00
  -3  -3   0 1032.10   29.30
  -3  -3   0 1023.50   28.10
   3   3   0 1023.10   30.70
   3   3   0 1031.30   31.00
   3   3   0 1060.99   30.10
   3   3   0 1006.70   29.30
   3   3   0 1023.60   31.00
   3   3   0 1017.90   30.60
   3   3   0 1020.90   32.60
  -4  -3   0  141.59    9.40
  -4  -3   0  140.69    6.90
  -4  -3   0  129.79    8.60
  -4  -3   0  135.59    7.70
  -4  -3   0  148.39    9.00
  -4  -3   0  138.59    8.30
  -4  -3   0  143.99    7.60
  -4  -3   0  147.09    8.20
  -4  -3   0  149.79    9.50
  -4  -3   0  143.99    7.30
   4   3   0  149.88    9.00
   4   3   0  148.19    8.80
   4   3   0  155.28    9.20
   4   3   0  146.99    8.80
   4   3   0  133.29    7.40
   4   3   0  148.59    8.00
   4   3   0  145.29    6.40
   4   3   0  146.69   10.80
  -5  -3   0  258.27   12.10
  -5  -3   0  240.78   14.30
  -5  -3   0  262.37   12.00
  -5  -3   0  253.47   11.70
  -5  -3   0  261.47   14.50
  -5  -3   0  270.17   13.00
  -5  -3   0  246.28   11.40
   5   3   0  272.87   11.60
   5   3   0  276.77   16.30
   5   3   0  247.68   10.10
   5   3   0  265.97   13.50
   5   3   0  274.97   13.80
   5   3   0  269.97   13.60
   5   3   0  269.07   14.00
  -6  -3   0  226.78   17.40
  -6  -3   0  230.48   14.60
  -6  -3   0  183.78   12.70
  -6  -3   0  182.18   15.10
  -6  -3   0  227.18   12.30
   6   3   0  213.08   14.40
   6   3   0  229.68   14.50
   6   3   0  231.58   17.70
   6   3   0  196.38   14.60
   6   3   0  207.58   13.80
   6  -4   0  122.09   10.20
   6  -4   0  136.49   11.10
   6  -4   0  125.39   12.80
   6  -4   0  132.19   13.00
   6  -4   0  136.69   11.00
   6  -4   0  144.79   11.60
   6  -4   0  117.29   11.20
   6  -4   0  138.39   11.50
  -6   4   0  107.29   13.70
  -6   4   0  123.19   12.50
  -6   4   0  133.79   11.70
  -6   4   0  145.39   15.00
  -6   4   0  122.99   14.70
  -6   4   0  113.09   15.80
  -6   4   0  122.79   13.10
  -6   4   0  140.79   16.30
  -6   4   0  112.79   15.10
   5  -4   0  351.86   15.60
   5  -4   0  372.76   16.90
   5  -4   0  364.46   16.10
   5  -4   0  349.57   15.40
   5  -4   0  353.26   15.60
   5  -4   0  351.26   15.10
   5  -4   0  352.56   15.30
  -5   4   0  352.46   17.80
  -5   4   0  348.47   14.10
  -5   4   0  358.26   17.10
  -5   4   0  346.17   16.90
  -5   4   0  415.06   20.10
  -5   4   0  322.57   21.50
  -5   4   0  361.76   16.80
  -5   4   0  355.56   17.60
  -5   4   0  370.36   19.50
   4  -4   0  425.46   15.80
   4  -4   0  436.86   16.50
   4  -4   0  428.56   16.40
   4  -4   0  391.16   16.30
   4  -4   0  436.76   16.70
   4  -4   0  447.56   17.30
  -4   4   0  451.05   17.20
  -4   4   0  451.25   19.70
  -4   4   0  409.46   18.00
  -4   4   0  423.46   14.50
  -4   4   0  422.86   20.70
  -4   4   0  463.45   18.30
  -4   4   0  409.36   17.70
  -4   4   0  433.36   17.90
  -4   4   0  401.76   18.40
   3  -4   0  259.37   11.20
   3  -4   0  253.27   11.30
   3  -4   0  249.68   11.20
   3  -4   0  249.18   10.90
   3  -4   0  242.48   11.50
   3  -4   0  268.27   13.50
  -3   4   0  267.97   12.70
  -3   4   0  255.77   12.10
  -3   4   0  242.58    8.30
  -3   4   0  268.17   10.70
  -3   4   0  264.97   13.60
  -3   4   0  256.27    9.40
  -3   4   0  264.57   11.50
  -3   4   0  270.17   14.40
  -3   4   0  255.97   12.70
  -3   4   0  262.77   12.70
  -3   4   0  262.47   12.60
   2  -4   0   43.60    4.70
   2  -4   0   46.10    4.50
   2  -4   0   38.40    5.40
   2  -4   0   38.60    5.00
   2  -4   0   46.80    4.60
   2  -4   0   44.40    3.40
   2  -4   0   37.30    4.40
   2  -4   0   41.50    3.70
   2  -4   0   40.80    4.40
   2  -4   0   47.20    6.20
  -2   4   0   44.90    5.00
  -2   4   0   46.40    5.80
  -2   4   0   44.70    4.90
  -2   4   0   43.50    6.00
  -2   4   0   48.80    5.50
  -2   4   0   44.50    6.20
  -2   4   0   38.30    3.20
  -2   4   0   39.50    4.90
  -2   4   0   41.50    4.90
  -2   4   0   39.40    4.80
  -2   4   0   41.60    5.20
  -2   4   0   37.20    5.30
  -2   4   0   43.90    5.30
  -2   4   0   40.70    5.80
   1  -4   0 2750.72   72.69
   1  -4   0 2824.02   73.29
   1  -4   0 2813.82   73.69
   1  -4   0 2826.52   73.69
   1  -4   0 2747.23   73.59
   1  -4   0 2809.72   73.49
   1  -4   0 2675.73   72.79
   1  -4   0 2759.72   75.39
   1  -4   0 2482.95   74.19
   1  -4   0 2785.02   73.59
  -1   4   0 2772.82   72.19
  -1   4   0 2804.82   72.69
  -1   4   0 2741.53   75.79
  -1   4   0 2725.53   76.49
  -1   4   0 2755.62   75.19
  -1   4   0 2823.32   76.29
  -1   4   0 2777.22   75.19
  -1   4   0 2757.82   72.19
  -1   4   0 2753.52   76.09
  -1   4   0 2785.52   72.99
  -1   4   0 2868.31   72.79
  -1   4   0 2957.20   75.59
  -1   4   0 2889.31   73.79
   0  -4   0   61.69    5.00
   0  -4   0   60.39    3.90
   0  -4   0   64.79    4.90
   0  -4   0   54.99    3.10
   0  -4   0   65.79    4.30
   0  -4   0   61.49    3.80
   0  -4   0   63.19    5.00
   0  -4   0   69.79    4.10
   0  -4   0   57.09    3.60
   0  -4   0   62.99    6.20
   0  -4   0   58.39    3.80
   0  -4   0   56.49    6.40
   0   4   0   60.69    5.70
   0   4   0   62.79    5.90
   0   4   0   68.99    4.30
   0   4   0   71.49    5.50
   0   4   0   66.79    5.40
   0   4   0   65.79    5.80
   0   4   0   60.09    5.50
   0   4   0   60.19    5.40
   0   4   0   56.09    4.60
  -1  -4   0 1540.95   42.10
  -1  -4   0 1539.75   42.70
  -1  -4   0 1516.95   41.40
  -1  -4   0 1532.85   39.70
  -1  -4   0 1536.45   39.50
  -1  -4   0 1534.75   40.30
  -1  -4   0 1554.94   41.90
   1   4   0 1315.87   43.00
   1   4   0 1542.05   43.30
   1   4   0 1483.15   42.20
   1   4   0 1541.95   43.50
   1   4   0 1522.85   41.80
   1   4   0 1495.65   41.00
   1   4   0 1506.15   41.70
   1   4   0 1528.25   43.80
   1   4   0 1534.95   42.70
   1   4   0 1519.15   43.10
   1   4   0 1532.35   44.20
  -2  -4   0  960.50   28.20
  -2  -4   0  976.90   25.60
  -2  -4   0  916.21   28.40
  -2  -4   0  947.41   25.70
  -2  -4   0  990.00   27.10
  -2  -4   0  968.70   26.40
  -2  -4   0  947.21   28.60
  -2  -4   0  994.20   28.90
   2   4   0 1001.50   31.30
   2   4   0  968.30   29.50
   2   4   0  932.71   27.70
   2   4   0  932.61   29.80
   2   4   0  975.10   30.20
   2   4   0  942.91   28.90
   2   4   0  948.41   29.40
   2   4   0  958.00   28.30
   2   4   0  956.00   29.50
  -3  -4   0    0.80    2.30
  -3  -4   0    1.80    2.10
  -3  -4   0   -0.60    2.50
  -3  -4   0   -0.10    1.80
  -3  -4   0   -2.30    4.30
  -3  -4   0    2.20    3.30
  -3  -4   0    0.90    2.90
  -3  -4   0    0.40    1.90
  -3  -4   0    1.50    1.80
  -3  -4   0    4.10    2.50
  -3  -4   0   -1.10    4.40
   3   4   0    4.70    3.20
   3   4   0    0.20    3.70
   3   4   0    1.50    3.50
   3   4   0    2.40    3.30
   3   4   0   -0.10    2.90
   3   4   0    3.00    2.90
   3   4   0   -2.00    3.10
  -4  -4   0 1226.88   34.30
  -4  -4   0 1229.58   38.70
  -4  -4   0 1192.08   34.70
  -4  -4   0 1226.98   36.60
  -4  -4   0 1230.68   35.00
  -4  -4   0 1199.08   36.20
   4   4   0 1284.57   39.30
   4   4   0 1209.28   35.90
   4   4   0 1244.68   38.50
   4   4   0 1239.68   38.80
   4   4   0 1264.97   38.60
   4   4   0 1209.18   41.00
   4   4   0 1207.78   36.70
  -5  -4   0  119.09   11.50
  -5  -4   0   92.69    9.50
  -5  -4   0  103.29    8.00
  -5  -4   0  114.39   12.50
  -5  -4   0   92.49    8.10
   5   4   0  111.99   11.00
   5   4   0   97.99    9.20
   5   4   0  122.49   11.80
   5   4   0  104.79   12.80
   5   4   0   92.79   11.00
   5   4   0  120.19   10.80
   5   4   0   95.29    7.80
   5  -5   0  252.07   14.20
   5  -5   0  268.57   15.00
   5  -5   0  250.47   13.90
   5  -5   0  229.38   12.90
   5  -5   0  260.37   14.70
   5  -5   0  258.77   13.90
  -5   5   0  253.07   20.80
  -5   5   0  245.48   16.40
  -5   5   0  252.77   19.50
  -5   5   0  258.17   17.80
  -5   5   0  264.27   15.70
  -5   5   0  258.17   16.10
  -5   5   0  239.38   17.50
  -5   5   0  254.17   15.90
   4  -5   0   43.20    6.10
   4  -5   0   47.80    6.90
   4  -5   0   49.90    7.00
   4  -5   0   50.29    6.40
   4  -5   0   50.49    6.10
   4  -5   0   47.40    6.40
  -4   5   0   44.80    4.90
  -4   5   0   61.49    8.80
  -4   5   0   48.60    7.80
  -4   5   0   47.90    8.10
  -4   5   0   67.09    8.30
  -4   5   0   43.50    8.10
  -4   5   0   52.59    8.70
  -4   5   0   48.20    7.90
  -4   5   0   52.69    9.10
  -4   5   0   54.89    9.70
   3  -5   0  654.43   22.20
   3  -5   0  651.53   22.20
   3  -5   0  660.23   23.20
   3  -5   0  652.63   21.90
   3  -5   0  634.14   22.00
  -3   5   0  648.34   24.50
  -3   5   0  666.63   25.50
  -3   5   0  651.73   22.20
  -3   5   0  656.53   22.60
  -3   5   0  607.94   24.50
  -3   5   0  674.23   22.10
  -3   5   0  627.54   22.40
  -3   5   0  667.83   24.30
  -3   5   0  601.54   23.10
  -3   5   0  639.14   25.00
   2  -5   0  765.72   24.20
   2  -5   0  769.32   21.10
   2  -5   0  751.92   23.50
   2  -5   0  735.93   24.60
   2  -5   0  747.13   21.70
   2  -5   0  755.12   23.40
   2  -5   0  737.63   25.20
   2  -5   0  763.62   24.30
   2  -5   0  744.93   23.60
  -2   5   0  753.42   23.10
  -2   5   0  752.42   24.70
  -2   5   0  740.43   24.60
  -2   5   0  755.42   23.40
  -2   5   0  731.03   24.00
  -2   5   0  767.82   26.50
  -2   5   0  759.42   26.20
  -2   5   0  702.93   20.40
  -2   5   0  680.53   22.40
  -2   5   0  765.32   25.90
  -2   5   0  733.73   25.90
  -2   5   0  720.03   26.10
   1  -5   0   91.79    5.20
   1  -5   0   93.49    6.50
   1  -5   0   88.69    5.70
   1  -5   0   91.19    6.40
   1  -5   0   88.89    6.50
   1  -5   0   91.09    5.80
   1  -5   0   84.19    5.90
   1  -5   0   99.89    7.70
   1  -5   0   89.79    7.00
   1  -5   0   84.19    7.20
  -1   5   0   90.99    7.40
  -1   5   0  100.59    7.90
  -1   5   0  100.29    7.30
  -1   5   0   86.29    6.70
  -1   5   0   94.39    7.20
  -1   5   0   93.29    7.80
  -1   5   0   88.79    8.00
  -1   5   0   87.19    7.60
  -1   5   0   90.89    5.00
   0  -5   0  690.33   19.90
   0  -5   0  702.93   19.80
   0  -5   0  691.73   22.00
   0  -5   0  687.23   19.90
   0  -5   0  657.83   21.10
   0  -5   0  676.23   20.40
   0  -5   0  673.73   20.00
   0  -5   0  661.53   19.90
   0  -5   0  674.93   19.70
   0   5   0  689.33   20.90
   0   5   0  694.63   24.00
   0   5   0  668.33   20.30
   0   5   0  662.23   22.90
   0   5   0  672.43   23.20
   0   5   0  724.13   23.50
   0   5   0  697.53   22.60
   0   5   0  690.03   22.40
  -1  -5   0 2944.01   75.49
  -1  -5   0 2870.31   75.99
  -1  -5   0 3008.80   75.79
  -1  -5   0 2858.01   78.39
  -1  -5   0 2873.31   75.99
  -1  -5   0 2885.01   77.89
  -1  -5   0 2855.71   76.99
  -1  -5   0 2921.21   75.79
  -1  -5   0 2932.41   78.89
  -1  -5   0 2914.41   77.09
   1   5   0 2989.50   80.69
   1   5   0 2924.61   78.69
   1   5   0 2858.41   80.19
   1   5   0 2803.92   76.89
   1   5   0 2938.21   80.09
   1   5   0 2965.10   81.49
   1   5   0 2897.71   78.19
   1   5   0 3003.60   79.59
  -2  -5   0    1.90    6.90
  -2  -5   0   24.10    3.20
  -2  -5   0   20.80    3.30
  -2  -5   0   20.10    3.90
  -2  -5   0   28.10    4.40
   2   5   0   26.00    4.40
   2   5   0   22.50    4.40
   2   5   0   29.30    5.80
   2   5   0   20.00    4.70
   2   5   0   23.50    4.40
   2   5   0   17.00    4.30
   2   5   0   18.70    5.10
   2   5   0   22.70    4.30
  -3  -5   0 1269.17   35.30
  -3  -5   0 1342.97   37.10
  -3  -5   0 1332.87   39.30
  -3  -5   0 1269.77   35.00
  -3  -5   0 1275.97   35.10
  -3  -5   0 1290.87   35.00
  -3  -5   0 1308.87   39.60
   3   5   0 1314.67   39.10
   3   5   0 1271.77   40.40
   3   5   0 1302.37   38.30
   3   5   0 1315.07   39.80
   3   5   0 1301.67   41.30
   3   5   0 1292.67   40.30
   3   5   0 1318.77   41.20
  -4  -5   0  159.48    8.70
  -4  -5   0  154.38    9.80
  -4  -5   0  162.58    7.40
  -4  -5   0  152.38   11.20
  -4  -5   0  161.38   11.80
   4   5   0  147.89   11.90
   4   5   0  165.08   10.40
   4   5   0  138.69   10.50
   4   5   0  156.98   12.70
   4   5   0  160.18   12.40
   4   5   0  167.48   12.40
  -5  -5   0   36.30    7.20
  -5  -5   0   24.80    7.80
   5   5   0   17.20    6.90
   5   5   0   51.99    8.10
   5   5   0   28.70    6.60
   5   5   0   28.60    8.10
   5   5   0   21.30    8.10
   5   5   0   32.80    8.90
   4  -6   0  223.58   13.20
   4  -6   0  234.48   13.40
   4  -6   0  236.88   12.20
   4  -6   0  223.18   14.10
   4  -6   0  198.58   13.30
   4  -6   0  216.18   13.40
  -4   6   0  240.08   18.00
  -4   6   0  239.88   18.00
  -4   6   0  218.38   16.70
  -4   6   0  214.98   14.10
  -4   6   0  263.27   15.30
  -4   6   0  232.58   15.80
  -4   6   0  245.58   16.30
  -4   6   0  212.68   15.80
   3  -6   0  141.09   10.10
   3  -6   0  152.98   10.10
   3  -6   0  121.49    9.30
   3  -6   0  144.99   11.10
   3  -6   0  148.29   10.20
  -3   6   0  139.39   13.00
  -3   6   0  130.49   12.40
  -3   6   0  153.28   12.70
  -3   6   0  123.29   13.40
  -3   6   0  141.89   10.10
  -3   6   0  139.69   12.00
  -3   6   0  120.99    9.80
  -3   6   0  126.59   12.40
   2  -6   0  100.29    7.80
   2  -6   0   80.39    7.30
   2  -6   0  110.99    9.50
   2  -6   0   95.69    8.30
   2  -6   0   99.59    6.90
   2  -6   0   94.99    7.70
  -2   6   0   88.79    9.00
  -2   6   0   96.99   10.00
  -2   6   0  107.09   10.50
  -2   6   0  116.39    9.30
  -2   6   0   93.69    9.90
  -2   6   0  100.49    9.90
  -2   6   0   99.19   10.40
  -2   6   0  103.39   10.30
   1  -6   0  400.46   15.10
   1  -6   0  410.26   16.10
   1  -6   0  397.56   13.70
   1  -6   0  406.26   14.40
   1  -6   0  390.56   14.70
   1  -6   0  420.76   14.70
   1  -6   0  415.96   17.40
  -1   6   0  395.96   16.90
  -1   6   0  399.66   17.00
  -1   6   0  384.06   12.90
  -1   6   0  409.66   17.40
  -1   6   0  393.96   16.10
  -1   6   0  406.06   17.90
  -1   6   0  415.46   18.50
  -1   6   0  410.66   17.80
  -1   6   0  426.36   17.30
   0  -6   0  387.76   15.20
   0  -6   0  385.46   12.50
   0  -6   0  380.66   13.20
   0  -6   0  376.36   12.80
   0  -6   0  384.16   13.40
   0  -6   0  351.46   12.60
   0  -6   0  373.46   12.90
   0  -6   0  381.16   16.20
   0   6   0  383.16   16.70
   0   6   0  389.46   16.50
   0   6   0  372.16   15.30
   0   6   0  388.96   17.40
   0   6   0  386.76   15.50
   0   6   0  377.86   16.60
   0   6   0  358.86   13.60
  -1  -6   0   16.50    2.50
  -1  -6   0   12.60    2.70
  -1  -6   0   10.10    3.80
  -1  -6   0   22.80    3.30
  -1  -6   0   18.60    3.70
  -1  -6   0   17.50    4.10
  -1  -6   0   23.50    4.00
   1   6   0   17.70    4.40
   1   6   0   12.50    5.30
   1   6   0   21.70    4.80
   1   6   0   20.40    5.20
   1   6   0    9.70    5.00
   1   6   0   15.20    4.60
   1   6   0    8.30    4.90
  -2  -6   0  308.77   11.50
  -2  -6   0  325.57   13.70
  -2  -6   0  332.97   13.40
  -2  -6   0  336.87   14.40
  -2  -6   0  327.87   11.80
   2   6   0  326.47   14.90
   2   6   0  323.27   17.00
   2   6   0  328.27   13.70
   2   6   0  336.87   16.00
   2   6   0  301.47   13.40
   2   6   0  309.67   15.20
  -3  -6   0  356.86   16.00
  -3  -6   0  357.36   12.70
  -3  -6   0  373.76   16.20
  -3  -6   0  357.66   13.80
   3   6   0  377.26   19.40
   3   6   0  355.16   15.80
   3   6   0  370.66   18.50
   3   6   0  376.56   16.90
   3   6   0  375.76   17.70
   3   6   0  382.26   19.00
  -4  -6   0  215.48   14.70
  -4  -6   0  236.98   14.80
  -4  -6   0  220.38   12.20
   4   6   0  206.38   15.80
   4   6   0  223.48   16.60
   4   6   0  217.08   14.30
   4   6   0  230.88   16.80
   4   6   0  209.58   16.20
   4   6   0  199.18   16.70
   3  -7   0   16.00    7.20
   3  -7   0   25.90    6.40
   3  -7   0   22.40    6.20
   3  -7   0   20.30    6.30
   3  -7   0   16.30    6.60
  -3   7   0   25.40    8.90
  -3   7   0   12.50    8.00
  -3   7   0   31.60    9.10
  -3   7   0   28.50    9.10
  -3   7   0   20.50    8.00
   2  -7   0  189.48   11.20
   2  -7   0  206.48   11.70
   2  -7   0  187.88   11.40
   2  -7   0  195.58   12.50
   2  -7   0  207.18   13.90
   2  -7   0  198.68    9.60
  -2   7   0  196.38   14.60
  -2   7   0  193.08   13.60
  -2   7   0  190.88   14.90
  -2   7   0  193.88   13.80
  -2   7   0  184.28   14.80
  -2   7   0  209.38   15.30
   1  -7   0  223.88   12.90
   1  -7   0  259.87   14.80
   1  -7   0  235.78   11.30
   1  -7   0  244.38   11.10
   1  -7   0  228.78   11.50
   1  -7   0  234.98   10.40
  -1   7   0  220.98   11.90
  -1   7   0  211.98   15.60
  -1   7   0  232.68   14.50
  -1   7   0  253.47   14.60
  -1   7   0  219.18   13.50
  -1   7   0  231.28   15.20
  -1   7   0  227.68   14.30
   0  -7   0   86.79    6.70
   0  -7   0   82.19    6.00
   0  -7   0  100.09    8.40
   0  -7   0   80.79    8.90
   0  -7   0   89.29    7.40
   0  -7   0   92.89   10.10
   0   7   0   92.99   10.80
   0   7   0   91.79   10.90
   0   7   0   84.19   10.40
   0   7   0   80.59    8.30
   0   7   0   73.79    9.20
   0   7   0  100.59   11.80
   0   7   0   68.69    9.40
  -1  -7   0  777.92   26.30
  -1  -7   0  768.42   21.80
  -1  -7   0  733.53   27.00
  -1  -7   0  721.83   21.20
  -1  -7   0  733.03   23.90
   1   7   0  703.03   24.70
   1   7   0  783.42   28.30
   1   7   0  734.43   25.50
   1   7   0  756.92   28.40
   1   7   0  740.33   26.40
   1   7   0  743.53   28.20
  -2  -7   0  463.55   19.60
  -2  -7   0  427.56   17.30
  -2  -7   0  423.66   17.30
  -2  -7   0  458.15   19.00
   2   7   0  403.86   21.90
   2   7   0  462.75   20.10
   2   7   0  427.36   18.00
   2   7   0  479.85   20.80
   2   7   0  388.36   20.10
   0   8  -1   -7.70    7.00
   0   8  -1   16.90    8.30
   0   8  -1   -4.70    7.50
   0   8  -1    5.10    7.90
   0   8  -1   -5.40    7.30
   0   8  -1   -5.30    7.20
   0  -8   1   -6.20    5.80
   0  -8   1   -3.90    6.60
   0  -8   1    1.40    3.80
  -1   8  -1  808.22   32.00
  -1   8  -1  807.32   33.00
  -1   8  -1  851.91   31.50
  -1   8  -1  816.42   31.30
  -1   8  -1  865.31   31.60
   1  -8   1  809.62   29.30
   1  -8   1  818.62   25.80
   1  -8   1  865.51   32.10
   1  -8   1  872.71   27.00
   3   7  -1  175.48   15.40
   3   7  -1  172.08   16.30
   3   7  -1  230.08   15.00
  -3  -7   1  216.98   13.30
  -3  -7   1  195.28   13.00
  -3  -7   1  212.68   13.20
  -3  -7   1  208.38   13.50
   2   7  -1  611.54   23.50
   2   7  -1  662.83   23.40
   2   7  -1  653.93   25.80
   2   7  -1  663.43   25.30
   2   7  -1  660.03   25.30
  -2  -7   1  642.14   23.40
  -2  -7   1  656.13   20.70
  -2  -7   1  675.23   24.20
  -2  -7   1  632.64   22.20
  -2  -7   1  663.03   22.10
   1   7  -1   85.79    9.90
   1   7  -1  101.59   11.10
   1   7  -1  111.29    9.80
   1   7  -1   97.19   11.10
   1   7  -1  100.09   11.40
   1   7  -1   92.19   10.10
  -1  -7   1  129.09    9.30
  -1  -7   1  102.59   10.10
  -1  -7   1  108.29    5.40
  -1  -7   1   96.39    7.80
  -1  -7   1  108.49    7.30
  -1  -7   1  108.69    5.60
   0   7  -1  832.52   29.80
   0   7  -1  851.71   26.10
   0   7  -1  824.32   26.60
   0   7  -1  846.42   30.40
   0   7  -1  860.31   30.20
   0   7  -1  844.22   29.20
   0   7  -1  849.81   29.00
   0   7  -1  873.81   31.40
   0  -7   1  870.61   25.20
   0  -7   1  856.21   25.70
   0  -7   1  852.51   29.90
   0  -7   1  871.71   28.20
   0  -7   1  836.82   24.10
   0  -7   1  845.32   25.30
   0  -7   1  839.32   25.20
  -1   7  -1  277.97   14.00
  -1   7  -1  290.67   15.80
  -1   7  -1  290.47   16.40
  -1   7  -1  289.87   15.80
  -1   7  -1  315.07   17.60
  -1   7  -1  316.07   16.20
  -1   7  -1  302.87   12.40
   1  -7   1  277.27   11.10
   1  -7   1  315.77   14.40
   1  -7   1  301.97   12.60
   1  -7   1  290.77   15.80
   1  -7   1  318.07   12.20
   1  -7   1  303.87   13.00
  -2   7  -1  217.88   13.80
  -2   7  -1  248.18   16.00
  -2   7  -1  216.08   14.50
  -2   7  -1  205.08   15.00
  -2   7  -1  230.88   15.60
  -2   7  -1  223.78   15.70
   2  -7   1  236.18   12.90
   2  -7   1  222.88   11.80
   2  -7   1  223.78   14.10
   2  -7   1  224.18   11.70
   2  -7   1  203.18   11.60
  -3   7  -1  751.82   31.00
  -3   7  -1  776.72   30.80
  -3   7  -1  804.92   31.50
  -3   7  -1  764.22   30.80
  -3   7  -1  800.82   30.70
   3  -7   1  761.12   27.00
   3  -7   1  779.12   27.10
   3  -7   1  775.12   26.60
   3  -7   1  786.52   27.60
   3  -7   1  756.62   29.20
   4   6  -1  308.97   18.10
   4   6  -1  322.07   15.50
   4   6  -1  304.07   16.80
   4   6  -1  307.77   17.90
   4   6  -1  304.17   18.20
   4   6  -1  302.87   18.50
  -4  -6   1  310.17   14.40
  -4  -6   1  308.87   16.80
  -4  -6   1  319.37   13.90
  -4  -6   1  305.17   16.20
   3   6  -1  123.79   10.40
   3   6  -1  140.79   11.90
   3   6  -1  134.69   12.50
   3   6  -1  146.69   12.30
   3   6  -1  162.58   11.60
  -3  -6   1  146.89   10.00
  -3  -6   1  140.29   10.50
  -3  -6   1  133.39    7.30
  -3  -6   1  145.69    8.70
  -3  -6   1  134.89    7.30
   2   6  -1   -1.00    4.20
   2   6  -1   10.50    4.40
   2   6  -1    8.30    4.00
   2   6  -1    8.80    4.50
   2   6  -1    5.90    4.50
   2   6  -1   13.10    5.70
  -2  -6   1    1.80    3.20
  -2  -6   1    1.50    3.30
  -2  -6   1    1.00    3.40
  -2  -6   1   -1.60    3.60
  -2  -6   1    4.80    4.10
   1   6  -1  966.00   31.90
   1   6  -1  979.90   31.50
   1   6  -1  947.21   30.40
   1   6  -1  954.10   31.60
   1   6  -1  937.01   30.00
   1   6  -1  904.91   28.40
   1   6  -1  973.30   28.90
   1   6  -1  930.71   29.40
  -1  -6   1  910.51   25.80
  -1  -6   1  911.31   26.90
  -1  -6   1  917.51   27.20
  -1  -6   1  964.50   26.10
  -1  -6   1 1031.70   31.00
  -1  -6   1  991.30   29.80
  -1  -6   1  984.60   28.30
  -1  -6   1  948.81   26.20
   0   6  -1 1149.78   35.20
   0   6  -1 1121.39   36.00
   0   6  -1 1156.48   36.10
   0   6  -1 1129.49   35.20
   0   6  -1 1088.89   32.60
   0   6  -1 1169.18   36.10
   0   6  -1 1142.29   37.00
   0   6  -1 1093.69   33.80
   0  -6   1 1179.48   31.50
   0  -6   1 1176.78   32.10
   0  -6   1 1159.98   35.70
   0  -6   1 1155.28   32.00
   0  -6   1 1085.59   31.30
   0  -6   1 1079.79   31.80
   0  -6   1 1155.98   31.90
   0  -6   1 1148.39   34.40
  -1   6  -1  691.43   24.90
  -1   6  -1  669.53   23.30
  -1   6  -1  670.03   24.40
  -1   6  -1  688.33   24.30
  -1   6  -1  702.03   24.20
  -1   6  -1  638.94   20.30
  -1   6  -1  683.43   24.60
  -1   6  -1  651.83   20.10
  -1   6  -1  674.63   25.60
   1  -6   1  669.13   24.10
   1  -6   1  694.53   22.00
   1  -6   1  682.83   19.70
   1  -6   1  671.33   22.70
   1  -6   1  668.33   21.30
   1  -6   1  664.73   21.40
   1  -6   1  714.33   21.30
  -2   6  -1 1088.49   31.50
  -2   6  -1 1111.69   34.20
  -2   6  -1 1143.89   37.60
  -2   6  -1 1135.79   35.90
  -2   6  -1 1123.69   37.30
  -2   6  -1 1137.89   36.80
  -2   6  -1 1166.98   38.20
  -2   6  -1 1120.99   37.50
   2  -6   1 1141.69   35.20
   2  -6   1 1144.09   34.40
   2  -6   1 1144.59   31.50
   2  -6   1 1184.28   34.30
   2  -6   1 1194.08   34.50
   2  -6   1 1159.08   36.80
  -3   6  -1    5.20    5.30
  -3   6  -1   20.40    7.40
  -3   6  -1   10.10    6.30
  -3   6  -1   17.80    6.70
  -3   6  -1   16.70    3.70
  -3   6  -1    9.30    6.30
  -3   6  -1   10.90    5.30
  -3   6  -1    6.70    6.50
   3  -6   1    9.60    4.30
   3  -6   1   14.10    4.50
   3  -6   1   20.90    5.00
   3  -6   1    9.90    4.90
   3  -6   1    7.80    4.50
  -4   6  -1  271.97   19.80
  -4   6  -1  341.57   19.40
  -4   6  -1  333.87   18.60
  -4   6  -1  289.57   17.00
  -4   6  -1  313.67   16.80
  -4   6  -1  350.56   21.10
  -4   6  -1  329.47   16.80
  -4   6  -1  298.17   17.30
   4  -6   1  332.57   14.50
   4  -6   1  343.47   15.60
   4  -6   1  322.97   15.90
   4  -6   1  329.77   16.60
   4  -6   1  319.67   15.40
   4  -6   1  280.07   15.30
   5   5  -1   67.49   10.10
   5   5  -1   57.39    7.70
   5   5  -1   50.89   10.80
   5   5  -1   56.49    9.10
   5   5  -1   73.99   10.30
  -5  -5   1   66.79    8.20
  -5  -5   1   64.39    9.80
  -5  -5   1   50.79    6.80
   4   5  -1  183.28   12.70
   4   5  -1  183.68   12.10
   4   5  -1  186.08   11.50
   4   5  -1  175.68   12.30
   4   5  -1  197.38   14.80
   4   5  -1  184.98   12.60
   4   5  -1  187.08   10.40
  -4  -5   1  209.08   10.50
  -4  -5   1  180.38    8.60
  -4  -5   1  169.18    7.80
  -4  -5   1  164.98   11.90
  -4  -5   1  171.98    8.40
   3   5  -1   42.10    6.20
   3   5  -1   52.79    7.50
   3   5  -1   54.89    6.40
   3   5  -1   64.29    7.60
   3   5  -1   51.49    7.00
   3   5  -1   61.19    7.50
   3   5  -1   58.49    7.10
  -3  -5   1   48.70    4.90
  -3  -5   1   44.20    4.40
  -3  -5   1   44.20    5.40
  -3  -5   1   50.19    6.90
   2   5  -1  800.62   26.40
   2   5  -1  816.02   25.70
   2   5  -1  816.02   25.70
   2   5  -1  831.12   27.70
   2   5  -1  795.02   26.90
   2   5  -1  811.52   26.80
   2   5  -1  831.02   26.90
   2   5  -1  793.62   25.10
   2   5  -1  834.22   28.10
   2   5  -1  815.02   26.40
  -2  -5   1  803.52   25.10
  -2  -5   1  811.02   25.30
  -2  -5   1  828.92   24.00
  -2  -5   1  815.12   23.80
   1   5  -1  277.37   11.80
   1   5  -1  273.07   13.00
   1   5  -1  262.77   10.80
   1   5  -1  279.57   11.80
   1   5  -1  276.17   12.50
   1   5  -1  265.57   10.80
   1   5  -1  270.27   12.50
   1   5  -1  253.37   12.00
  -1  -5   1  267.17   10.10
  -1  -5   1  271.37   10.30
  -1  -5   1  286.97   11.00
   0   5  -1   99.39    6.20
   0   5  -1  109.09    8.00
   0   5  -1  105.59    7.30
   0   5  -1  108.79    7.50
   0   5  -1   96.19    6.90
   0   5  -1  101.29    7.50
   0   5  -1   89.69    7.50
   0   5  -1  100.99    7.20
   0  -5   1  100.49    5.40
   0  -5   1   97.79    5.20
   0  -5   1  100.09    5.40
   0  -5   1  100.19    7.30
   0  -5   1   90.79    5.00
   0  -5   1  100.69    5.20
   0  -5   1   96.49    5.00
   0  -5   1  105.09    7.30
   0  -5   1  103.59    6.40
  -1   5  -1 1243.58   37.60
  -1   5  -1 1245.28   37.50
  -1   5  -1 1223.68   33.70
  -1   5  -1 1264.67   37.60
  -1   5  -1 1221.68   36.80
  -1   5  -1 1203.18   38.00
  -1   5  -1 1219.88   36.80
  -1   5  -1 1238.68   36.70
  -1   5  -1 1248.98   34.10
   1  -5   1 1234.68   36.90
   1  -5   1 1171.28   32.90
   1  -5   1 1254.37   34.50
   1  -5   1 1231.68   33.90
   1  -5   1 1224.78   34.50
   1  -5   1 1233.48   34.40
   1  -5   1 1083.69   34.30
   1  -5   1 1217.58   35.60
   1  -5   1 1218.98   34.70
   1  -5   1 1207.58   34.70
  -2   5  -1  300.07   12.00
  -2   5  -1  309.97   12.90
  -2   5  -1  304.27   12.80
  -2   5  -1  289.97   10.70
  -2   5  -1  291.37   14.30
  -2   5  -1  302.27   14.40
  -2   5  -1  273.37   11.50
  -2   5  -1  264.57   10.10
  -2   5  -1  319.97   14.50
  -2   5  -1  293.27   12.10
  -2   5  -1  320.07   14.10
  -2   5  -1  299.37   14.40
   2  -5   1  288.87   11.70
   2  -5   1  298.37   11.90
   2  -5   1  308.57   11.80
   2  -5   1  299.17   13.20
   2  -5   1  301.27   12.30
   2  -5   1  273.57   13.90
   2  -5   1  311.57   13.30
   2  -5   1  298.87   10.00
  -3   5  -1 1143.39   32.40
  -3   5  -1 1107.79   35.90
  -3   5  -1 1148.49   38.40
  -3   5  -1 1169.68   37.00
  -3   5  -1 1197.78   39.00
  -3   5  -1 1151.68   35.60
  -3   5  -1 1183.58   35.80
  -3   5  -1 1113.19   35.00
  -3   5  -1 1149.58   38.10
  -3   5  -1 1190.28   37.60
   3  -5   1 1126.09   33.90
   3  -5   1 1186.38   36.30
   3  -5   1 1134.99   34.60
   3  -5   1 1165.38   35.10
   3  -5   1 1142.79   35.00
   3  -5   1 1187.28   35.50
  -4   5  -1  386.06   17.60
  -4   5  -1  381.56   18.20
  -4   5  -1  413.26   19.80
  -4   5  -1  407.06   18.10
  -4   5  -1  421.86   18.50
  -4   5  -1  391.26   15.00
  -4   5  -1  383.26   18.20
  -4   5  -1  359.96   20.00
  -4   5  -1  382.86   17.20
  -4   5  -1  411.96   21.20
   4  -5   1  380.66   16.40
   4  -5   1  403.06   16.20
   4  -5   1  409.06   17.10
   4  -5   1  395.46   16.30
   4  -5   1  385.36   15.40
   4  -5   1  381.76   16.60
  -5   5  -1    8.90    7.10
  -5   5  -1   11.20    7.70
  -5   5  -1   26.60    9.90
  -5   5  -1   10.20    9.90
  -5   5  -1   22.60    8.80
  -5   5  -1   21.00    7.80
  -5   5  -1   20.20    7.00
  -5   5  -1   24.20    8.10
   5  -5   1   24.20    6.60
   5  -5   1   20.70    5.60
   5  -5   1   21.20    5.60
   5  -5   1   17.00    5.30
   5  -5   1   22.10    6.00
   5  -5   1   19.80    5.40
   5  -5   1   12.90    6.30
   5   4  -1  225.58   16.30
   5   4  -1  223.38   13.60
   5   4  -1  213.48   13.40
   5   4  -1  228.68   11.80
   5   4  -1  240.38   13.60
   5   4  -1  229.28   14.40
  -5  -4   1  226.38   11.00
  -5  -4   1  194.58   10.30
  -5  -4   1  240.18   14.40
  -5  -4   1  222.98   12.30
  -5  -4   1  235.08   14.50
   4   4  -1  176.78   10.50
   4   4  -1  177.68   10.60
   4   4  -1  157.58    8.80
   4   4  -1  201.58   10.90
   4   4  -1  184.48    9.80
   4   4  -1  173.68   11.00
   4   4  -1  167.88   12.50
  -4  -4   1  182.18    8.20
  -4  -4   1  163.18   10.90
  -4  -4   1  181.28    8.40
  -4  -4   1  180.78    8.10
  -4  -4   1  177.98    8.10
  -4  -4   1  183.28   10.60
  -4  -4   1  199.28    9.80
   3   4  -1  420.56   17.80
   3   4  -1  431.56   16.20
   3   4  -1  424.06   15.10
   3   4  -1  429.56   15.70
   3   4  -1  424.96   16.40
   3   4  -1  437.36   16.10
   3   4  -1  435.26   16.50
  -3  -4   1  415.36   14.50
  -3  -4   1  438.46   13.30
  -3  -4   1  417.46   12.70
  -3  -4   1  419.06   16.20
  -3  -4   1  411.66   13.70
  -3  -4   1  416.16   12.90
  -3  -4   1  432.16   12.40
  -3  -4   1  417.16   12.90
   2   4  -1  848.12   26.60
   2   4  -1  845.22   25.90
   2   4  -1  825.32   26.20
   2   4  -1  840.62   25.00
   2   4  -1  846.52   27.70
   2   4  -1  861.91   26.20
   2   4  -1  854.11   25.90
   2   4  -1  856.71   27.00
   2   4  -1  838.62   26.20
   2   4  -1  852.81   26.10
   2   4  -1  857.61   25.80
  -2  -4   1  858.21   24.00
  -2  -4   1  861.51   24.40
  -2  -4   1  809.12   25.70
   1   4  -1   49.70    4.60
   1   4  -1   50.49    5.00
   1   4  -1   60.29    5.20
   1   4  -1   58.49    5.20
   1   4  -1   58.79    5.30
   1   4  -1   53.19    5.40
   1   4  -1   56.79    4.80
   1   4  -1   45.30    5.20
   1   4  -1   54.69    5.40
   1   4  -1   53.69    5.90
   1   4  -1   53.89    5.80
   1   4  -1   52.59    4.90
  -1  -4   1   65.59    6.70
  -1  -4   1   56.59    4.10
  -1  -4   1   50.99    4.40
  -1  -4   1   56.49    4.30
   0   4  -1 5234.68  138.69
   0   4  -1 5218.18  140.69
   0   4  -1 5297.07  139.79
   0   4  -1 5271.57  140.49
   0   4  -1 5359.96  140.79
   0   4  -1 5265.37  140.59
   0   4  -1 5322.67  140.69
   0   4  -1 5398.76  141.69
   0  -4   1 5258.77  137.99
   0  -4   1 5381.76  137.29
   0  -4   1 5265.17  139.09
   0  -4   1 5259.97  139.39
   0  -4   1 5465.55  137.79
   0  -4   1 5383.56  137.99
   0  -4   1 5287.77  137.29
   0  -4   1 5356.96  137.89
   0  -4   1 5338.87  138.39
   0  -4   1 5380.36  140.49
   0  -4   1 5465.45  137.89
   0  -4   1 5440.96  137.89
   0  -4   1 5513.75  139.39
   0  -4   1 5537.75  139.19
   0  -4   1 5552.94  140.89
   0  -4   1 5255.97  138.89
  -1   4  -1  726.63   19.90
  -1   4  -1  713.73   20.90
  -1   4  -1  755.62   23.70
  -1   4  -1  692.63   23.50
  -1   4  -1  737.93   20.30
  -1   4  -1  702.93   23.00
  -1   4  -1  708.13   20.00
  -1   4  -1  689.83   22.30
  -1   4  -1  727.63   23.50
  -1   4  -1  712.53   19.60
  -1   4  -1  682.83   20.20
  -1   4  -1  757.92   22.80
  -1   4  -1  697.23   22.90
   1  -4   1  703.43   19.60
   1  -4   1  705.63   21.30
   1  -4   1  695.13   21.10
   1  -4   1  697.33   21.60
   1  -4   1  715.63   21.00
   1  -4   1  677.33   22.40
   1  -4   1  727.53   21.30
   1  -4   1  697.53   20.90
   1  -4   1  700.13   20.00
   1  -4   1  708.73   20.80
  -2   4  -1 1187.38   33.80
  -2   4  -1 1199.98   35.20
  -2   4  -1 1156.48   31.80
  -2   4  -1 1141.69   35.60
  -2   4  -1 1134.29   35.20
  -2   4  -1 1038.40   31.30
  -2   4  -1 1139.29   32.60
  -2   4  -1 1131.09   35.70
  -2   4  -1 1136.19   33.80
  -2   4  -1 1194.18   36.40
  -2   4  -1 1192.78   33.90
  -2   4  -1 1131.89   33.80
  -2   4  -1 1151.18   33.10
   2  -4   1 1189.08   34.60
   2  -4   1 1139.09   33.40
   2  -4   1 1191.48   33.70
   2  -4   1 1143.09   31.20
   2  -4   1 1147.29   33.30
   2  -4   1 1159.28   33.20
   2  -4   1 1151.38   34.00
   2  -4   1 1145.09   33.00
  -3   4  -1 1605.44   47.40
  -3   4  -1 1592.44   49.40
  -3   4  -1 1612.64   47.00
  -3   4  -1 1582.64   42.50
  -3   4  -1 1602.74   47.00
  -3   4  -1 1613.04   46.60
  -3   4  -1 1571.74   48.30
  -3   4  -1 1619.04   46.30
  -3   4  -1 1562.64   46.00
  -3   4  -1 1597.74   48.90
   3  -4   1 1598.74   45.50
   3  -4   1 1585.64   46.20
   3  -4   1 1581.84   44.50
   3  -4   1 1610.74   45.30
   3  -4   1 1634.04   46.10
   3  -4   1 1561.74   45.50
   3  -4   1 1603.34   46.50
  -4   4  -1   61.79    7.80
  -4   4  -1   71.79    9.10
  -4   4  -1   69.59    7.70
  -4   4  -1   62.99    6.10
  -4   4  -1   65.69    8.00
  -4   4  -1   49.20    6.40
  -4   4  -1   68.19    9.00
  -4   4  -1   62.79    9.50
  -4   4  -1   53.69    7.50
   4  -4   1   59.49    6.90
   4  -4   1   65.89    6.80
   4  -4   1   61.49    6.20
   4  -4   1   58.39    6.60
   4  -4   1   51.79    6.10
   4  -4   1   63.69    6.10
  -5   4  -1  750.52   27.70
  -5   4  -1  728.33   32.10
  -5   4  -1  725.43   29.10
  -5   4  -1  756.62   29.40
  -5   4  -1  716.53   27.50
  -5   4  -1  732.83   27.20
  -5   4  -1  727.03   26.30
  -5   4  -1  739.03   24.00
  -5   4  -1  769.62   26.40
   5  -4   1  714.83   25.30
   5  -4   1  773.72   25.40
   5  -4   1  753.02   26.70
   5  -4   1  728.93   25.90
   5  -4   1  713.43   24.90
   5  -4   1  748.33   25.00
   5  -4   1  709.03   25.10
  -6   4  -1  139.39   17.10
  -6   4  -1  148.99   12.70
  -6   4  -1  147.09   15.50
  -6   4  -1  143.19   13.30
  -6   4  -1  163.38   15.60
  -6   4  -1  143.99   18.10
  -6   4  -1  148.59   16.10
  -6   4  -1  146.29   11.70
  -6   4  -1  164.48   15.20
   6  -4   1  142.69   11.70
   6  -4   1  123.09   10.70
   6  -4   1  148.79   11.90
   6  -4   1  115.99   11.20
   6  -4   1  146.89   13.20
   6  -4   1  138.49   13.40
   6  -4   1  148.39   10.70
   6   3  -1   10.90    6.20
   6   3  -1    8.20    6.50
   6   3  -1   14.00    6.20
   6   3  -1   16.10    7.90
   6   3  -1    9.60    6.70
  -6  -3   1   10.20    5.70
  -6  -3   1   11.90    5.60
  -6  -3   1   21.60    6.90
  -6  -3   1   10.80    7.00
  -6  -3   1   24.50    9.40
   5   3  -1   60.29    7.70
   5   3  -1   57.79    8.30
   5   3  -1   55.49    7.20
   5   3  -1   57.89    7.40
   5   3  -1   64.69    7.50
   5   3  -1   57.99    7.50
  -5  -3   1   69.19    8.80
  -5  -3   1   56.79    6.60
  -5  -3   1   55.79    6.60
  -5  -3   1   50.89    7.30
  -5  -3   1   55.49    6.40
  -5  -3   1   56.69    7.20
   4   3  -1  400.76   15.50
   4   3  -1  391.36   14.40
   4   3  -1  383.66   15.30
   4   3  -1  404.56   16.00
   4   3  -1  402.66   13.40
   4   3  -1  424.96   15.70
   4   3  -1  403.96   17.70
  -4  -3   1  384.46   13.70
  -4  -3   1  413.36   15.10
  -4  -3   1  399.16   16.50
  -4  -3   1  400.96   14.10
  -4  -3   1  410.76   14.20
  -4  -3   1  410.16   13.50
  -4  -3   1  378.66   12.60
  -4  -3   1  393.76   15.20
  -4  -3   1  429.96   14.00
   3   3  -1  741.03   25.40
   3   3  -1  752.82   23.30
   3   3  -1  750.72   22.80
   3   3  -1  731.23   23.40
   3   3  -1  774.92   23.60
   3   3  -1  767.32   23.80
   3   3  -1  740.73   22.20
  -3  -3   1  730.03   22.40
  -3  -3   1  691.03   21.50
  -3  -3   1  747.93   21.00
  -3  -3   1  722.13   21.00
  -3  -3   1  740.83   24.20
  -3  -3   1  725.13   22.30
  -3  -3   1  758.92   21.10
  -3  -3   1  751.22   21.30
  -3  -3   1  733.93   21.30
  -3  -3   1  755.62   22.00
  -3  -3   1  759.82   21.10
  -3  -3   1  758.62   21.20
   2   3  -1  342.57   12.10
   2   3  -1  332.57   13.60
   2   3  -1  332.67   11.90
   2   3  -1  363.26   12.80
   2   3  -1  337.47   12.50
   2   3  -1  350.76   12.40
   2   3  -1  338.47   12.60
   2   3  -1  361.06   12.40
   2   3  -1  339.27   12.20
   2   3  -1  355.46   12.30
  -2  -3   1  343.37   12.70
  -2  -3   1  331.87   11.80
  -2  -3   1  335.77   12.90
  -2  -3   1  340.27    9.90
  -2  -3   1  353.86   10.80
  -2  -3   1  359.36   11.90
  -2  -3   1  359.26   12.10
  -2  -3   1  347.57   11.30
  -2  -3   1  353.66    9.80
   1   3  -1 1166.08   32.90
   1   3  -1 1161.48   32.70
   1   3  -1 1140.29   32.20
   1   3  -1 1180.88   32.90
   1   3  -1 1195.98   32.50
   1   3  -1 1139.09   33.40
   1   3  -1 1137.19   32.50
   1   3  -1 1148.99   33.20
   1   3  -1 1105.19   32.20
   1   3  -1 1158.28   33.00
   1   3  -1 1177.98   32.30
   1   3  -1 1174.08   33.50
   1   3  -1 1178.98   32.90
  -1  -3   1 1185.98   32.90
  -1  -3   1 1169.48   33.20
  -1  -3   1 1168.38   32.90
  -1  -3   1 1173.78   33.50
  -1  -3   1 1177.58   32.30
  -1  -3   1 1157.38   32.80
  -1  -3   1 1202.08   32.80
  -1  -3   1 1222.88   32.00
  -1  -3   1 1147.99   33.60
  -1  -3   1 1118.69   32.80
  -1  -3   1 1188.98   32.40
  -1  -3   1 1166.88   32.60
   0   3  -1  794.22   24.50
   0   3  -1  803.12   23.20
   0   3  -1  786.02   23.90
   0   3  -1  795.52   22.70
   0   3  -1  807.72   24.00
   0   3  -1  819.12   24.00
   0   3  -1  869.21   21.70
   0   3  -1  824.92   24.20
   0   3  -1  807.22   23.60
   0   3  -1  807.72   23.90
   0   3  -1  830.32   21.50
   0  -3   1  827.02   22.10
   0  -3   1  781.72   23.00
   0  -3   1  848.32   23.50
   0  -3   1  801.72   23.90
   0  -3   1  811.42   23.00
   0  -3   1  814.92   21.90
   0  -3   1  786.02   23.00
   0  -3   1  834.22   24.50
   0  -3   1  792.22   24.60
   0  -3   1  793.82   22.30
   0  -3   1  807.22   23.00
   0  -3   1  784.12   24.10
   0  -3   1  834.52   24.60
   0  -3   1  767.02   24.20
   0  -3   1  804.32   24.20
   0  -3   1  830.42   23.10
   0  -3   1  808.22   22.00
   0  -3   1  835.22   21.90
   0  -3   1  821.42   22.00
   0  -3   1  841.52   23.20
   0  -3   1  836.92   22.20
  -1   3  -1  545.95   17.10
  -1   3  -1  551.04   16.30
  -1   3  -1  520.55   15.80
  -1   3  -1  567.94   15.80
  -1   3  -1  541.25   18.00
  -1   3  -1  546.25   17.30
  -1   3  -1  567.64   16.20
  -1   3  -1  573.94   17.00
  -1   3  -1  549.65   16.40
  -1   3  -1  573.64   16.90
  -1   3  -1  548.55   18.20
  -1   3  -1  563.74   18.20
  -1   3  -1  558.84   16.60
  -1   3  -1  563.74   15.30
  -1   3  -1  529.95   18.00
  -1   3  -1  541.55   15.90
  -1   3  -1  551.64   17.80
   1  -3   1  562.24   15.00
   1  -3   1  564.14   16.70
   1  -3   1  523.65   17.10
   1  -3   1  572.24   16.70
   1  -3   1  541.55   16.30
   1  -3   1  543.75   16.70
   1  -3   1  518.45   17.80
   1  -3   1  539.35   16.50
   1  -3   1  534.75   17.30
   1  -3   1  545.85   16.10
   1  -3   1  535.05   17.10
   1  -3   1  545.15   15.10
   1  -3   1  545.15   16.30
  -2   3  -1 4112.89  107.09
  -2   3  -1 3977.10  103.99
  -2   3  -1 3986.40  107.39
  -2   3  -1 4071.49  104.39
  -2   3  -1 4103.29  106.59
  -2   3  -1 4018.20  108.89
  -2   3  -1 4154.68  105.69
  -2   3  -1 3916.71  108.09
  -2   3  -1 4087.39  106.29
  -2   3  -1 4177.58  107.49
  -2   3  -1 4087.99  106.49
   2  -3   1 3955.90  106.09
   2  -3   1 4188.48  106.69
   2  -3   1 3970.20  105.99
   2  -3   1 4047.89  105.79
   2  -3   1 3982.60  106.09
   2  -3   1 4068.29  106.29
   2  -3   1 4034.60  106.79
   2  -3   1 3754.02  105.59
  -3   3  -1   57.89    7.70
  -3   3  -1   35.20    4.40
  -3   3  -1   44.40    5.90
  -3   3  -1   55.79    6.00
  -3   3  -1   35.70    5.20
  -3   3  -1   34.70    4.80
  -3   3  -1   43.80    5.20
  -3   3  -1   45.70    4.20
  -3   3  -1   45.50    6.00
  -3   3  -1   51.69    6.50
   3  -3   1   45.60    4.60
   3  -3   1   49.10    4.60
   3  -3   1   51.39    5.00
   3  -3   1   39.70    4.90
   3  -3   1   46.20    4.80
   3  -3   1   50.59    6.10
   3  -3   1   48.30    4.40
  -4   3  -1 1639.34   48.20
  -4   3  -1 1582.64   45.50
  -4   3  -1 1644.14   52.19
  -4   3  -1 1698.43   49.80
  -4   3  -1 1639.04   47.00
  -4   3  -1 1629.84   49.40
  -4   3  -1 1653.33   47.20
  -4   3  -1 1581.84   47.60
  -4   3  -1 1604.24   47.90
   4  -3   1 1638.04   46.20
   4  -3   1 1600.84   46.80
   4  -3   1 1628.24   46.10
   4  -3   1 1627.54   43.60
   4  -3   1 1667.73   46.60
   4  -3   1 1665.83   46.50
   4  -3   1 1590.64   47.10
   4  -3   1 1581.74   46.30
  -5   3  -1  337.67   15.80
  -5   3  -1  335.37   14.30
  -5   3  -1  308.27   20.00
  -5   3  -1  309.07   14.40
  -5   3  -1  325.67   17.70
  -5   3  -1  314.07   13.40
  -5   3  -1  327.37   17.10
  -5   3  -1  319.87   15.60
  -5   3  -1  334.87   16.40
   5  -3   1  329.47   14.10
   5  -3   1  314.37   13.70
   5  -3   1  330.27   13.40
   5  -3   1  326.67   13.90
   5  -3   1  335.87   15.30
   5  -3   1  324.47   13.90
   5  -3   1  319.17   14.40
   5  -3   1  315.37   12.90
  -6   3  -1   14.50    6.00
  -6   3  -1    7.10    6.00
  -6   3  -1    7.50    5.50
  -6   3  -1   17.40    7.90
  -6   3  -1    0.20    7.90
  -6   3  -1   -3.30    7.00
  -6   3  -1    6.90    7.00
  -6   3  -1    1.80    6.40
  -6   3  -1   12.50   10.40
   6  -3   1    9.40    6.40
   6  -3   1   12.80    4.90
   6  -3   1    3.70    4.70
   6  -3   1    9.60    5.50
   6  -3   1   13.50    6.10
   6  -3   1   11.60    5.20
   6  -3   1   10.90    4.40
   6  -3   1    8.70    4.60
   6  -3   1    5.60    4.40
   6   2  -1  110.69    9.60
   6   2  -1  105.39   12.60
   6   2  -1  103.69    9.90
   6   2  -1  113.29   10.60
   6   2  -1   96.79   10.00
  -6  -2   1   95.79    9.70
  -6  -2   1  117.09   10.80
  -6  -2   1  126.39   13.30
  -6  -2   1  108.99    9.90
  -6  -2   1  113.69   10.10
  -6  -2   1  113.89   11.40
  -6  -2   1   99.69   10.70
   5   2  -1 1206.08   38.50
   5   2  -1 1110.29   33.30
   5   2  -1 1133.79   35.60
   5   2  -1 1142.59   35.50
   5   2  -1 1157.88   35.30
   5   2  -1 1155.18   36.00
  -5  -2   1 1107.39   37.20
  -5  -2   1 1117.79   36.40
  -5  -2   1 1181.88   35.30
  -5  -2   1 1170.08   35.20
  -5  -2   1 1211.98   34.40
  -5  -2   1 1178.98   36.00
  -5  -2   1 1178.38   35.60
   4   2  -1    5.50    2.70
   4   2  -1    5.60    2.60
   4   2  -1   -0.10    2.40
   4   2  -1    7.00    2.50
   4   2  -1    2.40    3.20
   4   2  -1    0.60    2.40
   4   2  -1    4.10    2.80
   4   2  -1    1.30    1.90
   4   2  -1   -1.60    2.50
  -4  -2   1    5.90    2.50
  -4  -2   1    1.90    2.10
  -4  -2   1    4.10    3.00
  -4  -2   1    2.00    2.80
  -4  -2   1    6.00    3.00
  -4  -2   1    4.20    3.00
  -4  -2   1    0.70    3.60
  -4  -2   1    4.50    3.70
  -4  -2   1    4.10    2.80
  -4  -2   1   11.20    4.00
   3   2  -1  346.87   12.30
   3   2  -1  353.96   12.40
   3   2  -1  331.57   10.70
   3   2  -1  341.67   13.90
   3   2  -1  356.16   11.40
   3   2  -1  349.37   12.60
   3   2  -1  333.17   12.20
   3   2  -1  328.37   10.50
  -3  -2   1  329.07   10.30
  -3  -2   1  352.96   11.90
  -3  -2   1  338.67   10.20
  -3  -2   1  338.97   11.60
  -3  -2   1  352.86   11.30
  -3  -2   1  343.67   11.20
  -3  -2   1  343.27   10.60
  -3  -2   1  352.46   12.10
  -3  -2   1  326.47   12.00
  -3  -2   1  342.97   11.70
  -3  -2   1  334.07   11.10
  -3  -2   1  346.77   11.50
  -3  -2   1  342.47   11.00
   2   2  -1 1562.74   42.90
   2   2  -1 1548.65   43.90
   2   2  -1 1577.94   42.10
   2   2  -1 1572.64   42.30
   2   2  -1 1572.74   42.50
   2   2  -1 1578.84   42.60
   2   2  -1 1543.35   41.70
   2   2  -1 1613.74   42.60
  -2  -2   1 1574.64   40.90
  -2  -2   1 1582.44   41.30
  -2  -2   1 1534.75   42.40
  -2  -2   1 1507.85   41.00
  -2  -2   1 1594.94   41.10
  -2  -2   1 1535.95   42.10
  -2  -2   1 1585.04   42.20
  -2  -2   1 1583.24   41.00
  -2  -2   1 1527.35   41.50
  -2  -2   1 1570.04   43.00
  -2  -2   1 1401.16   41.70
  -2  -2   1 1534.45   41.60
  -2  -2   1 1512.25   42.00
  -2  -2   1 1575.14   40.70
  -2  -2   1 1579.94   42.80
  -2  -2   1 1559.94   41.70
  -2  -2   1 1581.34   40.50
  -2  -2   1 1594.94   41.30
  -2  -2   1 1579.34   42.00
  -2  -2   1 1596.64   41.30
  -2  -2   1 1595.74   42.20
   1   2  -1 1528.85   41.50
   1   2  -1 1533.05   41.70
   1   2  -1 1583.54   41.80
   1   2  -1 1556.94   41.80
   1   2  -1 1549.84   41.50
   1   2  -1 1529.15   42.20
   1   2  -1 1539.35   41.20
   1   2  -1 1546.65   41.20
   1   2  -1 1493.85   41.40
   1   2  -1 1553.94   41.60
   1   2  -1 1548.35   41.50
   1   2  -1 1544.55   41.40
   1   2  -1 1552.04   41.20
  -1  -2   1 1517.35   41.40
  -1  -2   1 1552.74   41.20
  -1  -2   1 1510.95   41.60
  -1  -2   1 1615.24   41.50
  -1  -2   1 1552.84   42.00
  -1  -2   1 1575.74   41.60
  -1  -2   1 1468.45   41.80
  -1  -2   1 1550.34   41.10
  -1  -2   1 1570.84   41.50
  -1  -2   1 1538.15   42.10
  -1  -2   1 1616.04   41.40
  -1  -2   1 1585.84   40.90
  -1  -2   1 1571.34   41.50
   0   2  -1 3956.40  104.49
   0   2  -1 3957.30  104.09
   0   2  -1 4052.39  104.19
   0   2  -1 3905.71  103.39
   0   2  -1 3986.20  103.39
   0   2  -1 4052.69  102.59
   0   2  -1 3957.70  104.19
   0   2  -1 3836.82  104.29
   0   2  -1 3998.40  103.99
   0   2  -1 3970.70  104.09
   0  -2   1 4140.99  102.89
   0  -2   1 4084.49  103.39
   0  -2   1 3932.11  102.69
   0  -2   1 3991.00  103.89
   0  -2   1 4048.70  104.09
   0  -2   1 3965.80  104.19
   0  -2   1 3950.10  103.39
   0  -2   1 3976.70  102.59
   0  -2   1 3948.90  104.29
   0  -2   1 3986.30  104.59
   0  -2   1 4060.29  104.39
   0  -2   1 3909.21  103.49
   0  -2   1 3994.40  102.79
   0  -2   1 4032.30  104.49
   0  -2   1 4087.79  104.29
   0  -2   1 4106.69  103.99
   0  -2   1 4129.39  103.29
   0  -2   1 4233.18  102.99
   0  -2   1 4070.59  103.49
   0  -2   1 3979.00  102.69
   0  -2   1 3990.40  103.29
  -1   2  -1 4977.00  128.69
  -1   2  -1 4868.91  129.79
  -1   2  -1 4978.10  129.09
  -1   2  -1 4778.92  129.09
  -1   2  -1 4984.40  128.19
  -1   2  -1 4989.40  129.79
  -1   2  -1 4861.01  127.89
  -1   2  -1 4937.51  128.39
  -1   2  -1 4873.31  127.79
  -1   2  -1 5072.59  128.49
  -1   2  -1 5001.90  128.29
  -1   2  -1 5002.40  128.79
  -1   2  -1 4983.80  127.09
  -1   2  -1 4870.31  128.59
  -1   2  -1 4811.22  129.39
  -1   2  -1 5120.29  128.19
   1  -2   1 4833.22  128.19
   1  -2   1 5165.28  129.19
   1  -2   1 4967.70  127.99
   1  -2   1 5002.10  129.19
   1  -2   1 4943.81  128.09
   1  -2   1 5012.90  129.59
   1  -2   1 5106.49  126.99
   1  -2   1 4774.82  128.29
   1  -2   1 4884.31  128.09
   1  -2   1 4827.92  128.49
   1  -2   1 5087.09  128.39
   1  -2   1 5086.19  129.29
   1  -2   1 5050.90  128.89
   1  -2   1 4932.51  127.09
   1  -2   1 5233.88  128.49
   1  -2   1 4919.71  128.39
   1  -2   1 4987.70  128.79
  -2   2  -1   75.19    5.20
  -2   2  -1   73.19    6.40
  -2   2  -1   76.99    5.00
  -2   2  -1   68.09    4.90
  -2   2  -1   80.19    4.90
  -2   2  -1   75.49    4.80
  -2   2  -1   75.69    5.50
  -2   2  -1   76.19    4.90
  -2   2  -1   80.09    4.90
  -2   2  -1   77.49    4.80
  -2   2  -1   72.19    5.30
  -2   2  -1   69.99    4.70
  -2   2  -1   71.39    4.90
  -2   2  -1   72.89    3.80
  -2   2  -1   75.09    3.90
   2  -2   1   72.19    4.50
   2  -2   1   74.39    4.30
   2  -2   1   67.99    4.20
   2  -2   1   62.29    5.40
   2  -2   1   69.79    5.40
   2  -2   1   75.89    5.60
   2  -2   1   79.49    5.10
   2  -2   1   70.99    5.30
   2  -2   1   76.39    4.00
   2  -2   1   73.09    4.80
   2  -2   1   75.69    4.70
   2  -2   1   66.89    5.70
   2  -2   1   69.09    4.50
   2  -2   1   77.29    4.50
   2  -2   1   77.89    4.70
  -3   2  -1 1678.83   45.60
  -3   2  -1 1621.34   46.20
  -3   2  -1 1602.34   47.10
  -3   2  -1 1652.63   46.50
  -3   2  -1 1524.35   46.60
  -3   2  -1 1681.43   45.10
  -3   2  -1 1440.06   45.70
  -3   2  -1 1667.03   45.60
  -3   2  -1 1654.43   47.10
   3  -2   1 1641.04   45.00
   3  -2   1 1639.74   45.50
   3  -2   1 1672.53   45.80
   3  -2   1 1619.94   44.00
   3  -2   1 1662.43   45.20
   3  -2   1 1683.03   45.20
   3  -2   1 1631.04   44.90
   3  -2   1 1630.14   44.50
   3  -2   1 1688.03   43.80
   3  -2   1 1663.63   45.40
  -4   2  -1 1712.03   49.99
  -4   2  -1 1730.53   51.39
  -4   2  -1 1727.43   48.40
  -4   2  -1 1711.53   47.40
  -4   2  -1 1783.32   50.89
  -4   2  -1 1714.73   50.19
  -4   2  -1 1756.72   48.40
  -4   2  -1 1809.22   50.99
  -4   2  -1 1750.12   48.90
  -4   2  -1 1717.03   49.99
   4  -2   1 1711.43   48.40
   4  -2   1 1708.73   48.40
   4  -2   1 1722.73   48.50
   4  -2   1 1696.83   49.30
   4  -2   1 1761.42   48.10
   4  -2   1 1715.23   49.00
   4  -2   1 1716.63   48.40
   4  -2   1 1684.33   47.40
   4  -2   1 1774.92   47.90
   4  -2   1 1686.33   46.40
  -5   2  -1  228.08   11.30
  -5   2  -1  258.77   13.20
  -5   2  -1  226.08   14.30
  -5   2  -1  230.48   13.20
  -5   2  -1  234.18   12.60
  -5   2  -1  235.78   13.30
  -5   2  -1  218.38   11.00
  -5   2  -1  241.48   11.60
   5  -2   1  244.78   11.70
   5  -2   1  219.18    9.90
   5  -2   1  233.08   11.30
   5  -2   1  228.58   11.10
   5  -2   1  217.48   11.70
   5  -2   1  230.28   11.00
   5  -2   1  239.88   11.30
   5  -2   1  235.18   10.50
   5  -2   1  229.08   12.10
  -6   2  -1  496.95   17.50
  -6   2  -1  479.75   17.60
  -6   2  -1  443.06   21.10
  -6   2  -1  432.96   20.50
  -6   2  -1  459.55   19.60
  -6   2  -1  440.96   20.90
  -6   2  -1  451.75   23.20
  -6   2  -1  500.15   21.90
   6  -2   1  462.05   19.70
   6  -2   1  461.95   14.70
   6  -2   1  444.76   16.80
   6  -2   1  481.35   19.40
   6  -2   1  467.75   19.60
   6  -2   1  456.85   18.20
   6  -2   1  515.35   18.80
   6  -2   1  507.75   19.10
   6  -2   1  486.95   19.30
   6   1  -1  214.58   11.60
   6   1  -1  220.18   12.50
   6   1  -1  212.18   12.90
   6   1  -1  242.38   13.30
   6   1  -1  226.38    9.60
   6   1  -1  231.28   14.70
   6   1  -1  231.58   12.60
  -6  -1   1  176.38   12.20
  -6  -1   1  219.48   13.50
  -6  -1   1  243.18   14.60
  -6  -1   1  255.67   15.60
  -6  -1   1  244.38   13.80
  -6  -1   1  237.18   13.60
  -6  -1   1  226.18   13.50
   5   1  -1    0.40    3.70
   5   1  -1   14.20    4.00
   5   1  -1    2.80    3.20
   5   1  -1    3.80    3.10
   5   1  -1    8.80    4.40
   5   1  -1    7.80    2.60
   5   1  -1    5.70    3.20
   5   1  -1    6.80    3.80
  -5  -1   1   -2.60    4.00
  -5  -1   1    3.40    4.10
  -5  -1   1    5.80    3.70
  -5  -1   1    5.20    3.70
  -5  -1   1    6.00    3.60
  -5  -1   1   12.60    4.80
  -5  -1   1    7.20    3.80
   4   1  -1  322.37   12.50
   4   1  -1  328.37   11.30
   4   1  -1  311.27   11.90
   4   1  -1  317.97   12.10
   4   1  -1  329.47   12.30
   4   1  -1  326.77   10.80
   4   1  -1  316.37   13.80
   4   1  -1  327.67   12.30
   4   1  -1  290.67   11.60
  -4  -1   1  323.57   12.80
  -4  -1   1  324.77   11.40
  -4  -1   1  344.17   13.90
  -4  -1   1  306.07   12.30
  -4  -1   1  325.77   12.70
  -4  -1   1  318.47   14.00
  -4  -1   1  327.67   10.60
  -4  -1   1  329.77   10.30
  -4  -1   1  344.57   12.40
  -4  -1   1  328.87   12.90
  -4  -1   1  337.07   12.80
   3   1  -1 1852.21   47.40
   3   1  -1 1814.22   49.30
   3   1  -1 1896.01   48.30
   3   1  -1 1747.53   48.90
   3   1  -1 1838.22   48.20
   3   1  -1 1793.92   49.10
   3   1  -1 1814.62   48.50
   3   1  -1 1819.82   47.60
   3   1  -1 1815.22   49.00
   3   1  -1 1798.32   48.00
  -3  -1   1 1810.92   48.20
  -3  -1   1 1788.12   49.30
  -3  -1   1 1774.32   49.00
  -3  -1   1 1880.51   49.90
  -3  -1   1 1566.14   48.30
  -3  -1   1 1847.32   49.30
  -3  -1   1 1795.42   47.30
  -3  -1   1 1829.62   48.80
  -3  -1   1 1816.32   48.50
   2   1  -1    4.20    1.40
   2   1  -1    2.30    0.90
   2   1  -1    1.70    1.40
   2   1  -1    3.30    1.40
   2   1  -1    3.90    1.20
   2   1  -1    3.30    1.00
   2   1  -1    3.20    1.40
   2   1  -1    2.80    1.10
   2   1  -1    4.00    1.80
   2   1  -1    3.00    1.40
   2   1  -1    4.50    1.60
   2   1  -1    4.90    1.40
   2   1  -1    2.90    1.10
   2   1  -1    4.50    1.20
   2   1  -1    1.80    1.50
  -2  -1   1    1.10    0.90
  -2  -1   1    3.00    1.40
  -2  -1   1    3.30    1.60
  -2  -1   1    2.90    1.10
  -2  -1   1    5.30    1.50
  -2  -1   1    3.80    1.60
  -2  -1   1    2.60    1.40
  -2  -1   1    3.60    1.30
  -2  -1   1    4.70    2.10
  -2  -1   1    3.20    2.10
  -2  -1   1    2.30    2.00
  -2  -1   1    4.20    1.00
  -2  -1   1    2.90    1.30
  -2  -1   1    1.20    1.10
  -2  -1   1    3.40    1.50
  -2  -1   1    1.80    1.40
  -2  -1   1   -0.40    1.30
  -2  -1   1    1.60    1.20
  -2  -1   1    4.20    0.80
   1   1  -1  529.25   14.90
   1   1  -1  540.55   15.40
   1   1  -1  530.25   15.80
   1   1  -1  545.25   15.10
   1   1  -1  566.24   14.40
   1   1  -1  540.55   15.00
   1   1  -1  536.65   15.40
   1   1  -1  545.85   15.00
   1   1  -1  543.35   14.90
   1   1  -1  548.75   14.90
  -1  -1   1  556.14   15.30
  -1  -1   1  497.05   14.40
  -1  -1   1  501.45   14.30
  -1  -1   1  507.25   14.40
  -1  -1   1  536.35   14.80
  -1  -1   1  570.84   14.90
  -1  -1   1  560.84   14.80
  -1  -1   1  547.05   14.30
  -1  -1   1  542.75   15.50
  -1  -1   1  570.84   14.90
  -1  -1   1  517.45   14.90
  -1  -1   1  572.14   14.60
  -1  -1   1  577.94   15.00
  -1  -1   1  542.65   14.50
  -1  -1   1  559.54   14.90
  -1  -1   1  549.65   15.40
  -1  -1   1  547.35   15.10
  -1  -1   1  506.85   14.30
  -1  -1   1  554.04   15.80
  -1  -1   1  555.74   14.90
  -1  -1   1  556.64   15.50
   0   1  -1 2584.44   66.89
   0   1  -1 2556.74   67.39
   0   1  -1 2638.14   66.69
   0   1  -1 2647.73   67.09
   0   1  -1 2588.84   67.19
   0   1  -1 2651.53   66.59
   0   1  -1 2531.05   67.59
   0   1  -1 2552.14   67.29
   0   1  -1 2617.64   67.29
   0   1  -1 2581.74   67.39
   0   1  -1 2456.15   66.99
   0   1  -1 2600.34   67.19
   0  -1   1 2521.65   67.59
   0  -1   1 2488.35   67.49
   0  -1   1 2612.64   66.79
   0  -1   1 2613.44   67.39
   0  -1   1 2670.03   66.79
   0  -1   1 2573.64   67.59
   0  -1   1 2503.35   67.09
   0  -1   1 2570.24   67.29
   0  -1   1 2802.02   66.79
   0  -1   1 2591.74   66.59
   0  -1   1 2536.75   67.09
   0  -1   1 2582.84   66.69
   0  -1   1 2666.83   67.39
   0  -1   1 2694.83   66.79
   0  -1   1 2686.83   67.29
   0  -1   1 2742.33   66.89
  -1   1  -1 2088.99   55.89
  -1   1  -1 2145.49   55.59
  -1   1  -1 2028.00   55.19
  -1   1  -1 2126.59   55.29
  -1   1  -1 2140.09   56.79
  -1   1  -1 2059.19   55.39
  -1   1  -1 2125.39   54.19
  -1   1  -1 2125.49   55.49
  -1   1  -1 2089.89   54.89
  -1   1  -1 2203.58   55.49
  -1   1  -1 2132.99   55.89
  -1   1  -1 2035.50   55.09
  -1   1  -1 2165.08   55.29
  -1   1  -1 2076.79   55.29
  -1   1  -1 2201.78   55.19
   1  -1   1 2176.38   54.99
   1  -1   1 2085.29   55.29
   1  -1   1 2060.19   54.99
   1  -1   1 2065.59   55.29
   1  -1   1 2151.78   55.39
   1  -1   1 2072.19   55.19
   1  -1   1 2119.79   55.49
   1  -1   1 2174.78   55.39
   1  -1   1 2149.69   55.39
   1  -1   1 2051.09   54.79
   1  -1   1 2140.79   55.79
   1  -1   1 2051.69   55.79
   1  -1   1 2055.49   55.09
   1  -1   1 2153.48   55.59
   1  -1   1 2142.59   55.89
   1  -1   1 2172.08   54.99
  -2   1  -1 3731.13   96.19
  -2   1  -1 3635.24   95.29
  -2   1  -1 3637.04   95.59
  -2   1  -1 3552.44   95.49
  -2   1  -1 3567.84   95.99
  -2   1  -1 3576.14   96.79
  -2   1  -1 3808.42   94.89
  -2   1  -1 3783.02   95.59
  -2   1  -1 3721.93   95.69
  -2   1  -1 3721.83   96.59
  -2   1  -1 3751.02   95.29
  -2   1  -1 3702.63   95.79
  -2   1  -1 3600.84   95.19
  -2   1  -1 3748.62   96.39
  -2   1  -1 3755.52   95.59
  -2   1  -1 3566.34   96.19
   2  -1   1 3598.84   95.69
   2  -1   1 3581.54   95.39
   2  -1   1 3612.14   95.29
   2  -1   1 3651.83   95.39
   2  -1   1 3616.14   95.29
   2  -1   1 3581.04   95.59
   2  -1   1 3669.63   95.39
   2  -1   1 3727.13   96.39
   2  -1   1 3627.54   95.79
   2  -1   1 3478.35   95.89
   2  -1   1 3653.63   94.99
   2  -1   1 3568.04   95.29
   2  -1   1 3877.01   96.79
   2  -1   1 3889.61   96.29
   2  -1   1 3665.23   95.69
  -3   1  -1 1863.41   52.79
  -3   1  -1 1802.82   51.79
  -3   1  -1 1908.01   50.59
  -3   1  -1 1912.41   51.89
  -3   1  -1 1881.01   50.19
  -3   1  -1 1915.71   52.09
  -3   1  -1 1895.51   50.19
  -3   1  -1 1864.71   51.39
  -3   1  -1 1818.52   51.49
  -3   1  -1 1913.01   51.29
  -3   1  -1 1866.41   50.69
  -3   1  -1 1868.51   51.89
   3  -1   1 1879.11   50.79
   3  -1   1 1848.52   49.99
   3  -1   1 1899.41   50.99
   3  -1   1 1877.41   51.19
   3  -1   1 1885.31   49.20
   3  -1   1 1852.61   50.59
   3  -1   1 1826.82   50.19
   3  -1   1 1852.41   50.69
   3  -1   1 1821.82   50.59
   3  -1   1 1874.81   50.69
   3  -1   1 1851.51   50.19
  -4   1  -1  224.78   10.30
  -4   1  -1  217.58   10.40
  -4   1  -1  211.38   10.20
  -4   1  -1  216.58    8.50
  -4   1  -1  216.88   10.60
  -4   1  -1  194.48   10.80
  -4   1  -1  214.78    8.70
  -4   1  -1  197.98   10.40
  -4   1  -1  226.88   11.80
   4  -1   1  215.28    9.60
   4  -1   1  206.08    9.10
   4  -1   1  215.48    7.50
   4  -1   1  203.28    9.80
   4  -1   1  218.78    8.90
   4  -1   1  217.68   10.00
   4  -1   1  222.68    8.70
   4  -1   1  220.98   10.10
   4  -1   1  212.18    9.10
   4  -1   1  213.68    9.50
  -5   1  -1  786.42   28.30
  -5   1  -1  775.52   26.20
  -5   1  -1  725.73   26.00
  -5   1  -1  774.62   26.70
  -5   1  -1  775.72   26.50
  -5   1  -1  770.82   26.40
  -5   1  -1  759.82   22.60
  -5   1  -1  742.13   22.90
  -5   1  -1  769.82   26.40
   5  -1   1  747.53   24.50
   5  -1   1  795.52   24.70
   5  -1   1  780.02   23.50
   5  -1   1  794.02   25.30
   5  -1   1  739.33   24.00
   5  -1   1  756.32   25.50
   5  -1   1  767.92   25.10
   5  -1   1  778.52   25.20
   5  -1   1  787.02   25.50
   5  -1   1  741.83   21.10
  -6   1  -1  289.97   16.00
  -6   1  -1  293.37   16.00
  -6   1  -1  286.97   15.40
  -6   1  -1  311.77   15.90
  -6   1  -1  279.37   15.90
  -6   1  -1  282.77   18.00
   6  -1   1  281.97   14.20
   6  -1   1  303.57   14.70
   6  -1   1  283.87   14.50
   6  -1   1  249.08   14.60
   6  -1   1  277.17   13.40
   6  -1   1  288.47   12.00
   6  -1   1  291.57   13.20
   6   0  -1  246.98   13.00
   6   0  -1  224.58   10.10
   6   0  -1  232.38   10.60
   6   0  -1  233.38   12.70
   6   0  -1  212.38   11.40
   6   0  -1  227.08   13.90
   6   0  -1  262.07   13.10
   6   0  -1  239.28   12.10
  -6   0   1  224.48   14.10
  -6   0   1  239.38   14.20
  -6   0   1  231.98   15.70
  -6   0   1  253.97   13.80
  -6   0   1  234.48   14.10
  -6   0   1  231.78   14.10
  -6   0   1  248.48   12.50
  -6   0   1  236.48   13.80
   5   0  -1 1024.10   30.40
   5   0  -1 1011.30   30.00
   5   0  -1 1002.60   29.90
   5   0  -1  931.21   27.70
   5   0  -1  964.60   30.50
   5   0  -1 1000.20   30.00
   5   0  -1 1016.90   30.70
   5   0  -1 1038.70   31.10
   5   0  -1  982.00   29.00
   5   0  -1 1019.10   32.10
  -5   0   1  981.60   31.40
  -5   0   1  996.90   31.20
  -5   0   1 1028.20   33.20
  -5   0   1  824.82   28.80
  -5   0   1  997.50   32.00
  -5   0   1 1014.90   31.90
  -5   0   1 1024.90   32.20
  -5   0   1  915.81   31.10
  -5   0   1  976.30   31.50
  -5   0   1  971.10   28.20
   4   0  -1  742.63   21.50
   4   0  -1  708.93   22.00
   4   0  -1  722.23   22.50
   4   0  -1  729.43   23.50
   4   0  -1  704.53   21.80
   4   0  -1  674.83   21.80
   4   0  -1  728.13   22.40
   4   0  -1  727.93   22.50
   4   0  -1  711.83   20.30
   4   0  -1  702.83   19.10
  -4   0   1  721.43   22.70
  -4   0   1  711.03   23.10
  -4   0   1  728.53   20.90
  -4   0   1  727.03   21.20
  -4   0   1  722.03   23.20
  -4   0   1  711.73   22.90
  -4   0   1  718.53   22.70
  -4   0   1  676.63   23.60
  -4   0   1  717.73   24.20
   3   0  -1   62.09    4.30
   3   0  -1   59.69    3.90
   3   0  -1   65.99    4.20
   3   0  -1   58.89    2.70
   3   0  -1   66.39    4.60
   3   0  -1   62.99    4.30
   3   0  -1   59.69    5.30
   3   0  -1   58.59    3.90
   3   0  -1   62.59    4.40
   3   0  -1   63.59    5.10
   3   0  -1   59.89    3.10
   3   0  -1   67.09    4.30
  -3   0   1   67.99    4.70
  -3   0   1   66.59    4.50
  -3   0   1   66.09    3.90
  -3   0   1   64.99    4.90
  -3   0   1   55.59    5.00
  -3   0   1   54.49    4.40
  -3   0   1   62.09    3.70
  -3   0   1   58.19    5.50
  -3   0   1   63.09    5.30
  -3   0   1   64.59    4.80
   2   0  -1   58.39    3.30
   2   0  -1   61.79    2.30
   2   0  -1   57.49    3.80
   2   0  -1   58.29    2.50
   2   0  -1   60.59    3.40
   2   0  -1   58.19    3.10
   2   0  -1   58.59    3.30
   2   0  -1   57.29    3.20
   2   0  -1   59.69    3.40
   2   0  -1   58.89    3.30
   2   0  -1   51.39    3.60
   2   0  -1   56.99    3.10
   2   0  -1   59.79    3.90
   2   0  -1   54.29    3.20
   2   0  -1   58.59    3.50
  -2   0   1   57.19    3.90
  -2   0   1   58.59    3.40
  -2   0   1   53.99    3.40
  -2   0   1   54.79    3.60
  -2   0   1   59.49    2.70
  -2   0   1   57.99    3.50
  -2   0   1   58.69    3.70
  -2   0   1   61.99    3.50
  -2   0   1   58.89    3.10
  -2   0   1   56.69    3.30
  -2   0   1   61.99    3.40
  -2   0   1   58.29    3.90
  -2   0   1   54.49    3.30
  -2   0   1   54.39    3.60
   1   0  -1 3332.07   85.09
   1   0  -1 3240.38   84.99
   1   0  -1 3371.06   85.19
   1   0  -1 3230.98   84.79
   1   0  -1 3100.79   84.89
   1   0  -1 3200.78   84.89
   1   0  -1 3375.56   85.09
   1   0  -1 3399.06   84.99
   1   0  -1 3227.48   85.09
   1   0  -1 3252.27   85.39
  -1   0   1 3306.37   85.09
  -1   0   1 3342.37   85.19
  -1   0   1 3325.17   85.39
  -1   0   1 3360.66   84.89
  -1   0   1 3310.47   84.99
  -1   0   1 3229.08   85.29
  -1   0   1 3301.07   85.09
  -1   0   1 3399.46   85.09
  -1   0   1 3377.36   84.99
  -1   0   1 3411.46   85.09
  -1   0  -1 1655.73   44.90
  -1   0  -1 1640.74   44.70
  -1   0  -1 1691.43   45.10
  -1   0  -1 1790.32   44.70
  -1   0  -1 1544.55   44.30
  -1   0  -1 1751.02   43.80
  -1   0  -1 1751.52   44.50
  -1   0  -1 1747.63   44.90
  -1   0  -1 1680.13   44.40
  -1   0  -1 1721.03   44.80
  -1   0  -1 1734.33   44.60
  -1   0  -1 1671.33   44.80
  -1   0  -1 1676.33   44.50
  -1   0  -1 1801.32   44.60
  -1   0  -1 1743.63   44.30
  -1   0  -1 1760.92   44.50
  -1   0  -1 1690.83   44.40
   1   0   1 1673.93   44.60
   1   0   1 1726.93   44.60
   1   0   1 1743.43   44.50
   1   0   1 1720.03   44.30
   1   0   1 1674.03   44.60
   1   0   1 1726.33   45.00
   1   0   1 1635.64   44.30
   1   0   1 1811.42   44.90
   1   0   1 1702.23   44.50
   1   0   1 1799.12   45.10
   1   0   1 1644.94   44.90
   1   0   1 1671.73   43.80
   1   0   1 1716.73   44.40
   1   0   1 1661.03   44.70
   1   0   1 1668.53   44.50
   1   0   1 1713.23   44.40
  -2   0  -1 1870.91   49.60
  -2   0  -1 1871.91   49.99
  -2   0  -1 1897.11   50.09
  -2   0  -1 1845.72   49.30
  -2   0  -1 1878.71   49.50
  -2   0  -1 1870.31   49.50
  -2   0  -1 1839.92   49.50
  -2   0  -1 1800.22   49.80
  -2   0  -1 1889.01   49.40
  -2   0  -1 1825.82   49.80
  -2   0  -1 1874.61   48.10
  -2   0  -1 1866.41   49.10
  -2   0  -1 1941.11   49.40
  -2   0  -1 1870.91   50.49
  -2   0  -1 1958.40   49.50
  -2   0  -1 1788.02   49.99
   2   0   1 1925.11   49.90
   2   0   1 1875.71   50.19
   2   0   1 1818.62   48.90
   2   0   1 1820.82   49.00
   2   0   1 1875.51   49.60
   2   0   1 1873.11   49.00
   2   0   1 1854.11   49.50
   2   0   1 1798.22   49.30
   2   0   1 1794.82   47.80
   2   0   1 1983.60   49.70
   2   0   1 1806.92   49.99
   2   0   1 1864.81   49.30
   2   0   1 1871.31   49.30
   2   0   1 1817.52   49.50
   2   0   1 1810.82   49.40
  -3   0  -1   50.29    2.60
  -3   0  -1   48.20    4.70
  -3   0  -1   42.70    5.30
  -3   0  -1   37.70    4.60
  -3   0  -1   44.50    4.60
  -3   0  -1   41.90    4.50
  -3   0  -1   40.80    3.90
  -3   0  -1   42.30    4.40
  -3   0  -1   55.89    4.60
  -3   0  -1   48.10    4.40
  -3   0  -1   47.80    5.00
  -3   0  -1   47.80    4.20
   3   0   1   43.90    4.10
   3   0   1   48.10    3.90
   3   0   1   49.99    4.00
   3   0   1   45.30    4.70
   3   0   1   43.50    3.80
   3   0   1   43.90    3.40
   3   0   1   44.70    3.70
   3   0   1   45.30    4.10
   3   0   1   46.00    3.50
   3   0   1   49.40    4.20
   3   0   1   47.70    2.00
   3   0   1   46.10    5.30
  -4   0  -1 2604.14   71.69
  -4   0  -1 2536.65   70.49
  -4   0  -1 2488.85   70.29
  -4   0  -1 2606.24   66.99
  -4   0  -1 2395.56   69.59
  -4   0  -1 2609.74   69.79
  -4   0  -1 2587.84   70.09
  -4   0  -1 2574.34   70.49
  -4   0  -1 2584.54   70.99
   4   0   1 2644.64   68.49
   4   0   1 2586.74   67.19
   4   0   1 2607.24   69.79
   4   0   1 2560.64   70.59
   4   0   1 2392.96   68.69
   4   0   1 2584.94   69.49
   4   0   1 2623.54   69.99
   4   0   1 2588.34   68.29
   4   0   1 2518.35   68.99
  -5   0  -1  327.07   15.10
  -5   0  -1  354.46   14.60
  -5   0  -1  355.26   14.80
  -5   0  -1  333.57   14.70
  -5   0  -1  326.77   14.80
  -5   0  -1  314.47   15.90
  -5   0  -1  341.47   14.90
   5   0   1  347.37   12.60
   5   0   1  327.67   15.20
   5   0   1  346.97   14.20
   5   0   1  333.37   13.40
   5   0   1  351.56   14.10
   5   0   1  350.76   14.10
   5   0   1  323.47   11.20
   5   0   1  316.37   12.10
   5   0   1  339.67   13.60
   5   0   1  334.17   14.00
  -6   0  -1  279.17   14.60
  -6   0  -1  262.77   15.20
  -6   0  -1  259.07   14.80
  -6   0  -1  269.07   17.30
  -6   0  -1  258.07   15.10
  -6   0  -1  288.07   15.60
   6   0   1  248.08   13.20
   6   0   1  270.07   13.50
   6   0   1  270.77   11.70
   6   0   1  259.07   11.50
   6   0   1  254.67   13.60
   6   0   1  282.97   13.90
   6   0   1  272.77   14.10
   6   0   1  289.77   15.50
   6  -1  -1  240.48   12.00
   6  -1  -1  221.48   12.40
   6  -1  -1  234.98   12.70
   6  -1  -1  229.28   13.40
   6  -1  -1  218.78   12.70
   6  -1  -1  220.18   11.20
   6  -1  -1  219.68   13.10
   6  -1  -1  224.48    9.90
   6  -1  -1  237.38   12.30
  -6   1   1  222.18   13.60
  -6   1   1  238.78   14.20
  -6   1   1  228.58   14.60
  -6   1   1  225.78   13.70
  -6   1   1  243.08   12.40
  -6   1   1  227.98   14.70
  -6   1   1  231.58   14.50
  -6   1   1  235.18   16.10
  -6   1   1  240.78   12.30
   5  -1  -1  739.63   23.00
   5  -1  -1  706.53   23.60
   5  -1  -1  717.93   24.30
   5  -1  -1  721.93   23.10
   5  -1  -1  722.13   23.00
   5  -1  -1  713.53   23.70
   5  -1  -1  717.93   24.10
   5  -1  -1  695.63   23.40
  -5   1   1  709.53   22.80
  -5   1   1  660.53   23.30
  -5   1   1  725.43   25.80
  -5   1   1  719.13   26.30
  -5   1   1  714.43   24.80
  -5   1   1  720.33   24.80
  -5   1   1  739.43   25.50
  -5   1   1  693.73   24.30
  -5   1   1  711.53   24.60
   4  -1  -1   58.39    4.40
   4  -1  -1   58.89    4.80
   4  -1  -1   70.89    4.50
   4  -1  -1   60.09    4.70
   4  -1  -1   40.50    5.10
   4  -1  -1   62.69    5.10
   4  -1  -1   66.69    5.10
   4  -1  -1   47.90    4.80
   4  -1  -1   67.29    5.80
   4  -1  -1   56.19    5.90
  -4   1   1   59.89    6.70
  -4   1   1   62.99    7.00
  -4   1   1   54.39    5.80
  -4   1   1   50.29    5.80
  -4   1   1   57.39    5.30
  -4   1   1   58.39    5.60
  -4   1   1   54.49    5.60
  -4   1   1   50.59    6.00
   3  -1  -1 2721.93   72.89
   3  -1  -1 2693.43   73.09
   3  -1  -1 2757.92   72.89
   3  -1  -1 2726.33   70.79
   3  -1  -1 2777.12   72.99
   3  -1  -1 2684.63   73.29
   3  -1  -1 2763.22   72.09
   3  -1  -1 2707.53   72.69
   3  -1  -1 2677.43   71.49
  -3   1   1 2727.13   73.29
  -3   1   1 2741.23   74.59
  -3   1   1 2824.92   73.29
  -3   1   1 2732.43   73.09
  -3   1   1 2699.23   73.69
  -3   1   1 2755.82   74.69
  -3   1   1 2754.52   72.29
  -3   1   1 2820.22   73.89
  -3   1   1 2832.62   72.99
  -3   1   1 2651.43   73.79
   2  -1  -1 1715.93   45.40
   2  -1  -1 1688.93   44.70
   2  -1  -1 1635.14   44.90
   2  -1  -1 1659.13   45.20
   2  -1  -1 1693.83   45.10
   2  -1  -1 1690.63   45.80
   2  -1  -1 1715.03   45.10
   2  -1  -1 1703.63   44.90
   2  -1  -1 1692.03   45.40
   2  -1  -1 1689.23   43.70
   2  -1  -1 1641.24   44.70
   2  -1  -1 1645.04   44.80
   2  -1  -1 1687.23   43.80
   2  -1  -1 1682.03   45.10
   2  -1  -1 1653.93   44.40
  -2   1   1 1630.04   45.50
  -2   1   1 1680.93   45.10
  -2   1   1 1728.53   45.10
  -2   1   1 1664.83   45.70
  -2   1   1 1661.43   46.30
  -2   1   1 1665.13   46.10
  -2   1   1 1738.93   45.20
  -2   1   1 1706.73   45.00
  -2   1   1 1708.23   43.80
  -2   1   1 1632.94   45.20
  -2   1   1 1706.03   44.20
  -2   1   1 1674.83   44.80
  -2   1   1 1690.83   45.40
  -2   1   1 1620.84   45.30
   1  -1  -1   59.99    3.00
   1  -1  -1   60.69    2.60
   1  -1  -1   59.49    2.50
   1  -1  -1   57.89    3.00
   1  -1  -1   56.49    3.00
   1  -1  -1   55.89    2.90
   1  -1  -1   54.49    3.00
   1  -1  -1   59.99    3.30
   1  -1  -1   59.79    2.60
   1  -1  -1   57.29    3.10
   1  -1  -1   59.49    3.00
   1  -1  -1   58.69    3.30
   1  -1  -1   56.19    2.70
  -1   1   1   48.50    2.80
  -1   1   1   55.39    2.70
  -1   1   1   57.09    3.20
  -1   1   1   57.89    2.60
  -1   1   1   56.69    2.60
  -1   1   1   60.29    3.00
  -1   1   1   59.69    2.70
  -1   1   1   58.09    3.00
  -1   1   1   56.19    3.60
  -1   1   1   57.29    3.30
  -1   1   1   55.49    3.10
  -1   1   1   61.59    3.00
  -1   1   1   61.09    3.40
  -1   1   1   59.59    2.00
   0  -1  -1 1574.04   40.50
   0  -1  -1 1596.54   40.50
   0  -1  -1 1615.34   40.50
   0  -1  -1 1526.75   40.60
   0  -1  -1 1605.04   40.60
   0  -1  -1 1599.04   41.10
   0  -1  -1 1553.64   40.50
   0  -1  -1 1563.04   40.80
   0  -1  -1 1518.75   41.00
   0  -1  -1 1610.34   41.20
   0  -1  -1 1520.25   40.40
   0  -1  -1 1508.65   40.50
   0  -1  -1 1408.36   40.60
   0  -1  -1 1556.64   41.00
   0  -1  -1 1620.24   41.20
   0  -1  -1 1558.64   40.80
   0  -1  -1 1508.55   40.80
   0  -1  -1 1603.54   40.80
   0   1   1 1565.44   40.80
   0   1   1 1542.05   41.10
   0   1   1 1614.14   40.50
   0   1   1 1519.15   40.40
   0   1   1 1605.74   40.50
   0   1   1 1554.04   40.90
   0   1   1 1553.54   40.40
   0   1   1 1530.85   40.90
   0   1   1 1587.84   40.80
   0   1   1 1607.94   40.50
   0   1   1 1560.54   40.60
   0   1   1 1485.95   41.20
   0   1   1 1617.24   40.60
   0   1   1 1551.94   41.30
   0   1   1 1592.74   41.10
  -1  -1  -1 9999.00  256.47
  -2  -1  -1   38.70    3.30
  -2  -1  -1   34.10    2.90
  -2  -1  -1   39.50    3.20
  -2  -1  -1   35.00    3.10
  -2  -1  -1   40.00    3.10
  -2  -1  -1   34.70    3.60
  -2  -1  -1   36.10    2.30
  -2  -1  -1   37.30    2.10
  -2  -1  -1   39.60    4.00
  -2  -1  -1   35.20    3.30
  -2  -1  -1   33.80    3.50
  -2  -1  -1   38.80    2.80
  -2  -1  -1   39.40    2.80
  -2  -1  -1   33.80    4.00
  -2  -1  -1   33.80    2.90
  -2  -1  -1   41.60    3.70
   2   1   1   39.10    3.20
   2   1   1   41.00    2.10
   2   1   1   41.20    3.40
   2   1   1   42.40    2.80
   2   1   1   38.30    2.50
   2   1   1   41.80    4.10
   2   1   1   39.00    2.60
   2   1   1   38.20    2.80
   2   1   1   37.80    3.10
   2   1   1   40.00    3.30
   2   1   1   42.40    3.10
   2   1   1   34.60    3.10
   2   1   1   39.20    2.50
   2   1   1   40.90    3.20
   2   1   1   43.40    3.70
  -3  -1  -1 2790.62   71.59
  -3  -1  -1 2759.02   72.09
  -3  -1  -1 2765.32   71.99
  -3  -1  -1 2751.32   73.09
  -3  -1  -1 2688.43   71.89
  -3  -1  -1 2782.82   71.39
  -3  -1  -1 2723.13   70.69
  -3  -1  -1 2741.43   72.79
  -3  -1  -1 2754.12   70.59
  -3  -1  -1 2704.63   70.99
   3   1   1 2729.53   72.19
   3   1   1 2708.83   70.29
   3   1   1 2531.15   70.89
   3   1   1 2637.94   72.09
   3   1   1 2443.86   71.49
   3   1   1 2666.03   70.59
   3   1   1 2722.63   71.09
   3   1   1 2572.44   71.09
   3   1   1 2734.53   69.99
   3   1   1 2517.25   72.19
   3   1   1 2710.93   73.39
   3   1   1 2678.13   69.99
  -4  -1  -1  805.02   24.20
  -4  -1  -1  799.12   24.90
  -4  -1  -1  856.71   25.80
  -4  -1  -1  784.02   25.30
  -4  -1  -1  803.02   26.40
  -4  -1  -1  776.22   25.20
  -4  -1  -1  836.12   25.50
  -4  -1  -1  849.91   26.70
  -4  -1  -1  855.91   24.60
   4   1   1  825.42   22.40
   4   1   1  763.92   23.50
   4   1   1  787.52   25.30
   4   1   1  813.72   23.20
   4   1   1  782.92   24.20
   4   1   1  794.52   24.00
   4   1   1  791.02   24.70
   4   1   1  812.82   26.90
   4   1   1  832.52   25.10
   4   1   1  827.42   23.30
   4   1   1  754.92   23.00
   4   1   1  771.32   25.40
  -5  -1  -1   45.70    7.20
  -5  -1  -1   40.40    6.20
  -5  -1  -1   50.29    6.60
  -5  -1  -1   36.50    5.80
  -5  -1  -1   43.00    5.80
  -5  -1  -1   38.50    5.60
  -5  -1  -1   43.30    6.10
   5   1   1   36.10    4.50
   5   1   1   45.50    6.10
   5   1   1   34.10    5.70
   5   1   1   32.80    5.00
   5   1   1   32.30    5.10
   5   1   1   40.50    6.50
   5   1   1   40.80    5.30
   5   1   1   44.30    6.10
  -6  -1  -1  865.71   30.30
  -6  -1  -1  897.51   32.70
  -6  -1  -1  862.81   29.90
  -6  -1  -1  862.11   30.60
  -6  -1  -1  869.41   28.40
  -6  -1  -1  836.02   31.20
   6   1   1  886.91   29.40
   6   1   1  886.01   29.90
   6   1   1  870.31   25.70
   6   1   1  815.22   29.20
   6   1   1  871.01   30.00
   6   1   1  899.01   32.10
   6   1   1  803.62   27.50
   6  -2  -1 1053.29   33.80
   6  -2  -1  969.90   34.80
   6  -2  -1 1048.50   34.70
   6  -2  -1 1088.59   34.30
   6  -2  -1 1098.79   34.80
   6  -2  -1 1047.10   31.80
   6  -2  -1 1071.09   34.20
   6  -2  -1 1130.49   35.10
   6  -2  -1 1091.29   33.90
  -6   2   1 1077.09   34.50
  -6   2   1 1049.49   35.00
  -6   2   1 1128.79   34.00
  -6   2   1 1100.39   36.70
  -6   2   1 1076.49   37.00
  -6   2   1 1161.78   38.20
  -6   2   1 1103.19   37.60
  -6   2   1 1114.89   38.40
  -6   2   1 1098.89   39.10
   5  -2  -1   41.60    5.20
   5  -2  -1   20.60    5.10
   5  -2  -1   38.30    5.30
   5  -2  -1   33.70    4.60
   5  -2  -1   42.70    5.40
   5  -2  -1   40.90    5.60
   5  -2  -1   32.40    5.40
   5  -2  -1   36.10    4.30
   5  -2  -1   36.70    5.30
  -5   2   1   35.00    6.80
  -5   2   1   37.40    5.70
  -5   2   1   46.70    6.20
  -5   2   1   37.10    5.90
  -5   2   1   34.60    6.20
  -5   2   1   37.10    6.20
  -5   2   1   41.90    6.50
  -5   2   1   45.90    6.80
  -5   2   1   33.70    6.50
   4  -2  -1 1121.19   32.80
   4  -2  -1 1219.48   35.40
   4  -2  -1 1244.88   35.40
   4  -2  -1 1193.18   35.80
   4  -2  -1 1269.77   34.80
   4  -2  -1 1230.98   34.80
   4  -2  -1 1194.88   35.20
   4  -2  -1 1185.88   36.00
   4  -2  -1 1124.29   32.40
  -4   2   1 1274.67   35.50
  -4   2   1 1220.48   38.00
  -4   2   1 1162.58   35.90
  -4   2   1 1181.28   36.90
  -4   2   1 1186.58   38.00
  -4   2   1 1247.28   36.20
  -4   2   1 1234.18   36.80
  -4   2   1 1286.37   36.70
   3  -2  -1  654.03   20.10
   3  -2  -1  668.73   20.80
   3  -2  -1  644.64   20.20
   3  -2  -1  680.23   20.10
   3  -2  -1  655.73   18.70
   3  -2  -1  659.43   20.60
   3  -2  -1  671.63   19.40
   3  -2  -1  615.54   18.70
   3  -2  -1  662.63   20.30
  -3   2   1  655.63   20.40
  -3   2   1  676.03   21.20
  -3   2   1  637.14   21.20
  -3   2   1  645.44   19.00
  -3   2   1  646.24   22.20
  -3   2   1  659.53   21.20
  -3   2   1  645.54   21.40
  -3   2   1  631.84   21.30
  -3   2   1  648.14   21.90
   2  -2  -1   31.90    3.90
   2  -2  -1   24.60    3.40
   2  -2  -1   26.50    3.40
   2  -2  -1   26.00    3.70
   2  -2  -1   24.70    3.10
   2  -2  -1   30.70    2.80
   2  -2  -1   24.60    2.80
   2  -2  -1   20.90    3.30
   2  -2  -1   27.80    3.10
   2  -2  -1   29.30    3.00
   2  -2  -1   30.10    2.70
   2  -2  -1   29.40    3.40
   2  -2  -1   27.10    3.10
   2  -2  -1   23.80    3.20
   2  -2  -1   20.20    3.00
  -2   2   1   27.90    3.90
  -2   2   1   31.50    4.20
  -2   2   1   22.70    3.20
  -2   2   1   21.50    3.30
  -2   2   1   28.40    2.90
  -2   2   1   24.90    3.20
  -2   2   1   27.90    3.70
  -2   2   1   27.00    3.40
  -2   2   1   30.40    3.00
  -2   2   1   26.50    3.30
  -2   2   1   26.00    3.00
  -2   2   1   24.90    2.80
  -2   2   1   20.20    2.70
  -2   2   1   29.70    3.80
  -2   2   1   25.00    3.30
   1  -2  -1 2013.60   54.89
   1  -2  -1 2116.69   54.89
   1  -2  -1 2038.80   55.19
   1  -2  -1 2092.29   54.89
   1  -2  -1 2051.29   55.69
   1  -2  -1 2107.99   54.99
   1  -2  -1 2063.19   54.89
   1  -2  -1 1938.61   54.79
   1  -2  -1 2065.09   54.99
   1  -2  -1 2140.69   56.19
   1  -2  -1 1968.50   55.29
   1  -2  -1 2048.00   54.49
   1  -2  -1 2148.89   55.99
   1  -2  -1 2093.19   55.29
   1  -2  -1 2131.59   53.99
  -1   2   1 2069.99   54.29
  -1   2   1 2081.79   56.29
  -1   2   1 2197.08   55.29
  -1   2   1 2049.99   55.09
  -1   2   1 2225.78   54.79
  -1   2   1 2075.39   55.79
  -1   2   1 2138.39   54.99
  -1   2   1 2077.39   55.09
  -1   2   1 2027.40   55.09
  -1   2   1 2044.40   55.99
  -1   2   1 2078.59   55.39
  -1   2   1 2029.80   53.49
  -1   2   1 2149.08   54.79
  -1   2   1 2052.39   56.09
  -1   2   1 2088.29   54.59
  -1   2   1 2085.49   54.79
   0  -2  -1  372.86   10.40
   0  -2  -1  371.56   10.60
   0  -2  -1  363.66   11.00
   0  -2  -1  360.46   11.80
   0  -2  -1  361.56   11.70
   0  -2  -1  344.57   11.30
   0  -2  -1  369.46   10.40
   0  -2  -1  357.36   11.70
   0  -2  -1  380.76   10.60
   0  -2  -1  366.96   11.60
   0  -2  -1  384.96   11.10
   0  -2  -1  368.86   11.40
   0  -2  -1  367.56   10.60
   0  -2  -1  372.56   11.30
   0  -2  -1  378.26   12.10
   0  -2  -1  377.36   10.50
   0  -2  -1  359.86   11.60
   0  -2  -1  361.86   10.50
   0  -2  -1  363.76   11.30
   0  -2  -1  367.26   10.80
   0  -2  -1  366.86   11.50
   0  -2  -1  349.37   11.70
   0   2   1  362.66   10.40
   0   2   1  374.36   10.60
   0   2   1  364.56   12.00
   0   2   1  377.36   10.50
   0   2   1  370.06   10.30
   0   2   1  353.06   11.60
   0   2   1  361.36   11.60
   0   2   1  364.06   11.10
   0   2   1  370.26   10.30
   0   2   1  364.06   11.40
   0   2   1  359.06   11.10
   0   2   1  364.46   12.00
   0   2   1  359.06   11.80
   0   2   1  359.66   10.20
   0   2   1  371.56   10.30
   0   2   1  370.66   10.20
  -1  -2  -1  171.68    6.70
  -1  -2  -1  171.58    6.40
  -1  -2  -1  176.38    6.00
  -1  -2  -1  177.68    5.70
  -1  -2  -1  178.98    7.80
  -1  -2  -1  182.98    6.80
  -1  -2  -1  169.88    6.60
  -1  -2  -1  179.08    6.00
  -1  -2  -1  178.78    5.90
  -1  -2  -1  182.48    6.70
  -1  -2  -1  181.08    5.40
  -1  -2  -1  176.98    6.90
  -1  -2  -1  173.88    6.90
  -1  -2  -1  174.98    6.80
  -1  -2  -1  190.98    6.00
  -1  -2  -1  184.18    5.50
  -1  -2  -1  182.78    7.10
  -1  -2  -1  186.88    5.70
  -1  -2  -1  178.68    6.40
  -1  -2  -1  175.48    5.70
  -1  -2  -1  176.68    7.00
   1   2   1  178.88    6.40
   1   2   1  184.78    7.00
   1   2   1  171.08    7.60
   1   2   1  172.58    7.10
   1   2   1  172.88    6.70
   1   2   1  172.68    7.10
   1   2   1  170.28    6.90
   1   2   1  168.98    6.10
   1   2   1  164.88    5.50
   1   2   1  175.48    7.20
   1   2   1  183.48    7.00
   1   2   1  170.78    5.60
  -2  -2  -1  877.51   24.50
  -2  -2  -1  847.82   25.90
  -2  -2  -1  902.21   24.80
  -2  -2  -1  884.21   25.00
  -2  -2  -1  905.81   23.20
  -2  -2  -1  883.91   24.70
  -2  -2  -1  894.31   24.10
  -2  -2  -1  872.51   23.90
  -2  -2  -1  887.61   25.40
  -2  -2  -1  886.71   24.60
  -2  -2  -1  886.91   23.70
  -2  -2  -1  871.81   23.60
  -2  -2  -1  873.41   24.70
  -2  -2  -1  894.81   24.40
  -2  -2  -1  866.01   24.20
   2   2   1  901.11   25.40
   2   2   1  877.21   25.00
   2   2   1  863.91   27.10
   2   2   1  884.21   24.20
   2   2   1  875.71   25.80
   2   2   1  871.71   25.70
   2   2   1  860.11   24.30
   2   2   1  851.01   23.40
   2   2   1  936.01   24.70
   2   2   1  870.71   26.00
   2   2   1  923.11   26.30
  -3  -2  -1 1417.26   39.10
  -3  -2  -1 1407.66   37.40
  -3  -2  -1 1391.06   39.40
  -3  -2  -1 1416.26   38.60
  -3  -2  -1 1402.56   38.30
  -3  -2  -1 1408.56   37.50
  -3  -2  -1 1284.37   40.40
  -3  -2  -1 1436.66   40.00
  -3  -2  -1 1406.56   38.70
  -3  -2  -1 1425.66   38.00
  -3  -2  -1 1482.15   39.10
   3   2   1 1446.96   39.20
   3   2   1 1455.75   38.70
   3   2   1 1371.76   37.00
   3   2   1 1283.07   37.80
   3   2   1 1421.06   42.00
   3   2   1 1405.96   40.10
   3   2   1 1436.36   40.00
   3   2   1 1430.36   40.50
   3   2   1 1405.76   40.40
  -4  -2  -1  494.65   16.50
  -4  -2  -1  443.56   15.10
  -4  -2  -1  488.15   18.40
  -4  -2  -1  464.55   14.70
  -4  -2  -1  484.55   17.00
  -4  -2  -1  463.15   18.00
  -4  -2  -1  461.05   16.70
  -4  -2  -1  480.95   15.10
  -4  -2  -1  480.25   16.30
  -4  -2  -1  491.55   16.70
   4   2   1  482.55   15.10
   4   2   1  488.95   17.00
   4   2   1  463.25   17.10
   4   2   1  476.65   19.20
   4   2   1  469.45   17.40
   4   2   1  468.75   15.80
   4   2   1  474.15   15.40
   4   2   1  451.25   14.20
   4   2   1  493.25   17.70
  -5  -2  -1 1181.68   35.20
  -5  -2  -1 1160.88   33.60
  -5  -2  -1 1198.08   36.20
  -5  -2  -1 1153.58   37.60
  -5  -2  -1 1146.99   33.40
  -5  -2  -1 1161.08   35.60
  -5  -2  -1 1112.49   36.90
   5   2   1 1103.39   36.00
   5   2   1 1105.29   31.50
   5   2   1 1197.98   38.90
   5   2   1 1149.89   36.10
   5   2   1 1164.38   35.80
   5   2   1 1113.69   33.40
   5   2   1 1149.69   33.40
   5   2   1 1154.18   36.40
  -6  -2  -1    5.60    5.40
  -6  -2  -1    8.20    7.80
  -6  -2  -1   11.20    5.50
  -6  -2  -1   15.30    7.00
  -6  -2  -1   14.70    6.30
   6   2   1   13.70    6.10
   6   2   1   13.60    7.60
   6   2   1    1.40    5.90
   6   2   1   13.30    6.00
   6   2   1    0.50    5.20
   6  -3  -1   13.40    5.50
   6  -3  -1   36.00    6.40
   6  -3  -1   17.90    5.20
   6  -3  -1   28.20    5.00
   6  -3  -1   16.90    6.70
   6  -3  -1   20.50    5.40
   6  -3  -1   31.40    5.50
   6  -3  -1   36.50    7.30
   6  -3  -1   23.20    5.60
  -6   3   1   18.80    6.80
  -6   3   1   30.90    9.20
  -6   3   1   38.60    8.30
  -6   3   1   33.90    7.40
  -6   3   1   41.40    6.80
  -6   3   1   21.80    8.00
  -6   3   1   16.80    7.80
  -6   3   1   19.40    8.10
  -6   3   1   32.40    7.20
   5  -3  -1  697.33   23.30
   5  -3  -1  692.93   22.50
   5  -3  -1  682.33   23.10
   5  -3  -1  676.13   24.50
   5  -3  -1  669.23   22.00
   5  -3  -1  647.04   23.10
   5  -3  -1  674.23   23.70
   5  -3  -1  660.63   23.10
  -5   3   1  676.53   26.70
  -5   3   1  680.73   24.00
  -5   3   1  681.03   26.80
  -5   3   1  658.43   26.10
  -5   3   1  665.13   24.50
  -5   3   1  674.03   22.60
  -5   3   1  688.63   25.30
  -5   3   1  696.23   24.80
  -5   3   1  687.83   25.70
   4  -3  -1 1441.36   39.20
   4  -3  -1 1401.16   40.80
   4  -3  -1 1440.66   41.10
   4  -3  -1 1243.58   38.50
   4  -3  -1 1425.56   41.90
   4  -3  -1 1388.96   41.00
   4  -3  -1 1421.96   41.50
   4  -3  -1 1392.16   40.70
  -4   3   1 1465.45   44.50
  -4   3   1 1458.95   41.90
  -4   3   1 1391.36   39.80
  -4   3   1 1431.16   42.70
  -4   3   1 1397.16   42.40
  -4   3   1 1405.16   43.50
  -4   3   1 1443.36   42.70
  -4   3   1 1458.15   43.80
  -4   3   1 1451.35   42.40
  -4   3   1 1327.87   38.80
   3  -3  -1  478.15   16.30
   3  -3  -1  464.25   16.20
   3  -3  -1  454.95   16.10
   3  -3  -1  457.75   15.80
   3  -3  -1  463.85   15.90
   3  -3  -1  446.06   15.00
   3  -3  -1  464.75   14.10
   3  -3  -1  439.66   16.60
  -3   3   1  455.05   18.00
  -3   3   1  454.55   13.70
  -3   3   1  459.85   16.10
  -3   3   1  471.55   17.70
  -3   3   1  466.95   16.70
  -3   3   1  438.26   16.80
  -3   3   1  440.16   17.10
  -3   3   1  468.25   15.00
  -3   3   1  450.35   14.20
  -3   3   1  461.45   17.10
  -3   3   1  459.95   17.30
   2  -3  -1 1926.01   50.89
   2  -3  -1 1827.12   50.39
   2  -3  -1 1880.11   50.49
   2  -3  -1 1899.11   49.30
   2  -3  -1 1828.02   51.09
   2  -3  -1 1790.72   50.49
   2  -3  -1 1868.41   49.50
   2  -3  -1 1872.91   50.79
   2  -3  -1 1881.21   50.59
  -2   3   1 1828.42   50.29
  -2   3   1 1847.92   50.89
  -2   3   1 1853.51   48.00
  -2   3   1 1879.91   49.70
  -2   3   1 1801.62   51.99
  -2   3   1 1847.22   52.69
  -2   3   1 1817.42   50.29
  -2   3   1 1796.92   51.99
  -2   3   1 1793.42   52.49
  -2   3   1 1848.72   50.19
  -2   3   1 1893.51   50.79
  -2   3   1 1840.82   48.00
  -2   3   1 1805.12   51.29
  -2   3   1 1863.61   49.99
  -2   3   1 1808.72   52.29
   1  -3  -1  446.96   13.30
   1  -3  -1  400.46   13.80
   1  -3  -1  407.56   13.10
   1  -3  -1  413.06   13.10
   1  -3  -1  422.36   13.30
   1  -3  -1  408.06   13.20
   1  -3  -1  420.26   13.90
   1  -3  -1  431.06   14.20
   1  -3  -1  419.66   12.80
   1  -3  -1  412.06   12.10
  -1   3   1  446.56   12.90
  -1   3   1  410.16   14.80
  -1   3   1  427.96   14.40
  -1   3   1  425.66   14.00
  -1   3   1  402.36   13.30
  -1   3   1  402.96   13.00
  -1   3   1  420.66   13.00
  -1   3   1  426.56   14.90
  -1   3   1  421.46   13.50
  -1   3   1  424.46   12.60
  -1   3   1  433.16   14.10
  -1   3   1  407.36   13.90
  -1   3   1  404.46   15.10
   0  -3  -1    4.30    1.30
   0  -3  -1    4.60    1.70
   0  -3  -1    4.60    1.80
   0  -3  -1    2.80    2.40
   0  -3  -1    1.70    1.90
   0  -3  -1    2.50    2.50
   0  -3  -1    2.20    1.30
   0  -3  -1    1.10    2.40
   0  -3  -1    3.30    1.30
   0  -3  -1    5.20    2.70
   0  -3  -1    6.00    2.70
   0  -3  -1    5.10    1.70
   0  -3  -1    2.80    2.30
   0  -3  -1    3.20    1.30
   0  -3  -1    2.10    2.10
   0  -3  -1   -2.00    2.60
   0  -3  -1    4.40    1.40
   0  -3  -1    3.50    1.30
   0   3   1    1.80    1.30
   0   3   1    4.50    2.00
   0   3   1    3.90    1.50
   0   3   1    2.90    1.60
   0   3   1    0.70    1.80
   0   3   1    1.60    1.90
   0   3   1    3.80    2.00
   0   3   1    4.20    1.50
   0   3   1    1.80    2.20
   0   3   1    3.70    1.90
   0   3   1    5.40    2.60
  -1  -3  -1 2973.20   76.29
  -1  -3  -1 3022.40   77.69
  -1  -3  -1 2844.62   76.79
  -1  -3  -1 2978.30   77.39
  -1  -3  -1 3030.50   77.09
  -1  -3  -1 2997.30   77.69
  -1  -3  -1 2933.61   76.29
  -1  -3  -1 2928.81   76.59
  -1  -3  -1 2958.30   76.19
  -1  -3  -1 2921.61   77.99
  -1  -3  -1 2913.51   76.19
  -1  -3  -1 2905.51   77.99
  -1  -3  -1 3029.60   78.99
  -1  -3  -1 3017.10   78.19
  -1  -3  -1 2959.20   76.09
  -1  -3  -1 2990.10   76.19
   1   3   1 2934.01   78.69
   1   3   1 2990.50   78.99
   1   3   1 2843.12   76.89
   1   3   1 2858.11   79.19
   1   3   1 2921.11   77.49
   1   3   1 2958.10   79.29
   1   3   1 2978.00   78.79
   1   3   1 2974.20   77.99
   1   3   1 2912.91   78.89
   1   3   1 2930.81   78.79
  -2  -3  -1 1027.70   30.70
  -2  -3  -1 1189.48   32.80
  -2  -3  -1 1135.59   33.00
  -2  -3  -1 1104.19   32.50
  -2  -3  -1 1156.58   31.40
  -2  -3  -1 1037.60   31.50
  -2  -3  -1 1148.09   31.40
  -2  -3  -1 1153.88   30.50
  -2  -3  -1 1188.48   30.70
  -2  -3  -1 1154.98   30.80
  -2  -3  -1 1187.58   30.60
  -2  -3  -1 1134.19   31.30
  -2  -3  -1 1193.38   30.90
  -2  -3  -1 1093.19   30.30
   2   3   1 1167.48   33.40
   2   3   1 1128.19   32.10
   2   3   1 1184.18   33.70
   2   3   1 1094.99   33.10
   2   3   1 1122.49   32.70
   2   3   1 1147.59   33.10
   2   3   1 1177.58   33.80
   2   3   1 1142.29   34.70
   2   3   1 1096.39   31.00
  -3  -3  -1  164.48    7.20
  -3  -3  -1  159.08    8.50
  -3  -3  -1  179.98    7.30
  -3  -3  -1  181.68    8.60
  -3  -3  -1  162.28    7.00
  -3  -3  -1  166.48    8.00
  -3  -3  -1  169.98    7.40
  -3  -3  -1  171.08    9.20
   3   3   1  166.08    9.10
   3   3   1  162.78   10.30
   3   3   1  174.88    8.80
   3   3   1  174.68    9.00
   3   3   1  164.68    8.30
   3   3   1  169.18    8.40
   3   3   1  170.08    9.30
  -4  -3  -1  672.13   22.50
  -4  -3  -1  636.44   20.70
  -4  -3  -1  624.24   20.50
  -4  -3  -1  641.84   21.20
  -4  -3  -1  627.74   20.20
  -4  -3  -1  637.74   23.00
   4   3   1  649.24   22.50
   4   3   1  630.74   22.70
   4   3   1  652.53   22.30
   4   3   1  623.34   24.50
   4   3   1  654.03   22.90
   4   3   1  611.54   18.70
   4   3   1  654.13   21.00
  -5  -3  -1  329.87   14.10
  -5  -3  -1  321.27   14.70
  -5  -3  -1  310.77   16.40
  -5  -3  -1  311.77   16.30
   5   3   1  326.07   15.90
   5   3   1  336.47   15.40
   5   3   1  291.17   15.10
   5   3   1  309.87   12.40
   5   3   1  301.87   15.70
   5   3   1  326.37   17.90
   5   3   1  339.27   13.50
  -6  -3  -1  295.57   19.30
  -6  -3  -1  227.38   13.90
  -6  -3  -1  236.28   15.30
  -6  -3  -1  244.98   16.70
   6   3   1  230.68   15.00
   6   3   1  251.17   15.60
   6   3   1  219.58   15.40
   6   3   1  248.18   16.10
   6  -4  -1  440.26   20.20
   6  -4  -1  504.05   20.60
   6  -4  -1  510.85   21.90
   6  -4  -1  481.45   20.50
   6  -4  -1  493.05   20.60
   6  -4  -1  472.15   19.60
   6  -4  -1  482.05   22.10
  -6   4   1  506.75   25.90
  -6   4   1  497.75   22.80
  -6   4   1  469.45   25.70
  -6   4   1  507.05   22.00
  -6   4   1  519.35   30.20
  -6   4   1  487.25   23.90
  -6   4   1  477.95   19.10
  -6   4   1  541.35   24.60
  -6   4   1  515.95   22.70
   5  -4  -1  316.87   14.30
   5  -4  -1  317.67   16.10
   5  -4  -1  326.57   14.40
   5  -4  -1  297.27   14.30
   5  -4  -1  319.67   14.60
   5  -4  -1  317.67   15.10
  -5   4   1  320.17   18.00
  -5   4   1  320.87   16.10
  -5   4   1  308.47   16.50
  -5   4   1  321.27   15.80
  -5   4   1  298.77   16.70
  -5   4   1  333.87   17.00
  -5   4   1  309.47   18.00
  -5   4   1  324.77   21.20
  -5   4   1  286.97   12.80
   4  -4  -1  193.88   10.60
   4  -4  -1  174.28    9.10
   4  -4  -1  178.18    9.80
   4  -4  -1  173.08    9.80
   4  -4  -1  178.48   10.10
   4  -4  -1  157.28    9.50
  -4   4   1  186.58   11.40
  -4   4   1  161.38   10.80
  -4   4   1  182.28   14.00
  -4   4   1  174.28   10.10
  -4   4   1  182.68   12.10
  -4   4   1  185.38   12.50
  -4   4   1  161.18   12.00
  -4   4   1  190.88   11.50
  -4   4   1  158.38    8.00
   3  -4  -1  815.52   26.20
   3  -4  -1  847.52   23.30
   3  -4  -1  854.31   26.40
   3  -4  -1  806.32   26.90
   3  -4  -1  837.22   26.00
   3  -4  -1  841.82   24.70
   3  -4  -1  805.52   26.30
   3  -4  -1  853.31   27.00
  -3   4   1  835.32   27.50
  -3   4   1  839.52   28.00
  -3   4   1  829.22   25.90
  -3   4   1  828.32   25.60
  -3   4   1  813.82   29.20
  -3   4   1  821.42   26.70
  -3   4   1  823.82   27.30
  -3   4   1  827.82   28.80
  -3   4   1  849.12   28.50
   2  -4  -1  615.74   18.80
   2  -4  -1  625.14   19.10
   2  -4  -1  629.54   21.00
   2  -4  -1  616.74   20.60
   2  -4  -1  636.04   21.30
   2  -4  -1  637.44   20.40
   2  -4  -1  643.24   20.50
   2  -4  -1  647.84   20.30
   2  -4  -1  628.24   20.20
  -2   4   1  660.53   21.00
  -2   4   1  615.94   22.10
  -2   4   1  633.04   22.20
  -2   4   1  615.74   22.40
  -2   4   1  656.23   20.10
  -2   4   1  653.53   22.70
  -2   4   1  633.44   20.80
  -2   4   1  648.54   20.80
  -2   4   1  635.64   19.70
  -2   4   1  623.94   22.10
  -2   4   1  630.54   20.30
  -2   4   1  651.43   20.80
   1  -4  -1  500.15   15.80
   1  -4  -1  491.35   16.00
   1  -4  -1  488.55   15.50
   1  -4  -1  491.75   16.50
   1  -4  -1  488.05   15.50
   1  -4  -1  460.65   15.40
   1  -4  -1  484.65   15.50
   1  -4  -1  488.35   15.10
   1  -4  -1  482.65   14.10
  -1   4   1  489.45   14.50
  -1   4   1  497.95   17.70
  -1   4   1  471.85   16.80
  -1   4   1  508.15   15.00
  -1   4   1  491.05   14.90
  -1   4   1  461.85   13.50
  -1   4   1  482.05   17.50
  -1   4   1  479.05   15.60
  -1   4   1  490.15   16.80
  -1   4   1  478.85   16.30
  -1   4   1  492.45   17.10
  -1   4   1  493.15   18.10
  -1   4   1  494.75   15.60
   0  -4  -1  670.33   18.20
   0  -4  -1  624.64   18.30
   0  -4  -1  635.74   19.90
   0  -4  -1  617.24   19.80
   0  -4  -1  644.14   18.10
   0  -4  -1  656.53   18.30
   0  -4  -1  631.64   19.00
   0  -4  -1  632.94   19.00
   0  -4  -1  645.44   17.60
   0  -4  -1  625.04   18.40
   0  -4  -1  639.84   18.40
   0   4   1  618.34   21.40
   0   4   1  621.74   19.60
   0   4   1  612.44   21.20
   0   4   1  618.34   20.60
   0   4   1  621.94   18.10
   0   4   1  621.84   20.50
   0   4   1  614.64   17.60
   0   4   1  591.34   20.80
   0   4   1  637.34   20.10
   0   4   1  618.04   17.90
  -1  -4  -1   93.29    4.10
  -1  -4  -1   87.39    7.20
  -1  -4  -1   89.59    4.10
  -1  -4  -1   91.99    5.60
  -1  -4  -1   93.39    4.00
  -1  -4  -1   92.79    4.30
  -1  -4  -1   91.69    4.70
  -1  -4  -1   93.29    4.80
  -1  -4  -1   85.39    6.20
  -1  -4  -1  102.69    7.20
  -1  -4  -1   93.39    5.90
  -1  -4  -1   94.59    4.00
  -1  -4  -1   94.39    5.30
   1   4   1   88.49    5.90
   1   4   1   89.39    6.70
   1   4   1   87.99    7.10
   1   4   1  103.39    6.60
   1   4   1   92.39    6.90
   1   4   1   92.29    6.30
   1   4   1   93.09    6.50
   1   4   1   95.19    5.50
   1   4   1   89.19    6.40
  -2  -4  -1   27.50    4.00
  -2  -4  -1   29.90    3.90
  -2  -4  -1   27.00    2.70
  -2  -4  -1   25.60    2.60
  -2  -4  -1   28.60    3.30
  -2  -4  -1   25.10    3.00
  -2  -4  -1   28.30    4.20
  -2  -4  -1   28.40    3.80
  -2  -4  -1   24.10    2.90
  -2  -4  -1   23.20    4.00
  -2  -4  -1   27.90    3.10
  -2  -4  -1   28.40    4.30
  -2  -4  -1   21.90    3.00
  -2  -4  -1   25.10    2.70
   2   4   1   26.90    4.40
   2   4   1   24.80    4.20
   2   4   1   32.70    5.20
   2   4   1   24.30    4.60
   2   4   1   25.50    4.40
   2   4   1   30.90    4.40
   2   4   1   28.80    4.70
   2   4   1   27.50    3.90
  -3  -4  -1  944.31   26.80
  -3  -4  -1 1073.89   28.50
  -3  -4  -1  913.81   28.40
  -3  -4  -1  952.30   27.20
  -3  -4  -1  931.61   27.00
  -3  -4  -1  934.21   25.90
  -3  -4  -1  979.00   30.60
  -3  -4  -1  969.10   26.90
   3   4   1  981.80   30.10
   3   4   1  957.60   30.70
   3   4   1  921.41   28.30
   3   4   1  946.11   29.30
   3   4   1  972.80   30.80
   3   4   1 1019.90   31.70
   3   4   1  936.81   31.00
  -4  -4  -1  192.18    8.60
  -4  -4  -1  176.78   11.50
  -4  -4  -1  193.78   10.10
  -4  -4  -1  194.68    9.00
  -4  -4  -1  188.38   12.10
  -4  -4  -1  185.78    9.50
   4   4   1  166.68    9.40
   4   4   1  212.88   12.10
   4   4   1  198.48   12.20
   4   4   1  205.98   12.50
   4   4   1  181.78   11.30
   4   4   1  183.58   10.50
  -5  -4  -1  237.18   15.80
  -5  -4  -1  269.67   13.80
  -5  -4  -1  263.27   15.60
  -5  -4  -1  258.97   12.40
  -5  -4  -1  246.18   11.70
   5   4   1  265.67   12.10
   5   4   1  265.67   15.90
   5   4   1  258.37   15.70
   5   4   1  239.68   14.80
   5   4   1  277.57   16.30
   5   4   1  280.97   13.80
   5  -5  -1   11.50    6.10
   5  -5  -1   17.40    6.00
   5  -5  -1   17.20    6.60
   5  -5  -1   14.00    5.60
   5  -5  -1   15.10    6.00
   5  -5  -1   17.80    5.60
  -5   5   1   29.30    7.90
  -5   5   1   25.10    8.10
  -5   5   1   21.20    8.20
  -5   5   1   26.70   10.70
  -5   5   1   14.40    8.20
  -5   5   1   14.60    7.70
  -5   5   1   24.50    7.70
   4  -5  -1 1366.26   41.20
   4  -5  -1 1400.06   42.10
   4  -5  -1 1341.67   42.50
   4  -5  -1 1395.76   43.00
   4  -5  -1 1416.16   42.70
   4  -5  -1 1339.87   42.10
  -4   5   1 1392.26   42.20
  -4   5   1 1413.56   43.60
  -4   5   1 1398.96   45.00
  -4   5   1 1401.86   46.60
  -4   5   1 1430.46   44.30
  -4   5   1 1319.07   42.80
  -4   5   1 1414.66   44.80
  -4   5   1 1438.66   47.10
  -4   5   1 1406.16   46.40
   3  -5  -1  362.56   15.80
   3  -5  -1  367.16   15.00
   3  -5  -1  372.26   13.20
   3  -5  -1  348.57   14.90
   3  -5  -1  365.26   15.00
   3  -5  -1  353.26   14.50
  -3   5   1  354.66   17.30
  -3   5   1  353.46   16.70
  -3   5   1  380.96   15.00
  -3   5   1  380.76   17.90
  -3   5   1  365.86   15.50
  -3   5   1  367.46   16.70
  -3   5   1  339.47   15.50
  -3   5   1  373.56   17.40
  -3   5   1  374.06   17.60
  -3   5   1  350.26   14.50
   2  -5  -1  251.77   13.60
   2  -5  -1  313.17   12.20
   2  -5  -1  307.17   13.60
   2  -5  -1  295.57   13.20
   2  -5  -1  297.57   11.10
   2  -5  -1  301.37   12.00
   2  -5  -1  288.97   11.80
   2  -5  -1  310.57   12.80
   2  -5  -1  306.17   12.30
   2  -5  -1  297.07   11.30
  -2   5   1  298.57   13.20
  -2   5   1  310.47   13.30
  -2   5   1  283.27   12.00
  -2   5   1  270.57   12.10
  -2   5   1  293.87   14.40
  -2   5   1  306.27   14.40
  -2   5   1  311.37   14.50
  -2   5   1  286.97   12.40
  -2   5   1  299.67   14.70
  -2   5   1  300.57   14.20
  -2   5   1  305.37   13.20
   1  -5  -1  422.96   14.20
   1  -5  -1  398.96   13.70
   1  -5  -1  407.86   14.10
   1  -5  -1  408.26   15.30
   1  -5  -1  405.16   14.20
   1  -5  -1  399.46   12.20
   1  -5  -1  411.66   14.30
   1  -5  -1  398.06   14.60
  -1   5   1  408.96   12.70
  -1   5   1  409.16   16.30
  -1   5   1  413.96   16.00
  -1   5   1  404.16   14.80
  -1   5   1  419.46   17.10
  -1   5   1  372.16   14.30
  -1   5   1  418.06   16.00
  -1   5   1  410.16   16.00
   0  -5  -1  372.46   12.20
   0  -5  -1  327.97   12.00
   0  -5  -1  366.26   12.40
   0  -5  -1  340.27   12.80
   0  -5  -1  376.46   13.30
   0  -5  -1  395.16   14.50
   0  -5  -1  391.26   12.30
   0  -5  -1  396.06   12.50
   0   5   1  380.46   15.10
   0   5   1  316.47   14.20
   0   5   1  390.56   14.20
   0   5   1  393.66   16.10
   0   5   1  364.76   12.10
   0   5   1  382.86   16.10
   0   5   1  372.46   15.00
   0   5   1  378.56   15.30
  -1  -5  -1  234.08    8.00
  -1  -5  -1  246.48    9.60
  -1  -5  -1  239.08   10.80
  -1  -5  -1  240.28   10.20
  -1  -5  -1  242.58    9.10
  -1  -5  -1  241.38    8.00
  -1  -5  -1  243.58    8.40
  -1  -5  -1  232.48   10.10
   1   5   1  243.68   10.50
   1   5   1  237.68   11.60
   1   5   1  233.18   11.40
   1   5   1  229.78   12.40
   1   5   1  233.28   10.10
   1   5   1  248.08   11.20
   1   5   1  235.18   11.70
  -2  -5  -1  637.84   18.10
  -2  -5  -1  625.54   18.00
  -2  -5  -1  620.74   18.60
  -2  -5  -1  622.94   17.90
  -2  -5  -1  639.44   19.00
  -2  -5  -1  621.44   21.00
  -2  -5  -1  598.74   20.50
   2   5   1  640.84   22.90
   2   5   1  616.64   23.20
   2   5   1  615.04   21.90
   2   5   1  647.64   23.70
   2   5   1  640.24   22.50
   2   5   1  650.83   21.80
   2   5   1  645.04   20.60
  -3  -5  -1   79.99    7.90
  -3  -5  -1   82.19    5.00
  -3  -5  -1   81.59    8.10
  -3  -5  -1   64.09    6.50
  -3  -5  -1   79.69    5.70
  -3  -5  -1   75.69    7.90
   3   5   1   78.39    9.30
   3   5   1   70.29    8.90
   3   5   1   62.89    7.60
   3   5   1   68.09    8.10
   3   5   1   79.99    8.30
   3   5   1   95.79    9.70
   3   5   1   57.89    6.70
  -4  -5  -1   22.50    4.00
  -4  -5  -1   20.40    5.40
  -4  -5  -1   18.30    5.80
  -4  -5  -1   12.40    6.00
   4   5   1   16.40    5.80
   4   5   1   24.30    7.00
   4   5   1   34.70    7.30
   4   5   1   36.70    7.60
   4   5   1   26.40    7.50
   4   5   1   19.20    5.60
   4  -6  -1  250.37   13.10
   4  -6  -1  208.98   13.60
   4  -6  -1  255.27   14.10
   4  -6  -1  217.28   13.70
   4  -6  -1  218.28   13.30
   4  -6  -1  238.88   14.70
  -4   6   1  249.78   16.90
  -4   6   1  249.88   18.30
  -4   6   1  233.58   15.40
  -4   6   1  190.38   15.60
  -4   6   1  223.78   15.80
  -4   6   1  226.58   16.50
  -4   6   1  218.28   18.20
  -4   6   1  231.58   14.30
   3  -6  -1  140.89   10.40
   3  -6  -1  139.19   11.80
   3  -6  -1  126.79   10.10
   3  -6  -1  139.09    9.80
   3  -6  -1  149.69    8.70
   3  -6  -1  132.69   10.40
  -3   6   1  175.78   13.20
  -3   6   1  150.38   13.20
  -3   6   1  170.38   11.30
  -3   6   1  161.68   13.40
  -3   6   1  160.48   14.20
  -3   6   1  137.29   10.50
  -3   6   1  146.49   12.60
  -3   6   1  108.29   12.60
   2  -6  -1 1441.76   44.20
   2  -6  -1 1498.65   43.20
   2  -6  -1 1477.05   41.40
   2  -6  -1 1492.95   45.80
   2  -6  -1 1469.95   43.20
   2  -6  -1 1533.05   43.20
  -2   6   1 1378.56   44.00
  -2   6   1 1538.65   47.70
  -2   6   1 1477.45   45.00
  -2   6   1 1486.15   46.60
  -2   6   1 1455.55   43.20
  -2   6   1 1462.45   46.40
  -2   6   1 1506.15   45.10
  -2   6   1 1472.85   45.50
   1  -6  -1   53.49    5.70
   1  -6  -1   63.99    8.00
   1  -6  -1   64.49    6.90
   1  -6  -1   55.09    7.10
   1  -6  -1   62.09    6.00
   1  -6  -1   55.49    7.40
   1  -6  -1   60.69    5.90
  -1   6   1   59.19    7.30
  -1   6   1   62.09    7.40
  -1   6   1   56.89    7.50
  -1   6   1   63.69    8.20
  -1   6   1   56.79    7.90
  -1   6   1   61.19    7.60
  -1   6   1   57.39    8.10
   0  -6  -1  387.26   13.90
   0  -6  -1  375.06   13.70
   0  -6  -1  380.46   12.90
   0  -6  -1  359.16   15.30
   0  -6  -1  354.56   13.60
   0  -6  -1  372.96   13.00
   0  -6  -1  382.36   13.20
   0   6   1  372.56   15.00
   0   6   1  390.46   17.70
   0   6   1  357.66   12.50
   0   6   1  396.66   17.10
   0   6   1  382.76   15.50
   0   6   1  373.96   16.50
   0   6   1  377.66   16.70
  -1  -6  -1  261.07    9.20
  -1  -6  -1  252.87    9.20
  -1  -6  -1  242.18   10.40
  -1  -6  -1  253.47   12.30
  -1  -6  -1  256.37   10.50
  -1  -6  -1  250.87   11.00
   1   6   1  247.08   11.60
   1   6   1  220.18   11.00
   1   6   1  238.48   13.40
   1   6   1  259.87   13.70
   1   6   1  253.87   13.50
   1   6   1  262.47   15.00
   1   6   1  245.68   12.30
  -2  -6  -1  379.56   16.00
  -2  -6  -1  311.57   11.40
  -2  -6  -1  384.46   11.70
  -2  -6  -1  362.86   14.90
  -2  -6  -1  364.56   14.60
  -2  -6  -1  370.46   11.90
   2   6   1  367.36   16.20
   2   6   1  369.36   18.60
   2   6   1  348.27   14.60
   2   6   1  360.86   17.00
   2   6   1  352.46   16.60
  -3  -6  -1   79.19    5.40
  -3  -6  -1   88.99    9.40
  -3  -6  -1   94.79    9.80
  -3  -6  -1   90.39    5.80
   3   6   1   78.39   11.00
   3   6   1   81.29   10.00
   3   6   1   99.89   11.30
   3   6   1   78.29    9.00
   3   6   1   99.19   11.50
   3   6   1  107.99   12.60
   3  -7  -1  785.62   27.70
   3  -7  -1  753.22   28.30
   3  -7  -1  808.32   24.60
   3  -7  -1  820.82   30.30
   3  -7  -1  750.62   27.10
   3  -7  -1  772.42   27.50
  -3   7   1  767.42   28.60
  -3   7   1  778.52   31.20
  -3   7   1  748.73   31.20
  -3   7   1  746.13   30.60
  -3   7   1  777.02   29.70
  -3   7   1  782.42   32.20
   2  -7  -1    7.60    5.80
   2  -7  -1   11.30    5.40
   2  -7  -1    8.10    5.20
   2  -7  -1    5.50    5.60
   2  -7  -1   22.60    5.10
   2  -7  -1   14.00    5.50
  -2   7   1    9.30    7.30
  -2   7   1   35.70    8.40
  -2   7   1    6.30    6.70
  -2   7   1   10.40    7.00
  -2   7   1    1.60    7.40
  -2   7   1   19.00    6.90
  -2   7   1   16.60    6.90
   1  -7  -1  187.08   12.30
   1  -7  -1  191.58   13.20
   1  -7  -1  189.48   11.10
   1  -7  -1  202.58   10.50
   1  -7  -1  184.28    9.90
   1  -7  -1  200.88   10.30
  -1   7   1  175.58   13.10
  -1   7   1  176.68   14.20
  -1   7   1  199.28   13.80
  -1   7   1  153.98   12.50
  -1   7   1  206.08   15.40
  -1   7   1  173.98   12.20
  -1   7   1  205.58   13.80
   0  -7  -1  379.96   13.50
   0  -7  -1  388.26   14.40
   0  -7  -1  389.46   18.50
   0  -7  -1  399.86   17.50
   0  -7  -1  354.26   15.50
   0  -7  -1  386.16   14.70
   0   7   1  394.76   18.90
   0   7   1  407.96   19.20
   0   7   1  382.86   16.50
   0   7   1  401.46   18.90
   0   7   1  410.86   19.70
   0   7   1  364.16   16.60
  -1  -7  -1   14.10    3.60
  -1  -7  -1   15.10    5.10
  -1  -7  -1   13.40    5.50
   1   7   1   18.50    6.60
   1   7   1    8.60    6.70
   1   7   1   19.40    5.70
   1   7   1   -4.60    6.40
   1   7   1   16.80    6.20
   1   7   1   13.00    5.90
  -2  -7  -1  217.38   12.80
  -2  -7  -1  222.68   14.00
   2   7   1  194.68   17.20
   2   7   1  214.08   15.20
   2   7   1  223.18   14.90
   2   7   1  226.28   12.90
   2   7   1  194.58   15.30
   0   8  -2  646.44   26.10
   0   8  -2  587.64   27.00
   0   8  -2  642.94   25.30
   0   8  -2  612.24   25.70
   0  -8   2  599.84   23.20
   0  -8   2  634.34   19.80
   0  -8   2  609.74   25.40
  -1   8  -2  136.19   15.20
  -1   8  -2  100.99   11.10
  -1   8  -2  129.79   14.60
  -1   8  -2  116.89   13.60
  -1   8  -2  139.49   14.20
   1  -8   2  117.59   13.40
   1  -8   2  111.59    8.70
   1  -8   2  123.69    9.30
   1  -8   2  143.09   12.00
   3   7  -2   78.09    9.90
   3   7  -2   64.49   10.90
   3   7  -2   68.79    9.00
  -3  -7   2   66.79    8.30
  -3  -7   2   68.79    8.80
  -3  -7   2   58.89    7.80
  -3  -7   2   66.89    8.60
  -3  -7   2   85.59    7.30
  -3  -7   2   69.99    8.00
   2   7  -2  138.39   12.30
   2   7  -2  134.49   10.50
   2   7  -2  150.78   12.30
   2   7  -2  132.39   12.70
   2   7  -2  136.39   12.00
  -2  -7   2  143.99    9.20
  -2  -7   2  152.78    9.00
  -2  -7   2  142.39   10.40
  -2  -7   2  139.89   10.80
  -2  -7   2  151.18   10.30
  -2  -7   2  152.38    9.60
  -2  -7   2  145.69    8.90
   1   7  -2   96.39   10.90
   1   7  -2   84.39    8.80
   1   7  -2   90.29    9.60
   1   7  -2   95.29   11.10
   1   7  -2   88.49   10.60
   1   7  -2   70.69    9.80
   1   7  -2   84.39    9.20
   1   7  -2   83.69    9.10
  -1  -7   2   76.39    7.20
  -1  -7   2   80.39    9.50
  -1  -7   2   78.39    8.20
  -1  -7   2   99.39    7.00
   0   7  -2   72.69    9.60
   0   7  -2  102.79   10.40
   0   7  -2   91.89    7.90
   0   7  -2   94.79   10.30
   0   7  -2   73.29    9.00
   0   7  -2  100.69   11.60
   0   7  -2   91.99   10.10
   0  -7   2   82.89    8.10
   0  -7   2   88.39    9.70
   0  -7   2   79.29    5.40
   0  -7   2   97.59    6.20
   0  -7   2  117.39    7.80
   0  -7   2   91.09    7.80
   0  -7   2   86.69    6.40
  -1   7  -2   38.60    5.30
  -1   7  -2   40.30    7.70
  -1   7  -2   29.40    7.20
  -1   7  -2   30.70    7.10
  -1   7  -2   38.30    7.50
  -1   7  -2   44.20    7.20
   1  -7   2   20.70    5.90
   1  -7   2   27.30    4.40
   1  -7   2   33.00    5.50
   1  -7   2   45.00    6.10
   1  -7   2   47.00    6.20
  -2   7  -2  867.31   32.00
  -2   7  -2  848.62   31.10
  -2   7  -2  881.31   32.70
  -2   7  -2  792.32   26.40
  -2   7  -2  864.21   31.80
  -2   7  -2  903.21   32.90
   2  -7   2  887.71   27.90
   2  -7   2  863.91   28.00
   2  -7   2  880.21   27.80
   2  -7   2  877.01   31.00
   2  -7   2  878.41   28.90
  -3   7  -2    0.40    7.40
  -3   7  -2    8.00    8.40
  -3   7  -2   12.40    7.60
  -3   7  -2   11.20    8.70
  -3   7  -2    1.10    7.60
   3  -7   2    3.90    5.20
   3  -7   2    4.50    5.30
   3  -7   2   11.70    5.00
   3  -7   2   15.30    5.70
   3  -7   2   10.60    5.70
   3  -7   2    3.90    5.80
   4   6  -2    7.80    7.20
   4   6  -2    0.60    7.00
   4   6  -2   10.00    7.30
   4   6  -2    7.60    7.10
   4   6  -2  -11.70    7.00
   4   6  -2    8.80    5.90
  -4  -6   2    3.30    5.10
  -4  -6   2   -2.80    6.20
  -4  -6   2   -0.10    5.90
   3   6  -2  231.38   15.50
   3   6  -2  214.88   12.90
   3   6  -2  239.58   14.20
   3   6  -2  222.98   14.20
   3   6  -2  207.08   12.10
   3   6  -2  224.68   14.00
  -3  -6   2  219.98   11.30
  -3  -6   2  233.58   10.80
  -3  -6   2  233.68   12.50
  -3  -6   2  244.38    9.90
  -3  -6   2  216.88    9.20
  -3  -6   2  240.48   11.20
  -3  -6   2  231.78   11.90
   2   6  -2  372.26   15.10
   2   6  -2  375.76   16.10
   2   6  -2  381.76   16.80
   2   6  -2  388.56   16.40
   2   6  -2  392.96   17.80
   2   6  -2  401.76   15.70
   2   6  -2  372.66   17.50
   2   6  -2  388.66   16.60
  -2  -6   2  388.26   14.60
  -2  -6   2  356.26   15.10
  -2  -6   2  394.06   13.60
  -2  -6   2  371.86   14.40
  -2  -6   2  388.16   13.60
  -2  -6   2  381.06   14.80
  -2  -6   2  387.66   13.80
   1   6  -2  148.69   10.10
   1   6  -2  151.88    9.90
   1   6  -2  143.99    9.10
   1   6  -2  152.48    8.70
   1   6  -2  155.18    9.80
   1   6  -2  156.68   10.60
   1   6  -2  145.89    8.90
   1   6  -2  154.18   10.30
  -1  -6   2  155.58    9.40
  -1  -6   2  144.59    7.70
  -1  -6   2  145.09    8.30
  -1  -6   2  146.39    7.80
   0   6  -2  613.74   22.40
   0   6  -2  655.43   23.10
   0   6  -2  657.33   22.00
   0   6  -2  637.44   23.30
   0   6  -2  602.64   20.20
   0   6  -2  654.53   24.00
   0   6  -2  623.94   22.80
   0   6  -2  681.43   23.30
   0  -6   2  642.84   19.10
   0  -6   2  674.93   22.90
   0  -6   2  656.43   19.30
   0  -6   2  615.84   18.60
   0  -6   2  625.24   19.30
   0  -6   2  654.33   18.70
   0  -6   2  637.74   21.10
   0  -6   2  656.03   19.70
  -1   6  -2  795.12   27.80
  -1   6  -2  811.62   28.20
  -1   6  -2  829.82   28.10
  -1   6  -2  761.42   24.20
  -1   6  -2  799.72   27.20
  -1   6  -2  836.72   28.90
  -1   6  -2  791.62   27.00
   1  -6   2  798.22   21.80
   1  -6   2  805.72   24.40
   1  -6   2  755.02   25.20
   1  -6   2  804.72   24.20
   1  -6   2  782.12   25.10
   1  -6   2  808.72   24.40
   1  -6   2  838.42   27.50
  -2   6  -2   71.89    9.40
  -2   6  -2   84.19    9.80
  -2   6  -2   69.09    9.00
  -2   6  -2   84.19    9.90
  -2   6  -2   77.39    7.30
  -2   6  -2  102.29    9.90
  -2   6  -2   76.99    8.90
   2  -6   2   83.79    7.00
   2  -6   2   82.89    6.90
   2  -6   2   81.49    7.20
   2  -6   2   83.39    8.70
   2  -6   2   90.29    7.20
  -3   6  -2  419.26   20.20
  -3   6  -2  411.96   18.90
  -3   6  -2  434.06   20.90
  -3   6  -2  393.36   15.00
  -3   6  -2  404.76   20.80
  -3   6  -2  416.76   19.30
  -3   6  -2  438.86   19.80
  -3   6  -2  393.46   16.30
   3  -6   2  429.16   16.80
   3  -6   2  412.46   16.80
   3  -6   2  437.66   18.50
   3  -6   2  441.36   17.30
   3  -6   2  428.96   16.50
   3  -6   2  407.66   15.40
  -4   6  -2  956.00   33.90
  -4   6  -2  876.81   32.30
  -4   6  -2  958.50   33.20
  -4   6  -2  978.60   35.20
  -4   6  -2  937.01   36.10
  -4   6  -2  914.21   32.20
  -4   6  -2  854.21   31.30
  -4   6  -2  957.20   36.60
  -4   6  -2  764.62   31.50
   4  -6   2  912.41   30.40
   4  -6   2  943.91   32.10
   4  -6   2  935.81   31.40
   4  -6   2  900.91   31.10
   4  -6   2  957.80   30.90
   4  -6   2  942.01   29.50
   5   5  -2   24.50    6.80
   5   5  -2   -5.90    7.10
   5   5  -2   23.30    6.70
   5   5  -2   15.20    7.70
   5   5  -2   27.20    7.80
   5   5  -2   11.60    6.90
  -5  -5   2   19.50    7.40
  -5  -5   2   21.50    6.30
  -5  -5   2   12.30    4.30
   4   5  -2  354.86   16.20
   4   5  -2  345.77   16.20
   4   5  -2  343.97   18.90
   4   5  -2  321.37   16.10
   4   5  -2  319.67   14.50
   4   5  -2  318.47   15.40
   4   5  -2  311.47   13.50
  -4  -5   2  339.47   14.10
  -4  -5   2  326.27   11.40
  -4  -5   2  354.76   16.40
  -4  -5   2  352.96   11.60
  -4  -5   2  347.07   12.50
  -4  -5   2  339.07   12.90
   3   5  -2  988.00   30.70
   3   5  -2  976.10   31.80
   3   5  -2  968.70   33.50
   3   5  -2  963.50   30.00
   3   5  -2  959.90   31.20
   3   5  -2  987.80   31.50
   3   5  -2  990.10   31.00
   3   5  -2  983.00   30.80
  -3  -5   2  978.50   27.90
  -3  -5   2  940.81   28.90
  -3  -5   2  995.50   29.00
  -3  -5   2  963.50   27.00
  -3  -5   2  905.41   30.50
   2   5  -2   92.39    7.60
   2   5  -2   97.99    7.90
   2   5  -2   90.29    7.10
   2   5  -2   88.29    6.50
   2   5  -2   72.99    6.70
   2   5  -2   80.49    7.20
   2   5  -2   80.19    7.20
   2   5  -2   79.49    7.10
   2   5  -2   81.99    8.10
   2   5  -2   81.19    6.80
  -2  -5   2   86.69    6.50
  -2  -5   2   86.39    5.80
  -2  -5   2   81.79    5.50
  -2  -5   2   87.89    5.30
  -2  -5   2   90.49    6.00
  -2  -5   2   78.09    6.10
  -2  -5   2   94.49    6.90
   1   5  -2  450.95   17.00
   1   5  -2  460.65   16.80
   1   5  -2  437.86   15.50
   1   5  -2  433.66   16.50
   1   5  -2  438.36   16.30
   1   5  -2  453.95   16.00
   1   5  -2  438.76   16.80
   1   5  -2  443.96   16.00
   1   5  -2  448.46   17.20
  -1  -5   2  443.06   14.60
  -1  -5   2  453.95   14.40
  -1  -5   2  460.75   16.10
   0   5  -2  485.05   17.80
   0   5  -2  465.65   17.10
   0   5  -2  485.95   17.40
   0   5  -2  477.85   17.30
   0   5  -2  471.25   17.50
   0   5  -2  484.05   17.60
   0   5  -2  462.75   18.00
   0   5  -2  472.65   15.90
   0  -5   2  454.25   16.90
   0  -5   2  467.85   13.60
   0  -5   2  486.35   14.30
   0  -5   2  432.46   16.20
   0  -5   2  482.05   14.30
   0  -5   2  495.65   16.00
   0  -5   2  478.55   14.60
   0  -5   2  478.55   14.80
   0  -5   2  474.65   14.40
   0  -5   2  470.65   13.90
  -1   5  -2  254.87    9.80
  -1   5  -2  247.98   12.30
  -1   5  -2  250.37    9.70
  -1   5  -2  251.67   12.60
  -1   5  -2  251.07   12.10
  -1   5  -2  243.08   11.20
  -1   5  -2  246.38   12.20
  -1   5  -2  252.57   12.40
   1  -5   2  246.68    9.70
   1  -5   2  248.78   10.30
   1  -5   2  250.07    7.70
   1  -5   2  245.08    8.90
   1  -5   2  239.88   11.40
   1  -5   2  262.47   11.00
   1  -5   2  235.08   10.40
   1  -5   2  253.57    9.70
   1  -5   2  243.58    9.60
  -2   5  -2  977.50   29.60
  -2   5  -2 1055.19   29.90
  -2   5  -2 1027.50   34.20
  -2   5  -2 1052.69   33.20
  -2   5  -2 1023.70   33.70
  -2   5  -2 1019.00   28.10
  -2   5  -2 1035.10   34.10
  -2   5  -2 1057.59   30.40
  -2   5  -2 1063.59   33.80
  -2   5  -2 1022.10   31.20
  -2   5  -2 1069.99   30.70
   2  -5   2 1041.20   31.70
   2  -5   2 1059.19   31.20
   2  -5   2 1052.89   32.70
   2  -5   2 1031.20   30.90
   2  -5   2 1064.69   31.00
   2  -5   2 1055.89   30.70
   2  -5   2  987.40   32.00
  -3   5  -2  844.92   30.00
  -3   5  -2  850.51   28.70
  -3   5  -2  859.31   29.20
  -3   5  -2  842.72   30.90
  -3   5  -2  856.91   27.70
  -3   5  -2  861.71   28.20
  -3   5  -2  844.72   28.10
  -3   5  -2  866.81   30.70
  -3   5  -2  783.32   25.40
  -3   5  -2  774.42   26.90
   3  -5   2  843.42   25.60
   3  -5   2  814.32   27.00
   3  -5   2  885.61   28.30
   3  -5   2  836.22   26.50
   3  -5   2  852.11   27.00
   3  -5   2  853.61   26.80
  -4   5  -2   49.99    7.80
  -4   5  -2   33.00    9.00
  -4   5  -2   55.19   10.30
  -4   5  -2   51.69    7.40
  -4   5  -2   47.60    7.30
  -4   5  -2   41.10    6.30
  -4   5  -2   40.80    7.40
  -4   5  -2   30.60    6.90
  -4   5  -2   37.20    7.20
  -4   5  -2   42.20    4.60
  -4   5  -2   43.70    8.20
   4  -5   2   39.50    6.20
   4  -5   2   34.10    5.20
   4  -5   2   42.40    5.80
   4  -5   2   45.70    6.50
   4  -5   2   30.00    5.50
   4  -5   2   38.40    6.30
  -5   5  -2  647.34   28.10
  -5   5  -2  621.44   30.70
  -5   5  -2  670.13   26.90
  -5   5  -2  651.53   27.60
  -5   5  -2  685.53   25.70
  -5   5  -2  681.33   25.70
  -5   5  -2  662.43   30.40
  -5   5  -2  588.64   26.10
   5  -5   2  666.23   25.30
   5  -5   2  643.84   24.20
   5  -5   2  667.63   25.10
   5  -5   2  678.43   23.80
   5  -5   2  651.03   24.40
   5  -5   2  655.03   23.90
   5  -5   2  662.03   23.40
   5   4  -2  697.83   25.50
   5   4  -2  631.34   21.50
   5   4  -2  625.34   23.80
   5   4  -2  705.13   25.20
   5   4  -2  664.13   27.70
   5   4  -2  694.63   24.70
  -5  -4   2  647.84   23.50
  -5  -4   2  671.33   22.00
  -5  -4   2  672.73   20.90
  -5  -4   2  650.93   26.00
  -5  -4   2  671.03   21.60
   4   4  -2  474.55   18.60
   4   4  -2  482.35   17.30
   4   4  -2  510.55   18.60
   4   4  -2  474.05   21.00
   4   4  -2  493.05   18.50
   4   4  -2  478.75   19.00
  -4  -4   2  485.05   15.30
  -4  -4   2  499.95   15.20
  -4  -4   2  510.15   17.80
  -4  -4   2  496.95   16.10
  -4  -4   2  483.55   15.80
  -4  -4   2  503.05   19.60
  -4  -4   2  503.85   17.50
  -4  -4   2  504.35   16.20
   3   4  -2   10.70    3.80
   3   4  -2   10.70    3.30
   3   4  -2   10.30    3.80
   3   4  -2   20.80    3.80
   3   4  -2   12.90    3.70
   3   4  -2   20.50    4.60
   3   4  -2   13.20    3.60
   3   4  -2   22.80    4.10
  -3  -4   2   15.30    2.30
  -3  -4   2   13.50    3.20
  -3  -4   2   16.00    3.00
  -3  -4   2   17.10    3.40
  -3  -4   2   11.80    2.10
  -3  -4   2   13.40    3.00
  -3  -4   2   15.00    2.30
  -3  -4   2   17.00    2.90
   2   4  -2  466.35   16.60
   2   4  -2  476.95   16.20
   2   4  -2  478.15   16.50
   2   4  -2  449.06   16.20
   2   4  -2  470.75   15.90
   2   4  -2  467.65   17.60
   2   4  -2  471.05   16.90
   2   4  -2  459.95   16.30
   2   4  -2  463.55   15.90
   2   4  -2  465.95   16.20
  -2  -4   2  483.05   14.80
  -2  -4   2  468.45   14.20
  -2  -4   2  436.56   14.90
   1   4  -2  831.52   25.50
   1   4  -2  829.42   25.20
   1   4  -2  838.62   25.10
   1   4  -2  851.61   25.80
   1   4  -2  903.81   26.10
   1   4  -2  829.92   25.40
   1   4  -2  861.91   26.20
   1   4  -2  806.72   24.80
   1   4  -2  814.32   25.00
   1   4  -2  812.42   25.80
  -1  -4   2  816.42   24.80
  -1  -4   2  846.32   24.00
  -1  -4   2  834.12   24.10
  -1  -4   2  843.72   23.80
   0   4  -2  269.07    9.90
   0   4  -2  263.87   10.80
   0   4  -2  266.77   11.20
   0   4  -2  266.37   11.10
   0   4  -2  272.17   11.10
   0   4  -2  291.27   11.70
   0   4  -2  274.57   10.20
   0   4  -2  257.47   10.90
   0   4  -2  269.07   11.50
   0  -4   2  265.77   10.70
   0  -4   2  275.87    8.70
   0  -4   2  274.27    8.30
   0  -4   2  284.17    9.80
   0  -4   2  259.67    8.50
   0  -4   2  269.17    9.70
   0  -4   2  263.47   10.70
   0  -4   2  262.07    9.00
   0  -4   2  263.37   10.10
   0  -4   2  264.17    8.50
   0  -4   2  276.97   10.90
   0  -4   2  274.67   10.30
   0  -4   2  284.17    8.80
   0  -4   2  240.38    9.90
   0  -4   2  262.57    9.00
   0  -4   2  263.87    9.70
  -1   4  -2  671.33   18.50
  -1   4  -2  677.43   19.80
  -1   4  -2  644.74   22.10
  -1   4  -2  673.33   22.50
  -1   4  -2  664.83   21.80
  -1   4  -2  647.54   22.20
  -1   4  -2  653.53   18.90
  -1   4  -2  667.23   19.70
  -1   4  -2  687.03   21.20
  -1   4  -2  678.33   22.10
   1  -4   2  626.94   20.00
   1  -4   2  682.33   20.50
   1  -4   2  654.43   19.70
   1  -4   2  687.03   19.60
   1  -4   2  652.03   17.70
   1  -4   2  666.13   21.30
   1  -4   2  654.13   19.70
   1  -4   2  685.03   20.30
   1  -4   2  605.14   20.10
   1  -4   2  655.23   18.20
  -2   4  -2  403.46   14.60
  -2   4  -2  409.96   15.50
  -2   4  -2  397.56   14.00
  -2   4  -2  378.36   16.20
  -2   4  -2  396.76   16.80
  -2   4  -2  393.06   15.60
  -2   4  -2  405.26   12.00
  -2   4  -2  396.86   14.00
  -2   4  -2  402.36   16.20
  -2   4  -2  388.26   15.00
  -2   4  -2  391.66   13.40
  -2   4  -2  396.36   14.80
   2  -4   2  412.56   15.00
   2  -4   2  387.26   13.80
   2  -4   2  405.46   14.00
   2  -4   2  403.86   14.00
   2  -4   2  379.46   13.70
   2  -4   2  418.26   15.00
   2  -4   2  401.36   15.50
  -3   4  -2   21.90    4.80
  -3   4  -2   22.00    4.50
  -3   4  -2   27.50    5.60
  -3   4  -2   34.30    6.40
  -3   4  -2   29.10    5.50
  -3   4  -2   23.00    4.80
  -3   4  -2   27.70    3.40
  -3   4  -2   27.20    5.90
  -3   4  -2   23.50    4.90
  -3   4  -2   22.60    4.90
  -3   4  -2   25.00    4.00
   3  -4   2   27.10    3.60
   3  -4   2   27.30    4.00
   3  -4   2   21.50    3.90
   3  -4   2   25.00    3.80
   3  -4   2   25.80    3.80
   3  -4   2   29.40    6.60
   3  -4   2   24.70    4.10
  -4   4  -2 1215.98   41.90
  -4   4  -2 1201.98   37.20
  -4   4  -2 1244.88   37.70
  -4   4  -2 1149.89   37.60
  -4   4  -2 1132.19   34.50
  -4   4  -2 1219.68   39.40
  -4   4  -2 1175.58   37.90
  -4   4  -2 1228.18   39.10
  -4   4  -2 1200.28   37.90
   4  -4   2 1252.77   35.90
   4  -4   2 1218.48   36.30
   4  -4   2 1216.18   36.90
   4  -4   2 1183.58   36.30
   4  -4   2 1238.08   35.60
   4  -4   2 1215.08   37.30
   4  -4   2 1201.88   36.80
  -5   4  -2  256.57   17.10
  -5   4  -2  263.57   16.50
  -5   4  -2  237.78   14.90
  -5   4  -2  256.57   13.70
  -5   4  -2  256.17   15.20
  -5   4  -2  279.37   16.30
  -5   4  -2  247.88   12.00
  -5   4  -2  277.07   14.30
  -5   4  -2  313.57   20.50
   5  -4   2  272.77   13.90
   5  -4   2  275.07   12.90
   5  -4   2  269.27   11.90
   5  -4   2  266.97   14.40
   5  -4   2  277.07   13.20
   5  -4   2  256.07   13.00
   5  -4   2  288.17   13.00
   5  -4   2  263.07   13.20
  -6   4  -2  168.28   16.20
  -6   4  -2  219.78   22.20
  -6   4  -2  175.48   15.80
  -6   4  -2  165.48   18.50
  -6   4  -2  153.38   17.20
  -6   4  -2  188.98   12.70
  -6   4  -2  192.38   14.20
  -6   4  -2  193.78   13.70
  -6   4  -2  173.38   17.00
   6  -4   2  192.28   13.20
   6  -4   2  204.08   11.80
   6  -4   2  215.28   13.60
   6  -4   2  158.08   12.50
   6  -4   2  182.28   12.60
   6  -4   2  171.78   14.60
   6  -4   2  216.78   15.10
   6  -4   2  174.68   12.10
   6  -4   2  187.88   10.80
   6   3  -2   82.49   11.20
   6   3  -2   86.79   10.30
   6   3  -2   92.39   10.50
   6   3  -2   84.19   10.90
   6   3  -2  109.09   11.10
  -6  -3   2  101.89    9.70
  -6  -3   2   96.99    9.90
  -6  -3   2   81.29    9.30
  -6  -3   2   93.19   10.70
  -6  -3   2  109.89   12.00
  -6  -3   2   87.49   10.00
  -6  -3   2  102.99   12.00
   5   3  -2  530.15   17.80
   5   3  -2  550.04   23.60
   5   3  -2  548.05   20.80
   5   3  -2  567.94   20.90
   5   3  -2  546.45   21.10
   5   3  -2  576.14   20.30
  -5  -3   2  553.44   22.50
  -5  -3   2  582.14   19.40
  -5  -3   2  591.44   19.20
  -5  -3   2  537.45   21.10
  -5  -3   2  592.34   20.90
  -5  -3   2  580.94   19.90
   4   3  -2   45.00    5.60
   4   3  -2   55.69    7.20
   4   3  -2   54.19    5.70
   4   3  -2   52.59    6.00
   4   3  -2   47.10    5.40
   4   3  -2   49.00    5.80
  -4  -3   2   52.69    5.50
  -4  -3   2   49.20    4.70
  -4  -3   2   56.09    6.20
  -4  -3   2   54.69    4.80
  -4  -3   2   52.69    5.00
  -4  -3   2   55.19    5.30
  -4  -3   2   53.39    5.10
  -4  -3   2   52.39    6.00
   3   3  -2 2609.84   68.09
   3   3  -2 2449.05   70.09
   3   3  -2 2516.85   67.99
   3   3  -2 2494.85   66.99
   3   3  -2 2509.95   68.39
   3   3  -2 2589.74   67.69
   3   3  -2 2533.75   68.09
   3   3  -2 2400.56   66.29
  -3  -3   2 2524.35   66.29
  -3  -3   2 2512.55   65.79
  -3  -3   2 2542.65   67.39
  -3  -3   2 2427.46   66.19
  -3  -3   2 2399.86   64.89
  -3  -3   2 2505.25   66.59
  -3  -3   2 2512.05   65.79
  -3  -3   2 2455.35   65.39
  -3  -3   2 2507.15   65.39
  -3  -3   2 2489.65   65.59
  -3  -3   2 2483.65   64.49
  -3  -3   2 2484.05   66.09
   2   3  -2  815.22   24.40
   2   3  -2  833.62   24.40
   2   3  -2  832.62   23.90
   2   3  -2  825.12   24.80
   2   3  -2  832.32   26.00
   2   3  -2  825.62   24.30
   2   3  -2  813.12   24.30
   2   3  -2  817.52   23.90
   2   3  -2  841.92   24.60
   2   3  -2  824.22   24.80
  -2  -3   2  798.92   24.10
  -2  -3   2  827.32   22.40
  -2  -3   2  823.62   23.20
  -2  -3   2  838.72   23.70
  -2  -3   2  816.82   24.00
  -2  -3   2  813.12   23.40
  -2  -3   2  812.32   21.70
  -2  -3   2  762.22   24.10
   1   3  -2  126.79    5.50
   1   3  -2  125.39    6.00
   1   3  -2  125.59    6.20
   1   3  -2  119.29    6.50
   1   3  -2  125.99    6.20
   1   3  -2  126.89    6.10
   1   3  -2  120.99    6.00
   1   3  -2  119.49    6.40
   1   3  -2  129.39    5.90
   1   3  -2  123.29    6.00
   1   3  -2  130.69    6.60
   1   3  -2  127.29    5.80
   1   3  -2  122.49    6.40
  -1  -3   2  133.79    7.00
  -1  -3   2  129.59    5.20
  -1  -3   2  126.99    5.50
  -1  -3   2  132.89    5.70
  -1  -3   2  127.49    5.60
  -1  -3   2  131.59    7.00
  -1  -3   2  125.39    7.20
  -1  -3   2  123.89    6.60
  -1  -3   2  131.89    6.30
  -1  -3   2  120.19    6.50
  -1  -3   2  105.69    6.60
  -1  -3   2  106.89    6.80
   0   3  -2  959.60   27.30
   0   3  -2  961.60   28.40
   0   3  -2  972.40   28.70
   0   3  -2  964.60   27.10
   0   3  -2  949.31   28.00
   0   3  -2 1007.70   26.00
   0   3  -2  993.40   28.30
   0   3  -2  972.30   28.70
   0   3  -2 1003.00   28.30
   0   3  -2  968.00   28.20
   0  -3   2  970.40   29.00
   0  -3   2  970.70   26.90
   0  -3   2  960.90   28.70
   0  -3   2  978.10   26.80
   0  -3   2 1003.10   28.50
   0  -3   2  967.70   28.10
   0  -3   2  985.60   26.30
   0  -3   2  985.50   27.10
   0  -3   2  993.30   26.40
   0  -3   2  935.31   28.80
   0  -3   2  940.91   27.80
   0  -3   2  994.00   26.10
   0  -3   2 1004.60   25.70
   0  -3   2  965.50   29.10
   0  -3   2  993.90   26.50
   0  -3   2  946.11   26.60
   0  -3   2  985.40   27.00
   0  -3   2  989.20   27.70
   0  -3   2  996.20   26.60
   0  -3   2  964.50   27.00
   0  -3   2  994.80   26.30
   0  -3   2  994.60   27.90
  -1   3  -2 3045.50   80.59
  -1   3  -2 3184.58   79.39
  -1   3  -2 3040.20   81.59
  -1   3  -2 2936.61   81.29
  -1   3  -2 2974.30   80.89
  -1   3  -2 2950.10   79.19
  -1   3  -2 3049.89   79.19
  -1   3  -2 3065.79   79.29
  -1   3  -2 2985.20   77.69
  -1   3  -2 2920.21   80.69
  -1   3  -2 3011.90   78.99
  -1   3  -2 3080.59   78.39
  -1   3  -2 3024.00   77.19
   1  -3   2 3008.10   80.19
   1  -3   2 2900.61   81.89
   1  -3   2 2988.50   79.99
   1  -3   2 3062.29   77.69
   1  -3   2 3061.49   79.39
   1  -3   2 3063.59   79.49
   1  -3   2 2960.40   78.99
   1  -3   2 2929.61   78.89
   1  -3   2 3086.09   79.79
   1  -3   2 2989.80   78.79
   1  -3   2 3002.40   79.19
  -2   3  -2   -2.00    2.50
  -2   3  -2    2.30    2.50
  -2   3  -2    2.70    3.10
  -2   3  -2    0.40    2.40
  -2   3  -2    4.90    2.90
  -2   3  -2   -2.00    3.00
  -2   3  -2    2.00    1.70
  -2   3  -2   -0.50    2.30
  -2   3  -2    0.40    2.30
  -2   3  -2    2.20    2.70
  -2   3  -2   -1.10    2.80
  -2   3  -2    2.00    1.60
   2  -3   2   -0.30    3.00
   2  -3   2   -0.20    2.00
   2  -3   2    0.80    1.80
   2  -3   2    2.70    3.50
   2  -3   2    1.40    1.80
   2  -3   2    4.40    2.10
   2  -3   2   -0.30    2.00
   2  -3   2    0.70    1.50
  -3   3  -2 1146.39   35.20
  -3   3  -2 1164.68   34.50
  -3   3  -2 1122.39   37.30
  -3   3  -2 1079.19   31.70
  -3   3  -2 1123.99   32.10
  -3   3  -2 1107.89   35.30
  -3   3  -2 1152.28   34.00
  -3   3  -2 1138.09   34.10
  -3   3  -2 1125.59   34.30
   3  -3   2 1171.08   33.10
   3  -3   2 1132.79   33.50
   3  -3   2 1135.59   33.00
   3  -3   2 1149.89   33.50
   3  -3   2 1121.19   33.60
   3  -3   2 1221.48   32.70
  -4   3  -2  629.24   21.10
  -4   3  -2  629.44   20.50
  -4   3  -2  635.74   23.70
  -4   3  -2  635.94   21.20
  -4   3  -2  594.64   23.20
  -4   3  -2  613.34   22.70
  -4   3  -2  629.34   22.40
  -4   3  -2  618.84   25.80
  -4   3  -2  633.74   22.40
   4  -3   2  631.04   20.80
   4  -3   2  626.84   20.90
   4  -3   2  633.24   21.50
   4  -3   2  634.84   20.60
   4  -3   2  640.54   21.10
   4  -3   2  623.24   20.50
   4  -3   2  635.14   21.70
  -5   3  -2    1.90    6.00
  -5   3  -2    2.90    4.90
  -5   3  -2    2.50    4.00
  -5   3  -2    3.90    4.60
  -5   3  -2    1.40    4.40
  -5   3  -2    7.60    7.30
  -5   3  -2    0.00    4.90
  -5   3  -2   11.20    5.40
  -5   3  -2    2.50    5.30
   5  -3   2    6.40    3.40
   5  -3   2   10.70    4.10
   5  -3   2    4.50    3.50
   5  -3   2    8.50    3.70
   5  -3   2    6.00    3.30
   5  -3   2    4.20    4.50
   5  -3   2    5.40    4.30
   5  -3   2   10.10    3.90
  -6   3  -2  840.82   33.30
  -6   3  -2  778.62   30.20
  -6   3  -2  844.42   31.30
  -6   3  -2  804.72   26.40
  -6   3  -2  812.02   26.40
  -6   3  -2  769.82   27.80
  -6   3  -2  729.63   30.10
  -6   3  -2  772.42   30.40
  -6   3  -2  765.52   36.00
   6  -3   2  822.22   28.00
   6  -3   2  840.42   28.10
   6  -3   2  847.52   28.30
   6  -3   2  781.42   24.10
   6  -3   2  783.62   27.30
   6  -3   2  789.02   26.40
   6  -3   2  813.02   26.80
   6  -3   2  792.82   29.00
   6  -3   2  787.92   28.50
   6   2  -2  959.40   34.90
   6   2  -2  928.11   32.00
   6   2  -2  958.30   30.80
   6   2  -2  990.20   32.10
   6   2  -2  903.11   31.40
  -6  -2   2  967.00   32.10
  -6  -2   2  909.61   30.50
  -6  -2   2  990.00   34.00
  -6  -2   2  922.11   31.80
  -6  -2   2  963.30   31.60
  -6  -2   2  955.90   34.00
  -6  -2   2  956.50   32.50
   5   2  -2    3.70    3.20
   5   2  -2    1.30    2.90
   5   2  -2    0.00    3.10
   5   2  -2    6.50    4.70
   5   2  -2    7.80    3.90
   5   2  -2   -0.30    3.80
  -5  -2   2   -0.30    4.30
  -5  -2   2    2.10    3.30
  -5  -2   2    7.30    3.80
  -5  -2   2    5.90    3.70
  -5  -2   2    3.10    3.90
  -5  -2   2    0.20    3.20
   4   2  -2 1106.59   32.40
   4   2  -2 1106.89   31.80
   4   2  -2 1120.19   34.80
   4   2  -2 1034.10   30.30
   4   2  -2 1097.59   29.10
   4   2  -2 1108.89   32.20
   4   2  -2 1027.30   29.60
   4   2  -2 1136.79   32.60
  -4  -2   2  984.90   30.90
  -4  -2   2 1081.29   31.70
  -4  -2   2 1098.69   31.30
  -4  -2   2 1103.09   32.80
  -4  -2   2 1064.39   31.20
  -4  -2   2 1084.39   31.70
  -4  -2   2 1050.59   29.80
  -4  -2   2 1099.09   32.40
   3   2  -2 1068.19   30.10
   3   2  -2 1027.80   30.00
   3   2  -2 1017.30   31.80
   3   2  -2 1036.00   29.80
   3   2  -2 1037.70   29.60
   3   2  -2 1037.50   28.60
   3   2  -2 1029.90   30.50
   3   2  -2  982.30   28.20
  -3  -2   2 1015.50   28.60
  -3  -2   2 1014.80   29.50
  -3  -2   2 1117.29   30.20
  -3  -2   2 1020.70   28.70
  -3  -2   2 1066.89   29.10
  -3  -2   2 1052.69   28.80
  -3  -2   2 1057.69   28.80
  -3  -2   2 1008.50   28.10
  -3  -2   2 1042.60   27.90
  -3  -2   2  987.00   28.80
  -3  -2   2 1051.69   29.30
  -3  -2   2 1052.59   29.00
  -3  -2   2 1027.70   29.90
   2   2  -2   -1.60    1.80
   2   2  -2    0.30    1.40
   2   2  -2   -0.90    0.90
   2   2  -2    1.80    1.50
   2   2  -2   -0.20    1.30
   2   2  -2   -1.70    1.40
   2   2  -2    0.20    1.20
   2   2  -2   -2.00    1.30
   2   2  -2    2.80    1.70
   2   2  -2    0.60    1.80
  -2  -2   2    1.00    1.20
  -2  -2   2    0.60    0.90
  -2  -2   2    2.00    1.10
  -2  -2   2   -1.80    2.00
  -2  -2   2    0.30    1.70
  -2  -2   2    2.10    1.20
  -2  -2   2   -1.00    1.70
  -2  -2   2    2.90    1.60
  -2  -2   2    1.60    2.00
  -2  -2   2   -1.40    1.70
  -2  -2   2    1.30    1.20
  -2  -2   2   -0.70    1.20
  -2  -2   2    0.90    1.30
  -2  -2   2    1.40    1.30
  -2  -2   2    5.90    2.60
  -2  -2   2    1.90    1.70
  -2  -2   2   -0.70    0.90
  -2  -2   2   -0.20    1.70
  -2  -2   2    0.80    1.10
  -2  -2   2    1.60    1.70
  -2  -2   2    3.00    2.50
  -2  -2   2   -0.10    2.20
   1   2  -2 3005.90   78.99
   1   2  -2 3017.00   79.09
   1   2  -2 3009.30   78.59
   1   2  -2 2987.50   78.49
   1   2  -2 2975.70   78.19
   1   2  -2 2988.10   79.29
   1   2  -2 3045.10   78.09
   1   2  -2 3096.49   78.69
   1   2  -2 3005.80   78.99
   1   2  -2 2950.50   78.59
   1   2  -2 2979.90   78.49
   1   2  -2 3030.00   77.79
   1   2  -2 3004.70   78.79
  -1  -2   2 3110.39   78.29
  -1  -2   2 3114.19   77.09
  -1  -2   2 3024.20   77.69
  -1  -2   2 3135.29   78.59
  -1  -2   2 3001.60   77.79
  -1  -2   2 2904.31   77.49
  -1  -2   2 2971.40   79.29
  -1  -2   2 3087.19   78.89
  -1  -2   2 3014.60   76.99
  -1  -2   2 2917.71   76.89
  -1  -2   2 2871.21   78.69
  -1  -2   2 2939.31   79.19
  -1  -2   2 3062.09   76.99
  -1  -2   2 3024.00   79.09
  -1  -2   2 2980.90   78.59
  -1  -2   2 3003.50   78.69
  -1  -2   2 3054.69   77.89
  -1  -2   2 3033.10   77.89
  -1  -2   2 2867.81   79.19
   0   2  -2   46.80    2.40
   0   2  -2   43.10    3.00
   0   2  -2   44.80    3.10
   0   2  -2   47.50    2.40
   0   2  -2   40.80    2.70
   0   2  -2   48.10    3.30
   0   2  -2   44.90    3.40
   0   2  -2   46.50    3.60
   0   2  -2   45.70    2.10
   0   2  -2   47.40    2.40
   0  -2   2   45.10    3.70
   0  -2   2   50.89    2.80
   0  -2   2   46.20    2.50
   0  -2   2   49.50    2.30
   0  -2   2   50.69    3.00
   0  -2   2   56.69    2.50
   0  -2   2   46.70    2.40
   0  -2   2   51.69    3.90
   0  -2   2   56.69    2.90
   0  -2   2   45.70    2.30
   0  -2   2   46.00    3.30
   0  -2   2   43.90    3.30
   0  -2   2   33.60    3.40
   0  -2   2   47.40    2.60
   0  -2   2   44.70    3.40
   0  -2   2   45.80    2.30
  -1   2  -2  524.25   15.30
  -1   2  -2  523.15   15.80
  -1   2  -2  512.55   15.20
  -1   2  -2  528.55   15.90
  -1   2  -2  512.95   16.30
  -1   2  -2  506.55   15.90
  -1   2  -2  535.05   14.70
  -1   2  -2  491.15   15.00
  -1   2  -2  526.15   15.80
  -1   2  -2  518.65   16.70
  -1   2  -2  513.45   15.40
  -1   2  -2  496.15   14.90
  -1   2  -2  519.25   16.00
  -1   2  -2  538.25   15.20
  -1   2  -2  522.45   13.70
  -1   2  -2  495.25   17.00
   1  -2   2  512.05   15.60
   1  -2   2  518.95   14.90
   1  -2   2  540.55   17.50
   1  -2   2  535.35   15.70
   1  -2   2  538.45   14.60
   1  -2   2  516.75   16.50
   1  -2   2  512.55   15.00
   1  -2   2  534.35   15.60
   1  -2   2  521.95   14.40
   1  -2   2  506.75   15.70
   1  -2   2  537.65   16.10
   1  -2   2  504.25   15.10
   1  -2   2  483.55   15.90
   1  -2   2  483.05   15.90
   1  -2   2  509.75   15.20
   1  -2   2  506.85   15.40
   1  -2   2  518.65   15.70
  -2   2  -2  484.95   16.40
  -2   2  -2  462.25   17.80
  -2   2  -2  481.95   16.00
  -2   2  -2  463.25   15.70
  -2   2  -2  499.15   15.50
  -2   2  -2  483.45   16.50
  -2   2  -2  462.25   15.70
  -2   2  -2  499.85   15.50
  -2   2  -2  498.15   15.30
  -2   2  -2  498.95   15.80
  -2   2  -2  480.05   15.30
  -2   2  -2  497.95   15.50
  -2   2  -2  503.95   14.20
  -2   2  -2  501.35   14.90
   2  -2   2  485.45   15.50
   2  -2   2  484.45   15.80
   2  -2   2  479.45   14.60
   2  -2   2  502.85   15.20
   2  -2   2  475.65   15.40
   2  -2   2  473.55   15.60
   2  -2   2  499.45   15.40
   2  -2   2  481.65   14.80
   2  -2   2  514.45   16.30
   2  -2   2  492.95   15.00
   2  -2   2  496.75   15.80
   2  -2   2  478.45   16.20
   2  -2   2  492.95   15.10
   2  -2   2  495.75   16.00
  -3   2  -2 1103.89   29.90
  -3   2  -2 1085.09   32.70
  -3   2  -2 1059.19   32.60
  -3   2  -2 1104.19   31.50
  -3   2  -2 1114.39   31.50
  -3   2  -2 1107.19   33.80
  -3   2  -2 1110.89   35.90
  -3   2  -2  997.90   30.50
  -3   2  -2 1118.79   33.50
  -3   2  -2 1094.19   31.30
  -3   2  -2 1072.49   32.60
   3  -2   2 1109.49   31.40
   3  -2   2 1114.69   32.00
   3  -2   2 1111.89   31.30
   3  -2   2 1105.49   31.60
   3  -2   2 1114.59   32.10
   3  -2   2 1101.39   31.20
   3  -2   2 1114.19   30.90
  -4   2  -2  247.38   13.10
  -4   2  -2  271.77   10.50
  -4   2  -2  232.18   10.40
  -4   2  -2  237.08   14.80
  -4   2  -2  258.97   12.00
  -4   2  -2  250.37   12.10
  -4   2  -2  247.88   11.80
  -4   2  -2  247.98   10.40
  -4   2  -2  262.37   11.20
  -4   2  -2  261.17   12.60
   4  -2   2  260.27   10.70
   4  -2   2  248.08   11.30
   4  -2   2  264.27   10.70
   4  -2   2  252.97   10.50
   4  -2   2  252.07   10.30
   4  -2   2  242.48   10.40
   4  -2   2  253.87    9.90
   4  -2   2  251.37   10.60
   4  -2   2  247.48   11.50
  -5   2  -2 1153.38   36.80
  -5   2  -2 1137.69   32.80
  -5   2  -2 1141.29   35.10
  -5   2  -2 1078.69   36.20
  -5   2  -2 1136.49   41.20
  -5   2  -2 1118.59   36.20
  -5   2  -2 1199.38   33.20
  -5   2  -2 1122.19   36.40
  -5   2  -2 1163.68   38.40
   5  -2   2 1161.18   34.50
   5  -2   2 1147.19   34.60
   5  -2   2 1106.29   33.90
   5  -2   2  940.91   31.00
   5  -2   2 1084.69   34.70
   5  -2   2 1161.58   34.70
   5  -2   2 1139.89   33.30
   5  -2   2 1141.99   35.30
   5  -2   2 1138.99   33.50
  -6   2  -2   76.89   11.50
  -6   2  -2   85.89   10.90
  -6   2  -2   85.69    8.90
  -6   2  -2   85.69    9.70
  -6   2  -2   69.09    9.60
  -6   2  -2   87.49   10.60
  -6   2  -2   89.69   14.60
  -6   2  -2   75.59    9.50
   6  -2   2   77.19    8.80
   6  -2   2   78.69    9.10
   6  -2   2   88.49    8.60
   6  -2   2   67.89    5.70
   6  -2   2   84.39    9.40
   6  -2   2   64.79    8.70
   6  -2   2   67.29    7.30
   6  -2   2   93.29    8.90
   6  -2   2   94.89    9.50
   6   1  -2   85.19    8.60
   6   1  -2   88.49   10.30
   6   1  -2   95.49    6.60
   6   1  -2   79.99    9.20
   6   1  -2   97.19    9.20
   6   1  -2   79.39    7.80
   6   1  -2  103.09   11.30
  -6  -1   2   98.89    9.40
  -6  -1   2  104.09   11.30
  -6  -1   2   93.99   10.10
  -6  -1   2  105.69   10.10
  -6  -1   2  103.59    9.90
  -6  -1   2   90.19   10.50
  -6  -1   2  104.89   10.90
   5   1  -2  655.13   21.40
   5   1  -2  636.24   21.70
   5   1  -2  639.34   19.30
   5   1  -2  653.53   24.00
   5   1  -2  637.94   22.00
   5   1  -2  618.84   21.50
   5   1  -2  637.34   20.30
   5   1  -2  648.24   21.10
  -5  -1   2  622.64   21.60
  -5  -1   2  640.84   22.30
  -5  -1   2  658.33   22.60
  -5  -1   2  633.14   23.60
  -5  -1   2  663.13   22.50
  -5  -1   2  666.13   25.20
  -5  -1   2  637.04   23.50
  -5  -1   2  628.54   19.50
   4   1  -2 2649.24   71.09
   4   1  -2 2726.73   71.69
   4   1  -2 2502.75   71.59
   4   1  -2 2741.63   75.29
   4   1  -2 2703.33   72.99
   4   1  -2 2744.23   73.09
   4   1  -2 2749.62   72.49
   4   1  -2 2736.43   72.49
   4   1  -2 2752.92   73.39
  -4  -1   2 2737.13   73.59
  -4  -1   2 2683.93   74.39
  -4  -1   2 2694.63   73.29
  -4  -1   2 2687.33   72.79
  -4  -1   2 2667.13   71.39
  -4  -1   2 2659.83   72.69
  -4  -1   2 2766.62   73.69
  -4  -1   2 2764.22   72.99
   3   1  -2  573.44   16.80
   3   1  -2  570.74   17.50
   3   1  -2  580.44   17.10
   3   1  -2  563.84   19.20
   3   1  -2  527.75   16.60
   3   1  -2  558.24   18.10
   3   1  -2  588.54   17.30
   3   1  -2  591.64   15.30
   3   1  -2  602.74   17.90
   3   1  -2  576.94   17.20
   3   1  -2  565.84   16.30
   3   1  -2  586.14   17.70
  -3  -1   2  515.45   17.10
  -3  -1   2  549.15   17.50
  -3  -1   2  556.94   17.80
  -3  -1   2  577.04   17.30
  -3  -1   2  581.34   18.30
  -3  -1   2  581.94   17.20
  -3  -1   2  591.54   18.00
  -3  -1   2  567.84   17.40
   2   1  -2 4889.01  126.19
   2   1  -2 4825.22  125.69
   2   1  -2 4862.71  126.79
   2   1  -2 4951.60  125.59
   2   1  -2 4824.02  126.29
   2   1  -2 4923.01  124.99
   2   1  -2 5081.79  125.99
   2   1  -2 5085.99  125.39
   2   1  -2 4793.22  126.09
   2   1  -2 4865.01  125.49
   2   1  -2 4721.33  125.09
   2   1  -2 4850.92  125.79
   2   1  -2 4836.32  126.29
   2   1  -2 4789.42  127.69
  -2  -1   2 4916.51  126.39
  -2  -1   2 4804.82  126.09
  -2  -1   2 4979.50  127.59
  -2  -1   2 4848.02  126.29
  -2  -1   2 4988.20  126.09
  -2  -1   2 4731.43  125.59
  -2  -1   2 4867.41  125.09
  -2  -1   2 4933.31  126.79
  -2  -1   2 4948.21  126.59
  -2  -1   2 5075.69  126.59
  -2  -1   2 4852.21  125.89
  -2  -1   2 4773.32  125.89
  -2  -1   2 4989.90  127.09
  -2  -1   2 4629.04  125.89
  -2  -1   2 4964.90  125.09
  -2  -1   2 4915.91  127.29
  -2  -1   2 4961.30  125.99
  -2  -1   2 4920.51  126.09
   1   1  -2 1095.09   29.20
   1   1  -2 1111.19   29.20
   1   1  -2 1174.58   29.20
   1   1  -2 1135.59   29.20
   1   1  -2 1141.19   29.10
   1   1  -2 1094.69   28.90
   1   1  -2 1086.49   29.10
   1   1  -2 1109.69   30.10
   1   1  -2 1109.09   29.40
   1   1  -2 1121.09   28.90
   1   1  -2 1073.99   30.30
   1   1  -2 1108.19   30.00
   1   1  -2 1103.29   30.40
   1   1  -2 1080.49   28.90
   1   1  -2 1093.39   29.30
  -1  -1   2 1102.39   28.70
  -1  -1   2 1045.30   29.20
  -1  -1   2 1062.99   29.60
  -1  -1   2 1132.19   29.30
  -1  -1   2 1103.59   28.80
  -1  -1   2 1137.89   29.50
  -1  -1   2 1123.49   29.20
  -1  -1   2 1122.09   30.10
  -1  -1   2 1102.49   29.00
  -1  -1   2 1116.69   29.20
  -1  -1   2 1116.69   30.00
  -1  -1   2 1129.79   29.50
  -1  -1   2 1125.99   29.20
  -1  -1   2 1108.79   29.20
  -1  -1   2 1171.08   30.50
  -1  -1   2 1131.79   30.20
  -1  -1   2 1118.89   29.10
  -1  -1   2 1113.19   30.40
  -1  -1   2 1111.19   30.10
  -1  -1   2 1073.99   29.10
  -1  -1   2 1121.99   29.30
  -1  -1   2 1137.69   29.50
  -1  -1   2 1131.49   29.10
   0   1  -2  326.57    9.20
   0   1  -2  323.67    9.10
   0   1  -2  337.07    9.00
   0   1  -2  312.07    9.60
   0   1  -2  316.57    8.60
   0   1  -2  320.27   10.20
   0   1  -2  323.27    9.10
   0   1  -2  320.87    9.90
   0   1  -2  325.57    9.30
   0   1  -2  336.17    8.70
   0   1  -2  319.87    9.70
   0   1  -2  328.67    9.30
   0   1  -2  316.57    9.50
   0   1  -2  322.77    9.30
   0   1  -2  324.07    9.50
   0  -1   2  311.57    9.10
   0  -1   2  311.57    8.60
   0  -1   2  328.07    9.20
   0  -1   2  300.57    9.20
   0  -1   2  312.87    9.10
   0  -1   2  328.27    8.60
   0  -1   2  329.47    9.70
   0  -1   2  306.17    9.10
   0  -1   2  312.07    9.70
   0  -1   2  318.87   10.20
   0  -1   2  329.07    9.80
   0  -1   2  292.97    9.00
   0  -1   2  332.67    9.50
   0  -1   2  327.27    9.30
   0  -1   2  340.07    9.50
  -1   1  -2 6321.07  161.18
  -1   1  -2 5387.66  161.48
  -1   1  -2 6252.67  161.58
  -1   1  -2 6532.95  161.28
  -1   1  -2 6417.16  161.08
  -1   1  -2 6404.66  161.28
  -1   1  -2 5886.31  160.88
  -1   1  -2 6484.25  160.68
  -1   1  -2 6376.16  161.48
  -1   1  -2 6402.66  162.88
  -1   1  -2 6257.37  161.58
  -1   1  -2 6191.28  160.98
  -1   1  -2 6274.77  161.88
  -1   1  -2 6260.27  162.08
  -1   1  -2 6402.86  161.38
   1  -1   2 6325.47  161.18
   1  -1   2 6450.05  161.68
   1  -1   2 6585.64  163.18
   1  -1   2 6420.26  161.28
   1  -1   2 6250.07  161.28
   1  -1   2 6264.97  161.28
   1  -1   2 6026.30  160.68
   1  -1   2 6224.68  162.08
   1  -1   2 6151.98  161.58
   1  -1   2 6420.66  161.88
   1  -1   2 6300.87  161.68
  -2   1  -2 1120.59   31.00
  -2   1  -2 1089.29   31.60
  -2   1  -2 1149.08   30.70
  -2   1  -2 1115.19   31.60
  -2   1  -2 1129.19   30.40
  -2   1  -2 1140.29   31.20
  -2   1  -2 1117.69   31.20
  -2   1  -2 1120.89   33.70
  -2   1  -2 1157.68   31.20
  -2   1  -2 1058.69   31.50
  -2   1  -2 1133.69   31.00
  -2   1  -2 1082.79   30.40
  -2   1  -2 1124.09   31.70
  -2   1  -2 1149.78   31.40
  -2   1  -2 1111.49   32.30
  -2   1  -2 1164.58   30.20
   2  -1   2 1103.49   30.60
   2  -1   2 1151.18   31.60
   2  -1   2 1095.69   30.60
   2  -1   2 1120.09   30.80
   2  -1   2 1114.49   31.20
   2  -1   2 1126.09   31.20
   2  -1   2 1116.09   31.00
   2  -1   2 1096.79   29.90
   2  -1   2 1098.19   30.60
   2  -1   2 1106.99   31.20
   2  -1   2 1074.29   30.10
   2  -1   2 1147.39   31.70
   2  -1   2 1107.99   30.70
   2  -1   2 1113.69   30.80
   2  -1   2 1160.68   31.40
   2  -1   2 1095.39   32.10
   2  -1   2 1141.39   31.80
  -3   1  -2  252.07    8.60
  -3   1  -2  267.97    9.00
  -3   1  -2  269.37   10.20
  -3   1  -2  267.67   10.90
  -3   1  -2  261.67   10.70
  -3   1  -2  268.77   10.90
  -3   1  -2  260.77   11.90
  -3   1  -2  256.37   10.80
  -3   1  -2  251.57   10.40
   3  -1   2  254.77    8.30
   3  -1   2  263.87   10.10
   3  -1   2  249.48   10.20
   3  -1   2  254.77    9.20
   3  -1   2  257.27    9.80
   3  -1   2  265.57   10.10
   3  -1   2  264.47    9.80
   3  -1   2  250.67    9.20
   3  -1   2  261.57    9.50
  -4   1  -2  754.52   21.50
  -4   1  -2  740.53   24.30
  -4   1  -2  735.33   24.50
  -4   1  -2  765.42   26.10
  -4   1  -2  734.33   24.70
  -4   1  -2  735.73   24.60
  -4   1  -2  719.23   24.50
  -4   1  -2  748.83   21.20
   4  -1   2  749.03   23.90
   4  -1   2  743.93   22.90
   4  -1   2  752.22   23.50
   4  -1   2  721.63   21.30
   4  -1   2  731.93   23.70
   4  -1   2  769.92   22.90
   4  -1   2  742.43   20.70
   4  -1   2  731.03   23.10
   4  -1   2  766.52   23.50
   4  -1   2  746.33   23.50
   4  -1   2  764.02   22.60
  -5   1  -2  526.45   20.20
  -5   1  -2  546.05   21.10
  -5   1  -2  544.25   20.70
  -5   1  -2  548.15   22.40
  -5   1  -2  550.64   20.40
  -5   1  -2  521.55   20.70
  -5   1  -2  536.55   16.20
   5  -1   2  518.45   15.20
   5  -1   2  525.15   19.40
   5  -1   2  528.05   19.20
   5  -1   2  520.95   17.80
   5  -1   2  546.65   18.50
   5  -1   2  548.95   19.50
   5  -1   2  556.84   19.70
   5  -1   2  542.75   18.50
  -6   1  -2  295.97   16.30
  -6   1  -2  274.47   15.50
  -6   1  -2  265.27   15.80
  -6   1  -2  261.77   15.30
  -6   1  -2  285.27   15.90
  -6   1  -2  267.07   18.20
   6  -1   2  280.47   12.20
   6  -1   2  269.07   11.00
   6  -1   2  262.17   14.00
   6  -1   2  290.47   13.30
   6  -1   2  294.97   14.80
   6  -1   2  290.57   13.80
   6  -1   2  290.37   14.90
   6  -1   2  276.47   14.20
   6   0  -2  672.03   24.00
   6   0  -2  638.84   22.60
   6   0  -2  661.33   20.10
   6   0  -2  705.53   24.60
   6   0  -2  690.13   22.10
   6   0  -2  725.23   26.30
   6   0  -2  695.23   24.10
   6   0  -2  702.33   24.70
  -6   0   2  694.93   25.90
  -6   0   2  699.83   25.50
  -6   0   2  698.43   26.30
  -6   0   2  695.93   25.70
  -6   0   2  676.43   26.20
  -6   0   2  733.53   27.90
  -6   0   2  668.73   25.60
  -6   0   2  682.73   22.00
   5   0  -2  543.25   17.80
   5   0  -2  569.14   19.00
   5   0  -2  547.45   19.10
   5   0  -2  552.44   19.30
   5   0  -2  549.74   18.80
   5   0  -2  560.84   20.60
   5   0  -2  551.94   19.30
   5   0  -2  520.15   18.00
   5   0  -2  576.84   18.60
   5   0  -2  503.95   16.00
  -5   0   2  478.85   20.00
  -5   0   2  561.24   20.30
  -5   0   2  513.95   17.90
  -5   0   2  542.65   21.50
  -5   0   2  538.15   20.50
  -5   0   2  550.44   20.20
  -5   0   2  559.94   19.80
  -5   0   2  550.04   20.90
  -5   0   2  562.94   20.10
   4   0  -2  211.38    8.80
   4   0  -2  220.68    7.40
   4   0  -2  215.78    7.00
   4   0  -2  209.68    9.20
   4   0  -2  220.18    9.50
   4   0  -2  229.78    8.90
   4   0  -2  226.98    9.90
   4   0  -2  207.98   10.30
   4   0  -2  223.38    9.30
   4   0  -2  225.38    9.20
  -4   0   2  208.58   10.80
  -4   0   2  205.78   10.10
  -4   0   2  219.58    9.90
  -4   0   2  208.48   10.10
  -4   0   2  208.98    8.90
  -4   0   2  215.18    9.70
  -4   0   2  211.58    9.70
   3   0  -2 2454.05   69.69
   3   0  -2 2780.42   71.39
   3   0  -2 2620.44   71.49
   3   0  -2 2801.72   72.09
   3   0  -2 2723.53   72.89
   3   0  -2 2651.53   71.19
   3   0  -2 2706.13   71.89
   3   0  -2 2721.53   71.69
   3   0  -2 2671.83   71.69
   3   0  -2 2652.73   69.89
   3   0  -2 2805.42   71.69
  -3   0   2 2674.83   71.59
  -3   0   2 2623.74   71.39
  -3   0   2 2808.32   71.89
  -3   0   2 2621.44   72.09
  -3   0   2 2700.23   72.49
  -3   0   2 2760.32   73.09
  -3   0   2 2839.02   72.09
  -3   0   2 2666.83   71.99
  -3   0   2 2673.53   72.09
  -3   0   2 2748.63   71.59
   2   0  -2 2400.86   61.79
   2   0  -2 2313.37   61.59
   2   0  -2 2526.35   62.29
   2   0  -2 2182.18   60.79
   2   0  -2 2344.67   62.09
   2   0  -2 2349.86   61.99
   2   0  -2 2263.47   61.79
   2   0  -2 2420.36   61.89
   2   0  -2 2360.86   61.89
   2   0  -2 2407.26   61.89
   2   0  -2 2336.17   62.19
   2   0  -2 2373.76   62.79
   2   0  -2 2309.07   60.79
  -2   0   2 2430.56   62.09
  -2   0   2 2373.06   61.89
  -2   0   2 2306.67   62.69
  -2   0   2 2304.97   61.09
  -2   0   2 2301.97   61.99
  -2   0   2 2300.57   62.09
  -2   0   2 2448.56   62.89
  -2   0   2 2444.36   62.09
  -2   0   2 2248.48   61.99
  -2   0   2 2390.16   61.79
  -2   0   2 2353.66   62.09
  -2   0   2 2414.86   62.09
  -2   0   2 2348.07   62.39
   1   0  -2 4340.97  111.99
   1   0  -2 4321.97  111.69
   1   0  -2 4334.97  111.79
   1   0  -2 4305.57  111.39
   1   0  -2 4421.76  111.99
   1   0  -2 4373.16  111.99
   1   0  -2 4419.16  112.09
   1   0  -2 4333.87  111.99
  -1   0   2 4279.27  111.89
  -1   0   2 4426.26  112.09
  -1   0   2 4326.27  112.29
  -1   0   2 4275.97  112.19
  -1   0   2 4379.36  111.99
  -1   0   2 4433.26  112.09
  -1   0   2 4323.27  112.09
  -1   0   2 4363.86  111.79
   0   0  -2 3000.70   77.59
   0   0  -2 3038.20   78.09
   0   0  -2 3128.79   77.89
   0   0  -2 3081.79   78.09
   0   0  -2 2994.00   77.89
   0   0  -2 3069.09   77.89
   0   0  -2 2958.60   77.89
   0   0  -2 3115.09   77.99
   0   0  -2 2996.60   78.19
   0   0  -2 3081.59   77.79
   0   0  -2 3100.59   77.69
   0   0  -2 3101.19   77.79
   0   0   2 3046.20   77.69
   0   0   2 2825.62   78.09
   0   0   2 3000.00   77.89
   0   0   2 2979.70   77.69
   0   0   2 2981.60   77.89
   0   0   2 3121.59   77.99
   0   0   2 3114.19   78.09
   0   0   2 3008.70   77.89
   0   0   2 3072.79   78.19
   0   0   2 2997.90   77.79
   0   0   2 2859.91   77.59
   0   0   2 3060.79   77.99
   0   0   2 2910.61   77.59
  -1   0  -2  111.49    4.50
  -1   0  -2  106.59    3.80
  -1   0  -2  100.59    5.00
  -1   0  -2   93.69    4.70
  -1   0  -2  111.39    3.60
  -1   0  -2  111.69    4.50
  -1   0  -2  108.89    4.30
  -1   0  -2  107.29    4.10
  -1   0  -2  109.59    4.20
  -1   0  -2  108.59    4.20
  -1   0  -2  108.49    4.20
  -1   0  -2  110.69    4.80
  -1   0  -2  110.19    4.20
  -1   0  -2  111.89    4.70
  -1   0  -2  110.59    3.90
  -1   0  -2  100.19    4.40
  -1   0  -2  110.69    4.20
   1   0   2  105.49    4.10
   1   0   2  108.29    4.50
   1   0   2  108.99    4.50
   1   0   2  111.59    4.30
   1   0   2  104.79    4.10
   1   0   2  103.89    4.10
   1   0   2  110.39    4.90
   1   0   2  112.29    3.60
   1   0   2  111.99    4.10
   1   0   2  108.99    4.30
   1   0   2  107.69    3.50
   1   0   2  105.79    3.90
   1   0   2  105.39    3.90
   1   0   2  110.49    4.40
   1   0   2  110.19    4.70
  -2   0  -2  135.09    6.50
  -2   0  -2  126.09    5.70
  -2   0  -2  133.09    5.80
  -2   0  -2  137.39    6.10
  -2   0  -2  135.89    6.30
  -2   0  -2  134.99    5.60
  -2   0  -2  130.69    6.00
  -2   0  -2  130.89    6.00
  -2   0  -2  134.39    5.90
  -2   0  -2  131.19    5.40
  -2   0  -2  134.79    6.70
  -2   0  -2  137.39    5.80
  -2   0  -2  136.19    5.70
  -2   0  -2  134.49    5.50
  -2   0  -2  125.49    6.00
   2   0   2  132.89    5.70
   2   0   2  133.69    6.60
   2   0   2  135.39    5.20
   2   0   2  138.49    6.70
   2   0   2  123.89    6.10
   2   0   2  134.69    5.50
   2   0   2  140.39    6.60
   2   0   2  139.49    5.70
   2   0   2  130.49    5.40
   2   0   2  131.69    5.70
   2   0   2  133.79    5.90
   2   0   2  129.49    5.30
   2   0   2  137.09    6.40
   2   0   2  132.19    5.30
   2   0   2  133.59    4.30
  -3   0  -2 1627.44   46.50
  -3   0  -2 1422.16   44.00
  -3   0  -2 1664.33   44.50
  -3   0  -2 1654.03   45.00
  -3   0  -2 1595.74   45.40
  -3   0  -2 1631.84   44.80
  -3   0  -2 1659.23   45.50
  -3   0  -2 1673.13   46.00
  -3   0  -2 1489.05   45.20
  -3   0  -2 1632.94   44.50
   3   0   2 1636.64   43.60
   3   0   2 1646.14   45.80
   3   0   2 1645.44   44.70
   3   0   2 1607.04   45.70
   3   0   2 1641.14   42.10
   3   0   2 1671.63   44.20
   3   0   2 1616.34   44.20
   3   0   2 1649.33   44.30
   3   0   2 1625.14   44.90
   3   0   2 1645.34   44.00
   3   0   2 1625.34   44.80
  -4   0  -2  134.69    8.10
  -4   0  -2  146.09    8.30
  -4   0  -2  137.89    7.90
  -4   0  -2  143.59    9.20
  -4   0  -2  131.99    8.10
  -4   0  -2  129.29    9.30
  -4   0  -2  139.99    8.50
   4   0   2  149.99    7.10
   4   0   2  134.19    5.60
   4   0   2  142.99    7.80
   4   0   2  142.89    7.70
   4   0   2  133.49    8.60
   4   0   2  133.49    7.50
   4   0   2  142.39    6.80
   4   0   2  138.69    7.20
   4   0   2  137.69    8.00
   4   0   2  140.69    7.80
  -5   0  -2  434.46   18.00
  -5   0  -2  417.26   17.40
  -5   0  -2  447.46   16.90
  -5   0  -2  391.96   17.50
  -5   0  -2  458.85   19.50
  -5   0  -2  422.16   17.40
   5   0   2  435.46   17.00
   5   0   2  451.45   15.20
   5   0   2  440.16   16.80
   5   0   2  429.16   16.20
   5   0   2  443.26   16.30
   5   0   2  416.76   14.30
   5   0   2  431.16   16.50
   5   0   2  436.26   15.20
   5   0   2  449.16   17.10
   5   0   2  430.86   17.80
  -6   0  -2  369.16   16.70
  -6   0  -2  366.76   17.60
  -6   0  -2  378.56   18.20
  -6   0  -2  389.86   18.50
  -6   0  -2  372.66   18.40
  -6   0  -2  378.96   20.40
   6   0   2  371.26   17.00
   6   0   2  394.46   16.80
   6   0   2  354.56   16.90
   6   0   2  365.46   16.70
   6   0   2  356.66   13.50
   6   0   2  394.06   16.80
   6   0   2  381.16   14.90
   6   0   2  343.97   14.20
   6  -1  -2  527.85   20.80
   6  -1  -2  543.65   20.20
   6  -1  -2  561.84   21.70
   6  -1  -2  526.85   20.80
   6  -1  -2  576.54   21.20
   6  -1  -2  572.64   21.00
   6  -1  -2  528.85   19.40
   6  -1  -2  503.65   17.10
   6  -1  -2  564.74   20.30
  -6   1   2  567.74   23.80
  -6   1   2  539.85   24.40
  -6   1   2  572.54   22.70
  -6   1   2  555.04   19.60
  -6   1   2  575.44   21.00
  -6   1   2  535.85   22.00
  -6   1   2  558.44   22.30
  -6   1   2  509.15   22.50
  -6   1   2  534.55   22.50
   5  -1  -2   97.49    8.20
   5  -1  -2   83.19    8.20
   5  -1  -2   96.29    7.80
   5  -1  -2   99.09    6.70
   5  -1  -2  104.49    6.90
   5  -1  -2   93.39    7.10
   5  -1  -2  101.39    7.40
   5  -1  -2   91.89    5.80
   5  -1  -2   88.79    6.70
  -5   1   2   66.89    7.30
  -5   1   2   89.09    9.20
  -5   1   2   92.69    8.50
  -5   1   2  105.39    8.40
  -5   1   2  100.49    8.00
  -5   1   2  104.69    8.30
  -5   1   2  100.89    7.90
  -5   1   2  107.99    9.60
   4  -1  -2 2696.93   72.79
   4  -1  -2 2598.64   72.69
   4  -1  -2 2712.33   72.99
   4  -1  -2 2540.15   70.49
   4  -1  -2 2710.83   71.29
   4  -1  -2 2848.22   73.69
   4  -1  -2 2675.73   73.49
   4  -1  -2 2695.13   72.49
   4  -1  -2 2689.63   73.19
  -4   1   2 2676.43   74.09
  -4   1   2 2712.03   74.49
  -4   1   2 2719.53   75.39
  -4   1   2 2723.73   74.19
  -4   1   2 2709.73   73.29
  -4   1   2 2704.53   75.39
  -4   1   2 2726.93   73.49
   3  -1  -2 1101.69   31.60
   3  -1  -2 1101.59   31.10
   3  -1  -2 1112.59   30.40
   3  -1  -2 1077.19   31.10
   3  -1  -2 1091.19   31.30
   3  -1  -2 1118.09   31.60
   3  -1  -2 1096.19   29.90
   3  -1  -2 1119.09   31.90
  -3   1   2 1076.79   31.90
  -3   1   2 1127.69   30.60
  -3   1   2 1106.49   31.40
  -3   1   2 1077.89   31.70
  -3   1   2 1103.89   33.10
  -3   1   2 1095.69   33.20
  -3   1   2 1078.49   32.30
  -3   1   2 1130.59   31.80
  -3   1   2 1090.69   32.10
   2  -1  -2 1085.09   30.80
   2  -1  -2 1111.49   31.10
   2  -1  -2 1141.29   30.90
   2  -1  -2 1135.39   30.90
   2  -1  -2 1119.29   30.80
   2  -1  -2 1107.19   31.00
   2  -1  -2 1119.79   31.30
   2  -1  -2 1162.88   31.70
   2  -1  -2 1122.19   31.10
   2  -1  -2 1130.99   29.40
   2  -1  -2 1122.69   31.10
   2  -1  -2 1118.59   30.50
   2  -1  -2 1061.79   30.10
   2  -1  -2 1022.80   30.30
   2  -1  -2 1126.09   29.50
  -2   1   2 1139.19   30.70
  -2   1   2 1128.69   30.70
  -2   1   2 1145.89   31.10
  -2   1   2 1159.78   31.20
  -2   1   2 1105.79   31.40
  -2   1   2 1122.99   31.20
  -2   1   2 1143.39   31.10
  -2   1   2 1123.59   29.90
  -2   1   2 1111.09   31.50
  -2   1   2 1105.99   31.50
  -2   1   2 1100.89   31.90
  -2   1   2 1111.79   29.80
  -2   1   2 1146.19   29.60
   1  -1  -2 1890.01   50.89
   1  -1  -2 1912.71   50.89
   1  -1  -2 1993.20   50.69
   1  -1  -2 1984.60   50.79
   1  -1  -2 1955.10   51.19
   1  -1  -2 1944.71   50.49
   1  -1  -2 2037.50   50.79
   1  -1  -2 1989.90   49.60
   1  -1  -2 1913.61   50.89
   1  -1  -2 1925.61   50.89
   1  -1  -2 1825.82   50.19
   1  -1  -2 1957.20   50.29
   1  -1  -2 1937.41   50.89
   1  -1  -2 1888.71   50.69
  -1   1   2 1882.11   50.89
  -1   1   2 1977.20   50.89
  -1   1   2 1972.10   50.89
  -1   1   2 1899.71   51.39
  -1   1   2 1830.22   50.59
  -1   1   2 1942.71   51.49
  -1   1   2 1915.61   50.99
  -1   1   2 1910.71   50.49
  -1   1   2 1937.71   50.89
  -1   1   2 2026.90   50.89
  -1   1   2 2030.30   50.99
  -1   1   2 1928.91   50.09
  -1   1   2 1949.60   50.79
  -1   1   2 1740.23   49.60
  -1   1   2 1952.40   50.49
  -1   1   2 1898.61   50.39
   0  -1  -2  488.15   14.00
   0  -1  -2  489.85   13.70
   0  -1  -2  513.65   13.90
   0  -1  -2  481.75   14.10
   0  -1  -2  493.15   13.90
   0  -1  -2  489.05   14.20
   0  -1  -2  499.45   13.70
   0  -1  -2  525.85   13.40
   0  -1  -2  510.15   14.20
   0  -1  -2  480.25   13.90
   0  -1  -2  507.35   14.50
   0  -1  -2  494.15   13.90
   0  -1  -2  492.05   14.10
   0  -1  -2  479.75   13.90
   0   1   2  503.55   14.20
   0   1   2  485.35   13.90
   0   1   2  511.35   13.80
   0   1   2  472.45   13.90
   0   1   2  473.35   14.20
   0   1   2  480.75   14.00
   0   1   2  497.85   13.90
   0   1   2  471.15   14.20
   0   1   2  496.15   13.10
   0   1   2  490.95   14.00
   0   1   2  502.35   13.70
   0   1   2  506.65   14.00
   0   1   2  501.65   14.70
   0   1   2  491.75   13.50
   0   1   2  488.25   13.90
  -1  -1  -2 2696.23   70.59
  -1  -1  -2 2639.84   70.69
  -1  -1  -2 2599.94   71.09
  -1  -1  -2 2700.33   71.79
  -1  -1  -2 2825.72   71.09
  -1  -1  -2 2700.33   70.59
  -1  -1  -2 2711.43   70.19
  -1  -1  -2 2822.02   70.99
  -1  -1  -2 2773.52   70.39
  -1  -1  -2 2728.53   70.29
  -1  -1  -2 2696.43   70.89
  -1  -1  -2 2700.03   69.59
  -1  -1  -2 2675.83   70.59
  -1  -1  -2 2714.83   70.19
   1   1   2 2711.13   69.79
   1   1   2 2618.44   70.99
   1   1   2 2662.03   71.09
   1   1   2 2687.53   69.89
   1   1   2 2795.42   70.69
   1   1   2 2713.83   70.49
   1   1   2 2740.73   70.69
   1   1   2 2749.62   70.39
   1   1   2 2763.22   70.89
   1   1   2 2692.13   70.09
   1   1   2 2593.44   69.99
   1   1   2 2643.34   70.49
   1   1   2 2698.63   70.19
   1   1   2 2770.12   71.19
   1   1   2 2709.03   70.29
  -2  -1  -2 1335.47   37.10
  -2  -1  -2 1290.27   35.90
  -2  -1  -2 1287.57   36.20
  -2  -1  -2 1341.07   36.20
  -2  -1  -2 1387.36   36.00
  -2  -1  -2 1302.57   36.10
  -2  -1  -2 1351.26   35.80
  -2  -1  -2 1289.77   37.50
  -2  -1  -2 1341.67   34.20
  -2  -1  -2 1315.27   36.80
  -2  -1  -2 1362.56   35.60
   2   1   2 1282.97   36.50
   2   1   2 1278.97   36.30
   2   1   2 1377.66   35.90
   2   1   2 1282.27   36.80
   2   1   2 1290.67   35.80
   2   1   2 1287.47   36.50
   2   1   2 1318.27   35.70
   2   1   2 1318.57   35.80
   2   1   2 1306.27   37.70
   2   1   2 1352.16   35.60
   2   1   2 1338.87   36.20
   2   1   2 1328.57   36.30
   2   1   2 1353.16   34.40
   2   1   2 1316.97   35.30
   2   1   2 1310.67   36.20
   2   1   2 1291.17   37.10
  -3  -1  -2   -2.90    2.90
  -3  -1  -2    0.60    2.00
  -3  -1  -2    1.60    1.80
  -3  -1  -2   -2.50    2.20
  -3  -1  -2    0.40    2.10
  -3  -1  -2    4.40    3.10
  -3  -1  -2   -2.50    2.10
  -3  -1  -2   -0.90    2.30
  -3  -1  -2   -2.00    1.80
  -3  -1  -2   -0.40    2.20
   3   1   2    0.20    1.80
   3   1   2    4.70    2.00
   3   1   2    1.70    1.90
   3   1   2    2.90    1.50
   3   1   2    6.40    2.40
   3   1   2    6.40    2.90
   3   1   2    6.80    2.50
   3   1   2    0.60    1.80
   3   1   2   -1.20    2.00
   3   1   2    3.40    1.80
   3   1   2   -0.60    2.90
   3   1   2    1.00    2.00
  -4  -1  -2   39.50    5.90
  -4  -1  -2   42.80    5.60
  -4  -1  -2   46.10    5.40
  -4  -1  -2   36.90    5.00
  -4  -1  -2   40.90    5.20
  -4  -1  -2   36.00    4.80
  -4  -1  -2   40.70    5.10
   4   1   2   41.60    4.30
   4   1   2   50.39    6.30
   4   1   2   42.80    5.40
   4   1   2   37.90    4.50
   4   1   2   35.90    5.00
   4   1   2   31.20    5.30
   4   1   2   31.50    4.00
   4   1   2   35.60    4.40
   4   1   2   44.80    4.10
   4   1   2   50.89    5.20
   4   1   2   43.30    4.10
   4   1   2   39.90    4.60
  -5  -1  -2  661.63   24.20
  -5  -1  -2  604.34   24.40
  -5  -1  -2  660.63   23.40
  -5  -1  -2  660.83   23.00
  -5  -1  -2  608.24   21.00
  -5  -1  -2  667.93   23.30
   5   1   2  645.34   24.40
   5   1   2  652.63   19.00
   5   1   2  622.04   21.80
   5   1   2  674.63   22.50
   5   1   2  679.63   20.10
   5   1   2  631.64   23.00
   5   1   2  633.54   22.70
   5   1   2  658.83   23.10
   5   1   2  660.03   20.40
  -6  -1  -2   20.80    6.60
  -6  -1  -2   28.10    6.60
  -6  -1  -2   34.00    6.40
  -6  -1  -2   27.90    6.30
  -6  -1  -2   31.90    8.70
  -6  -1  -2   20.60    7.10
   6   1   2   20.10    6.00
   6   1   2   45.10    7.10
   6   1   2   29.40    4.90
   6   1   2   25.70    6.30
   6   1   2   25.70    6.60
   6   1   2   35.70    4.70
   6   1   2   30.90    6.30
   6  -2  -2   10.70    4.70
   6  -2  -2   13.80    6.10
   6  -2  -2    5.90    4.30
   6  -2  -2   -0.10    4.50
   6  -2  -2   -1.50    5.10
   6  -2  -2    4.30    4.20
   6  -2  -2   -0.10    5.30
   6  -2  -2   13.80    4.90
   6  -2  -2    1.70    3.50
  -6   2   2    7.60    6.60
  -6   2   2    3.90    5.00
  -6   2   2    3.90    5.30
  -6   2   2    6.70    6.00
  -6   2   2   10.30    6.20
  -6   2   2    5.80    7.30
  -6   2   2    3.90    5.90
  -6   2   2   11.10    7.00
  -6   2   2    4.00    6.80
   5  -2  -2  585.84   19.80
   5  -2  -2  554.34   20.60
   5  -2  -2  554.54   19.80
   5  -2  -2  527.65   20.30
   5  -2  -2  568.84   19.90
   5  -2  -2  564.14   20.00
   5  -2  -2  571.24   19.90
   5  -2  -2  565.24   18.30
  -5   2   2  550.64   20.00
  -5   2   2  561.64   20.60
  -5   2   2  560.94   21.40
  -5   2   2  572.24   20.80
  -5   2   2  553.04   20.90
  -5   2   2  580.24   23.20
  -5   2   2  564.64   21.90
  -5   2   2  568.64   21.90
  -5   2   2  578.94   23.20
   4  -2  -2  609.04   20.10
   4  -2  -2  606.14   19.80
   4  -2  -2  599.94   19.90
   4  -2  -2  580.24   19.20
   4  -2  -2  594.84   20.60
   4  -2  -2  607.64   19.80
   4  -2  -2  609.54   20.70
  -4   2   2  605.44   21.50
  -4   2   2  626.84   21.40
  -4   2   2  601.84   21.20
  -4   2   2  602.74   20.90
  -4   2   2  624.04   21.80
  -4   2   2  613.14   22.40
  -4   2   2  619.24   20.50
  -4   2   2  600.44   22.60
   3  -2  -2  160.68    8.00
   3  -2  -2  157.98    7.40
   3  -2  -2  147.39    7.40
   3  -2  -2  144.39    7.70
   3  -2  -2  147.79    6.10
   3  -2  -2  159.28    7.10
   3  -2  -2  155.88    6.10
   3  -2  -2  156.18    7.30
   3  -2  -2  158.98    7.40
  -3   2   2  158.88    8.50
  -3   2   2  153.68    7.40
  -3   2   2  149.49    8.20
  -3   2   2  154.58    6.30
  -3   2   2  153.18    8.80
  -3   2   2  146.89    8.00
  -3   2   2  147.99    6.30
  -3   2   2  158.88    9.20
  -3   2   2  156.68    8.50
   2  -2  -2 6035.10  154.68
   2  -2  -2 6004.80  155.28
   2  -2  -2 6037.80  155.48
   2  -2  -2 6001.90  154.08
   2  -2  -2 5881.11  153.88
   2  -2  -2 5937.01  154.68
   2  -2  -2 5822.82  155.08
   2  -2  -2 6305.07  155.18
   2  -2  -2 5872.21  155.18
   2  -2  -2 5908.41  153.98
   2  -2  -2 6249.07  155.38
  -2   2   2 5763.22  155.88
  -2   2   2 6011.80  152.78
  -2   2   2 5871.01  155.58
  -2   2   2 5921.51  156.18
  -2   2   2 5858.91  155.28
  -2   2   2 6135.89  155.18
  -2   2   2 6055.19  156.98
  -2   2   2 5936.01  154.58
  -2   2   2 5952.90  154.28
  -2   2   2 5821.62  156.28
  -2   2   2 6084.39  154.48
  -2   2   2 5992.00  154.38
  -2   2   2 6108.49  155.08
   1  -2  -2  492.65   15.30
   1  -2  -2  497.35   15.10
   1  -2  -2  514.65   14.90
   1  -2  -2  499.45   15.50
   1  -2  -2  509.75   16.00
   1  -2  -2  499.15   15.10
   1  -2  -2  512.75   14.90
   1  -2  -2  504.65   15.60
   1  -2  -2  510.55   14.90
   1  -2  -2  498.85   15.00
   1  -2  -2  471.35   15.00
   1  -2  -2  516.45   15.10
   1  -2  -2  501.35   13.70
   1  -2  -2  510.35   15.20
   1  -2  -2  499.75   14.90
  -1   2   2  491.85   15.50
  -1   2   2  506.55   15.20
  -1   2   2  517.75   15.00
  -1   2   2  507.65   13.90
  -1   2   2  492.35   16.10
  -1   2   2  491.55   16.10
  -1   2   2  523.45   14.20
  -1   2   2  506.45   15.60
  -1   2   2  497.05   14.90
  -1   2   2  492.05   15.20
  -1   2   2  506.05   15.10
  -1   2   2  508.15   15.00
  -1   2   2  500.65   15.30
  -1   2   2  509.15   14.80
  -1   2   2  491.55   16.40
  -1   2   2  494.35   15.20
   0  -2  -2 2349.96   63.69
   0  -2  -2 2533.15   64.39
   0  -2  -2 2555.04   63.59
   0  -2  -2 2454.95   63.99
   0  -2  -2 2494.95   64.99
   0  -2  -2 2447.76   63.49
   0  -2  -2 2440.56   63.99
   0  -2  -2 2496.55   64.89
   0  -2  -2 2505.55   63.89
   0  -2  -2 2321.47   64.49
   0  -2  -2 2545.35   64.39
   0  -2  -2 2395.96   64.19
   0  -2  -2 2542.35   64.79
   0  -2  -2 2452.25   63.79
   0  -2  -2 2440.36   63.79
   0  -2  -2 2462.85   63.19
   0  -2  -2 2487.45   63.69
   0  -2  -2 2492.35   64.69
   0   2   2 2387.26   64.59
   0   2   2 2408.66   64.89
   0   2   2 2432.26   63.69
   0   2   2 2391.66   64.59
   0   2   2 2333.07   64.19
   0   2   2 2344.07   63.59
   0   2   2 2384.96   63.89
   0   2   2 2389.46   64.99
   0   2   2 2415.16   64.19
   0   2   2 2471.35   63.69
   0   2   2 2490.75   63.39
   0   2   2 2402.46   63.39
   0   2   2 2412.66   63.39
   0   2   2 2420.66   65.19
   0   2   2 2487.85   63.69
   0   2   2 2414.16   63.69
  -1  -2  -2 1376.76   36.00
  -1  -2  -2 1374.66   36.60
  -1  -2  -2 1357.46   36.00
  -1  -2  -2 1334.27   35.30
  -1  -2  -2 1349.66   38.30
  -1  -2  -2 1365.36   37.20
  -1  -2  -2 1342.47   36.10
  -1  -2  -2 1322.67   37.00
  -1  -2  -2 1276.57   37.20
  -1  -2  -2 1361.36   36.20
  -1  -2  -2 1376.46   36.40
  -1  -2  -2 1371.96   37.10
  -1  -2  -2 1374.66   35.80
  -1  -2  -2 1331.67   36.60
  -1  -2  -2 1341.47   35.80
  -1  -2  -2 1354.26   37.20
  -1  -2  -2 1349.07   35.90
  -1  -2  -2 1347.47   36.70
  -1  -2  -2 1331.07   37.20
  -1  -2  -2 1354.56   35.60
   1   2   2 1374.96   36.00
   1   2   2 1426.76   35.70
   1   2   2 1351.26   37.70
   1   2   2 1350.56   37.10
   1   2   2 1372.66   35.40
   1   2   2 1364.06   35.40
   1   2   2 1321.77   37.70
   1   2   2 1397.26   35.40
   1   2   2 1326.97   36.90
   1   2   2 1316.47   37.40
   1   2   2 1307.27   37.20
   1   2   2 1350.46   37.10
   1   2   2 1383.06   35.90
   1   2   2 1372.86   36.60
   1   2   2 1336.37   37.60
  -2  -2  -2  663.93   18.70
  -2  -2  -2  660.93   17.60
  -2  -2  -2  664.43   18.90
  -2  -2  -2  626.14   19.30
  -2  -2  -2  681.63   19.20
  -2  -2  -2  655.63   19.90
  -2  -2  -2  677.83   19.00
  -2  -2  -2  661.13   18.80
  -2  -2  -2  619.74   20.40
  -2  -2  -2  618.64   19.20
  -2  -2  -2  652.73   19.30
  -2  -2  -2  662.83   19.20
   2   2   2  668.93   19.70
   2   2   2  673.03   18.60
   2   2   2  657.53   17.80
   2   2   2  681.73   17.90
   2   2   2  649.24   20.70
   2   2   2  630.94   20.50
   2   2   2  651.03   19.20
   2   2   2  647.94   20.40
   2   2   2  648.34   18.50
   2   2   2  689.93   18.90
   2   2   2  639.54   20.20
   2   2   2  663.83   19.90
  -3  -2  -2  357.76   12.60
  -3  -2  -2  363.16   12.30
  -3  -2  -2  366.36   12.80
  -3  -2  -2  368.56   13.10
  -3  -2  -2  340.97   13.90
  -3  -2  -2  367.76   13.90
   3   2   2  356.56   14.90
   3   2   2  381.66   13.70
   3   2   2  352.46   12.80
   3   2   2  375.16   12.60
   3   2   2  335.87   11.80
   3   2   2  361.56   11.10
   3   2   2  363.76   13.80
   3   2   2  369.26   13.40
   3   2   2  344.77   13.80
  -4  -2  -2  670.53   21.40
  -4  -2  -2  641.44   21.00
  -4  -2  -2  635.54   21.10
  -4  -2  -2  634.24   20.50
  -4  -2  -2  620.24   20.40
  -4  -2  -2  663.03   22.60
  -4  -2  -2  629.94   22.50
   4   2   2  617.44   19.50
   4   2   2  648.74   19.70
   4   2   2  605.54   18.10
   4   2   2  641.14   23.60
   4   2   2  576.04   21.60
   4   2   2  620.34   21.20
   4   2   2  624.74   21.90
   4   2   2  638.44   20.30
   4   2   2  617.34   21.50
   4   2   2  614.84   18.50
  -5  -2  -2   14.80    4.80
  -5  -2  -2   17.20    5.10
  -5  -2  -2   17.40    4.50
  -5  -2  -2   16.70    5.00
  -5  -2  -2   16.10    6.50
   5   2   2   15.80    4.10
   5   2   2   12.00    4.20
   5   2   2   10.50    4.90
   5   2   2   17.10    4.60
   5   2   2   17.50    5.20
   5   2   2   15.80    4.70
   5   2   2   25.10    5.30
  -6  -2  -2   48.90    7.60
  -6  -2  -2   56.89    9.30
  -6  -2  -2   45.00    8.00
  -6  -2  -2   52.39   10.60
  -6  -2  -2   49.10    8.50
   6   2   2   62.59    8.40
   6   2   2   58.49    6.40
   6   2   2   71.79    9.50
   6   2   2   68.79    9.60
   6   2   2   49.90    8.40
   6  -3  -2  258.27   15.20
   6  -3  -2  280.57   16.00
   6  -3  -2  274.47   12.80
   6  -3  -2  296.07   14.30
   6  -3  -2  272.27   14.30
   6  -3  -2  272.07   13.60
   6  -3  -2  276.27   14.10
   6  -3  -2  282.97   14.50
   6  -3  -2  282.57   14.40
  -6   3   2  293.57   17.70
  -6   3   2  278.07   19.10
  -6   3   2  318.57   18.50
  -6   3   2  265.07   18.60
  -6   3   2  284.47   16.70
  -6   3   2  286.07   14.40
  -6   3   2  288.87   17.80
  -6   3   2  303.77   16.60
  -6   3   2  272.67   15.20
   5  -3  -2 1065.39   32.50
   5  -3  -2 1051.79   33.90
   5  -3  -2 1057.59   33.30
   5  -3  -2 1064.59   34.50
   5  -3  -2 1147.39   32.40
   5  -3  -2 1058.29   33.50
   5  -3  -2 1063.79   33.40
  -5   3   2 1111.29   34.60
  -5   3   2 1025.50   34.80
  -5   3   2 1100.89   36.90
  -5   3   2 1061.39   35.20
  -5   3   2 1063.89   36.90
  -5   3   2 1053.59   37.20
  -5   3   2 1045.60   32.50
  -5   3   2 1073.49   34.80
  -5   3   2 1065.39   35.70
   4  -3  -2  218.38   10.50
   4  -3  -2  223.58    9.80
   4  -3  -2  223.88   11.00
   4  -3  -2  188.78    9.00
   4  -3  -2  235.78   10.60
   4  -3  -2  226.18   10.50
   4  -3  -2  226.08   11.10
   4  -3  -2  229.28   10.10
  -4   3   2  226.18   12.00
  -4   3   2  217.28   12.50
  -4   3   2  233.58   11.90
  -4   3   2  224.68   12.80
  -4   3   2  226.68   12.40
  -4   3   2  250.77   12.90
  -4   3   2  221.28    9.40
  -4   3   2  225.18   10.00
  -4   3   2  245.58   11.90
  -4   3   2  214.48   10.50
   3  -3  -2 2535.95   68.89
   3  -3  -2 2498.25   68.79
   3  -3  -2 2528.35   67.09
   3  -3  -2 2506.15   68.59
   3  -3  -2 2500.35   68.99
   3  -3  -2 2512.25   67.59
  -3   3   2 2424.76   70.09
  -3   3   2 2614.04   69.79
  -3   3   2 2485.15   65.09
  -3   3   2 2596.44   70.79
  -3   3   2 2504.35   67.99
  -3   3   2 2514.45   71.29
  -3   3   2 2499.15   67.49
  -3   3   2 2528.55   69.19
  -3   3   2 2496.85   70.09
  -3   3   2 2512.85   70.39
   2  -3  -2  315.27   10.60
   2  -3  -2  328.67   12.10
   2  -3  -2  335.47   11.30
   2  -3  -2  325.87   12.20
   2  -3  -2  328.67   12.10
   2  -3  -2  320.07   11.90
   2  -3  -2  333.67   12.70
   2  -3  -2  317.17   11.90
  -2   3   2  328.07   12.20
  -2   3   2  337.67   10.10
  -2   3   2  339.27   13.90
  -2   3   2  352.56   13.50
  -2   3   2  348.47   11.20
  -2   3   2  336.87   11.90
  -2   3   2  324.57   13.50
  -2   3   2  355.36   13.60
  -2   3   2  334.27   12.20
  -2   3   2  311.47   12.80
  -2   3   2  328.47   12.50
  -2   3   2  327.17   11.80
   1  -3  -2  799.82   20.90
   1  -3  -2  785.22   22.90
   1  -3  -2  808.02   23.00
   1  -3  -2  812.82   22.70
   1  -3  -2  813.32   22.60
   1  -3  -2  807.22   23.00
   1  -3  -2  777.92   22.80
   1  -3  -2  762.32   23.50
   1  -3  -2  786.62   23.20
  -1   3   2  778.92   23.10
  -1   3   2  767.02   23.60
  -1   3   2  790.52   22.50
  -1   3   2  802.22   23.70
  -1   3   2  779.72   24.60
  -1   3   2  770.92   23.90
  -1   3   2  775.32   24.90
  -1   3   2  791.42   22.90
  -1   3   2  774.52   23.00
  -1   3   2  780.42   23.10
  -1   3   2  780.22   23.60
  -1   3   2  789.92   21.10
  -1   3   2  779.92   24.30
  -1   3   2  796.12   21.40
   0  -3  -2 2961.20   76.89
   0  -3  -2 2944.41   76.79
   0  -3  -2 3000.50   78.09
   0  -3  -2 2902.61   76.99
   0  -3  -2 2997.70   77.29
   0  -3  -2 2899.91   76.99
   0  -3  -2 2986.00   78.99
   0  -3  -2 2984.60   76.69
   0  -3  -2 2919.61   78.29
   0  -3  -2 3038.10   77.19
   0  -3  -2 2836.72   76.39
   0  -3  -2 3000.40   77.29
   0  -3  -2 2926.61   77.69
   0   3   2 2962.10   76.79
   0   3   2 2897.31   79.39
   0   3   2 2989.10   76.79
   0   3   2 2892.41   78.69
   0   3   2 2894.41   78.69
   0   3   2 2879.21   77.19
   0   3   2 3095.09   76.39
   0   3   2 2908.91   78.89
   0   3   2 2961.60   78.09
   0   3   2 3005.10   76.99
   0   3   2 2903.31   79.39
   0   3   2 2905.71   76.09
   0   3   2 2918.61   77.89
  -1  -3  -2  141.39    6.00
  -1  -3  -2  142.39    6.10
  -1  -3  -2  141.09    5.60
  -1  -3  -2  140.79    5.20
  -1  -3  -2  140.39    5.50
  -1  -3  -2  142.09    6.80
  -1  -3  -2  136.69    7.80
  -1  -3  -2  145.49    6.30
  -1  -3  -2  141.59    5.60
  -1  -3  -2  147.29    6.60
  -1  -3  -2  144.19    4.80
  -1  -3  -2  137.39    6.80
  -1  -3  -2  149.19    7.10
  -1  -3  -2  144.19    5.80
  -1  -3  -2  149.49    5.40
  -1  -3  -2  154.18    6.50
   1   3   2  131.69    7.50
   1   3   2  148.59    7.60
   1   3   2  139.39    5.40
   1   3   2  137.49    5.70
   1   3   2  136.19    7.20
   1   3   2  133.49    7.00
   1   3   2  141.19    7.60
   1   3   2  146.59    5.70
   1   3   2  132.19    6.60
   1   3   2  137.99    7.80
   1   3   2  151.78    7.20
  -2  -3  -2 1708.93   47.00
  -2  -3  -2 1701.23   47.00
  -2  -3  -2 1630.24   44.50
  -2  -3  -2 1705.33   45.00
  -2  -3  -2 1682.83   46.20
  -2  -3  -2 1673.83   45.70
  -2  -3  -2 1720.13   44.70
  -2  -3  -2 1658.53   45.80
  -2  -3  -2 1653.03   44.90
  -2  -3  -2 1665.23   44.90
  -2  -3  -2 1690.93   44.10
  -2  -3  -2 1666.43   44.70
  -2  -3  -2 1626.64   44.80
   2   3   2 1714.53   47.90
   2   3   2 1712.33   44.00
   2   3   2 1658.33   47.20
   2   3   2 1708.93   47.00
   2   3   2 1656.53   45.60
   2   3   2 1664.43   44.80
   2   3   2 1618.04   44.30
   2   3   2 1666.53   47.40
   2   3   2 1625.24   47.60
  -3  -3  -2  105.89    5.90
  -3  -3  -2  113.39    7.40
  -3  -3  -2  109.49    7.70
  -3  -3  -2  111.09    6.50
  -3  -3  -2  112.99    6.10
  -3  -3  -2   97.99    6.00
  -3  -3  -2  112.49    6.90
   3   3   2  102.59    7.30
   3   3   2  105.79    7.50
   3   3   2  115.29    6.90
   3   3   2  107.89    6.90
   3   3   2  117.59    8.00
   3   3   2  111.19    7.70
   3   3   2   86.19    6.30
  -4  -3  -2   12.90    3.60
  -4  -3  -2   15.20    4.50
  -4  -3  -2   14.40    3.60
  -4  -3  -2   17.80    4.70
  -4  -3  -2   16.80    4.00
  -4  -3  -2   25.80    6.00
   4   3   2   16.10    3.90
   4   3   2   23.90    5.40
   4   3   2   14.60    4.50
   4   3   2   19.90    4.80
   4   3   2   13.60    4.30
   4   3   2   19.20    3.90
  -5  -3  -2  307.77   14.00
  -5  -3  -2  311.37   13.70
  -5  -3  -2  310.77   16.20
  -5  -3  -2  285.97   14.30
  -5  -3  -2  281.17   16.40
   5   3   2  324.97   16.10
   5   3   2  304.07   15.50
   5   3   2  319.27   13.60
   5   3   2  308.47   16.10
   5   3   2  285.47   12.20
   5   3   2  291.97   15.10
   6  -4  -2  118.79   11.80
   6  -4  -2  131.59   11.80
   6  -4  -2  111.49   10.90
   6  -4  -2  121.69   12.90
   6  -4  -2  155.48   11.80
   6  -4  -2  130.59   11.60
   6  -4  -2  136.29   13.40
  -6   4   2  128.29   11.20
  -6   4   2  151.28   14.20
  -6   4   2  132.29   17.50
  -6   4   2  133.19   14.70
  -6   4   2  166.48   14.50
  -6   4   2  178.68   16.60
  -6   4   2  125.39   16.30
  -6   4   2  168.08   15.90
  -6   4   2  137.19   16.50
   5  -4  -2   41.20    7.40
   5  -4  -2   26.80    5.40
   5  -4  -2   27.70    5.30
   5  -4  -2   35.20    5.90
   5  -4  -2   30.70    5.60
   5  -4  -2   38.40    5.90
   5  -4  -2   34.20    5.70
  -5   4   2   36.80    7.90
  -5   4   2   22.10    7.20
  -5   4   2   28.10    7.30
  -5   4   2   38.20    6.40
  -5   4   2   26.90    7.80
  -5   4   2   40.20   10.20
  -5   4   2   31.70    7.90
  -5   4   2   36.00    7.80
  -5   4   2   42.30    8.80
  -5   4   2   36.10    5.50
   4  -4  -2  789.02   23.70
   4  -4  -2  793.22   26.60
   4  -4  -2  792.32   26.20
   4  -4  -2  781.02   25.60
   4  -4  -2  799.82   26.30
   4  -4  -2  809.12   26.90
   4  -4  -2  801.32   26.40
  -4   4   2  811.62   26.10
  -4   4   2  818.62   27.70
  -4   4   2  779.92   23.40
  -4   4   2  840.62   28.90
  -4   4   2  746.93   27.20
  -4   4   2  784.12   24.50
  -4   4   2  740.23   29.00
  -4   4   2  769.52   28.80
  -4   4   2  783.92   28.20
  -4   4   2  826.02   30.90
  -4   4   2  796.12   28.10
   3  -4  -2  962.00   30.40
   3  -4  -2 1027.50   30.70
   3  -4  -2  967.80   30.80
   3  -4  -2  996.00   28.20
   3  -4  -2 1009.20   30.30
   3  -4  -2  959.50   30.40
   3  -4  -2  985.50   28.80
  -3   4   2  997.20   31.20
  -3   4   2  992.80   32.80
  -3   4   2  964.40   32.80
  -3   4   2  995.00   29.80
  -3   4   2  946.01   32.00
  -3   4   2  909.11   26.50
  -3   4   2 1017.10   33.50
  -3   4   2  980.20   32.40
  -3   4   2 1004.80   29.70
  -3   4   2 1007.40   29.60
  -3   4   2  954.40   30.60
  -3   4   2 1000.20   31.50
   2  -4  -2 1548.65   44.00
   2  -4  -2 1555.34   43.70
   2  -4  -2 1646.74   43.90
   2  -4  -2 1541.95   41.60
   2  -4  -2 1554.94   44.50
   2  -4  -2 1454.55   43.70
   2  -4  -2 1579.14   42.90
   2  -4  -2 1593.14   44.00
  -2   4   2 1549.54   44.20
  -2   4   2 1516.45   46.00
  -2   4   2 1565.24   42.50
  -2   4   2 1547.65   44.30
  -2   4   2 1638.84   45.90
  -2   4   2 1525.85   46.50
  -2   4   2 1535.05   44.20
  -2   4   2 1558.34   45.40
  -2   4   2 1552.84   46.20
  -2   4   2 1552.04   44.20
  -2   4   2 1493.45   43.60
  -2   4   2 1527.05   43.40
   1  -4  -2 2993.70   80.79
   1  -4  -2 3036.20   79.99
   1  -4  -2 3008.80   79.69
   1  -4  -2 3036.00   81.19
   1  -4  -2 3033.60   79.69
   1  -4  -2 3076.49   80.09
   1  -4  -2 3087.79   80.09
   1  -4  -2 2623.94   79.19
  -1   4   2 3049.09   80.09
  -1   4   2 3034.30   80.99
  -1   4   2 3005.70   81.39
  -1   4   2 3017.00   82.19
  -1   4   2 3015.10   82.59
  -1   4   2 2951.40   82.89
  -1   4   2 3076.19   78.99
  -1   4   2 3073.19   79.29
  -1   4   2 3017.10   79.39
  -1   4   2 3013.20   79.79
  -1   4   2 3024.60   81.49
   0  -4  -2   18.50    2.50
   0  -4  -2   18.60    3.10
   0  -4  -2   16.10    2.80
   0  -4  -2   14.90    2.40
   0  -4  -2   15.70    3.70
   0  -4  -2   17.10    2.70
   0  -4  -2   16.70    3.20
   0  -4  -2    7.50    2.40
   0  -4  -2   16.10    2.40
   0  -4  -2   16.80    2.80
   0   4   2   16.70    3.40
   0   4   2   17.60    4.00
   0   4   2   12.30    3.20
   0   4   2   14.30    3.30
   0   4   2   13.70    2.70
   0   4   2   24.10    4.60
   0   4   2   16.20    4.20
   0   4   2   21.70    3.30
  -1  -4  -2  906.21   27.10
  -1  -4  -2  924.91   27.20
  -1  -4  -2  892.71   25.30
  -1  -4  -2  906.21   25.10
  -1  -4  -2  925.01   25.40
  -1  -4  -2  920.81   25.00
  -1  -4  -2  907.01   26.40
  -1  -4  -2  880.01   25.40
  -1  -4  -2  899.71   25.80
  -1  -4  -2  871.41   26.30
  -1  -4  -2  905.81   25.30
   1   4   2  929.01   27.60
   1   4   2  887.01   25.60
   1   4   2  910.21   28.20
   1   4   2  920.01   29.20
   1   4   2  897.31   29.10
   1   4   2  948.31   28.40
   1   4   2  896.01   26.00
   1   4   2  896.11   28.30
  -2  -4  -2 1135.79   33.40
  -2  -4  -2 1286.67   36.40
  -2  -4  -2 1206.68   33.70
  -2  -4  -2 1191.08   35.90
  -2  -4  -2 1202.88   33.40
  -2  -4  -2 1202.58   33.50
  -2  -4  -2 1229.98   33.60
  -2  -4  -2 1241.78   33.80
  -2  -4  -2 1245.48   34.70
   2   4   2 1233.48   38.00
   2   4   2 1265.37   37.00
   2   4   2 1202.38   35.70
   2   4   2 1243.98   37.50
   2   4   2 1274.17   36.70
   2   4   2 1230.68   34.70
   2   4   2 1243.58   37.40
   2   4   2 1290.97   38.20
  -3  -4  -2    1.50    2.20
  -3  -4  -2    4.20    3.90
  -3  -4  -2    2.20    3.50
  -3  -4  -2   -1.80    2.50
  -3  -4  -2    0.60    2.80
  -3  -4  -2    1.50    3.50
  -3  -4  -2    4.40    3.40
  -3  -4  -2   -3.40    4.00
   3   4   2    1.50    3.50
   3   4   2    0.40    3.70
   3   4   2    1.00    3.80
   3   4   2    4.90    3.70
   3   4   2    4.00    4.10
   3   4   2    2.20    3.40
   3   4   2    1.00    3.10
  -4  -4  -2  357.06   16.50
  -4  -4  -2  367.26   13.60
  -4  -4  -2  348.07   16.00
  -4  -4  -2  361.06   13.30
  -4  -4  -2  362.96   17.00
  -4  -4  -2  352.76   14.40
   4   4   2  363.66   16.60
   4   4   2  381.36   15.70
   4   4   2  355.36   17.50
   4   4   2  358.76   17.10
   4   4   2  340.17   14.30
   4   4   2  377.86   17.20
  -5  -4  -2   55.99    8.20
  -5  -4  -2   59.99    9.70
  -5  -4  -2   62.09    7.00
   5   4   2   57.89    9.40
   5   4   2   45.40    7.70
   5   4   2   59.29    9.70
   5   4   2   42.60    8.20
   5   4   2   63.69    7.30
   5   4   2   52.59    7.40
   5  -5  -2  493.35   20.70
   5  -5  -2  488.55   20.10
   5  -5  -2  501.65   20.80
   5  -5  -2  518.15   21.90
   5  -5  -2  502.35   21.90
   5  -5  -2  503.15   20.90
  -5   5   2  510.15   23.30
  -5   5   2  529.95   21.90
  -5   5   2  514.85   25.50
  -5   5   2  524.95   24.30
  -5   5   2  526.85   24.10
  -5   5   2  505.25   27.70
  -5   5   2  459.25   22.70
   4  -5  -2   94.89    9.80
   4  -5  -2  102.39    9.00
   4  -5  -2   97.19    9.20
   4  -5  -2   89.39    9.30
   4  -5  -2   98.99    9.40
  -4   5   2  104.99    9.50
  -4   5   2   96.39   10.80
  -4   5   2  101.09   11.10
  -4   5   2   89.29   10.00
  -4   5   2   87.99   12.00
  -4   5   2  111.99   13.60
  -4   5   2   98.19   11.30
  -4   5   2  110.89   13.00
  -4   5   2  109.39   10.80
  -4   5   2   92.39    8.60
   3  -5  -2  536.75   19.40
   3  -5  -2  492.75   16.50
   3  -5  -2  526.25   20.20
   3  -5  -2  541.95   19.00
   3  -5  -2  515.85   19.50
   3  -5  -2  513.75   19.00
   3  -5  -2  512.15   17.20
  -3   5   2  547.95   19.70
  -3   5   2  501.15   20.10
  -3   5   2  420.26   17.80
  -3   5   2  508.55   21.20
  -3   5   2  505.75   21.50
  -3   5   2  504.75   21.20
  -3   5   2  504.15   18.80
  -3   5   2  535.45   21.60
  -3   5   2  503.35   19.80
  -3   5   2  521.25   19.00
  -3   5   2  546.25   22.40
   2  -5  -2  907.01   29.40
   2  -5  -2  909.51   28.40
   2  -5  -2  952.00   30.40
   2  -5  -2  954.20   28.70
   2  -5  -2  918.71   28.50
   2  -5  -2  820.82   25.50
   2  -5  -2  932.21   27.40
   2  -5  -2  954.30   28.60
  -2   5   2  957.40   31.50
  -2   5   2  943.61   28.30
  -2   5   2  994.10   31.60
  -2   5   2  826.92   28.60
  -2   5   2  942.11   30.40
  -2   5   2  899.31   27.60
  -2   5   2  900.71   29.50
  -2   5   2  966.00   29.80
  -2   5   2  938.91   29.60
  -2   5   2  929.21   28.30
  -2   5   2  913.51   31.60
   1  -5  -2  116.29    7.50
   1  -5  -2  112.89    6.50
   1  -5  -2  122.39    7.40
   1  -5  -2  111.29    7.60
   1  -5  -2   97.69    8.30
   1  -5  -2  107.49    6.40
   1  -5  -2  102.29    6.50
  -1   5   2  117.09    8.10
  -1   5   2  126.99    9.20
  -1   5   2  115.89    7.90
  -1   5   2  108.69    6.90
  -1   5   2  123.89    9.10
  -1   5   2  129.79    8.90
  -1   5   2  112.99    7.00
  -1   5   2   89.99    7.60
  -1   5   2  119.39    8.20
   0  -5  -2 1586.34   44.00
   0  -5  -2 1615.24   43.50
   0  -5  -2 1590.24   42.40
   0  -5  -2 1595.14   46.20
   0  -5  -2 1663.23   43.90
   0  -5  -2 1580.94   43.40
   0  -5  -2 1563.94   43.80
   0  -5  -2 1609.34   43.40
   0  -5  -2 1659.23   44.80
   0   5   2 1615.84   47.20
   0   5   2 1408.16   42.60
   0   5   2 1592.14   46.70
   0   5   2 1629.54   45.70
   0   5   2 1598.34   47.70
   0   5   2 1617.64   44.80
   0   5   2 1574.34   46.90
   0   5   2 1582.54   48.20
  -1  -5  -2  523.25   18.20
  -1  -5  -2  476.45   15.00
  -1  -5  -2  503.65   16.10
  -1  -5  -2  491.15   15.00
  -1  -5  -2  489.05   16.40
  -1  -5  -2  503.05   15.50
  -1  -5  -2  501.75   17.30
  -1  -5  -2  495.45   16.30
  -1  -5  -2  479.85   15.00
   1   5   2  476.85   16.50
   1   5   2  503.35   18.70
   1   5   2  466.15   16.10
   1   5   2  492.05   20.00
   1   5   2  528.85   19.20
   1   5   2  486.15   18.80
   1   5   2  518.15   18.00
  -2  -5  -2  425.86   15.70
  -2  -5  -2  397.76   12.80
  -2  -5  -2  420.16   15.90
  -2  -5  -2  383.26   13.00
  -2  -5  -2  423.06   13.30
  -2  -5  -2  402.86   14.60
  -2  -5  -2  397.86   13.00
  -2  -5  -2  422.16   12.80
   2   5   2  416.16   17.10
   2   5   2  402.26   15.90
   2   5   2  419.86   16.80
   2   5   2  429.96   18.50
   2   5   2  456.25   18.70
   2   5   2  413.16   17.40
   2   5   2  404.86   15.10
  -3  -5  -2  147.59    8.90
  -3  -5  -2  149.59   10.20
  -3  -5  -2  158.88   10.60
  -3  -5  -2  138.39    7.90
  -3  -5  -2  133.99    7.10
  -3  -5  -2  138.89    6.70
  -3  -5  -2  142.09   10.00
   3   5   2  161.68   12.00
   3   5   2  143.39    9.10
   3   5   2  152.18   10.10
   3   5   2  158.88   10.80
   3   5   2  154.78   11.80
   3   5   2  127.69   11.20
   3   5   2  152.28   11.60
  -4  -5  -2   82.69   10.30
  -4  -5  -2   65.89    6.60
  -4  -5  -2   98.79    9.00
  -4  -5  -2   83.89    6.90
  -4  -5  -2   73.69    9.30
   4   5   2   78.79   10.40
   4   5   2   86.89   10.20
   4   5   2   84.89   10.80
   4   5   2   81.99    9.50
   4   5   2  106.29   12.20
   4   5   2   80.09   10.50
   4  -6  -2    9.50    5.90
   4  -6  -2   10.50    6.00
   4  -6  -2   12.90    5.80
   4  -6  -2   10.40    5.60
   4  -6  -2    0.80    5.60
  -4   6   2    7.50    7.00
  -4   6   2    1.50    6.90
  -4   6   2   18.00    6.70
  -4   6   2    2.00    7.80
  -4   6   2   -2.40    7.80
  -4   6   2    5.60    7.70
  -4   6   2    9.10    9.10
  -4   6   2   13.00    9.00
  -4   6   2    7.00    7.70
   3  -6  -2 1109.09   36.70
   3  -6  -2 1092.49   34.70
   3  -6  -2 1095.79   34.80
   3  -6  -2 1069.19   32.30
   3  -6  -2 1066.29   31.20
   3  -6  -2 1100.49   35.60
   3  -6  -2 1117.69   34.50
  -3   6   2 1038.50   36.00
  -3   6   2 1110.59   38.30
  -3   6   2 1064.29   37.10
  -3   6   2 1115.19   35.70
  -3   6   2 1075.59   38.40
  -3   6   2 1123.19   35.40
  -3   6   2 1080.19   35.10
  -3   6   2 1081.39   37.90
  -3   6   2 1042.00   33.60
   2  -6  -2  130.89   10.10
   2  -6  -2  125.69   10.50
   2  -6  -2  132.79    9.10
   2  -6  -2  140.59    8.10
   2  -6  -2  124.59    9.20
   2  -6  -2  134.39    9.10
  -2   6   2  124.19   10.70
  -2   6   2  120.39   10.30
  -2   6   2  138.79   11.80
  -2   6   2  136.09   10.50
  -2   6   2  124.69   11.20
  -2   6   2  107.69   11.50
  -2   6   2  138.89   12.00
  -2   6   2  115.19   11.70
   1  -6  -2  839.42   26.00
   1  -6  -2  833.42   26.20
   1  -6  -2  879.51   26.70
   1  -6  -2  850.91   28.40
   1  -6  -2  856.91   26.50
  -1   6   2  882.71   29.60
  -1   6   2  788.12   24.60
  -1   6   2  824.72   30.40
  -1   6   2  873.11   30.20
  -1   6   2  842.72   27.50
  -1   6   2  870.41   29.30
  -1   6   2  846.42   28.70
   0  -6  -2  456.55   15.20
   0  -6  -2  467.05   18.20
   0  -6  -2  469.05   16.40
   0  -6  -2  442.06   16.30
   0  -6  -2  467.65   15.80
   0  -6  -2  458.65   15.50
   0   6   2  460.95   19.90
   0   6   2  446.56   18.90
   0   6   2  443.76   18.80
   0   6   2  462.75   17.80
   0   6   2  438.76   16.50
   0   6   2  451.35   18.90
  -1  -6  -2   -5.30    3.40
  -1  -6  -2    5.90    2.90
  -1  -6  -2    3.60    2.60
  -1  -6  -2    2.50    4.30
  -1  -6  -2   -1.60    3.60
  -1  -6  -2   -1.70    3.20
  -1  -6  -2   -1.60    4.40
   1   6   2   -2.40    3.90
   1   6   2   -2.50    4.40
   1   6   2   -4.90    4.30
   1   6   2   -2.80    5.70
   1   6   2    1.00    4.00
   1   6   2    1.60    4.50
   1   6   2    8.70    5.10
  -2  -6  -2  670.63   23.70
  -2  -6  -2  651.23   22.60
  -2  -6  -2  694.63   20.60
  -2  -6  -2  723.43   25.00
  -2  -6  -2  656.23   20.30
   2   6   2  683.13   23.10
   2   6   2  689.13   25.40
   2   6   2  673.03   24.40
   2   6   2  684.93   26.00
   2   6   2  720.73   28.10
  -3  -6  -2  153.28    7.80
  -3  -6  -2  169.78   12.30
  -3  -6  -2  149.29   11.40
   3   6   2  147.79   10.90
   3   6   2  141.39   14.40
   3   6   2  183.88   12.80
   3   6   2  146.79   13.30
   3   6   2  156.68   13.40
   3   6   2  152.88   14.60
   3  -7  -2   23.70    6.90
   3  -7  -2   23.60    7.60
   3  -7  -2   27.60    7.00
   3  -7  -2   24.80    7.50
   3  -7  -2   21.40    6.40
  -3   7   2   20.50    8.30
  -3   7   2   16.70    8.90
  -3   7   2   26.50    9.80
  -3   7   2   29.80    8.50
  -3   7   2   17.60    9.20
  -3   7   2   29.90    8.80
   2  -7  -2  230.48   12.70
   2  -7  -2  214.58   12.90
   2  -7  -2  230.08   13.10
   2  -7  -2  205.68   13.80
   2  -7  -2  236.78   15.60
   2  -7  -2  217.88   11.70
  -2   7   2  200.18   14.80
  -2   7   2  221.78   16.10
  -2   7   2  240.88   14.90
  -2   7   2  233.68   15.20
  -2   7   2  226.98   16.10
  -2   7   2  221.68   17.50
   1  -7  -2 1031.10   31.10
   1  -7  -2 1048.70   34.40
   1  -7  -2 1010.70   35.50
   1  -7  -2 1028.80   31.70
   1  -7  -2 1045.80   32.10
   1  -7  -2 1008.90   31.10
  -1   7   2 1011.00   37.00
  -1   7   2 1010.10   32.80
  -1   7   2 1011.60   34.50
  -1   7   2 1005.80   35.20
  -1   7   2  987.90   35.10
  -1   7   2 1009.30   35.80
   0  -7  -2    3.80    4.80
   0  -7  -2   -1.70    3.80
   0  -7  -2   12.90    5.50
   0  -7  -2    4.40    5.60
   0  -7  -2    7.10    3.90
   0   7   2    6.70    5.60
   0   7   2   10.00    5.70
   0   7   2   15.30    6.70
   0   7   2   -0.90    6.50
   0   7   2    3.30    6.40
   0   7   2    1.60    6.50
  -1  -7  -2  801.82   28.40
  -1  -7  -2  732.63   25.70
  -1  -7  -2  797.12   23.80
   1   7   2  747.83   24.80
   1   7   2  812.02   29.70
   1   7   2  784.42   29.60
   1   7   2  794.22   31.70
   1   7   2  754.52   25.10
   1   7   2  787.02   29.80
   1   7   2  744.93   27.90
  -2  -7  -2   73.79    6.60
  -2  -7  -2   64.09    9.10
  -2  -7  -2   63.49    8.40
   2   7   2   74.39    9.90
   2   7   2   53.99   10.10
   2   7   2   66.49    9.90
   2   7   2   81.59   12.40
   2   7   2   82.79    9.10
   0   8  -3  184.18   16.00
   0   8  -3  183.68   14.20
   0   8  -3  193.68   12.80
   0   8  -3  166.68   15.90
   0   8  -3  201.58   15.10
   0   8  -3  211.18   15.00
   0  -8   3  206.68   12.50
   0  -8   3  208.78    9.50
   0  -8   3  216.48   15.10
  -1   8  -3  263.47   18.20
  -1   8  -3  257.07   17.00
  -1   8  -3  197.88   15.90
  -1   8  -3  266.47   18.00
  -1   8  -3  219.08   16.10
   1  -8   3  252.47   14.00
   1  -8   3  232.18   11.20
   1  -8   3  245.58   11.80
   1  -8   3  227.08   15.50
  -3  -7   3  800.72   27.70
  -3  -7   3  829.32   26.70
  -3  -7   3  858.71   26.20
  -3  -7   3  757.32   24.00
  -3  -7   3  782.62   25.00
  -3  -7   3  766.52   26.70
  -3  -7   3  795.02   26.60
   2   7  -3  271.17   14.60
   2   7  -3  298.67   16.40
   2   7  -3  288.27   16.00
  -2  -7   3  282.87   12.10
  -2  -7   3  288.57   12.60
  -2  -7   3  260.87   11.90
  -2  -7   3  294.27   12.60
  -2  -7   3  282.87   13.40
  -2  -7   3  290.27   13.30
  -2  -7   3  288.37   14.20
   1   7  -3  110.59    9.90
   1   7  -3  129.89   11.60
   1   7  -3  129.79    9.60
   1   7  -3  136.59   10.60
   1   7  -3  118.59   12.00
   1   7  -3  131.99   10.90
  -1  -7   3  118.59    7.50
  -1  -7   3  122.09    8.70
  -1  -7   3  143.29   10.40
  -1  -7   3  136.69    8.80
   0   7  -3  491.45   19.90
   0   7  -3  446.16   18.80
   0   7  -3  493.35   21.40
   0   7  -3  478.95   21.10
   0   7  -3  476.15   20.20
   0   7  -3  438.56   17.10
   0  -7   3  456.55   16.30
   0  -7   3  467.15   15.40
   0  -7   3  478.95   15.90
   0  -7   3  495.35   19.70
   0  -7   3  464.65   14.40
   0  -7   3  455.75   17.20
  -1   7  -3  322.67   13.30
  -1   7  -3  328.67   16.80
  -1   7  -3  308.07   16.50
  -1   7  -3  313.57   17.30
  -1   7  -3  318.67   17.30
  -1   7  -3  302.97   16.00
   1  -7   3  302.57   13.60
   1  -7   3  306.37   12.90
   1  -7   3  322.17   16.00
   1  -7   3  301.27   12.20
   1  -7   3  331.37   12.90
  -2   7  -3   73.59    8.20
  -2   7  -3   74.99   10.70
  -2   7  -3   91.49   11.70
  -2   7  -3   70.79    9.70
  -2   7  -3   76.39    9.90
  -2   7  -3   76.89   11.10
   2  -7   3   83.19    8.70
   2  -7   3   78.79   10.00
   2  -7   3   86.39    8.20
   2  -7   3   73.69    8.10
   2  -7   3   80.79    8.10
  -3   7  -3  198.58   17.40
  -3   7  -3  234.88   17.90
  -3   7  -3  231.78   16.00
  -3   7  -3  231.38   17.10
  -3   7  -3  239.68   16.70
   3  -7   3  214.78   14.70
   3  -7   3  229.98   13.30
   3  -7   3  243.68   13.30
   3  -7   3  226.78   12.00
   3  -7   3  211.58   13.30
   3  -7   3  246.88   13.50
   4   6  -3  247.98   15.10
   4   6  -3  232.08   16.10
   4   6  -3  265.97   15.70
   4   6  -3  240.68   17.90
   4   6  -3  231.38   15.10
  -4  -6   3  247.78   12.60
  -4  -6   3  230.78   10.90
  -4  -6   3  256.57   15.30
   3   6  -3  357.66   17.20
   3   6  -3  383.36   17.30
   3   6  -3  335.57   16.70
   3   6  -3  369.86   16.70
   3   6  -3  373.86   19.40
   3   6  -3  395.06   16.80
  -3  -6   3  374.76   14.40
  -3  -6   3  368.06   13.50
  -3  -6   3  364.66   16.10
  -3  -6   3  350.96   14.30
  -3  -6   3  351.06   12.50
  -3  -6   3  372.86   15.20
  -3  -6   3  359.36   14.20
   2   6  -3   10.10    4.40
   2   6  -3    4.60    4.80
   2   6  -3   13.20    4.60
   2   6  -3    4.60    5.20
   2   6  -3   -1.80    4.40
   2   6  -3    8.10    4.50
   2   6  -3    7.70    5.10
  -2  -6   3    6.60    3.10
  -2  -6   3    2.90    3.40
  -2  -6   3    2.40    3.60
  -2  -6   3    2.70    3.60
  -2  -6   3    4.20    3.10
  -2  -6   3    5.30    3.70
  -2  -6   3    6.80    4.30
   1   6  -3 1254.07   38.80
   1   6  -3 1249.07   36.90
   1   6  -3 1220.68   38.10
   1   6  -3 1290.67   37.90
   1   6  -3 1245.48   38.20
   1   6  -3 1267.97   38.60
   1   6  -3 1256.37   38.10
   1   6  -3 1240.08   39.10
   1   6  -3 1246.98   37.40
  -1  -6   3 1265.47   36.00
  -1  -6   3 1256.97   33.20
  -1  -6   3 1191.98   35.00
  -1  -6   3 1200.58   34.30
  -1  -6   3 1225.98   37.50
   0   6  -3   15.80    4.90
   0   6  -3   23.60    4.30
   0   6  -3   20.10    5.00
   0   6  -3   22.40    5.30
   0   6  -3   17.20    5.40
   0   6  -3   18.90    4.80
   0  -6   3   18.20    2.90
   0  -6   3   17.40    3.90
   0  -6   3   20.00    3.80
   0  -6   3   23.10    3.80
   0  -6   3   17.80    2.70
   0  -6   3   19.60    3.40
   0  -6   3   19.00    4.10
  -1   6  -3  431.36   18.10
  -1   6  -3  429.96   17.90
  -1   6  -3  462.35   18.90
  -1   6  -3  416.86   18.50
  -1   6  -3  419.86   17.90
  -1   6  -3  419.86   15.20
   1  -6   3  424.96   14.60
   1  -6   3  422.56   17.20
   1  -6   3  395.86   16.00
   1  -6   3  420.76   14.90
   1  -6   3  416.46   14.80
   1  -6   3  440.86   15.70
  -2   6  -3  155.98   11.70
  -2   6  -3  156.28   11.50
  -2   6  -3  131.89    8.60
  -2   6  -3  150.38   10.80
  -2   6  -3  150.08   10.20
  -2   6  -3  137.49   11.90
  -2   6  -3  156.08   11.60
   2  -6   3  139.59    9.90
   2  -6   3  145.19    8.50
   2  -6   3  143.69    8.70
   2  -6   3  141.59    8.60
   2  -6   3  142.99    8.70
  -3   6  -3  107.89    8.30
  -3   6  -3  108.09   10.30
  -3   6  -3   81.89   10.80
  -3   6  -3  111.39   11.70
  -3   6  -3  108.79   10.80
  -3   6  -3   85.79   12.20
  -3   6  -3   88.09    8.80
  -3   6  -3   96.39   10.40
   3  -6   3   96.19    8.90
   3  -6   3   93.39    8.70
   3  -6   3   92.79    9.40
   3  -6   3   92.89    7.50
   3  -6   3  102.09    8.30
   3  -6   3   93.89    8.10
  -4   6  -3   99.09   12.20
  -4   6  -3  101.69   11.00
  -4   6  -3   91.79   13.00
  -4   6  -3  114.29   14.90
  -4   6  -3   99.99    9.70
  -4   6  -3   97.49   12.60
  -4   6  -3   99.09   11.70
  -4   6  -3  101.49   13.00
  -4   6  -3  110.59   12.00
   4  -6   3   92.89    8.60
   4  -6   3   94.09    9.90
   4  -6   3  119.89   10.70
   4  -6   3  106.79   10.20
   4  -6   3   93.09   10.30
   4  -6   3   92.99   10.10
   5   5  -3  108.19   14.40
   5   5  -3  126.39   12.70
   5   5  -3  123.89   13.20
   5   5  -3  132.49   12.50
   5   5  -3  122.29   11.80
  -5  -5   3  152.58   11.30
  -5  -5   3  124.59    8.20
  -5  -5   3  128.29    9.00
  -5  -5   3  117.49   13.10
   4   5  -3 1126.99   36.40
   4   5  -3 1153.68   39.50
   4   5  -3 1142.39   36.70
   4   5  -3 1121.49   35.60
   4   5  -3 1102.59   34.60
   4   5  -3 1105.09   36.10
  -4  -5   3 1113.99   34.50
  -4  -5   3 1156.38   33.00
  -4  -5   3 1161.38   37.10
  -4  -5   3 1129.09   31.60
  -4  -5   3 1180.78   31.40
   3   5  -3   89.79    7.80
   3   5  -3   68.09    7.10
   3   5  -3   74.49    7.60
   3   5  -3   64.79    7.90
   3   5  -3   73.29    9.00
   3   5  -3   66.99    7.50
   3   5  -3   77.99    7.50
  -3  -5   3   68.99    6.10
  -3  -5   3   71.79    6.20
  -3  -5   3   71.89    5.50
  -3  -5   3   68.19    5.00
   2   5  -3 1673.63   48.30
   2   5  -3 1635.94   48.00
   2   5  -3 1623.44   48.30
   2   5  -3 1652.43   49.40
   2   5  -3 1602.54   47.50
   2   5  -3 1646.54   47.70
   2   5  -3 1668.43   47.70
   2   5  -3 1652.53   48.80
   2   5  -3 1670.33   47.90
   2   5  -3 1698.13   47.90
  -2  -5   3 1735.73   46.70
  -2  -5   3 1715.73   46.30
  -2  -5   3 1637.04   45.40
  -2  -5   3 1692.63   46.00
   1   5  -3  523.55   18.60
   1   5  -3  520.75   18.70
   1   5  -3  538.35   19.20
   1   5  -3  527.35   19.10
   1   5  -3  554.84   18.60
   1   5  -3  542.55   18.60
   1   5  -3  530.85   18.10
   1   5  -3  547.35   19.50
   1   5  -3  509.05   18.50
  -1  -5   3  534.05   17.00
  -1  -5   3  532.95   14.90
  -1  -5   3  547.15   14.90
  -1  -5   3  507.95   17.40
  -1  -5   3  518.55   15.30
  -1  -5   3  551.54   18.20
  -1  -5   3  534.65   16.10
   0   5  -3  219.98   11.00
   0   5  -3  215.28   10.60
   0   5  -3  217.28   11.20
   0   5  -3  225.28    9.90
   0   5  -3  221.18   11.10
   0   5  -3  216.58   10.70
   0   5  -3  216.18    9.50
   0  -5   3  225.58    8.20
   0  -5   3  218.68    9.10
   0  -5   3  218.08    8.80
   0  -5   3  214.48    7.80
   0  -5   3  221.48    8.70
   0  -5   3  218.18    8.00
   0  -5   3  223.18    9.50
   0  -5   3  215.28    7.90
   0  -5   3  218.78   10.20
   0  -5   3  212.08   10.20
  -1   5  -3 2155.18   58.69
  -1   5  -3 2084.29   60.89
  -1   5  -3 2165.78   61.49
  -1   5  -3 2152.78   61.69
  -1   5  -3 2164.28   62.09
  -1   5  -3 2155.78   56.09
  -1   5  -3 2143.99   61.69
   1  -5   3 2165.68   58.89
   1  -5   3 2131.89   57.99
   1  -5   3 2220.18   58.79
   1  -5   3 2125.69   58.19
   1  -5   3 2183.38   58.19
   1  -5   3 2118.59   58.89
   1  -5   3 2171.68   60.49
  -2   5  -3  107.69    8.40
  -2   5  -3  130.99    7.60
  -2   5  -3  111.59    8.30
  -2   5  -3  102.09    9.70
  -2   5  -3  121.99    8.00
  -2   5  -3  115.99    9.00
  -2   5  -3  111.39    9.30
  -2   5  -3  113.99    8.40
  -2   5  -3  118.19    7.80
   2  -5   3  110.69    7.00
   2  -5   3  122.19    6.60
   2  -5   3  119.69    6.90
   2  -5   3  118.79    7.00
   2  -5   3  124.69    9.90
   2  -5   3  123.69    8.00
   2  -5   3  118.49    7.10
   2  -5   3   80.39    9.80
  -3   5  -3  213.98   13.10
  -3   5  -3  218.68   12.10
  -3   5  -3  193.88   12.10
  -3   5  -3  195.78   11.80
  -3   5  -3  206.08   11.70
  -3   5  -3  182.98   11.40
  -3   5  -3  209.78   13.50
  -3   5  -3  202.98   10.40
  -3   5  -3  232.38   14.40
  -3   5  -3  210.38   11.30
   3  -5   3  195.78   11.10
   3  -5   3  207.58    9.40
   3  -5   3  205.18   10.50
   3  -5   3  216.98   10.10
   3  -5   3  202.48   10.00
   3  -5   3  210.08   10.80
  -4   5  -3  209.88    9.90
  -4   5  -3  186.08   11.60
  -4   5  -3  211.38   14.70
  -4   5  -3  214.68   13.20
  -4   5  -3  198.18   13.30
  -4   5  -3  211.78   12.70
  -4   5  -3  186.18   13.90
  -4   5  -3  211.98   12.70
  -4   5  -3  201.68   16.70
  -4   5  -3  189.78   15.50
  -4   5  -3  183.68   13.30
   4  -5   3  192.18   10.20
   4  -5   3  213.18   11.10
   4  -5   3  196.38   11.60
   4  -5   3  193.98   11.80
   4  -5   3  199.08   10.50
   4  -5   3  196.28   11.00
   4  -5   3  205.88   11.90
  -5   5  -3  183.38   15.10
  -5   5  -3  212.28   16.70
  -5   5  -3  199.58   18.60
  -5   5  -3  212.18   16.70
  -5   5  -3  186.68   13.30
  -5   5  -3  188.68   15.30
  -5   5  -3  184.08   19.40
  -5   5  -3  197.48   13.90
   5  -5   3  189.58   12.00
   5  -5   3  171.68   12.30
   5  -5   3  189.08   10.80
   5  -5   3  213.48   14.00
   5  -5   3  206.38   12.20
   5  -5   3  197.28   11.80
   5  -5   3  201.48   12.80
   5  -5   3  194.68   11.30
   5  -5   3  184.08   13.50
   5   4  -3  192.18   12.60
   5   4  -3  215.18   12.90
   5   4  -3  185.48   11.90
   5   4  -3  220.68   15.10
   5   4  -3  226.08   12.10
  -5  -4   3  218.68   11.90
  -5  -4   3  141.59   12.70
  -5  -4   3  192.88   10.00
  -5  -4   3  188.48   10.20
  -5  -4   3  178.68    9.20
  -5  -4   3  188.18   13.30
   4   4  -3   27.90    5.40
   4   4  -3   17.80    4.10
   4   4  -3   19.20    4.20
   4   4  -3   16.30    4.20
   4   4  -3   17.00    5.60
   4   4  -3   17.80    4.40
  -4  -4   3   18.70    3.60
  -4  -4   3   22.30    5.10
  -4  -4   3   19.30    3.30
  -4  -4   3   19.10    3.60
  -4  -4   3   17.60    3.80
  -4  -4   3   20.80    3.30
  -4  -4   3   24.10    4.10
   3   4  -3 1131.29   33.70
   3   4  -3 1113.29   34.00
   3   4  -3 1131.29   35.90
   3   4  -3 1077.29   32.80
   3   4  -3 1140.19   33.70
   3   4  -3 1145.79   33.10
   3   4  -3 1130.79   33.70
  -3  -4   3 1171.58   30.40
  -3  -4   3 1126.69   31.80
  -3  -4   3 1104.29   30.90
  -3  -4   3 1127.39   30.40
  -3  -4   3 1049.79   30.20
  -3  -4   3 1110.79   30.50
  -3  -4   3 1119.99   30.70
  -3  -4   3 1109.29   32.60
   2   4  -3 1636.04   46.40
   2   4  -3 1711.13   47.40
   2   4  -3 1683.53   45.70
   2   4  -3 1656.63   46.70
   2   4  -3 1626.04   46.20
   2   4  -3 1631.34   46.80
   2   4  -3 1683.33   47.20
   2   4  -3 1665.43   48.30
   2   4  -3 1644.84   46.40
  -2  -4   3 1681.43   44.60
  -2  -4   3 1639.34   45.20
   1   4  -3 1311.77   38.00
   1   4  -3 1352.26   38.50
   1   4  -3 1328.37   37.70
   1   4  -3 1309.47   37.70
   1   4  -3 1327.67   38.30
   1   4  -3 1373.56   38.10
   1   4  -3 1290.77   37.80
   1   4  -3 1334.07   37.10
   1   4  -3 1230.08   37.10
   1   4  -3 1280.77   37.50
  -1  -4   3 1313.17   34.40
  -1  -4   3 1336.57   35.90
  -1  -4   3 1331.37   35.50
  -1  -4   3 1309.97   36.20
  -1  -4   3 1279.37   36.80
  -1  -4   3 1304.17   36.00
   0   4  -3 2558.54   67.19
   0   4  -3 2438.46   63.59
   0   4  -3 2412.76   65.79
   0   4  -3 2383.76   67.49
   0   4  -3 2432.16   67.29
   0   4  -3 2514.95   63.69
   0   4  -3 2543.85   67.09
   0   4  -3 2453.35   67.59
   0   4  -3 2415.66   65.39
   0  -4   3 2405.46   64.79
   0  -4   3 2450.75   64.29
   0  -4   3 2475.45   64.99
   0  -4   3 2429.96   65.19
   0  -4   3 2449.95   64.69
   0  -4   3 2463.55   64.19
   0  -4   3 2423.36   66.29
   0  -4   3 2518.35   64.79
   0  -4   3 2473.55   64.09
   0  -4   3 2441.76   64.29
   0  -4   3 2462.15   64.39
   0  -4   3 2535.15   64.89
   0  -4   3 2240.88   64.89
  -1   4  -3   -1.10    2.50
  -1   4  -3   -1.10    3.20
  -1   4  -3   -0.50    2.00
  -1   4  -3   -1.00    2.70
  -1   4  -3    1.20    2.10
  -1   4  -3    2.20    3.40
  -1   4  -3    0.60    2.00
  -1   4  -3   -1.00    2.30
  -1   4  -3   -0.20    2.30
  -1   4  -3    2.30    2.50
   1  -4   3   -0.10    1.80
   1  -4   3   -3.30    2.70
   1  -4   3   -3.10    3.20
   1  -4   3    3.70    1.90
   1  -4   3   -1.30    2.10
   1  -4   3    3.60    2.10
   1  -4   3    1.30    1.90
   1  -4   3    3.00    1.80
   1  -4   3    3.80    3.20
  -2   4  -3  442.76   16.60
  -2   4  -3  449.46   13.50
  -2   4  -3  434.56   15.40
  -2   4  -3  441.76   15.60
  -2   4  -3  446.06   16.50
  -2   4  -3  438.96   15.50
  -2   4  -3  437.76   17.10
  -2   4  -3  441.06   12.50
  -2   4  -3  449.16   16.70
  -2   4  -3  423.86   17.70
  -2   4  -3  473.55   18.50
  -2   4  -3  482.85   16.10
  -2   4  -3  425.76   15.20
   2  -4   3  443.26   16.00
   2  -4   3  443.36   16.50
   2  -4   3  438.46   14.00
   2  -4   3  455.15   15.30
   2  -4   3  431.66   15.20
   2  -4   3  430.66   16.80
   2  -4   3  451.85   14.90
   2  -4   3  421.46   14.70
  -3   4  -3  912.21   30.50
  -3   4  -3  827.72   25.90
  -3   4  -3  928.01   28.90
  -3   4  -3  910.91   29.50
  -3   4  -3  926.91   28.70
  -3   4  -3  923.21   29.40
  -3   4  -3  886.51   31.10
  -3   4  -3  908.01   25.50
  -3   4  -3  931.01   29.10
  -3   4  -3  893.71   28.80
  -3   4  -3  886.71   31.90
   3  -4   3  894.31   27.90
   3  -4   3  906.11   28.50
   3  -4   3  902.71   28.20
   3  -4   3  900.81   26.60
   3  -4   3  922.61   27.50
   3  -4   3  880.71   27.50
  -4   4  -3    8.20    5.00
  -4   4  -3    3.20    4.60
  -4   4  -3    5.00    6.10
  -4   4  -3   12.70    6.60
  -4   4  -3    3.40    4.40
  -4   4  -3    6.50    3.80
  -4   4  -3    4.50    4.40
  -4   4  -3    4.80    4.10
  -4   4  -3   13.00    5.20
  -4   4  -3    5.30    6.00
   4  -4   3   11.10    3.40
   4  -4   3   -0.20    3.20
   4  -4   3    7.50    3.30
   4  -4   3    4.00    3.80
   4  -4   3   11.40    3.40
   4  -4   3    3.20    3.40
   4  -4   3    9.60    3.70
  -5   4  -3  286.67   16.40
  -5   4  -3  283.97   16.70
  -5   4  -3  264.87   16.40
  -5   4  -3  288.97   13.90
  -5   4  -3  248.28   19.30
  -5   4  -3  261.17   15.90
  -5   4  -3  255.37   12.60
  -5   4  -3  274.07   17.50
  -5   4  -3  275.37   13.70
   5  -4   3  237.98   11.30
   5  -4   3  280.57   13.20
   5  -4   3  258.37   14.00
   5  -4   3  257.57   11.80
   5  -4   3  263.17   13.20
   5  -4   3  260.27   14.50
   5  -4   3  285.77   13.70
   5  -4   3  250.87   13.10
   5  -4   3  274.87   13.00
  -6   4  -3  212.98   17.60
  -6   4  -3  204.28   13.80
  -6   4  -3  219.58   22.90
  -6   4  -3  231.28   18.60
  -6   4  -3  226.58   14.30
  -6   4  -3  227.08   17.20
  -6   4  -3  230.48   18.40
  -6   4  -3  220.48   19.50
   6  -4   3  238.48   14.20
   6  -4   3  227.88   13.40
   6  -4   3  229.68   11.50
   6  -4   3  213.08   13.90
   6  -4   3  233.38   14.60
   6  -4   3  232.78   16.10
   6  -4   3  193.38   15.40
   6  -4   3  224.98   14.00
   6  -4   3  228.58   12.90
   6   3  -3  210.38   13.80
   6   3  -3  250.47   14.30
   6   3  -3  218.28   14.30
   6   3  -3  241.18   17.10
   6   3  -3  232.38   12.70
  -6  -3   3  212.78   12.60
  -6  -3   3  217.48   12.40
  -6  -3   3  195.78   15.00
  -6  -3   3  226.78   16.40
  -6  -3   3  236.68   14.00
  -6  -3   3  235.88   13.20
   5   3  -3   55.89    6.70
   5   3  -3   69.19    9.10
   5   3  -3   68.59    7.80
   5   3  -3   58.69    7.30
   5   3  -3   54.29    6.70
  -5  -3   3   65.29    6.40
  -5  -3   3   56.29    7.40
  -5  -3   3   62.79    6.70
  -5  -3   3   64.99    6.80
  -5  -3   3   62.19    8.00
  -5  -3   3   49.80    6.60
   4   3  -3 1561.14   45.40
   4   3  -3 1631.64   45.70
   4   3  -3 1593.24   48.30
   4   3  -3 1608.14   46.10
   4   3  -3 1480.15   42.80
   4   3  -3 1592.94   45.00
   4   3  -3 1591.54   44.60
  -4  -3   3 1539.75   42.10
  -4  -3   3 1537.95   43.10
  -4  -3   3 1522.05   43.50
  -4  -3   3 1606.34   43.80
  -4  -3   3 1565.04   43.30
  -4  -3   3 1568.24   44.60
  -4  -3   3 1576.94   45.10
  -4  -3   3 1570.64   43.60
   3   3  -3  776.52   24.20
   3   3  -3  792.22   23.70
   3   3  -3  792.82   26.20
   3   3  -3  761.42   23.00
   3   3  -3  790.52   23.80
   3   3  -3  765.22   24.60
   3   3  -3  787.72   24.00
  -3  -3   3  778.82   21.20
  -3  -3   3  779.92   21.90
  -3  -3   3  761.42   22.10
  -3  -3   3  772.12   22.40
  -3  -3   3  778.32   22.10
  -3  -3   3  802.42   23.80
  -3  -3   3  750.42   22.80
  -3  -3   3  775.22   22.20
  -3  -3   3  793.42   22.40
  -3  -3   3  805.12   23.00
   2   3  -3  619.04   18.50
   2   3  -3  662.63   20.20
   2   3  -3  637.14   19.40
   2   3  -3  630.14   19.00
   2   3  -3  616.54   20.20
   2   3  -3  614.14   19.10
   2   3  -3  650.03   21.00
   2   3  -3  624.44   19.80
   2   3  -3  607.94   19.10
  -2  -3   3  625.34   18.70
  -2  -3   3  578.94   18.30
  -2  -3   3  623.34   17.80
  -2  -3   3  630.74   17.00
  -2  -3   3  636.34   17.20
  -2  -3   3  624.94   17.60
  -2  -3   3  647.64   17.30
  -2  -3   3  633.24   17.20
  -2  -3   3  619.54   17.20
  -2  -3   3  620.14   19.20
  -2  -3   3  634.24   18.80
  -2  -3   3  611.84   17.20
  -2  -3   3  623.54   18.10
   1   3  -3 2619.34   66.39
   1   3  -3 2482.05   67.29
   1   3  -3 2537.95   66.49
   1   3  -3 2509.15   67.79
   1   3  -3 2502.05   67.19
   1   3  -3 2484.35   67.89
   1   3  -3 2470.75   67.29
   1   3  -3 2514.15   67.79
   1   3  -3 2547.45   65.79
   1   3  -3 2487.55   67.79
  -1  -3   3 2600.74   66.49
  -1  -3   3 2516.15   64.79
  -1  -3   3 2496.05   64.89
  -1  -3   3 2503.85   65.19
  -1  -3   3 2527.65   64.99
  -1  -3   3 2548.74   65.89
  -1  -3   3 2498.75   67.49
  -1  -3   3 2500.15   66.09
  -1  -3   3 2538.55   65.09
  -1  -3   3 2469.45   65.39
  -1  -3   3 2385.56   67.09
  -1  -3   3 2542.45   65.69
  -1  -3   3 2627.94   66.99
  -1  -3   3 2510.35   64.99
   0   3  -3  535.75   17.30
   0   3  -3  532.25   17.00
   0   3  -3  534.85   17.60
   0   3  -3  541.65   17.70
   0   3  -3  544.55   14.40
   0   3  -3  550.04   15.20
   0   3  -3  516.15   17.00
   0   3  -3  532.05   15.90
   0   3  -3  520.65   15.10
   0   3  -3  561.34   14.40
   0   3  -3  535.85   16.60
   0  -3   3  543.35   15.90
   0  -3   3  530.95   15.20
   0  -3   3  531.55   17.20
   0  -3   3  537.75   17.10
   0  -3   3  540.35   15.30
   0  -3   3  531.85   15.20
   0  -3   3  537.95   16.10
   0  -3   3  500.85   18.10
   0  -3   3  531.15   15.20
   0  -3   3  550.04   15.70
   0  -3   3  514.75   15.00
   0  -3   3  545.85   14.80
   0  -3   3  519.35   16.90
   0  -3   3  530.55   15.30
   0  -3   3  521.65   15.50
   0  -3   3  526.85   16.40
   0  -3   3  523.95   15.60
  -1   3  -3 3494.05   92.59
  -1   3  -3 3540.45   90.79
  -1   3  -3 3454.65   91.99
  -1   3  -3 3470.65   90.09
  -1   3  -3 3520.35   93.59
  -1   3  -3 3572.84   90.69
  -1   3  -3 3483.25   91.39
  -1   3  -3 3456.55   89.99
  -1   3  -3 3456.35   93.09
  -1   3  -3 3500.65   90.89
  -1   3  -3 3487.65   92.19
   1  -3   3 3248.88   91.59
   1  -3   3 3512.15   90.39
   1  -3   3 3479.65   91.69
   1  -3   3 3416.36   89.49
   1  -3   3 3364.76   91.79
   1  -3   3 3427.56   90.59
   1  -3   3 3383.76   90.69
   1  -3   3 3522.85   91.19
   1  -3   3 3501.05   91.29
   1  -3   3 3460.25   89.89
   1  -3   3 3452.15   90.39
  -2   3  -3 1582.44   44.50
  -2   3  -3 1580.14   43.80
  -2   3  -3 1552.94   44.40
  -2   3  -3 1582.64   45.00
  -2   3  -3 1629.34   46.80
  -2   3  -3 1579.54   43.50
  -2   3  -3 1576.24   42.20
  -2   3  -3 1593.34   41.00
  -2   3  -3 1529.35   42.80
  -2   3  -3 1580.94   44.00
  -2   3  -3 1536.95   43.90
  -2   3  -3 1561.84   45.80
   2  -3   3 1390.16   42.80
   2  -3   3 1553.14   42.90
   2  -3   3 1589.74   42.70
   2  -3   3 1546.75   42.00
   2  -3   3 1491.65   42.00
   2  -3   3 1598.94   44.00
   2  -3   3 1562.14   44.20
   2  -3   3 1516.95   43.20
   2  -3   3 1559.74   43.70
  -3   3  -3  148.59    8.90
  -3   3  -3  157.28    8.80
  -3   3  -3  143.79    8.80
  -3   3  -3  118.49    7.60
  -3   3  -3  150.38   10.90
  -3   3  -3  151.78    9.30
  -3   3  -3  149.49    7.40
  -3   3  -3  147.89    8.20
  -3   3  -3  140.19    7.30
  -3   3  -3  152.48    9.40
   3  -3   3  164.08    7.30
   3  -3   3  153.18    7.80
   3  -3   3  152.78    7.90
   3  -3   3  142.39    7.90
   3  -3   3  153.08    7.50
   3  -3   3  115.49    6.70
   3  -3   3  151.98    7.20
  -4   3  -3  219.18   14.80
  -4   3  -3  230.38   12.00
  -4   3  -3  228.68   13.10
  -4   3  -3  233.58   12.40
  -4   3  -3  231.08   12.90
  -4   3  -3  218.18   10.20
  -4   3  -3  229.78   10.60
  -4   3  -3  217.48   11.70
  -4   3  -3  180.38   10.20
   4  -3   3  237.28   10.30
   4  -3   3  222.78   10.10
   4  -3   3  217.68   10.90
   4  -3   3  217.18   10.30
   4  -3   3  232.08   10.10
   4  -3   3  224.08    9.20
   4  -3   3  218.78   11.00
   4  -3   3  210.28   10.20
   4  -3   3  218.98    9.10
  -5   3  -3  362.76   13.90
  -5   3  -3  357.06   17.20
  -5   3  -3  321.07   16.70
  -5   3  -3  300.47   17.90
  -5   3  -3  342.17   16.70
  -5   3  -3  337.97   14.60
  -5   3  -3  334.27   16.60
  -5   3  -3  314.47   20.50
  -5   3  -3  351.86   14.10
   5  -3   3  318.67   15.30
   5  -3   3  356.16   14.60
   5  -3   3  329.87   13.30
   5  -3   3  340.27   14.30
   5  -3   3  298.37   14.80
   5  -3   3  341.47   14.50
   5  -3   3  335.27   14.00
   5  -3   3  339.97   14.50
   5  -3   3  340.37   12.30
  -6   3  -3    1.70   10.70
  -6   3  -3   -4.60    6.20
  -6   3  -3    7.70    7.00
  -6   3  -3   -0.30    8.90
  -6   3  -3   -4.20    6.80
  -6   3  -3   -9.00    5.80
  -6   3  -3  -15.20    7.10
  -6   3  -3   -5.00    7.00
   6  -3   3   -4.10    4.80
   6  -3   3   -0.90    4.70
   6  -3   3    7.00    6.40
   6  -3   3   -4.20    4.20
   6  -3   3    4.00    5.30
   6  -3   3   14.30    5.90
   6  -3   3    0.90    5.40
   6  -3   3    6.80    6.80
   6  -3   3   -0.90    5.00
   6   2  -3   80.39    9.00
   6   2  -3   75.39    8.90
   6   2  -3   70.39    8.20
   6   2  -3   85.49   10.90
   6   2  -3   77.99    9.10
  -6  -2   3   85.49    9.00
  -6  -2   3   93.79    9.50
  -6  -2   3   99.89   11.00
  -6  -2   3   79.19   10.50
  -6  -2   3   75.69    8.80
  -6  -2   3   81.69    9.10
   5   2  -3  229.98   11.40
   5   2  -3  268.67   12.20
   5   2  -3  264.97   12.40
   5   2  -3  268.77   11.40
   5   2  -3  244.88   11.20
   5   2  -3  267.67   14.50
  -5  -2   3  274.77   12.20
  -5  -2   3  250.47   10.30
  -5  -2   3  251.87   11.90
  -5  -2   3  252.67   11.50
  -5  -2   3  258.57   12.40
  -5  -2   3  240.28   13.20
   4   2  -3  260.97   11.00
   4   2  -3  254.37   10.50
   4   2  -3  253.57    8.70
   4   2  -3  255.47   10.30
   4   2  -3  250.87   10.70
   4   2  -3  250.77   12.70
   4   2  -3  252.17    9.80
  -4  -2   3  259.07   10.70
  -4  -2   3  249.48   10.10
  -4  -2   3  246.48   10.00
  -4  -2   3  256.07   10.60
  -4  -2   3  250.17   10.80
  -4  -2   3  248.48   10.30
  -4  -2   3  251.07   10.10
  -4  -2   3  247.78   11.50
   3   2  -3   52.49    4.60
   3   2  -3   56.89    3.00
   3   2  -3   59.09    5.80
   3   2  -3   53.29    4.10
   3   2  -3   47.60    4.30
   3   2  -3   47.40    3.80
   3   2  -3   54.79    4.90
   3   2  -3   57.09    4.40
  -3  -2   3   56.69    3.60
  -3  -2   3   52.89    3.50
  -3  -2   3   52.69    4.00
  -3  -2   3   54.89    3.80
  -3  -2   3   52.69    4.30
  -3  -2   3   51.39    4.40
  -3  -2   3   50.69    2.60
  -3  -2   3   52.39    4.20
  -3  -2   3   50.39    4.80
  -3  -2   3   55.09    4.20
  -3  -2   3   56.49    4.10
   2   2  -3 5368.76  141.99
   2   2  -3 5381.96  143.49
   2   2  -3 5441.66  144.39
   2   2  -3 5422.76  142.19
   2   2  -3 5402.26  142.29
   2   2  -3 5554.34  141.19
   2   2  -3 5561.74  142.59
   2   2  -3 5412.96  143.39
  -2  -2   3 5627.84  142.19
  -2  -2   3 5381.16  141.29
  -2  -2   3 5411.76  141.29
  -2  -2   3 5832.72  142.19
  -2  -2   3 5536.45  142.09
  -2  -2   3 5516.45  141.99
  -2  -2   3 5379.06  141.79
  -2  -2   3 5681.73  141.69
  -2  -2   3 5476.55  141.79
  -2  -2   3 5547.34  143.59
  -2  -2   3 5392.16  141.59
  -2  -2   3 5602.94  142.69
  -2  -2   3 5613.54  142.49
  -2  -2   3 5690.43  141.89
  -2  -2   3 5567.24  142.49
  -2  -2   3 5450.35  141.79
  -2  -2   3 5695.03  141.69
  -2  -2   3 5294.97  143.09
   1   2  -3  700.63   20.30
   1   2  -3  690.63   18.70
   1   2  -3  686.03   20.40
   1   2  -3  700.73   20.70
   1   2  -3  693.93   18.70
   1   2  -3  706.93   19.10
   1   2  -3  699.03   20.90
   1   2  -3  693.73   19.30
   1   2  -3  679.13   20.70
  -1  -2   3  688.03   19.00
  -1  -2   3  665.53   20.00
  -1  -2   3  712.33   18.80
  -1  -2   3  727.13   21.00
  -1  -2   3  706.03   18.80
  -1  -2   3  705.33   18.90
  -1  -2   3  711.43   18.60
  -1  -2   3  696.93   20.60
  -1  -2   3  705.73   19.10
  -1  -2   3  706.33   18.90
  -1  -2   3  704.43   19.30
  -1  -2   3  667.13   19.10
  -1  -2   3  693.13   19.10
  -1  -2   3  725.93   20.50
  -1  -2   3  700.93   20.60
  -1  -2   3  726.93   19.10
  -1  -2   3  697.13   18.80
  -1  -2   3  667.03   19.40
  -1  -2   3  698.13   21.00
   0   2  -3 3253.17   82.29
   0   2  -3 3026.10   83.69
   0   2  -3 3094.69   83.69
   0   2  -3 3207.18   83.99
   0   2  -3 3138.69   83.89
   0   2  -3 3109.59   84.29
   0   2  -3 3206.88   82.79
   0   2  -3 3077.29   84.59
   0   2  -3 3078.69   82.99
   0   2  -3 3172.98   82.39
   0   2  -3 3123.29   82.59
   0   2  -3 3306.77   83.49
   0   2  -3 3269.17   82.19
   0   2  -3 3177.18   82.39
   0   2  -3 3189.78   82.69
   0  -2   3 3190.28   83.29
   0  -2   3 3239.88   82.99
   0  -2   3 3083.09   82.59
   0  -2   3 3175.18   82.79
   0  -2   3 3252.67   84.59
   0  -2   3 3395.16   84.19
   0  -2   3 3389.56   83.79
   0  -2   3 3192.38   82.09
   0  -2   3 3123.69   83.19
   0  -2   3 3176.98   82.49
   0  -2   3 3247.38   84.29
   0  -2   3 3265.77   83.79
   0  -2   3 3202.48   82.79
   0  -2   3 3330.97   84.39
   0  -2   3 3132.69   82.99
   0  -2   3 3209.78   84.99
   0  -2   3 3138.59   83.09
   0  -2   3 3278.97   81.89
  -1   2  -3 2299.07   62.49
  -1   2  -3 2360.36   61.09
  -1   2  -3 2239.58   60.49
  -1   2  -3 2341.67   61.49
  -1   2  -3 2277.87   61.59
  -1   2  -3 2333.47   61.59
  -1   2  -3 2344.97   62.19
  -1   2  -3 2328.37   63.19
  -1   2  -3 2303.07   61.39
  -1   2  -3 2366.46   60.79
  -1   2  -3 2209.28   60.49
  -1   2  -3 2291.47   60.79
  -1   2  -3 2397.96   62.19
  -1   2  -3 2349.86   61.19
   1  -2   3 2283.27   60.89
   1  -2   3 2295.67   61.49
   1  -2   3 2363.06   61.69
   1  -2   3 2326.47   60.69
   1  -2   3 2319.47   61.79
   1  -2   3 2317.77   60.69
   1  -2   3 2300.37   60.99
   1  -2   3 2273.27   60.59
   1  -2   3 2307.97   59.79
   1  -2   3 2316.07   62.29
   1  -2   3 2306.07   61.39
   1  -2   3 2298.77   61.29
   1  -2   3 2331.17   61.99
   1  -2   3 2289.87   60.29
   1  -2   3 2199.78   61.49
   1  -2   3 2224.58   63.39
  -2   2  -3  219.58    9.00
  -2   2  -3  206.78    8.90
  -2   2  -3  205.88    8.40
  -2   2  -3  212.18    8.30
  -2   2  -3  210.28   10.60
  -2   2  -3  205.28    8.40
  -2   2  -3  220.78    6.90
  -2   2  -3  214.08    8.40
  -2   2  -3  206.48    9.30
  -2   2  -3  215.48    8.20
  -2   2  -3  207.08    9.30
  -2   2  -3  225.18    9.90
   2  -2   3  203.98    9.10
   2  -2   3  218.58    7.70
   2  -2   3  230.28    9.90
   2  -2   3  208.18    7.60
   2  -2   3  215.98    8.50
   2  -2   3  215.08    8.60
   2  -2   3  223.08    8.60
   2  -2   3  221.98    8.30
   2  -2   3  233.18    8.70
   2  -2   3  219.48    8.00
   2  -2   3  209.88    9.30
   2  -2   3  218.98    7.70
   2  -2   3  214.38    8.80
  -3   2  -3 1086.79   31.80
  -3   2  -3 1058.19   32.60
  -3   2  -3 1094.09   31.10
  -3   2  -3 1048.10   32.80
  -3   2  -3 1101.19   33.00
  -3   2  -3 1086.49   30.00
  -3   2  -3 1104.79   30.80
  -3   2  -3 1083.19   32.60
  -3   2  -3 1100.99   33.90
  -3   2  -3 1106.09   35.80
   3  -2   3 1086.09   31.40
   3  -2   3 1077.39   31.10
   3  -2   3 1087.19   31.10
   3  -2   3 1089.59   31.50
   3  -2   3 1097.39   30.20
   3  -2   3 1078.99   30.30
   3  -2   3 1091.69   32.10
   3  -2   3 1086.19   31.20
   3  -2   3 1107.79   32.00
  -4   2  -3  404.66   14.10
  -4   2  -3  415.16   17.50
  -4   2  -3  385.36   15.40
  -4   2  -3  408.26   16.30
  -4   2  -3  414.76   13.70
  -4   2  -3  388.06   14.40
  -4   2  -3  398.36   16.20
  -4   2  -3  402.36   19.50
  -4   2  -3  392.76   16.30
  -4   2  -3  410.06   16.40
   4  -2   3  404.36   14.60
   4  -2   3  416.56   14.60
   4  -2   3  406.76   14.40
   4  -2   3  406.66   14.60
   4  -2   3  405.06   14.60
   4  -2   3  405.76   13.90
   4  -2   3  399.66   13.10
   4  -2   3  412.76   15.50
   4  -2   3  389.66   15.40
  -5   2  -3   20.00    5.70
  -5   2  -3   25.10    4.20
  -5   2  -3   21.10    6.00
  -5   2  -3   25.30    4.90
  -5   2  -3   15.20    4.70
  -5   2  -3   18.50    4.90
  -5   2  -3   11.10    6.80
  -5   2  -3   16.10    5.40
  -5   2  -3   18.40    6.50
   5  -2   3   17.80    4.30
   5  -2   3   17.40    4.60
   5  -2   3   24.60    5.50
   5  -2   3   16.90    4.70
   5  -2   3   25.50    4.80
   5  -2   3   15.50    4.00
   5  -2   3   18.90    3.30
   5  -2   3   20.50    3.90
   5  -2   3   21.10    4.30
  -6   2  -3   49.30    7.90
  -6   2  -3   37.30    7.90
  -6   2  -3   43.00   10.30
  -6   2  -3   52.69   12.00
  -6   2  -3   44.40    8.40
  -6   2  -3   49.50    8.80
  -6   2  -3   46.90    8.80
   6  -2   3   52.79    7.10
   6  -2   3   40.20    7.10
   6  -2   3   40.00    7.70
   6  -2   3   50.89    6.70
   6  -2   3   44.00    7.70
   6  -2   3   65.09    7.70
   6  -2   3   51.99    7.60
   6   1  -3  185.08   12.20
   6   1  -3  176.98   11.10
   6   1  -3  179.68    9.90
   6   1  -3  174.78   11.20
   6   1  -3  193.08   11.80
   6   1  -3  185.88   13.90
   6   1  -3  181.38    8.40
  -6  -1   3  185.38   13.30
  -6  -1   3  170.28   12.20
  -6  -1   3  179.88   12.20
  -6  -1   3  181.58   13.40
  -6  -1   3  187.98   11.60
  -6  -1   3  193.88   10.10
  -6  -1   3  174.68   12.00
  -6  -1   3  151.18   13.50
   5   1  -3  729.63   22.30
   5   1  -3  711.23   21.10
   5   1  -3  705.53   23.50
   5   1  -3  654.73   21.90
   5   1  -3  714.83   23.50
   5   1  -3  728.33   26.00
   5   1  -3  715.43   23.80
   5   1  -3  730.93   23.40
  -5  -1   3  730.93   25.70
  -5  -1   3  727.53   24.30
  -5  -1   3  703.13   24.20
  -5  -1   3  752.92   24.60
  -5  -1   3  672.93   22.10
  -5  -1   3  729.43   23.90
   4   1  -3  178.68    8.30
   4   1  -3  190.48    8.20
   4   1  -3  194.28    8.80
   4   1  -3  196.08    8.90
   4   1  -3  187.28    7.60
   4   1  -3  180.68    8.70
   4   1  -3  187.18    6.20
   4   1  -3  190.38    8.70
   4   1  -3  197.08    8.10
   4   1  -3  199.78   10.50
  -4  -1   3  190.88    9.20
  -4  -1   3  186.68    9.60
  -4  -1   3  191.28    9.30
  -4  -1   3  192.48   10.40
  -4  -1   3  189.98    8.90
  -4  -1   3  177.38    8.90
  -4  -1   3  189.18    8.60
   3   1  -3 1912.81   50.09
   3   1  -3 1871.81   49.80
   3   1  -3 1914.91   49.90
   3   1  -3 1840.52   50.69
   3   1  -3 1886.71   50.89
   3   1  -3 2003.70   53.09
   3   1  -3 1858.91   50.79
   3   1  -3 1831.02   49.00
   3   1  -3 1890.51   51.49
   3   1  -3 1896.21   50.69
   3   1  -3 1851.51   49.99
  -3  -1   3 1849.21   49.10
  -3  -1   3 1855.41   51.19
  -3  -1   3 1896.41   50.29
  -3  -1   3 1880.91   50.89
  -3  -1   3 1861.91   50.69
  -3  -1   3 1903.21   51.69
  -3  -1   3 1802.42   50.59
   2   1  -3  698.73   19.20
   2   1  -3  675.23   18.70
   2   1  -3  685.53   18.50
   2   1  -3  680.43   18.90
   2   1  -3  665.83   19.30
   2   1  -3  683.43   18.90
   2   1  -3  686.83   19.30
   2   1  -3  663.93   19.10
   2   1  -3  704.93   19.70
   2   1  -3  645.44   20.80
   2   1  -3  676.63   18.60
   2   1  -3  674.33   20.00
   2   1  -3  680.23   18.60
   2   1  -3  747.43   19.60
  -2  -1   3  696.93   19.40
  -2  -1   3  631.44   20.50
  -2  -1   3  661.03   19.20
  -2  -1   3  661.33   18.40
  -2  -1   3  686.03   18.80
  -2  -1   3  735.73   18.50
  -2  -1   3  657.83   19.50
  -2  -1   3  671.83   19.50
  -2  -1   3  675.43   21.00
  -2  -1   3  684.83   19.60
  -2  -1   3  673.93   19.70
  -2  -1   3  677.43   19.40
  -2  -1   3  714.63   18.60
  -2  -1   3  676.93   20.40
  -2  -1   3  668.43   19.30
  -2  -1   3  683.83   20.10
  -2  -1   3  664.83   19.70
   1   1  -3  466.05   12.70
   1   1  -3  454.15   12.40
   1   1  -3  461.75   12.40
   1   1  -3  468.55   14.10
   1   1  -3  464.25   12.50
   1   1  -3  453.75   13.00
   1   1  -3  456.25   12.70
   1   1  -3  469.35   12.90
   1   1  -3  462.55   13.70
   1   1  -3  461.05   13.00
   1   1  -3  435.76   12.80
   1   1  -3  445.66   12.60
   1   1  -3  438.96   13.60
   1   1  -3  446.16   12.90
   1   1  -3  447.26   14.00
  -1  -1   3  424.56   14.10
  -1  -1   3  446.66   12.70
  -1  -1   3  453.85   12.80
  -1  -1   3  469.65   13.20
  -1  -1   3  427.96   13.60
  -1  -1   3  457.85   12.90
  -1  -1   3  457.15   13.70
  -1  -1   3  458.75   13.10
  -1  -1   3  472.15   13.00
  -1  -1   3  461.75   12.30
  -1  -1   3  438.66   13.70
  -1  -1   3  462.35   13.30
  -1  -1   3  457.65   13.00
  -1  -1   3  457.25   13.00
   0   1  -3 5701.53  140.19
   0   1  -3 5505.75  141.49
   0   1  -3 5384.56  140.99
   0   1  -3 5126.69  140.59
   0   1  -3 5163.68  140.79
   0   1  -3 5445.16  140.29
   0   1  -3 5641.74  140.89
   0   1  -3 5744.93  140.19
   0   1  -3 5537.45  140.49
   0   1  -3 5651.03  140.09
   0   1  -3 5633.54  140.39
   0  -1   3 4965.40  140.59
   0  -1   3 5551.14  140.59
   0  -1   3 5421.36  140.29
   0  -1   3 5553.74  141.69
   0  -1   3 5463.05  140.79
   0  -1   3 5438.76  140.09
   0  -1   3 5449.06  140.79
   0  -1   3 5561.44  140.69
   0  -1   3 5277.47  140.89
   0  -1   3 5500.85  140.69
  -1   1  -3  297.97    8.80
  -1   1  -3  290.07    9.00
  -1   1  -3  304.17    9.80
  -1   1  -3  294.57   10.30
  -1   1  -3  295.57    9.70
  -1   1  -3  308.27    9.60
  -1   1  -3  301.27    8.90
  -1   1  -3  295.77    9.10
  -1   1  -3  293.47   10.20
  -1   1  -3  295.07    9.80
  -1   1  -3  306.37    9.20
  -1   1  -3  309.97    9.90
  -1   1  -3  294.37   10.40
  -1   1  -3  294.57   11.00
  -1   1  -3  298.17    9.30
  -1   1  -3  306.67    9.50
   1  -1   3  297.07    8.80
   1  -1   3  280.77   10.50
   1  -1   3  288.67    9.30
   1  -1   3  288.37    8.30
   1  -1   3  298.37   10.10
   1  -1   3  294.87    9.60
   1  -1   3  289.07    8.90
   1  -1   3  293.57   11.30
   1  -1   3  299.67    9.50
   1  -1   3  293.17    8.90
   1  -1   3  294.07    9.80
   1  -1   3  307.97    9.60
   1  -1   3  293.67   10.00
   1  -1   3  300.37    9.00
   1  -1   3  300.97    9.40
   1  -1   3  293.97    9.90
   1  -1   3  292.67    9.40
   1  -1   3  295.37   10.00
  -2   1  -3 3932.61  103.29
  -2   1  -3 3854.31  100.19
  -2   1  -3 3844.72   98.99
  -2   1  -3 3771.82  101.29
  -2   1  -3 3784.32  100.19
  -2   1  -3 3963.70  100.79
  -2   1  -3 3944.31   99.89
  -2   1  -3 3732.43  100.99
  -2   1  -3 3909.31  100.89
  -2   1  -3 3804.62   99.49
  -2   1  -3 3783.22  100.99
  -2   1  -3 3900.81   99.99
  -2   1  -3 3986.30  100.59
  -2   1  -3 3930.01  100.69
  -2   1  -3 3793.22  100.69
   2  -1   3 3720.13   99.89
   2  -1   3 3746.63  100.09
   2  -1   3 3763.12  100.29
   2  -1   3 3791.72   99.29
   2  -1   3 3773.22  100.79
   2  -1   3 3823.52  100.69
   2  -1   3 4016.50  101.29
   2  -1   3 3814.32  100.59
   2  -1   3 3907.11   99.29
   2  -1   3 3786.32   99.89
   2  -1   3 3761.62   99.09
   2  -1   3 3909.21   99.89
   2  -1   3 3891.81  100.89
   2  -1   3 3941.41  101.29
   2  -1   3 3783.42  100.79
   2  -1   3 3700.63   99.89
   2  -1   3 3783.62  100.09
  -3   1  -3  228.68   10.30
  -3   1  -3  206.58   12.30
  -3   1  -3  242.88    8.20
  -3   1  -3  249.18   10.30
  -3   1  -3  230.18   10.20
  -3   1  -3  241.88    7.60
  -3   1  -3  239.08   10.50
  -3   1  -3  232.68   10.40
  -3   1  -3  239.38    9.90
  -3   1  -3  226.88   10.10
  -3   1  -3  233.68   11.30
   3  -1   3  252.47    9.60
   3  -1   3  239.58    9.20
   3  -1   3  215.78    8.70
   3  -1   3  232.48    7.70
   3  -1   3  232.58    9.10
   3  -1   3  230.58    8.70
   3  -1   3  253.77    9.30
   3  -1   3  227.08    9.20
   3  -1   3  239.38    9.60
   3  -1   3  239.08    9.90
  -4   1  -3   29.80    4.70
  -4   1  -3   31.80    5.10
  -4   1  -3   25.40    4.60
  -4   1  -3   28.80    4.60
  -4   1  -3   28.90    5.00
  -4   1  -3   30.70    3.50
  -4   1  -3   30.80    5.90
  -4   1  -3   25.80    6.00
   4  -1   3   27.30    3.90
   4  -1   3   25.70    2.70
   4  -1   3   29.60    3.90
   4  -1   3   25.30    4.20
   4  -1   3   26.00    3.70
   4  -1   3   24.00    4.30
   4  -1   3   23.00    3.40
   4  -1   3   31.80    3.80
   4  -1   3   24.10    3.70
  -5   1  -3  474.75   23.30
  -5   1  -3  450.55   17.90
  -5   1  -3  428.26   18.60
  -5   1  -3  443.76   18.50
  -5   1  -3  475.85   19.20
  -5   1  -3  467.55   19.20
  -5   1  -3  475.35   21.00
   5  -1   3  457.95   17.70
   5  -1   3  470.35   17.90
   5  -1   3  494.25   18.10
   5  -1   3  466.35   17.80
   5  -1   3  445.56   13.50
   5  -1   3  449.36   16.70
   5  -1   3  486.55   17.00
   5  -1   3  480.95   16.60
  -6   1  -3  160.88   13.10
  -6   1  -3  172.38   13.20
  -6   1  -3  161.78   19.00
  -6   1  -3  169.68   12.70
  -6   1  -3  148.19   13.10
  -6   1  -3  173.58   16.10
  -6   1  -3  157.78   13.50
   6  -1   3  173.98   11.40
   6  -1   3  184.88   12.50
   6  -1   3  176.78   11.80
   6  -1   3  166.78    8.70
   6  -1   3  192.98   12.30
   6  -1   3  143.19   11.10
   6  -1   3  194.58   11.20
   6  -1   3  170.28    9.90
   6   0  -3   77.19    9.90
   6   0  -3   82.89    8.60
   6   0  -3   71.79    7.90
   6   0  -3   68.19    6.70
   6   0  -3   66.09    8.20
   6   0  -3   58.99    6.40
   6   0  -3   72.09    8.40
  -6   0   3   57.49    7.90
  -6   0   3   64.99    8.90
  -6   0   3   60.99    8.20
  -6   0   3   84.29   10.90
  -6   0   3   71.19    9.00
  -6   0   3   55.19    8.30
  -6   0   3   81.09    8.40
  -6   0   3   74.99    9.20
   5   0  -3   67.79    5.70
   5   0  -3   68.39    7.40
   5   0  -3   67.49    7.30
   5   0  -3   71.19    6.40
   5   0  -3   67.99    4.10
   5   0  -3   70.59    7.60
   5   0  -3   66.29    6.30
   5   0  -3   65.49    5.50
   5   0  -3   76.79    5.50
   5   0  -3   66.39    6.10
  -5   0   3   70.09    6.90
  -5   0   3   80.49    7.40
  -5   0   3   69.09    8.30
  -5   0   3   81.99    7.50
  -5   0   3   73.89    7.00
  -5   0   3   76.49    8.60
  -5   0   3   57.69    7.10
   4   0  -3  744.53   21.90
   4   0  -3  735.03   22.40
   4   0  -3  701.33   19.70
   4   0  -3  728.73   22.50
   4   0  -3  737.63   21.90
   4   0  -3  742.43   24.10
   4   0  -3  748.73   22.70
   4   0  -3  711.73   22.80
   4   0  -3  658.23   22.20
   4   0  -3  703.23   20.10
  -4   0   3  696.13   23.00
  -4   0   3  722.13   23.20
  -4   0   3  744.53   23.20
  -4   0   3  711.93   22.40
  -4   0   3  736.63   23.10
  -4   0   3  739.83   24.50
  -4   0   3  731.43   23.60
   3   0  -3 2122.39   56.89
   3   0  -3 2084.29   55.49
   3   0  -3 2018.50   55.29
   3   0  -3 2056.49   55.39
   3   0  -3 2076.89   54.89
   3   0  -3 2122.69   55.89
   3   0  -3 2059.39   53.79
   3   0  -3 2083.09   55.69
   3   0  -3 2141.99   55.39
   3   0  -3 2048.79   53.39
   3   0  -3 2100.89   55.19
  -3   0   3 2028.90   55.89
  -3   0   3 2083.39   56.89
  -3   0   3 2021.50   55.69
  -3   0   3 2120.39   55.69
  -3   0   3 2018.60   55.19
  -3   0   3 1950.20   55.49
  -3   0   3 2021.20   56.19
  -3   0   3 1994.20   55.79
  -3   0   3 1975.90   55.19
   2   0  -3 2274.97   61.19
   2   0  -3 2412.76   60.79
   2   0  -3 2308.77   62.09
   2   0  -3 2342.17   60.89
   2   0  -3 2272.07   60.59
   2   0  -3 2304.57   61.09
   2   0  -3 2256.37   61.19
   2   0  -3 2271.07   60.79
   2   0  -3 2371.36   61.19
   2   0  -3 2341.97   61.39
   2   0  -3 2355.46   60.99
   2   0  -3 2239.38   60.09
   2   0  -3 2342.67   61.19
  -2   0   3 2340.67   61.89
  -2   0   3 2268.27   60.89
  -2   0   3 2346.47   61.29
  -2   0   3 2236.68   60.99
  -2   0   3 2264.97   61.19
  -2   0   3 2314.77   60.39
  -2   0   3 2350.76   61.59
  -2   0   3 2300.17   61.19
  -2   0   3 2357.66   61.29
  -2   0   3 2344.77   61.19
  -2   0   3 2384.16   61.99
  -2   0   3 2288.97   60.69
  -2   0   3 2240.18   61.19
   1   0  -3 9171.68  233.08
  -1   0   3 9035.70  233.28
   0   0  -3  335.47    9.60
   0   0  -3  315.47    9.60
   0   0  -3  329.47    9.40
   0   0  -3  329.07    9.30
   0   0  -3  312.87    9.60
   0   0  -3  331.87    9.40
   0   0  -3  323.27    9.90
   0   0  -3  314.87    9.80
   0   0  -3  307.07    9.90
   0   0  -3  332.67    9.60
   0   0  -3  323.37    9.20
   0   0  -3  315.77    9.70
   0   0   3  336.57    9.70
   0   0   3  320.97    9.60
   0   0   3  314.87    9.40
   0   0   3  311.97    9.20
   0   0   3  322.97   10.10
   0   0   3  324.37    9.30
   0   0   3  322.47   10.30
   0   0   3  328.77    9.50
   0   0   3  332.57   10.10
   0   0   3  334.77    9.90
   0   0   3  318.87    9.80
   0   0   3  304.77    9.30
   0   0   3  310.57    9.70
   0   0   3  315.07    9.90
  -1   0  -3 2943.31   77.89
  -1   0  -3 2897.51   76.99
  -1   0  -3 2943.31   77.89
  -1   0  -3 2978.90   77.59
  -1   0  -3 3055.79   76.29
  -1   0  -3 2837.22   76.89
  -1   0  -3 2950.80   76.99
  -1   0  -3 3032.40   76.89
  -1   0  -3 2958.70   76.29
  -1   0  -3 3025.10   77.39
  -1   0  -3 2897.71   76.79
  -1   0  -3 3066.19   76.99
  -1   0  -3 3046.50   76.79
  -1   0  -3 2968.90   76.19
  -1   0  -3 2896.01   77.09
  -1   0  -3 2958.30   77.39
   1   0   3 2967.70   77.09
   1   0   3 3050.79   76.89
   1   0   3 2905.51   76.89
   1   0   3 2903.21   77.79
   1   0   3 2934.81   77.29
   1   0   3 2951.80   76.99
   1   0   3 2975.50   76.49
   1   0   3 2994.70   77.59
   1   0   3 2957.30   76.79
   1   0   3 2854.71   77.09
   1   0   3 2967.10   76.19
   1   0   3 2999.30   76.49
   1   0   3 2922.81   76.79
   1   0   3 2714.33   77.19
  -2   0  -3 5189.88  130.49
  -2   0  -3 4927.81  129.69
  -2   0  -3 5179.38  131.49
  -2   0  -3 5134.39  131.29
  -2   0  -3 5028.70  131.79
  -2   0  -3 5064.89  133.49
  -2   0  -3 5069.29  131.09
  -2   0  -3 4910.41  131.59
  -2   0  -3 4898.51  132.09
  -2   0  -3 4877.31  130.99
  -2   0  -3 5020.40  131.09
  -2   0  -3 5213.08  132.09
  -2   0  -3 5261.57  131.29
  -2   0  -3 5018.90  130.29
  -2   0  -3 5105.89  130.99
  -2   0  -3 5062.59  131.79
  -2   0  -3 5071.49  132.69
   2   0   3 5097.89  129.59
   2   0   3 4984.80  130.49
   2   0   3 5075.29  130.89
   2   0   3 5154.38  130.39
   2   0   3 5069.19  131.29
   2   0   3 5038.10  131.19
   2   0   3 5138.19  129.69
   2   0   3 5036.90  130.69
   2   0   3 4995.60  130.89
   2   0   3 5241.68  132.49
   2   0   3 4697.43  131.59
   2   0   3 4932.51  131.99
   2   0   3 5044.60  131.19
   2   0   3 5107.59  131.29
   2   0   3 4920.81  131.19
   2   0   3 5265.37  131.79
  -3   0  -3   34.50    4.30
  -3   0  -3   38.90    3.90
  -3   0  -3   32.40    4.40
  -3   0  -3   35.30    4.50
  -3   0  -3   40.00    4.40
  -3   0  -3   26.90    4.30
  -3   0  -3   40.00    4.60
  -3   0  -3   32.50    4.70
   3   0   3   35.00    4.10
   3   0   3   23.60    3.50
   3   0   3   35.30    3.70
   3   0   3   36.60    4.00
   3   0   3   33.40    4.00
   3   0   3   33.20    2.40
   3   0   3   27.80    3.70
   3   0   3   22.50    3.00
   3   0   3   39.80    3.90
  -4   0  -3 1195.68   36.50
  -4   0  -3 1240.28   37.20
  -4   0  -3 1204.08   36.70
  -4   0  -3 1230.58   38.20
  -4   0  -3 1212.78   37.10
  -4   0  -3 1176.28   36.30
  -4   0  -3 1213.58   34.90
   4   0   3 1250.37   36.40
   4   0   3 1199.28   35.60
   4   0   3 1246.68   35.40
   4   0   3 1154.18   34.90
   4   0   3 1239.88   35.10
   4   0   3 1260.17   34.80
   4   0   3 1230.78   36.10
   4   0   3 1199.68   35.90
  -5   0  -3   67.69    8.20
  -5   0  -3   53.89    6.70
  -5   0  -3   47.10    6.40
  -5   0  -3   58.79    7.70
  -5   0  -3   72.39    8.70
  -5   0  -3   55.79    7.40
   5   0   3   58.89    7.00
   5   0   3   62.39    5.60
   5   0   3   64.79    6.80
   5   0   3   56.39    7.20
   5   0   3   59.69    6.10
   5   0   3   56.29    6.50
   5   0   3   51.19    6.40
   5   0   3   54.69    5.70
   5   0   3   61.69    6.80
   5   0   3   54.49    5.10
  -6   0  -3    7.00    6.00
  -6   0  -3    9.00    6.40
  -6   0  -3   -8.60    6.00
  -6   0  -3   -1.30    7.70
  -6   0  -3    1.50    9.70
  -6   0  -3    3.70    5.50
  -6   0  -3    4.60    5.60
   6   0   3    5.40    4.50
   6   0   3    2.60    4.40
   6   0   3    6.20    5.00
   6   0   3    2.30    5.60
   6   0   3    1.60    5.10
   6   0   3   10.10    4.10
   6   0   3    3.20    5.30
   6   0   3   11.30    6.00
   6  -1  -3  125.59   10.30
   6  -1  -3  116.29    9.40
   6  -1  -3  115.29    8.60
   6  -1  -3  103.99    9.00
   6  -1  -3   91.19   10.20
   6  -1  -3   99.29    8.40
   6  -1  -3   88.39    6.70
   6  -1  -3  113.39    8.60
   6  -1  -3   79.29    9.60
  -6   1   3   92.09    9.30
  -6   1   3  105.59   11.10
  -6   1   3  106.49   12.40
  -6   1   3  113.89   11.10
  -6   1   3  102.89   12.90
  -6   1   3   96.99   11.10
  -6   1   3   95.89   10.20
  -6   1   3  114.39   10.30
   5  -1  -3  933.61   28.70
   5  -1  -3  915.41   29.60
   5  -1  -3  865.61   29.00
   5  -1  -3  901.11   28.10
   5  -1  -3  913.71   28.10
   5  -1  -3  878.41   28.70
   5  -1  -3  925.11   28.70
   5  -1  -3  940.21   28.10
   5  -1  -3  870.51   25.80
  -5   1   3  924.81   30.20
  -5   1   3  895.51   30.20
  -5   1   3  907.11   30.10
  -5   1   3  924.21   31.50
  -5   1   3  900.51   28.80
  -5   1   3  905.21   29.30
  -5   1   3  923.11   31.70
   4  -1  -3   24.80    4.30
   4  -1  -3   29.50    3.90
   4  -1  -3   37.10    4.50
   4  -1  -3   30.80    3.70
   4  -1  -3   34.70    4.50
   4  -1  -3   35.40    4.70
   4  -1  -3   37.40    5.00
   4  -1  -3   32.80    3.80
  -4   1   3   37.90    5.10
  -4   1   3   34.70    5.70
  -4   1   3   35.00    5.70
  -4   1   3   33.90    5.00
  -4   1   3   23.00    4.40
  -4   1   3   32.50    5.10
  -4   1   3   34.00    4.50
   3  -1  -3 1063.29   29.50
   3  -1  -3 1121.59   30.10
   3  -1  -3 1093.49   31.30
   3  -1  -3 1070.49   31.40
   3  -1  -3 1084.89   31.50
   3  -1  -3 1055.79   30.70
   3  -1  -3 1005.00   30.80
   3  -1  -3 1071.29   30.70
  -3   1   3 1105.49   31.40
  -3   1   3 1129.39   32.00
  -3   1   3 1071.59   31.70
  -3   1   3 1077.89   29.90
  -3   1   3 1075.99   30.90
  -3   1   3 1065.79   28.70
  -3   1   3 1085.39   32.70
  -3   1   3 1086.19   31.60
   2  -1  -3 2135.79   55.49
   2  -1  -3 2145.09   54.89
   2  -1  -3 2159.48   55.99
   2  -1  -3 2025.90   55.79
   2  -1  -3 2070.29   55.99
   2  -1  -3 2045.90   55.79
   2  -1  -3 2086.39   54.39
   2  -1  -3 2100.19   56.29
   2  -1  -3 2105.49   55.59
   2  -1  -3 2084.09   55.59
   2  -1  -3 2139.29   55.59
  -2   1   3 2039.00   54.59
  -2   1   3 2163.98   55.69
  -2   1   3 2054.19   56.19
  -2   1   3 2106.19   56.79
  -2   1   3 2090.99   54.49
  -2   1   3 2073.59   55.89
  -2   1   3 2106.29   55.49
  -2   1   3 2075.69   55.59
  -2   1   3 2071.29   55.19
  -2   1   3 2047.80   56.49
  -2   1   3 2051.09   55.89
  -2   1   3 2095.89   56.09
  -2   1   3 1976.40   54.19
  -2   1   3 2062.79   55.89
   1  -1  -3  861.91   24.10
   1  -1  -3  845.02   23.30
   1  -1  -3  845.72   24.00
   1  -1  -3  835.22   23.40
   1  -1  -3  885.91   23.50
   1  -1  -3  856.81   23.60
   1  -1  -3  868.31   24.00
   1  -1  -3  842.22   23.80
   1  -1  -3  863.01   24.00
   1  -1  -3  874.81   22.70
   1  -1  -3  865.81   23.90
  -1   1   3  868.61   23.70
  -1   1   3  842.12   24.30
  -1   1   3  871.31   23.50
  -1   1   3  840.82   23.70
  -1   1   3  851.71   24.00
  -1   1   3  814.02   24.00
  -1   1   3  870.81   23.60
  -1   1   3  854.51   23.80
  -1   1   3  875.81   23.80
  -1   1   3  848.82   23.70
  -1   1   3  815.92   23.20
  -1   1   3  850.01   22.90
  -1   1   3  874.51   23.90
  -1   1   3  829.12   23.80
  -1   1   3  868.51   23.70
   0  -1  -3 5167.68  138.09
   0  -1  -3 5474.25  137.09
   0  -1  -3 5454.65  136.99
   0  -1  -3 5353.46  138.29
   0  -1  -3 5401.96  137.89
   0  -1  -3 5443.36  137.39
   0  -1  -3 5299.17  138.09
   0  -1  -3 5253.57  137.99
   0  -1  -3 5469.45  137.89
   0  -1  -3 5280.97  138.39
   0  -1  -3 5586.14  137.99
   0  -1  -3 5120.19  138.29
   0  -1  -3 5536.65  137.79
   0  -1  -3 5079.49  138.29
   0  -1  -3 5331.77  138.19
   0   1   3 5204.38  137.99
   0   1   3 5324.07  137.99
   0   1   3 5361.56  138.09
   0   1   3 5209.38  138.19
   0   1   3 5515.15  138.19
   0   1   3 5462.45  137.99
   0   1   3 5149.48  138.09
   0   1   3 5550.84  137.79
   0   1   3 5270.27  137.19
   0   1   3 5496.95  138.49
   0   1   3 5517.45  137.79
   0   1   3 5320.57  137.89
  -1  -1  -3 2925.61   72.59
  -1  -1  -3 2657.73   71.99
  -1  -1  -3 2662.23   72.49
  -1  -1  -3 2726.03   71.79
  -1  -1  -3 2782.82   72.29
  -1  -1  -3 2771.22   72.39
  -1  -1  -3 2838.12   71.89
  -1  -1  -3 2673.03   72.19
  -1  -1  -3 2774.02   72.09
  -1  -1  -3 2740.83   71.19
  -1  -1  -3 2831.12   72.49
  -1  -1  -3 2816.22   72.09
  -1  -1  -3 2810.12   71.89
  -1  -1  -3 2867.71   72.99
  -1  -1  -3 2732.53   72.89
   1   1   3 2722.93   72.39
   1   1   3 2722.33   72.19
   1   1   3 2697.23   71.89
   1   1   3 2747.23   72.19
   1   1   3 2825.82   72.89
   1   1   3 2738.03   71.69
   1   1   3 2686.53   72.69
   1   1   3 2766.42   72.19
   1   1   3 2684.03   72.69
   1   1   3 2825.42   71.49
   1   1   3 2720.63   72.79
   1   1   3 2660.63   71.49
   1   1   3 2744.63   71.99
   1   1   3 2793.02   72.39
   1   1   3 2780.92   71.69
   1   1   3 2683.63   72.69
  -2  -1  -3 1225.38   36.10
  -2  -1  -3 1266.07   35.50
  -2  -1  -3 1273.17   34.90
  -2  -1  -3 1272.67   36.30
  -2  -1  -3 1270.97   35.40
  -2  -1  -3 1270.97   35.10
  -2  -1  -3 1294.37   35.60
  -2  -1  -3 1304.47   33.40
  -2  -1  -3 1217.58   34.90
   2   1   3 1255.27   35.30
   2   1   3 1272.47   34.90
   2   1   3 1275.67   34.50
   2   1   3 1315.87   33.60
   2   1   3 1307.87   34.80
   2   1   3 1228.18   35.60
   2   1   3 1239.28   34.80
   2   1   3 1332.97   35.30
   2   1   3 1273.57   35.60
   2   1   3 1233.28   36.00
   2   1   3 1285.67   35.80
   2   1   3 1281.67   34.60
  -3  -1  -3 1328.47   37.10
  -3  -1  -3 1161.98   36.90
  -3  -1  -3 1326.17   36.90
  -3  -1  -3 1304.27   37.20
  -3  -1  -3 1354.26   36.80
  -3  -1  -3 1287.97   38.30
  -3  -1  -3 1290.27   38.10
   3   1   3 1260.37   36.20
   3   1   3 1324.17   35.80
   3   1   3 1351.26   37.30
   3   1   3 1314.07   37.40
   3   1   3 1305.27   35.80
   3   1   3 1304.17   37.80
   3   1   3 1279.07   35.60
   3   1   3 1288.67   36.30
   3   1   3 1304.87   37.50
   3   1   3 1230.38   36.90
   3   1   3 1312.27   36.80
  -4  -1  -3  288.87   12.20
  -4  -1  -3  269.07   12.70
  -4  -1  -3  262.47   12.20
  -4  -1  -3  285.57   11.80
  -4  -1  -3  278.77   12.20
  -4  -1  -3  275.67    9.60
  -4  -1  -3  264.27   13.40
   4   1   3  270.47   10.00
   4   1   3  271.17   10.70
   4   1   3  274.67   11.30
   4   1   3  266.37   11.40
   4   1   3  226.08    8.90
   4   1   3  264.37   12.80
   4   1   3  275.17   12.00
   4   1   3  266.07   12.10
   4   1   3  251.47   11.10
   4   1   3  284.07   10.20
  -5  -1  -3  219.28   12.90
  -5  -1  -3  224.18   14.00
  -5  -1  -3  243.38   12.90
  -5  -1  -3  212.48   11.70
  -5  -1  -3  211.88    9.90
  -5  -1  -3  209.78   12.10
   5   1   3  217.18   11.80
   5   1   3  209.18   12.00
   5   1   3  188.68   11.60
   5   1   3  220.08    9.60
   5   1   3  209.78   11.20
   5   1   3  221.88   11.90
   5   1   3  225.08    9.50
   5   1   3  212.98    9.70
  -6  -1  -3  334.97   17.80
  -6  -1  -3  330.17   23.40
  -6  -1  -3  327.37   17.40
  -6  -1  -3  366.96   20.80
  -6  -1  -3  326.37   18.10
  -6  -1  -3  334.47   16.80
   6   1   3  337.17   14.20
   6   1   3  335.77   17.00
   6   1   3  345.07   17.50
   6   1   3  341.97   16.50
   6   1   3  346.67   17.30
   6   1   3  376.26   13.60
   6  -2  -3  323.57   14.50
   6  -2  -3  343.67   15.60
   6  -2  -3  327.07   14.90
   6  -2  -3  330.57   15.40
   6  -2  -3  327.17   15.80
   6  -2  -3  323.07   12.40
   6  -2  -3  281.07   15.60
   6  -2  -3  322.57   16.40
   6  -2  -3  327.07   14.80
  -6   2   3  317.97   16.70
  -6   2   3  327.97   17.10
  -6   2   3  317.07   17.80
  -6   2   3  334.17   19.50
  -6   2   3  291.17   15.50
  -6   2   3  324.17   17.70
  -6   2   3  303.87   15.30
  -6   2   3  319.27   16.40
  -6   2   3  332.27   19.10
   5  -2  -3   17.20    4.90
   5  -2  -3   23.70    5.00
   5  -2  -3   15.20    3.50
   5  -2  -3   20.10    4.60
   5  -2  -3   14.40    3.80
   5  -2  -3   18.90    5.10
   5  -2  -3   22.30    4.20
   5  -2  -3   16.30    3.90
  -5   2   3   10.70    5.00
  -5   2   3   22.60    5.50
  -5   2   3   15.50    5.20
  -5   2   3   19.90    5.10
  -5   2   3   16.00    4.40
  -5   2   3   16.40    5.40
  -5   2   3   22.60    5.60
  -5   2   3    5.70    5.60
   4  -2  -3   37.00    4.60
   4  -2  -3   32.80    5.00
   4  -2  -3   35.40    4.70
   4  -2  -3   35.80    5.00
   4  -2  -3   33.90    4.30
   4  -2  -3   43.40    5.50
   4  -2  -3   39.50    5.00
  -4   2   3   37.80    4.90
  -4   2   3   36.60    5.40
  -4   2   3   31.80    4.90
  -4   2   3   29.60    5.10
  -4   2   3   31.50    5.70
  -4   2   3   30.20    4.90
  -4   2   3   47.70    5.00
  -4   2   3   34.70    5.20
   3  -2  -3 1985.90   53.89
   3  -2  -3 2008.90   54.09
   3  -2  -3 2024.30   54.89
   3  -2  -3 1974.80   54.69
   3  -2  -3 2011.80   54.29
   3  -2  -3 2021.50   53.99
   3  -2  -3 1914.91   51.89
   3  -2  -3 1979.70   54.39
  -3   2   3 1942.11   54.79
  -3   2   3 2020.90   52.69
  -3   2   3 1981.40   56.69
  -3   2   3 1970.00   51.99
  -3   2   3 1950.10   55.39
  -3   2   3 2020.60   52.39
  -3   2   3 1988.00   56.09
  -3   2   3 2011.30   53.89
  -3   2   3 1758.22   54.79
   2  -2  -3  184.38    8.00
   2  -2  -3  188.98    8.50
   2  -2  -3  183.08    6.90
   2  -2  -3  185.38    7.40
   2  -2  -3  179.48    8.30
   2  -2  -3  178.48    7.80
   2  -2  -3  175.68    8.00
   2  -2  -3  195.58    7.90
   2  -2  -3  182.68    7.80
   2  -2  -3  186.58    6.80
  -2   2   3  190.68    8.80
  -2   2   3  183.28    9.20
  -2   2   3  177.68    8.20
  -2   2   3  180.58    6.80
  -2   2   3  186.28    7.10
  -2   2   3  182.88    8.00
  -2   2   3  166.68    8.00
  -2   2   3  177.78    7.20
  -2   2   3  192.38    7.40
  -2   2   3  174.08    8.60
  -2   2   3  181.78    8.20
   1  -2  -3 2307.37   60.09
   1  -2  -3 2324.87   60.39
   1  -2  -3 2263.07   60.79
   1  -2  -3 2232.58   60.39
   1  -2  -3 2294.97   61.19
   1  -2  -3 2310.17   60.99
   1  -2  -3 2293.37   60.69
   1  -2  -3 2286.17   60.89
   1  -2  -3 2358.66   60.39
   1  -2  -3 2331.87   60.29
   1  -2  -3 2247.98   60.29
   1  -2  -3 2290.67   60.89
   1  -2  -3 2300.87   60.69
   1  -2  -3 2268.17   60.99
  -1   2   3 2321.87   61.49
  -1   2   3 2267.77   59.09
  -1   2   3 2300.77   60.59
  -1   2   3 2226.98   60.69
  -1   2   3 2227.38   60.59
  -1   2   3 2261.57   60.99
  -1   2   3 2349.36   60.19
  -1   2   3 2275.87   60.89
  -1   2   3 2350.16   60.89
  -1   2   3 2241.58   61.99
  -1   2   3 2264.07   61.79
  -1   2   3 2257.57   61.29
  -1   2   3 2295.17   60.89
  -1   2   3 2286.47   60.49
  -1   2   3 2256.17   60.69
   0  -2  -3 1748.13   47.30
   0  -2  -3 1780.82   47.20
   0  -2  -3 1723.33   47.00
   0  -2  -3 1833.12   47.00
   0  -2  -3 1821.92   47.80
   0  -2  -3 1800.72   47.50
   0  -2  -3 1807.42   46.20
   0  -2  -3 1712.23   48.00
   0  -2  -3 1805.92   47.20
   0  -2  -3 1784.62   47.90
   0  -2  -3 1720.23   48.10
   0  -2  -3 1618.14   47.10
   0  -2  -3 1843.12   46.90
   0  -2  -3 1773.12   47.60
   0  -2  -3 1856.31   47.30
   0   2   3 1761.22   46.70
   0   2   3 1708.83   47.10
   0   2   3 1735.23   48.10
   0   2   3 1769.72   47.20
   0   2   3 1755.52   47.20
   0   2   3 1757.12   48.10
   0   2   3 1771.72   48.50
   0   2   3 1834.92   46.90
   0   2   3 1729.83   47.70
   0   2   3 1755.02   47.20
   0   2   3 1696.53   45.70
   0   2   3 1704.53   47.70
   0   2   3 1738.53   47.00
   0   2   3 1783.02   47.10
   0   2   3 1833.32   47.70
  -1  -2  -3   -0.40    1.50
  -1  -2  -3    2.30    1.30
  -1  -2  -3    4.70    1.60
  -1  -2  -3    2.30    1.80
  -1  -2  -3    1.40    1.40
  -1  -2  -3    4.50    1.50
  -1  -2  -3    3.70    1.40
  -1  -2  -3    1.70    1.70
  -1  -2  -3    0.40    2.00
  -1  -2  -3    1.40    1.80
  -1  -2  -3    4.50    1.70
  -1  -2  -3    0.20    1.90
   1   2   3    3.20    2.00
   1   2   3    2.50    1.50
   1   2   3    3.00    1.60
   1   2   3    3.20    1.40
   1   2   3    1.50    2.10
   1   2   3    2.60    2.00
   1   2   3    2.30    1.30
   1   2   3    2.10    1.70
   1   2   3    1.50    1.90
   1   2   3    1.90    1.40
   1   2   3    1.90    2.00
   1   2   3   -0.10    1.50
   1   2   3    2.80    1.90
   1   2   3    4.60    1.90
   1   2   3    1.10    2.60
  -2  -2  -3 3422.86   87.79
  -2  -2  -3 3448.25   90.59
  -2  -2  -3 3481.15   89.19
  -2  -2  -3 3496.65   89.49
  -2  -2  -3 3313.87   90.59
  -2  -2  -3 3527.15   89.39
  -2  -2  -3 3156.78   90.69
  -2  -2  -3 3387.26   89.59
  -2  -2  -3 3345.47   89.59
  -2  -2  -3 3193.28   88.79
   2   2   3 3452.85   88.39
   2   2   3 3249.87   87.89
   2   2   3 3446.96   91.39
   2   2   3 3442.66   88.79
   2   2   3 3401.86   89.99
   2   2   3 3381.36   88.49
   2   2   3 3445.16   88.29
   2   2   3 3556.14   88.89
   2   2   3 3351.46   88.99
   2   2   3 3639.14   90.89
   2   2   3 3427.16   90.29
  -3  -2  -3  624.34   19.90
  -3  -2  -3  662.93   20.40
  -3  -2  -3  627.34   20.10
  -3  -2  -3  630.64   21.40
  -3  -2  -3  638.04   21.40
  -3  -2  -3  652.93   20.20
  -3  -2  -3  608.64   19.60
   3   2   3  653.43   21.20
   3   2   3  628.84   19.80
   3   2   3  635.94   18.40
   3   2   3  623.24   18.20
   3   2   3  638.24   18.80
   3   2   3  632.54   19.20
   3   2   3  600.04   20.50
   3   2   3  619.34   21.40
   3   2   3  652.73   20.20
   3   2   3  614.24   21.20
  -4  -2  -3  606.34   22.10
  -4  -2  -3  602.04   22.00
  -4  -2  -3  610.54   20.50
  -4  -2  -3  598.94   20.50
  -4  -2  -3  648.44   21.00
  -4  -2  -3  555.34   21.80
  -4  -2  -3  624.64   20.70
   4   2   3  577.54   18.10
   4   2   3  616.24   19.40
   4   2   3  606.84   20.90
   4   2   3  618.24   21.50
   4   2   3  540.25   17.50
   4   2   3  614.44   20.00
   4   2   3  606.74   19.40
   4   2   3  618.14   21.70
   4   2   3  573.14   21.50
  -5  -2  -3  181.98   11.10
  -5  -2  -3  155.98   13.00
  -5  -2  -3  196.98   12.00
  -5  -2  -3  154.58   11.50
   5   2   3  165.48    9.00
   5   2   3  174.48    9.80
   5   2   3  161.58   10.10
   5   2   3  173.78   11.40
   5   2   3  174.98   11.10
   5   2   3  147.79   11.30
   5   2   3  182.88   11.80
  -6  -2  -3   28.10    7.70
  -6  -2  -3   27.60    7.50
  -6  -2  -3   27.80    7.40
  -6  -2  -3   28.50    7.80
  -6  -2  -3   28.40   10.10
   6   2   3   26.30    7.60
   6   2   3   26.20    6.00
   6   2   3   18.60    6.90
   6   2   3   19.00    7.20
   6   2   3   24.40    6.90
   6  -3  -3    9.80    5.20
   6  -3  -3    2.60    4.40
   6  -3  -3    6.90    5.80
   6  -3  -3   11.60    4.50
   6  -3  -3    7.80    6.30
   6  -3  -3   14.20    5.60
   6  -3  -3    2.00    6.20
   6  -3  -3   -4.10    4.70
  -6   3   3   -3.90    6.50
  -6   3   3   11.20    6.60
  -6   3   3   -9.30    6.80
  -6   3   3    0.00    5.70
  -6   3   3    7.30    8.60
  -6   3   3    1.50    7.60
  -6   3   3   10.00    7.10
  -6   3   3   11.40    6.90
  -6   3   3   11.50    7.80
   5  -3  -3  495.55   17.90
   5  -3  -3  471.65   19.10
   5  -3  -3  506.85   18.60
   5  -3  -3  470.55   19.50
   5  -3  -3  491.15   18.70
   5  -3  -3  499.45   17.60
   5  -3  -3  482.15   18.50
  -5   3   3  482.15   21.70
  -5   3   3  493.15   19.10
  -5   3   3  494.35   20.20
  -5   3   3  493.45   20.80
  -5   3   3  490.15   20.80
  -5   3   3  432.96   17.30
  -5   3   3  476.65   21.30
  -5   3   3  487.35   22.30
  -5   3   3  471.75   20.10
   4  -3  -3  270.57   10.40
   4  -3  -3  284.27   12.00
   4  -3  -3  296.37   13.00
   4  -3  -3  293.07   12.20
   4  -3  -3  284.27   12.30
   4  -3  -3  283.87   12.40
   4  -3  -3  288.27   12.00
   4  -3  -3  288.87   13.00
  -4   3   3  294.47   11.10
  -4   3   3  271.27   14.00
  -4   3   3  270.27   13.50
  -4   3   3  287.67   15.00
  -4   3   3  277.67   13.90
  -4   3   3  292.37   12.20
  -4   3   3  294.77   13.90
  -4   3   3  278.17   10.00
  -4   3   3  295.77   14.60
  -4   3   3  292.17   14.40
   3  -3  -3   21.60    3.70
   3  -3  -3   25.30    3.50
   3  -3  -3   26.10    3.80
   3  -3  -3   24.60    4.00
   3  -3  -3   20.80    3.90
   3  -3  -3   23.30    4.00
   3  -3  -3   18.40    3.30
  -3   3   3   21.60    3.80
  -3   3   3   23.20    4.40
  -3   3   3   21.50    4.30
  -3   3   3   20.00    4.60
  -3   3   3   20.20    4.50
  -3   3   3   11.80    4.20
  -3   3   3   27.00    3.60
  -3   3   3   17.70    4.10
  -3   3   3   25.80    4.50
  -3   3   3   32.30    4.40
  -3   3   3   27.10    4.00
   2  -3  -3  399.26   13.80
   2  -3  -3  405.46   13.50
   2  -3  -3  404.36   14.10
   2  -3  -3  394.66   12.10
   2  -3  -3  401.36   14.00
   2  -3  -3  408.46   14.20
   2  -3  -3  396.56   14.20
  -2   3   3  400.26   14.00
  -2   3   3  380.36   15.60
  -2   3   3  438.66   15.20
  -2   3   3  410.06   12.40
  -2   3   3  401.56   14.10
  -2   3   3  325.57   15.10
  -2   3   3  404.16   12.60
  -2   3   3  389.36   15.30
  -2   3   3  398.06   14.50
  -2   3   3  401.46   13.80
  -2   3   3  391.36   14.70
   1  -3  -3 2946.31   78.89
   1  -3  -3 2755.12   78.79
   1  -3  -3 3046.60   78.59
   1  -3  -3 3041.30   78.69
   1  -3  -3 2923.91   78.69
   1  -3  -3 2956.80   78.99
   1  -3  -3 3022.30   79.19
  -1   3   3 2993.10   80.99
  -1   3   3 3022.10   78.59
  -1   3   3 2987.70   79.79
  -1   3   3 3036.80   79.19
  -1   3   3 2942.01   77.59
  -1   3   3 2912.11   79.69
  -1   3   3 3025.90   80.49
  -1   3   3 3034.80   79.09
  -1   3   3 3009.40   79.39
  -1   3   3 2982.20   81.29
  -1   3   3 2965.10   80.49
  -1   3   3 3032.60   79.79
  -1   3   3 2889.61   78.59
  -1   3   3 3064.29   78.89
   0  -3  -3    2.50    2.00
   0  -3  -3    6.50    2.50
   0  -3  -3    2.40    1.70
   0  -3  -3    1.80    1.90
   0  -3  -3    5.10    1.80
   0  -3  -3    1.20    2.00
   0  -3  -3    3.00    2.00
   0  -3  -3    4.40    2.00
   0  -3  -3    4.20    1.90
   0  -3  -3    3.40    1.90
   0  -3  -3    8.10    2.10
   0   3   3    4.10    2.30
   0   3   3    4.20    1.70
   0   3   3    8.60    2.60
   0   3   3    3.50    2.10
   0   3   3    4.70    2.60
   0   3   3    4.00    2.20
   0   3   3    3.50    2.30
   0   3   3    3.30    1.90
   0   3   3    0.90    2.40
   0   3   3    2.70    2.50
   0   3   3    2.90    2.60
   0   3   3    5.50    1.90
  -1  -3  -3 2787.92   70.99
  -1  -3  -3 2719.03   71.99
  -1  -3  -3 2768.92   72.89
  -1  -3  -3 2733.53   71.19
  -1  -3  -3 2674.23   71.29
  -1  -3  -3 2649.03   71.39
  -1  -3  -3 2604.14   71.69
  -1  -3  -3 2666.73   70.99
  -1  -3  -3 2767.22   72.39
   1   3   3 2842.32   74.19
   1   3   3 2718.43   72.49
   1   3   3 2718.43   73.59
   1   3   3 2565.64   72.29
   1   3   3 2724.33   73.09
   1   3   3 2639.54   70.19
   1   3   3 2731.23   73.19
   1   3   3 2657.83   70.89
   1   3   3 2785.82   70.09
   1   3   3 2712.53   74.29
   1   3   3 2714.43   73.29
  -2  -3  -3  401.16   13.20
  -2  -3  -3  405.16   12.90
  -2  -3  -3  400.06   14.80
  -2  -3  -3  411.26   13.20
  -2  -3  -3  417.56   14.90
  -2  -3  -3  426.66   14.40
  -2  -3  -3  408.06   12.90
  -2  -3  -3  391.76   12.30
  -2  -3  -3  403.16   13.20
  -2  -3  -3  373.36   13.30
  -2  -3  -3  401.66   12.10
   2   3   3  411.06   12.70
   2   3   3  391.96   15.30
   2   3   3  404.26   15.60
   2   3   3  398.16   12.80
   2   3   3  412.36   15.20
   2   3   3  398.06   15.50
   2   3   3  420.76   13.60
   2   3   3  406.16   14.80
   2   3   3  385.06   14.50
  -3  -3  -3   60.49    3.50
  -3  -3  -3   60.59    6.70
  -3  -3  -3   63.39    6.20
  -3  -3  -3   48.80    5.50
  -3  -3  -3   63.29    6.20
  -3  -3  -3   57.59    5.10
  -3  -3  -3   64.39    5.90
  -3  -3  -3   74.69    7.50
  -3  -3  -3   66.09    5.00
   3   3   3   64.59    6.60
   3   3   3   73.99    6.60
   3   3   3   59.49    5.50
   3   3   3   62.89    6.00
   3   3   3   53.79    6.20
   3   3   3   59.79    6.00
   3   3   3   59.89    6.00
  -4  -3  -3  651.53   23.50
  -4  -3  -3  601.04   23.20
  -4  -3  -3  641.44   21.20
  -4  -3  -3  645.74   21.80
   4   3   3  632.64   21.80
   4   3   3  627.54   24.00
   4   3   3  660.73   23.30
   4   3   3  650.73   24.00
   4   3   3  681.93   21.60
   4   3   3  654.73   23.60
  -5  -3  -3   50.99    7.70
  -5  -3  -3   49.00    6.90
  -5  -3  -3   39.60    8.40
  -5  -3  -3   50.89    7.90
   5   3   3   41.40    8.20
   5   3   3   43.70    5.90
   5   3   3   35.40    7.60
   5   3   3   48.90    8.60
   5   3   3   50.19    7.40
   5   3   3   53.69    6.80
   6  -4  -3  302.27   17.30
   6  -4  -3  300.97   15.80
   6  -4  -3  292.37   16.00
   6  -4  -3  274.87   15.40
   6  -4  -3  296.97   15.30
   6  -4  -3  288.57   15.90
   6  -4  -3  308.07   18.00
  -6   4   3  298.67   19.30
  -6   4   3  314.87   14.90
  -6   4   3  297.07   20.20
  -6   4   3  312.07   19.90
  -6   4   3  288.57   17.90
  -6   4   3  294.37   20.50
  -6   4   3  290.47   21.00
  -6   4   3  321.77   18.50
  -6   4   3  303.17   21.50
   5  -4  -3  221.78   12.60
   5  -4  -3  206.78   11.80
   5  -4  -3  211.58   11.40
   5  -4  -3  221.78   12.60
   5  -4  -3  205.98   12.80
   5  -4  -3  229.48   13.80
   5  -4  -3  209.28   11.70
  -5   4   3  217.48   12.80
  -5   4   3  211.88   14.50
  -5   4   3  186.78   14.60
  -5   4   3  234.08   15.20
  -5   4   3  217.88   14.60
  -5   4   3  196.68   16.10
  -5   4   3  200.58   10.60
  -5   4   3  223.38   16.00
  -5   4   3  214.98   15.50
   4  -4  -3  105.79    7.80
   4  -4  -3  118.29    9.20
   4  -4  -3  124.39    8.90
   4  -4  -3  106.99    8.70
   4  -4  -3  118.19    8.60
   4  -4  -3  112.89    8.30
   4  -4  -3  128.29    8.90
  -4   4   3  104.59    7.10
  -4   4   3  132.59   12.10
  -4   4   3  109.09   11.60
  -4   4   3  117.19    9.90
  -4   4   3  125.59   10.60
  -4   4   3  107.09   10.50
  -4   4   3  133.09    8.10
  -4   4   3  120.89    8.40
  -4   4   3  108.69   10.90
  -4   4   3  111.49   10.60
   3  -4  -3  513.65   18.90
   3  -4  -3  531.75   18.80
   3  -4  -3  500.85   18.60
   3  -4  -3  541.65   17.50
   3  -4  -3  504.45   18.70
   3  -4  -3  519.75   18.50
  -3   4   3  506.45   20.30
  -3   4   3  532.35   21.30
  -3   4   3  524.75   17.60
  -3   4   3  527.05   18.10
  -3   4   3  492.15   20.60
  -3   4   3  513.75   19.30
  -3   4   3  519.95   17.90
  -3   4   3  517.65   19.40
  -3   4   3  519.45   15.70
  -3   4   3  515.85   20.30
  -3   4   3  506.25   21.00
  -3   4   3  519.15   19.70
   2  -4  -3  955.60   28.60
   2  -4  -3  938.71   28.60
   2  -4  -3  933.71   29.20
   2  -4  -3  933.01   28.30
   2  -4  -3  914.51   28.70
   2  -4  -3  951.90   27.90
  -2   4   3  936.51   31.30
  -2   4   3  949.31   29.70
  -2   4   3  968.70   30.40
  -2   4   3  905.01   28.40
  -2   4   3  966.90   29.20
  -2   4   3  936.31   26.60
  -2   4   3  961.90   29.00
  -2   4   3  965.40   28.90
  -2   4   3  933.91   29.10
  -2   4   3  974.80   30.10
  -2   4   3  934.01   30.80
  -2   4   3  928.61   30.80
   1  -4  -3    3.10    2.40
   1  -4  -3   10.10    3.70
   1  -4  -3   -1.10    2.70
   1  -4  -3    0.50    1.90
   1  -4  -3    4.10    2.40
   1  -4  -3    2.80    2.70
   1  -4  -3    9.10    2.70
  -1   4   3    3.60    2.60
  -1   4   3    3.20    3.10
  -1   4   3    0.40    2.90
  -1   4   3    4.90    3.90
  -1   4   3    4.30    3.40
  -1   4   3    1.60    2.10
  -1   4   3    2.20    3.00
  -1   4   3    4.90    2.60
  -1   4   3    0.00    2.80
  -1   4   3    6.70    3.10
  -1   4   3    8.10    3.70
  -1   4   3    7.80    3.40
   0  -4  -3  628.94   19.10
   0  -4  -3  591.84   18.10
   0  -4  -3  642.64   19.10
   0  -4  -3  651.83   19.30
   0  -4  -3  628.14   19.00
   0  -4  -3  619.54   19.80
   0  -4  -3  641.14   18.70
   0  -4  -3  648.84   19.60
   0  -4  -3  622.34   20.70
   0  -4  -3  632.04   18.70
   0   4   3  638.64   18.80
   0   4   3  622.94   21.20
   0   4   3  594.14   17.90
   0   4   3  626.34   20.10
   0   4   3  647.74   21.50
   0   4   3  644.04   22.20
   0   4   3  622.54   21.80
   0   4   3  606.94   19.00
   0   4   3  634.64   21.20
  -1  -4  -3 1289.47   36.60
  -1  -4  -3 1234.18   36.40
  -1  -4  -3 1294.57   36.00
  -1  -4  -3 1312.67   37.80
  -1  -4  -3 1337.37   37.10
  -1  -4  -3 1356.66   34.70
  -1  -4  -3 1304.27   35.80
  -1  -4  -3 1345.27   36.00
  -1  -4  -3 1339.57   35.60
   1   4   3 1317.97   38.70
   1   4   3 1296.17   39.70
   1   4   3 1301.47   38.80
   1   4   3 1278.97   37.70
   1   4   3 1316.17   35.60
   1   4   3 1251.87   35.30
   1   4   3 1299.57   38.50
   1   4   3 1272.67   35.40
  -2  -4  -3  330.67   11.30
  -2  -4  -3  328.97   11.70
  -2  -4  -3  306.47   13.00
  -2  -4  -3  320.07   11.30
  -2  -4  -3  332.37   13.30
  -2  -4  -3  333.17   11.50
  -2  -4  -3  319.77   10.80
  -2  -4  -3  348.67   13.50
  -2  -4  -3  317.87   12.70
   2   4   3  350.66   15.00
   2   4   3  323.77   14.40
   2   4   3  334.57   14.30
   2   4   3  319.57   13.60
   2   4   3  315.77   13.70
   2   4   3  334.07   13.30
   2   4   3  322.07   12.10
   2   4   3  339.07   14.90
  -3  -4  -3 1684.13   45.50
  -3  -4  -3 1600.94   45.40
  -3  -4  -3 1658.53   48.20
  -3  -4  -3 1576.64   45.10
  -3  -4  -3 1662.63   45.30
  -3  -4  -3 1674.03   48.60
  -3  -4  -3 1564.94   46.70
   3   4   3 1611.34   48.70
   3   4   3 1607.64   49.60
   3   4   3 1641.54   49.30
   3   4   3 1645.44   47.50
   3   4   3 1722.23   48.50
   3   4   3 1665.63   49.99
   3   4   3 1562.54   45.00
  -4  -4  -3    2.10    5.10
  -4  -4  -3    4.90    4.00
  -4  -4  -3    3.90    6.20
  -4  -4  -3    0.10    3.30
  -4  -4  -3    0.40    4.80
  -4  -4  -3    3.80    5.10
   4   4   3    6.90    5.40
   4   4   3   -6.10    4.30
   4   4   3   -4.90    5.60
   4   4   3   -5.20    4.30
   4   4   3   -4.80    4.60
   4   4   3   -7.40    5.10
  -5  -4  -3  160.28   12.80
  -5  -4  -3  108.29   13.20
  -5  -4  -3  166.48   15.10
  -5  -4  -3  133.89   10.10
  -5  -4  -3  145.99   13.60
  -5  -4  -3  200.08   17.10
  -5  -4  -3  164.28   10.80
   5   4   3  129.19   13.60
   5   4   3  116.19   11.00
   5   4   3  128.79   14.10
   5   4   3  133.29   13.70
   5   4   3  154.18   12.80
   5   4   3  165.88   13.30
   5  -5  -3   55.69    7.90
   5  -5  -3   46.70    8.40
   5  -5  -3   42.60    7.50
   5  -5  -3   52.99    8.20
   5  -5  -3   35.50    7.40
   5  -5  -3   40.20    8.20
  -5   5   3   59.39   10.60
  -5   5   3   42.20    9.40
  -5   5   3   31.70    8.20
  -5   5   3   58.69   10.20
  -5   5   3   46.70    9.70
  -5   5   3   47.50   12.60
  -5   5   3   46.60   10.20
   4  -5  -3  423.06   18.10
   4  -5  -3  441.26   18.70
   4  -5  -3  452.25   19.20
   4  -5  -3  457.75   18.80
   4  -5  -3  440.26   17.00
   4  -5  -3  433.16   18.80
   4  -5  -3  441.66   16.20
  -4   5   3  446.66   22.20
  -4   5   3  454.25   22.30
  -4   5   3  440.76   17.50
  -4   5   3  466.65   21.90
  -4   5   3  410.16   21.40
  -4   5   3  458.55   17.90
  -4   5   3  443.36   21.00
  -4   5   3  428.16   20.10
  -4   5   3  457.55   19.90
   3  -5  -3  106.49    8.90
   3  -5  -3  117.29    9.10
   3  -5  -3  100.99    8.30
   3  -5  -3  105.09    9.40
   3  -5  -3  114.99    7.70
   3  -5  -3  111.99    9.10
  -3   5   3  118.39   11.10
  -3   5   3  120.99   10.80
  -3   5   3  121.29    9.60
  -3   5   3  101.59    8.40
  -3   5   3   98.09    8.70
  -3   5   3  102.49    8.70
  -3   5   3  116.79   10.70
  -3   5   3  105.19   10.30
  -3   5   3   99.59   10.00
  -3   5   3  139.09   11.70
  -3   5   3  122.89   11.20
   2  -5  -3   40.70    5.10
   2  -5  -3   31.60    4.80
   2  -5  -3   38.90    5.90
   2  -5  -3   35.50    5.30
   2  -5  -3   33.20    4.60
   2  -5  -3   33.10    4.90
  -2   5   3   36.40    6.10
  -2   5   3   34.60    6.10
  -2   5   3   35.30    6.40
  -2   5   3   38.50    6.20
  -2   5   3   24.30    5.60
  -2   5   3   29.30    5.20
  -2   5   3   32.30    5.80
  -2   5   3   24.40    5.70
  -2   5   3   32.20    5.20
  -2   5   3   41.00    5.30
   1  -5  -3 1090.59   31.50
   1  -5  -3 1055.79   31.60
   1  -5  -3 1082.99   31.10
   1  -5  -3 1058.99   33.10
   1  -5  -3 1090.69   31.60
   1  -5  -3 1047.50   31.70
   1  -5  -3 1022.30   31.40
  -1   5   3 1072.89   33.50
  -1   5   3 1087.89   33.50
  -1   5   3 1041.70   31.50
  -1   5   3 1051.29   30.30
  -1   5   3 1060.39   32.00
  -1   5   3 1039.20   29.20
  -1   5   3 1082.59   35.10
  -1   5   3 1059.39   34.50
  -1   5   3 1077.49   33.50
   0  -5  -3 1136.79   31.60
   0  -5  -3 1156.98   33.80
   0  -5  -3 1130.59   35.00
   0  -5  -3 1082.89   31.70
   0  -5  -3 1183.28   32.90
   0  -5  -3 1147.89   32.30
   0  -5  -3 1133.79   33.20
   0  -5  -3 1112.79   32.60
   0  -5  -3 1170.78   33.00
   0   5   3 1105.09   32.50
   0   5   3 1143.29   37.00
   0   5   3 1170.88   35.80
   0   5   3 1142.79   34.20
   0   5   3 1148.89   35.80
   0   5   3 1146.19   35.50
   0   5   3 1182.28   36.70
  -1  -5  -3  173.48    9.00
  -1  -5  -3  163.58    8.90
  -1  -5  -3  160.68    7.50
  -1  -5  -3  165.68    7.50
  -1  -5  -3  155.48    7.50
  -1  -5  -3  154.58    7.90
  -1  -5  -3  179.28    9.20
  -1  -5  -3  154.38    9.50
   1   5   3  162.48   10.20
   1   5   3  150.88    7.80
   1   5   3  162.38    9.70
   1   5   3  181.38   10.50
   1   5   3  162.28    7.90
   1   5   3  172.18   11.20
   1   5   3  176.48   10.20
  -2  -5  -3  689.33   23.50
  -2  -5  -3  723.83   23.10
  -2  -5  -3  721.33   21.30
  -2  -5  -3  703.73   21.50
  -2  -5  -3  717.03   21.80
  -2  -5  -3  741.03   24.50
   2   5   3  730.13   27.10
   2   5   3  694.83   23.00
   2   5   3  721.13   25.20
   2   5   3  729.43   27.10
   2   5   3  734.73   24.10
   2   5   3  751.52   26.00
  -3  -5  -3  376.76   16.70
  -3  -5  -3  384.96   14.10
  -3  -5  -3  367.36   13.30
  -3  -5  -3  392.96   13.80
  -3  -5  -3  407.36   16.90
  -3  -5  -3  381.46   16.60
   3   5   3  360.36   13.00
   3   5   3  363.86   14.70
   3   5   3  419.86   17.90
   3   5   3  374.06   18.10
   3   5   3  382.06   19.10
   3   5   3  402.66   17.00
   3   5   3  392.76   19.30
   3   5   3  384.76   18.60
  -4  -5  -3  149.39   12.60
  -4  -5  -3  156.28    9.30
  -4  -5  -3  139.79   10.90
  -4  -5  -3  127.89    8.80
  -4  -5  -3  163.28   13.00
   4   5   3  126.89   14.30
   4   5   3  169.88   14.90
   4   5   3  159.48   13.20
   4   5   3  171.38   14.00
   4   5   3  155.88   12.00
   4   5   3  160.18   14.00
   4  -6  -3  186.48   13.60
   4  -6  -3  174.88   13.10
   4  -6  -3  177.28   13.40
   4  -6  -3  167.38   13.50
   4  -6  -3  173.28   11.70
   4  -6  -3  207.58   14.40
  -4   6   3  194.38   16.90
  -4   6   3  162.68   17.10
  -4   6   3  211.68   13.70
  -4   6   3  222.28   18.40
  -4   6   3  190.98   15.80
  -4   6   3  224.68   17.60
  -4   6   3  161.68   15.80
  -4   6   3  187.58   16.50
  -4   6   3  174.08   12.30
   3  -6  -3  132.99   11.10
   3  -6  -3  109.09    8.90
   3  -6  -3  118.59   11.60
   3  -6  -3  111.59    9.90
   3  -6  -3  112.89   10.20
   3  -6  -3  114.79   10.60
  -3   6   3  118.99   11.10
  -3   6   3  109.69   12.90
  -3   6   3  148.09   14.00
  -3   6   3  116.19   12.40
  -3   6   3  124.59   13.10
  -3   6   3   97.49   10.60
  -3   6   3  112.99   12.00
  -3   6   3  116.39   12.80
  -3   6   3  107.59   10.40
   2  -6  -3  508.95   19.10
   2  -6  -3  526.35   21.70
   2  -6  -3  512.55   19.30
   2  -6  -3  519.55   19.50
   2  -6  -3  498.85   20.40
   2  -6  -3  506.95   18.20
  -2   6   3  523.55   20.60
  -2   6   3  517.05   22.00
  -2   6   3  526.35   23.40
  -2   6   3  536.15   21.10
  -2   6   3  514.45   22.30
  -2   6   3  476.85   19.60
  -2   6   3  495.95   18.80
  -2   6   3  542.05   21.00
   1  -6  -3   67.69    8.40
   1  -6  -3   67.59    7.00
   1  -6  -3   68.89    7.10
   1  -6  -3   82.69    8.00
   1  -6  -3   56.69    6.90
  -1   6   3   65.89    8.70
  -1   6   3   66.69    9.10
  -1   6   3   79.39    9.20
  -1   6   3   81.49   10.40
  -1   6   3   60.09    7.80
  -1   6   3   85.19   10.70
   0  -6  -3    6.10    4.10
   0  -6  -3   -0.80    4.10
   0  -6  -3    8.70    3.50
   0  -6  -3    1.30    3.50
   0  -6  -3   -5.60    3.90
   0   6   3    0.30    5.50
   0   6   3    0.60    4.80
   0   6   3    3.80    4.80
   0   6   3    3.90    4.80
   0   6   3    5.20    4.20
   0   6   3   -1.40    4.60
   0   6   3    1.20    5.30
  -1  -6  -3  773.02   25.70
  -1  -6  -3  758.62   22.90
  -1  -6  -3  747.43   26.70
  -1  -6  -3  738.03   24.00
  -1  -6  -3  740.33   24.50
  -1  -6  -3  799.22   23.60
   1   6   3  729.83   26.10
   1   6   3  734.83   23.60
   1   6   3  757.12   23.30
   1   6   3  812.32   28.00
   1   6   3  774.42   29.60
   1   6   3  796.62   27.80
   1   6   3  810.22   28.40
  -2  -6  -3  149.39    8.10
  -2  -6  -3  162.28   11.00
  -2  -6  -3  153.18   11.90
  -2  -6  -3  120.69    7.10
  -2  -6  -3  142.49   10.10
   2   6   3  142.39   13.50
   2   6   3  145.29   11.00
   2   6   3  130.49   12.10
   2   6   3  142.69   10.10
   2   6   3  126.69   11.80
  -3  -6  -3  531.15   21.90
  -3  -6  -3  535.15   21.40
  -3  -6  -3  528.55   17.90
   3   6   3  518.35   20.10
   3   6   3  548.05   22.50
   3   6   3  545.55   25.60
   3   6   3  520.45   25.50
   3   6   3  554.24   23.50
   3  -7  -3   61.69    9.20
   3  -7  -3   62.19    8.70
   3  -7  -3   73.79    9.90
   3  -7  -3   57.89    7.70
   3  -7  -3   71.49    9.20
   3  -7  -3   43.80    8.80
  -3   7   3   61.29    9.90
  -3   7   3   76.89   12.60
  -3   7   3   61.29    9.80
  -3   7   3   73.09   11.10
  -3   7   3  100.49   13.60
  -3   7   3   67.09   12.10
   2  -7  -3  118.59   10.10
   2  -7  -3  130.49   11.20
   2  -7  -3  124.49   10.90
   2  -7  -3  153.38   13.50
   2  -7  -3  147.09   11.00
   2  -7  -3  142.89   12.90
  -2   7   3  156.88   14.20
  -2   7   3  126.79   14.50
  -2   7   3  144.19   13.40
  -2   7   3  127.99   12.80
  -2   7   3  139.29   15.30
  -2   7   3  147.89   15.60
   1  -7  -3   13.60    6.00
   1  -7  -3    5.90    5.40
   1  -7  -3    8.80    5.20
   1  -7  -3    8.70    5.80
   1  -7  -3   10.20    5.10
  -1   7   3    3.30    7.20
  -1   7   3    5.00    7.30
  -1   7   3   13.90    7.80
  -1   7   3    8.80    7.10
  -1   7   3   -1.00    6.10
  -1   7   3   22.90    7.80
   0  -7  -3  392.46   18.70
   0  -7  -3  379.36   14.80
   0  -7  -3  408.26   16.70
   0  -7  -3  373.96   16.10
   0  -7  -3  392.96   15.50
   0   7   3  371.96   16.90
   0   7   3  364.56   15.50
   0   7   3  403.76   20.20
   0   7   3  419.36   20.10
   0   7   3  373.86   19.60
   0   7   3  420.96   21.10
  -1  -7  -3   70.29    8.10
  -1  -7  -3   61.49    6.90
  -1  -7  -3   80.89    7.80
  -1  -7  -3   69.79    9.30
   1   7   3   69.19   10.30
   1   7   3   79.09   11.90
   1   7   3   66.79    9.70
   1   7   3   56.19    9.50
   1   7   3   76.39   10.70
   0   8  -4  599.94   24.50
   0   8  -4  610.74   25.60
   0   8  -4  597.04   26.50
   0   8  -4  655.93   27.00
   0   8  -4  577.64   22.50
   0   8  -4  609.64   24.90
   0  -8   4  627.54   22.00
   0  -8   4  627.24   24.70
   0  -8   4  638.04   23.00
   0  -8   4  633.44   19.50
  -1   8  -4    0.40    7.70
  -1   8  -4   15.70    6.60
  -1   8  -4    7.90    9.40
  -1   8  -4   12.00    7.90
  -1   8  -4   16.80    8.80
  -1   8  -4   20.70    8.10
   1  -8   4    7.40    4.90
   1  -8   4   13.30    7.10
   1  -8   4   15.80    6.30
   1  -8   4   24.50    5.20
   1  -8   4   17.80    6.50
   3   7  -4  154.68   15.90
   3   7  -4  177.08   14.20
  -3  -7   4  169.38    9.20
  -3  -7   4  157.58   12.30
  -3  -7   4  166.18   10.00
  -3  -7   4  162.98   11.50
  -3  -7   4  149.59   11.70
  -3  -7   4  160.88   10.70
   2   7  -4   84.09   11.50
   2   7  -4   59.49    8.70
   2   7  -4   58.39    8.50
   2   7  -4   66.79    9.60
  -2  -7   4   64.39    7.40
  -2  -7   4   60.59    6.90
  -2  -7   4   54.19    7.00
  -2  -7   4   61.99    6.30
  -2  -7   4   66.19    7.40
  -2  -7   4   55.89    6.40
  -2  -7   4   57.39    6.40
   1   7  -4  639.54   24.10
   1   7  -4  633.84   25.30
   1   7  -4  661.53   24.00
   1   7  -4  632.84   24.90
   1   7  -4  634.14   23.60
   1   7  -4  590.74   22.60
  -1  -7   4  659.33   23.30
  -1  -7   4  658.93   22.30
  -1  -7   4  654.43   21.30
  -1  -7   4  694.33   22.10
  -1  -7   4  641.14   18.40
   0   7  -4  323.07   17.30
   0   7  -4  314.07   13.90
   0   7  -4  308.97   16.00
   0   7  -4  320.47   17.00
   0   7  -4  317.47   15.90
   0   7  -4  277.87   15.50
   0  -7   4  320.87   11.40
   0  -7   4  292.37   10.50
   0  -7   4  319.87   13.20
   0  -7   4  314.17   13.70
   0  -7   4  291.67   14.80
   0  -7   4  304.97   12.20
  -1   7  -4  875.01   27.60
  -1   7  -4  838.32   31.00
  -1   7  -4  896.71   31.40
  -1   7  -4  865.31   31.20
  -1   7  -4  884.41   32.10
  -1   7  -4  906.21   32.40
   1  -7   4  838.22   27.50
   1  -7   4  893.21   27.00
   1  -7   4  890.31   26.60
   1  -7   4  863.21   30.00
   1  -7   4  888.31   27.10
  -2   7  -4  854.61   30.90
  -2   7  -4  826.32   31.20
  -2   7  -4  766.12   31.10
  -2   7  -4  789.52   25.60
  -2   7  -4  780.02   30.10
  -2   7  -4  751.52   29.30
   2  -7   4  780.82   24.40
   2  -7   4  796.52   28.70
   2  -7   4  789.72   26.00
   2  -7   4  847.02   26.60
   2  -7   4  788.42   25.90
   2  -7   4  767.52   26.00
  -3   7  -4   53.79   10.80
  -3   7  -4   54.69    7.50
  -3   7  -4   62.29    9.30
  -3   7  -4   40.50    9.80
  -3   7  -4   52.39   10.00
  -3   7  -4   54.09   10.70
   3  -7   4   48.40    7.80
   3  -7   4   56.19    7.40
   3  -7   4   45.60    7.90
   3  -7   4   68.09    8.40
   3  -7   4   54.09    7.20
   3  -7   4   54.09    7.30
   4   6  -4   25.00    7.40
   4   6  -4   24.10    7.30
   4   6  -4   18.90    8.20
   4   6  -4   16.40    7.10
   4   6  -4   25.30    7.40
  -4  -6   4   22.30    5.30
  -4  -6   4   23.40    5.10
  -4  -6   4   24.70    5.70
  -4  -6   4   26.20    7.20
   3   6  -4   21.10    6.00
   3   6  -4   23.20    6.10
   3   6  -4   16.80    5.80
   3   6  -4   20.00    6.40
  -3  -6   4   19.30    4.30
  -3  -6   4   23.70    5.30
  -3  -6   4   21.00    5.70
  -3  -6   4   19.80    4.30
  -3  -6   4   22.30    3.60
  -3  -6   4   30.50    5.20
  -3  -6   4   16.00    4.30
   2   6  -4 1312.37   40.40
   2   6  -4 1336.57   39.70
   2   6  -4 1244.78   40.50
   2   6  -4 1309.77   39.60
   2   6  -4 1292.27   40.30
  -2  -6   4 1275.67   36.70
  -2  -6   4 1287.37   36.70
  -2  -6   4 1284.87   37.80
  -2  -6   4 1297.27   37.80
  -2  -6   4 1286.47   36.60
   1   6  -4  225.48   11.80
   1   6  -4  207.58   11.60
   1   6  -4  251.37   13.30
   1   6  -4  216.98   11.50
   1   6  -4  221.28   12.50
   1   6  -4  232.48   12.20
   1   6  -4  236.38   11.30
  -1  -6   4  240.28   10.20
  -1  -6   4  217.28    8.20
  -1  -6   4  231.58    9.80
  -1  -6   4  224.08    7.60
  -1  -6   4  221.78    8.80
  -1  -6   4  223.28    8.20
  -1  -6   4  235.78   11.30
   0   6  -4  688.73   24.40
   0   6  -4  710.13   25.40
   0   6  -4  710.33   24.50
   0   6  -4  686.13   25.00
   0   6  -4  706.63   22.60
   0   6  -4  685.63   24.40
   0  -6   4  692.93   21.70
   0  -6   4  662.33   20.50
   0  -6   4  698.03   20.60
   0  -6   4  703.23   21.60
   0  -6   4  689.23   23.50
   0  -6   4  682.33   20.20
   0  -6   4  675.83   21.10
   0  -6   4  692.23   22.30
  -1   6  -4 1081.69   35.20
  -1   6  -4 1051.99   34.60
  -1   6  -4 1015.60   31.60
  -1   6  -4 1067.29   34.50
  -1   6  -4 1056.19   34.90
  -1   6  -4 1050.89   35.40
   1  -6   4 1083.09   30.90
   1  -6   4 1063.79   31.00
   1  -6   4 1063.09   33.50
   1  -6   4 1013.50   32.20
   1  -6   4 1050.09   30.80
   1  -6   4 1083.69   31.40
  -2   6  -4   55.69    6.40
  -2   6  -4   48.80    8.20
  -2   6  -4   61.59    8.20
  -2   6  -4   60.89    8.60
  -2   6  -4   52.19    7.60
  -2   6  -4   61.79    8.90
   2  -6   4   63.59    6.00
   2  -6   4   52.99    6.30
   2  -6   4   52.29    6.40
   2  -6   4   60.79    7.60
   2  -6   4   53.59    6.30
   2  -6   4   61.39    6.20
  -3   6  -4  871.71   33.60
  -3   6  -4  907.01   31.30
  -3   6  -4  869.21   32.20
  -3   6  -4  918.91   33.70
  -3   6  -4  854.51   29.10
  -3   6  -4  888.81   28.00
  -3   6  -4  792.72   27.80
  -3   6  -4  885.31   30.90
   3  -6   4  895.81   30.30
   3  -6   4  872.11   26.60
   3  -6   4  885.21   28.10
   3  -6   4  863.31   28.20
   3  -6   4  884.91   29.00
   3  -6   4  930.11   29.30
  -4   6  -4  249.68   19.50
  -4   6  -4  237.38   16.00
  -4   6  -4  261.47   17.60
  -4   6  -4  231.78   15.60
  -4   6  -4  265.97   14.30
  -4   6  -4  251.97   15.70
  -4   6  -4  264.17   16.00
  -4   6  -4  228.28   20.00
   4  -6   4  239.58   14.40
   4  -6   4  266.87   12.80
   4  -6   4  246.58   13.00
   4  -6   4  252.57   13.80
   4  -6   4  253.77   12.40
   4  -6   4  275.17   13.60
   4  -6   4  230.68   14.00
   4  -6   4  244.38   14.70
   5   5  -4  130.89   11.40
   5   5  -4  132.39   14.40
   5   5  -4  107.59   11.30
   5   5  -4  127.39   12.30
   5   5  -4  118.99   12.30
  -5  -5   4  135.79   13.10
  -5  -5   4  116.89    8.40
  -5  -5   4  122.49   10.70
  -5  -5   4  117.49    9.20
   4   5  -4  195.68   12.30
   4   5  -4  211.78   12.00
   4   5  -4  195.38   11.70
   4   5  -4  179.78   12.00
   4   5  -4  203.48   12.80
   4   5  -4  218.88   15.20
  -4  -5   4  211.38    8.50
  -4  -5   4  188.08    8.50
  -4  -5   4  185.08   10.80
  -4  -5   4  198.48    7.60
  -4  -5   4  223.08    9.90
   3   5  -4  352.36   14.70
   3   5  -4  335.67   15.10
   3   5  -4  352.76   16.70
   3   5  -4  324.57   13.80
   3   5  -4  360.76   14.70
   3   5  -4  349.96   14.80
  -3  -5   4  330.47   12.00
  -3  -5   4  360.56   13.70
  -3  -5   4  344.67   12.90
  -3  -5   4  372.76   11.90
   2   5  -4   66.69    6.80
   2   5  -4   72.79    7.60
   2   5  -4   70.29    7.30
   2   5  -4   73.59    7.70
   2   5  -4   71.69    6.90
   2   5  -4   88.69    7.20
   2   5  -4   69.49    7.30
  -2  -5   4   69.19    5.10
  -2  -5   4   77.59    5.40
  -2  -5   4   76.79    5.70
  -2  -5   4   66.49    6.10
   1   5  -4  110.59    7.70
   1   5  -4  120.69    7.70
   1   5  -4  125.19    8.10
   1   5  -4  109.29    7.60
   1   5  -4  119.19    8.50
   1   5  -4  124.59    8.40
   1   5  -4  115.29    8.00
  -1  -5   4  120.19    5.50
  -1  -5   4  113.89    7.80
  -1  -5   4  113.39    4.60
  -1  -5   4  116.29    7.00
  -1  -5   4  114.89    5.30
  -1  -5   4  108.99    6.30
  -1  -5   4  118.69    5.60
  -1  -5   4  112.69    4.90
  -1  -5   4  118.69    6.00
  -1  -5   4  120.59    6.10
   0   5  -4 1874.31   52.79
   0   5  -4 1858.91   52.89
   0   5  -4 1885.11   52.39
   0   5  -4 1847.62   50.79
   0   5  -4 1810.52   49.99
   0   5  -4 1820.42   51.99
   0   5  -4 1877.61   52.89
   0  -5   4 1779.62   48.20
   0  -5   4 1878.81   48.70
   0  -5   4 1789.12   49.90
   0  -5   4 1816.62   48.80
   0  -5   4 1833.52   49.20
   0  -5   4 1725.83   49.30
   0  -5   4 1787.12   48.90
   0  -5   4 1842.22   51.19
   0  -5   4 1628.04   49.00
   0  -5   4 1870.21   50.29
   0  -5   4 1766.62   48.50
  -1   5  -4   31.60    5.70
  -1   5  -4   13.50    3.80
  -1   5  -4   19.80    3.20
  -1   5  -4   15.80    4.10
  -1   5  -4   16.70    4.00
  -1   5  -4   14.20    4.20
  -1   5  -4   12.20    4.10
  -1   5  -4   14.90    4.10
   1  -5   4   16.80    3.60
   1  -5   4   14.60    2.90
   1  -5   4   10.70    2.90
   1  -5   4   24.50    4.70
   1  -5   4   10.70    3.00
   1  -5   4   18.50    4.40
   1  -5   4   11.00    5.10
   1  -5   4   19.00    3.00
   1  -5   4   18.90    3.10
  -2   5  -4 1759.42   50.99
  -2   5  -4 1882.41   51.29
  -2   5  -4 1820.72   50.49
  -2   5  -4 1848.42   52.99
  -2   5  -4 1807.42   54.69
  -2   5  -4 1753.52   49.70
  -2   5  -4 1848.42   53.29
  -2   5  -4 1836.52   55.29
  -2   5  -4 1844.62   54.09
  -2   5  -4 1702.43   49.90
   2  -5   4 1800.52   50.89
   2  -5   4 1847.32   49.30
   2  -5   4 1834.42   50.49
   2  -5   4 1854.11   52.49
   2  -5   4 1869.41   50.79
   2  -5   4 1844.42   50.99
   2  -5   4 1775.62   52.29
  -3   5  -4  248.98   10.10
  -3   5  -4  264.57   16.00
  -3   5  -4  247.78   12.30
  -3   5  -4  267.97   15.50
  -3   5  -4  270.87   13.30
  -3   5  -4  268.77   13.00
  -3   5  -4  235.58   13.40
  -3   5  -4  280.27   14.70
  -3   5  -4  264.37   13.20
  -3   5  -4  237.48   12.90
   3  -5   4  260.47   12.20
   3  -5   4  259.87   10.60
   3  -5   4  272.47   11.60
   3  -5   4  270.87   12.70
   3  -5   4  261.47   12.20
   3  -5   4  263.67   11.70
  -4   5  -4  106.39   11.80
  -4   5  -4  134.49   13.70
  -4   5  -4  113.09    9.50
  -4   5  -4  143.79   15.00
  -4   5  -4  118.89   10.40
  -4   5  -4  137.79   12.20
  -4   5  -4  105.29   10.90
  -4   5  -4  113.69   10.30
  -4   5  -4  138.59   12.10
  -4   5  -4  102.99   10.40
   4  -5   4  108.79    9.60
   4  -5   4  111.09    8.30
   4  -5   4  117.39    9.20
   4  -5   4  133.99    8.70
   4  -5   4  125.59    8.30
   4  -5   4  117.99    8.80
   4  -5   4  110.79    9.80
   4  -5   4  122.09    9.90
  -5   5  -4  480.25   23.00
  -5   5  -4  377.86   22.90
  -5   5  -4  492.55   23.60
  -5   5  -4  451.55   19.60
  -5   5  -4  489.35   26.20
  -5   5  -4  468.25   27.40
  -5   5  -4  480.45   23.50
  -5   5  -4  444.26   22.10
  -5   5  -4  455.65   20.30
   5  -5   4  470.55   19.50
   5  -5   4  469.65   18.20
   5  -5   4  505.95   19.10
   5  -5   4  456.35   19.70
   5  -5   4  449.86   17.20
   5  -5   4  465.35   20.70
   5  -5   4  492.35   19.40
   5  -5   4  478.75   20.70
   5  -5   4  504.75   19.10
   5   4  -4   86.99    9.70
   5   4  -4  108.99   10.00
   5   4  -4  110.69    9.70
   5   4  -4  115.99   12.50
   5   4  -4  100.49    9.20
  -5  -4   4   95.79    7.60
  -5  -4   4  121.39    9.40
  -5  -4   4  113.69    8.20
  -5  -4   4   91.99   11.10
  -5  -4   4  105.09    8.10
   4   4  -4  152.18    9.00
   4   4  -4  150.18   10.10
   4   4  -4  146.89    9.00
   4   4  -4  141.89    9.20
   4   4  -4  149.39    9.30
   4   4  -4  144.59   11.40
  -4  -4   4  143.19    5.60
  -4  -4   4  134.69    9.20
  -4  -4   4  143.19    8.70
  -4  -4   4  143.39    7.40
  -4  -4   4  144.89    7.00
  -4  -4   4  142.49    7.70
  -4  -4   4  143.99    7.60
  -4  -4   4  134.29    6.90
   3   4  -4  420.06   15.50
   3   4  -4  434.76   16.40
   3   4  -4  408.56   15.00
   3   4  -4  427.86   15.70
   3   4  -4  429.06   17.80
   3   4  -4  438.36   15.60
  -3  -4   4  430.36   12.90
  -3  -4   4  420.96   12.90
  -3  -4   4  416.36   13.50
  -3  -4   4  427.46   13.60
  -3  -4   4  425.46   13.00
  -3  -4   4  421.46   12.90
  -3  -4   4  401.86   12.50
  -3  -4   4  422.06   12.70
  -3  -4   4  426.16   15.20
  -3  -4   4  431.26   14.50
  -3  -4   4  438.36   12.80
   2   4  -4  587.34   20.40
   2   4  -4  575.44   19.80
   2   4  -4  567.74   17.60
   2   4  -4  557.64   19.60
   2   4  -4  567.34   19.40
   2   4  -4  552.84   19.10
   2   4  -4  573.74   18.30
  -2  -4   4  579.04   16.70
  -2  -4   4  572.14   15.80
  -2  -4   4  568.24   16.00
  -2  -4   4  591.44   18.20
  -2  -4   4  571.14   16.00
  -2  -4   4  562.34   17.10
  -2  -4   4  576.34   16.90
  -2  -4   4  586.84   16.50
  -2  -4   4  561.94   17.20
   1   4  -4 2012.00   56.49
   1   4  -4 1968.30   55.49
   1   4  -4 2033.30   55.79
   1   4  -4 2051.79   54.49
   1   4  -4 2033.60   56.39
   1   4  -4 2038.50   55.69
   1   4  -4 1984.10   55.79
  -1  -4   4 2022.60   52.69
  -1  -4   4 1952.90   52.49
  -1  -4   4 2075.99   54.19
  -1  -4   4 2033.00   52.69
  -1  -4   4 2021.90   52.59
  -1  -4   4 2050.59   53.39
  -1  -4   4 2062.69   53.09
  -1  -4   4 2014.60   53.49
  -1  -4   4 2058.49   53.09
  -1  -4   4 1932.51   52.69
  -1  -4   4 1962.40   54.49
  -1  -4   4 1997.20   52.99
  -1  -4   4 1994.20   53.59
   0   4  -4  173.38    9.00
   0   4  -4  181.68    9.40
   0   4  -4  178.28    9.80
   0   4  -4  172.28    7.80
   0   4  -4  183.28    9.20
   0   4  -4  178.78    8.50
   0   4  -4  188.38    8.90
   0  -4   4  184.48    7.60
   0  -4   4  179.78    7.50
   0  -4   4  178.08    7.00
   0  -4   4  175.18    7.60
   0  -4   4  170.58    7.60
   0  -4   4  182.38    8.30
   0  -4   4  179.58    6.80
   0  -4   4  187.28    7.20
   0  -4   4  153.08    8.30
   0  -4   4  184.98    7.00
   0  -4   4  185.38    6.70
   0  -4   4  184.78    6.80
  -1   4  -4  888.01   27.40
  -1   4  -4  865.91   24.00
  -1   4  -4  875.11   28.30
  -1   4  -4  863.91   24.50
  -1   4  -4  856.61   25.10
  -1   4  -4  843.42   27.80
  -1   4  -4  852.81   26.70
  -1   4  -4  849.91   27.00
  -1   4  -4  770.12   24.70
  -1   4  -4  843.52   24.20
  -1   4  -4  840.62   26.00
   1  -4   4  877.11   26.00
   1  -4   4  865.51   26.20
   1  -4   4  860.21   24.20
   1  -4   4  853.41   23.40
   1  -4   4  862.91   24.90
   1  -4   4  879.11   24.30
   1  -4   4  836.92   24.60
   1  -4   4  828.12   25.60
   1  -4   4  871.51   25.00
   1  -4   4  870.41   24.60
  -2   4  -4 2608.04   73.49
  -2   4  -4 2635.14   74.39
  -2   4  -4 2647.14   71.79
  -2   4  -4 2630.94   75.19
  -2   4  -4 2656.83   72.49
  -2   4  -4 2647.94   71.49
  -2   4  -4 2600.44   73.09
  -2   4  -4 2685.13   72.59
  -2   4  -4 2643.94   71.89
  -2   4  -4 2572.74   69.69
   2  -4   4 2599.34   71.09
   2  -4   4 2615.24   70.39
   2  -4   4 2598.94   71.19
   2  -4   4 2586.74   69.59
   2  -4   4 2683.93   72.19
   2  -4   4 2672.43   72.19
   2  -4   4 2624.84   69.39
   2  -4   4 2664.23   70.89
  -3   4  -4   18.60    4.70
  -3   4  -4   18.60    4.80
  -3   4  -4   14.30    4.10
  -3   4  -4   18.00    5.20
  -3   4  -4   24.40    3.60
  -3   4  -4   19.40    5.00
  -3   4  -4    9.20    4.00
  -3   4  -4   18.70    4.80
  -3   4  -4   18.50    3.90
  -3   4  -4   27.50    4.70
  -3   4  -4   17.20    5.80
   3  -4   4   20.50    3.70
   3  -4   4   21.70    4.00
   3  -4   4   18.00    3.90
   3  -4   4   19.80    3.50
   3  -4   4   23.10    3.60
   3  -4   4   19.60    3.40
   3  -4   4   22.10    3.60
   3  -4   4   19.80    3.80
  -4   4  -4 1016.70   32.20
  -4   4  -4  997.10   33.60
  -4   4  -4 1003.70   34.20
  -4   4  -4 1002.20   37.50
  -4   4  -4 1007.80   34.40
  -4   4  -4 1008.30   36.10
  -4   4  -4 1007.00   31.80
  -4   4  -4  978.60   33.00
  -4   4  -4 1022.10   34.80
  -4   4  -4  991.70   30.70
   4  -4   4 1037.70   31.00
   4  -4   4 1029.10   31.80
   4  -4   4 1035.20   32.60
   4  -4   4 1052.69   32.40
   4  -4   4 1027.60   29.70
   4  -4   4 1032.70   30.80
   4  -4   4 1057.99   32.50
   4  -4   4 1027.20   30.40
   4  -4   4 1035.60   31.40
  -5   4  -4   59.29    6.90
  -5   4  -4   47.40   10.70
  -5   4  -4   45.30    9.30
  -5   4  -4   42.20    8.50
  -5   4  -4   41.30   10.40
  -5   4  -4   44.50    6.50
  -5   4  -4   38.90    8.30
  -5   4  -4   54.89    7.40
  -5   4  -4   45.70    8.40
  -5   4  -4   41.60    9.10
   5  -4   4   46.60    5.60
   5  -4   4   43.50    6.20
   5  -4   4   43.20    6.20
   5  -4   4   50.89    7.90
   5  -4   4   49.70    6.50
   5  -4   4   37.90    6.10
   5  -4   4   41.00    6.30
   5  -4   4   35.40    5.40
   5  -4   4   30.00    6.40
   6   3  -4  139.79   14.60
   6   3  -4  132.99   11.50
   6   3  -4  146.79   12.40
   6   3  -4  126.69   11.70
   6   3  -4  129.69   10.90
  -6  -3   4  132.19   10.50
  -6  -3   4  148.59   11.10
  -6  -3   4  130.39   14.50
  -6  -3   4  152.58   12.10
  -6  -3   4  126.39   13.10
  -6  -3   4  136.19   10.70
   5   3  -4  726.33   25.10
   5   3  -4  707.93   23.60
   5   3  -4  745.93   25.40
   5   3  -4  763.62   24.80
   5   3  -4  717.43   28.30
  -5  -3   4  725.93   25.20
  -5  -3   4  727.63   24.00
  -5  -3   4  737.23   25.60
  -5  -3   4  751.62   24.00
  -5  -3   4  720.83   23.80
   4   3  -4   12.40    3.70
   4   3  -4   13.80    3.50
   4   3  -4   19.70    3.60
   4   3  -4   11.90    3.90
   4   3  -4    9.50    2.80
   4   3  -4   16.60    4.20
   4   3  -4   14.70    4.60
  -4  -3   4   11.50    3.40
  -4  -3   4   14.50    3.50
  -4  -3   4    8.90    3.70
  -4  -3   4   16.70    4.30
  -4  -3   4   10.30    3.00
  -4  -3   4   12.60    2.10
  -4  -3   4   14.50    3.50
  -4  -3   4   11.50    3.30
  -4  -3   4    9.50    3.10
  -4  -3   4   11.20    3.10
   3   3  -4  667.53   23.40
   3   3  -4  696.33   21.40
   3   3  -4  657.93   21.10
   3   3  -4  675.43   20.70
   3   3  -4  663.93   22.10
   3   3  -4  675.63   20.60
  -3  -3   4  720.53   19.90
  -3  -3   4  670.33   19.60
  -3  -3   4  673.93   18.90
  -3  -3   4  650.23   20.40
  -3  -3   4  609.44   19.70
  -3  -3   4  696.93   19.60
  -3  -3   4  682.33   19.50
  -3  -3   4  675.23   20.20
  -3  -3   4  651.83   19.30
  -3  -3   4  665.33   21.20
  -3  -3   4  688.83   20.60
   2   3  -4  688.73   20.20
   2   3  -4  679.53   19.60
   2   3  -4  674.53   21.80
   2   3  -4  681.43   22.40
   2   3  -4  673.43   20.60
   2   3  -4  691.13   21.70
   2   3  -4  684.53   22.20
   2   3  -4  691.03   20.50
  -2  -3   4  646.54   20.00
  -2  -3   4  699.83   20.00
  -2  -3   4  707.23   19.30
  -2  -3   4  659.43   19.20
  -2  -3   4  680.13   19.30
  -2  -3   4  677.73   18.60
  -2  -3   4  685.03   19.60
  -2  -3   4  721.53   19.50
  -2  -3   4  689.63   20.60
  -2  -3   4  681.73   19.00
  -2  -3   4  688.03   19.20
  -2  -3   4  706.23   19.60
  -2  -3   4  694.53   19.20
   1   3  -4  562.54   18.90
   1   3  -4  598.84   16.00
   1   3  -4  584.04   19.20
   1   3  -4  594.74   16.70
   1   3  -4  572.34   18.60
   1   3  -4  589.04   18.80
   1   3  -4  568.34   18.40
   1   3  -4  579.84   17.00
   1   3  -4  568.24   16.00
   1   3  -4  558.84   18.40
  -1  -3   4  597.34   16.40
  -1  -3   4  591.54   15.80
  -1  -3   4  577.94   18.70
  -1  -3   4  606.74   16.60
  -1  -3   4  576.84   16.30
  -1  -3   4  563.74   16.20
  -1  -3   4  593.94   16.60
  -1  -3   4  607.04   17.80
  -1  -3   4  623.44   17.10
  -1  -3   4  561.44   17.10
  -1  -3   4  583.14   16.20
  -1  -3   4  582.24   16.80
  -1  -3   4  588.44   16.40
  -1  -3   4  587.34   17.10
  -1  -3   4  584.04   18.30
   0   3  -4 2197.78   60.69
   0   3  -4 2232.58   58.29
   0   3  -4 2319.97   58.59
   0   3  -4 2189.28   59.59
   0   3  -4 2201.68   61.49
   0   3  -4 2235.88   61.09
   0   3  -4 2233.78   60.29
   0   3  -4 2258.97   61.99
   0   3  -4 2317.47   58.49
   0   3  -4 2228.08   59.09
   0   3  -4 2287.07   58.19
   0   3  -4 2238.08   60.79
   0   3  -4 2223.98   61.09
   0   3  -4 2243.28   59.09
   0  -3   4 2307.67   59.69
   0  -3   4 2264.87   59.59
   0  -3   4 2168.78   58.99
   0  -3   4 2271.17   58.29
   0  -3   4 2238.08   59.69
   0  -3   4 2237.98   59.19
   0  -3   4 2279.47   60.19
   0  -3   4 2279.17   60.69
   0  -3   4 2212.48   59.59
   0  -3   4 2240.48   58.89
   0  -3   4 2242.38   58.19
   0  -3   4 2229.58   58.39
   0  -3   4 2252.07   60.09
  -1   3  -4 2266.07   64.09
  -1   3  -4 2250.07   62.19
  -1   3  -4 2314.37   62.29
  -1   3  -4 2257.37   63.39
  -1   3  -4 2229.58   59.49
  -1   3  -4 2241.68   62.19
  -1   3  -4 2281.67   60.49
  -1   3  -4 2261.37   62.69
  -1   3  -4 2349.96   60.69
  -1   3  -4 2317.17   60.89
  -1   3  -4 2301.27   61.49
  -1   3  -4 2347.07   60.89
  -1   3  -4 2316.57   61.49
   1  -3   4 2256.07   60.99
   1  -3   4 2254.97   61.79
   1  -3   4 2279.37   60.79
   1  -3   4 2275.57   61.09
   1  -3   4 2268.07   60.69
   1  -3   4 2325.07   59.49
   1  -3   4 2352.46   60.39
   1  -3   4 2339.07   61.79
   1  -3   4 2261.67   61.09
   1  -3   4 2302.27   61.89
  -2   3  -4  353.26   15.50
  -2   3  -4  350.86   14.00
  -2   3  -4  350.76   13.60
  -2   3  -4  350.66   12.90
  -2   3  -4  344.97   13.10
  -2   3  -4  342.37   12.90
  -2   3  -4  353.56   13.10
  -2   3  -4  347.07   13.80
  -2   3  -4  354.26   12.20
  -2   3  -4  350.06   10.30
   2  -3   4  356.36   12.50
   2  -3   4  348.67   11.80
   2  -3   4  341.57   11.80
   2  -3   4  340.47   11.30
   2  -3   4  356.66   12.50
   2  -3   4  342.17   12.50
   2  -3   4  352.66   12.80
   2  -3   4  342.77   13.80
   2  -3   4  352.36   11.20
  -3   3  -4 1499.05   44.30
  -3   3  -4 1417.96   43.70
  -3   3  -4 1468.45   45.20
  -3   3  -4 1486.35   41.80
  -3   3  -4 1477.85   43.80
  -3   3  -4 1490.15   41.80
  -3   3  -4 1454.05   40.10
  -3   3  -4 1496.95   42.10
  -3   3  -4 1466.35   43.00
  -3   3  -4 1485.25   43.10
  -3   3  -4 1474.85   46.60
   3  -3   4 1432.76   40.90
   3  -3   4 1364.26   40.80
   3  -3   4 1458.55   42.40
   3  -3   4 1484.65   42.20
   3  -3   4 1496.35   42.30
   3  -3   4 1476.35   41.80
   3  -3   4 1542.45   41.60
   3  -3   4 1509.65   40.90
   3  -3   4 1473.75   40.00
  -4   3  -4  500.05   17.70
  -4   3  -4  514.05   18.50
  -4   3  -4  538.55   20.80
  -4   3  -4  521.05   20.20
  -4   3  -4  497.35   22.90
  -4   3  -4  516.05   18.10
  -4   3  -4  526.85   19.90
  -4   3  -4  525.75   20.50
  -4   3  -4  538.85   21.60
   4  -3   4  524.55   18.10
   4  -3   4  506.95   16.80
   4  -3   4  524.05   19.20
   4  -3   4  551.94   18.10
   4  -3   4  511.75   16.80
   4  -3   4  538.95   18.60
   4  -3   4  517.45   17.90
   4  -3   4  514.55   18.30
   4  -3   4  524.35   18.90
  -5   3  -4  293.17   13.10
  -5   3  -4  312.97   13.40
  -5   3  -4  294.47   16.50
  -5   3  -4  292.37   14.00
  -5   3  -4  325.67   18.30
  -5   3  -4  319.67   16.30
  -5   3  -4  318.47   16.50
  -5   3  -4  283.87   15.70
  -5   3  -4  322.87   20.60
   5  -3   4  304.77   11.60
   5  -3   4  315.97   13.70
   5  -3   4  298.97   14.80
   5  -3   4  314.17   14.10
   5  -3   4  312.47   14.10
   5  -3   4  315.67   14.80
   5  -3   4  329.27   14.10
   5  -3   4  318.77   13.10
   5  -3   4  326.17   14.00
  -6   3  -4  495.75   23.30
  -6   3  -4  488.35   22.60
  -6   3  -4  413.96   22.70
  -6   3  -4  475.65   22.70
  -6   3  -4  481.25   20.90
  -6   3  -4  490.75   28.70
  -6   3  -4  458.35   25.40
   6  -3   4  513.35   20.60
   6  -3   4  488.15   21.40
   6  -3   4  493.95   19.30
   6  -3   4  477.45   21.10
   6  -3   4  470.25   16.00
   6  -3   4  490.15   20.20
   6  -3   4  409.06   19.20
   6  -3   4  447.66   18.30
   6   2  -4  496.95   19.70
   6   2  -4  472.55   19.70
   6   2  -4  503.45   23.20
   6   2  -4  496.45   17.90
   6   2  -4  479.25   19.90
  -6  -2   4  453.45   21.50
  -6  -2   4  477.55   19.80
  -6  -2   4  497.65   19.60
  -6  -2   4  524.45   20.40
  -6  -2   4  466.25   20.10
   5   2  -4    5.30    3.50
   5   2  -4   -0.60    3.30
   5   2  -4    3.70    4.30
   5   2  -4   -0.80    3.50
   5   2  -4   -3.20    4.10
   5   2  -4    2.20    3.50
  -5  -2   4    8.00    4.80
  -5  -2   4    0.20    3.00
  -5  -2   4   -0.60    3.40
  -5  -2   4    7.30    3.80
  -5  -2   4   -0.70    3.10
   4   2  -4  191.88   10.90
   4   2  -4  196.58    9.10
   4   2  -4  195.68    8.70
   4   2  -4  190.08    9.10
   4   2  -4  192.18    8.50
   4   2  -4  190.08    8.20
   4   2  -4  196.78    9.90
   4   2  -4  183.98    7.50
  -4  -2   4  180.68    6.50
  -4  -2   4  191.88    8.70
  -4  -2   4  164.98    8.70
  -4  -2   4  179.48    9.40
  -4  -2   4  192.38    9.30
  -4  -2   4  183.18   10.00
  -4  -2   4  181.28    8.90
  -4  -2   4  197.08    8.60
   3   2  -4 1575.74   44.10
   3   2  -4 1573.74   43.00
   3   2  -4 1608.54   45.20
   3   2  -4 1613.04   42.10
   3   2  -4 1709.63   44.40
   3   2  -4 1494.35   42.30
   3   2  -4 1427.96   42.90
   3   2  -4 1603.54   43.70
   3   2  -4 1630.94   46.60
  -3  -2   4 1624.24   42.50
  -3  -2   4 1549.94   42.10
  -3  -2   4 1590.74   43.50
  -3  -2   4 1642.94   44.70
  -3  -2   4 1684.63   44.20
  -3  -2   4 1562.24   43.50
  -3  -2   4 1635.94   43.60
  -3  -2   4 1577.44   44.20
  -3  -2   4 1569.54   42.80
  -3  -2   4 1714.23   44.10
  -3  -2   4 1603.74   42.70
   2   2  -4    6.30    2.50
   2   2  -4    4.20    1.30
   2   2  -4    8.30    1.90
   2   2  -4    8.00    1.90
   2   2  -4   10.30    2.00
   2   2  -4    8.80    1.80
   2   2  -4    6.70    1.50
   2   2  -4    2.30    2.60
   2   2  -4    5.90    2.00
   2   2  -4    7.20    2.50
   2   2  -4    4.10    1.80
   2   2  -4    7.60    1.90
   2   2  -4    4.70    2.30
  -2  -2   4    8.20    1.60
  -2  -2   4    7.90    1.30
  -2  -2   4    8.00    1.90
  -2  -2   4    7.90    2.00
  -2  -2   4    6.50    2.10
  -2  -2   4    8.90    2.40
  -2  -2   4    5.20    1.70
  -2  -2   4    8.20    1.90
  -2  -2   4    7.30    1.70
  -2  -2   4    7.20    1.50
  -2  -2   4    7.50    2.40
  -2  -2   4    7.80    2.20
  -2  -2   4   -0.10    2.20
   1   2  -4 1851.31   49.30
   1   2  -4 1874.01   51.49
   1   2  -4 1959.80   49.00
   1   2  -4 1888.21   48.80
   1   2  -4 1826.52   50.89
   1   2  -4 1967.20   48.70
   1   2  -4 1840.12   51.09
   1   2  -4 1900.21   49.20
   1   2  -4 1857.61   50.99
   1   2  -4 1993.10   49.90
   1   2  -4 1896.01   49.50
   1   2  -4 1894.51   49.00
   1   2  -4 1879.71   49.40
  -1  -2   4 1787.62   49.10
  -1  -2   4 1873.71   51.49
  -1  -2   4 1861.61   50.39
  -1  -2   4 1848.02   50.89
  -1  -2   4 1850.61   49.30
  -1  -2   4 1891.61   50.29
  -1  -2   4 1853.11   51.29
  -1  -2   4 1765.82   50.89
  -1  -2   4 1859.11   49.50
  -1  -2   4 1866.41   50.89
  -1  -2   4 1843.12   51.09
  -1  -2   4 1838.12   49.40
  -1  -2   4 1832.92   51.79
  -1  -2   4 1907.21   49.80
  -1  -2   4 1919.51   49.60
  -1  -2   4 1951.50   50.39
  -1  -2   4 1922.31   49.70
  -1  -2   4 1865.11   49.50
  -1  -2   4 1876.81   49.30
  -1  -2   4 2003.10   49.50
   0   2  -4 1690.53   45.20
   0   2  -4 1633.34   43.20
   0   2  -4 1705.03   44.60
   0   2  -4 1677.33   44.50
   0   2  -4 1718.83   44.30
   0   2  -4 1644.54   45.60
   0   2  -4 1700.23   44.00
   0   2  -4 1686.03   43.40
   0   2  -4 1693.83   45.40
   0   2  -4 1692.73   45.90
   0   2  -4 1661.33   45.50
   0   2  -4 1692.53   46.60
   0   2  -4 1615.64   44.70
   0   2  -4 1702.43   44.50
   0   2  -4 1606.74   44.80
   0  -2   4 1652.93   43.20
   0  -2   4 1705.73   46.30
   0  -2   4 1678.03   44.30
   0  -2   4 1698.23   44.60
   0  -2   4 1705.53   45.80
   0  -2   4 1628.04   46.90
   0  -2   4 1720.83   44.70
   0  -2   4 1618.04   44.20
   0  -2   4 1721.03   45.30
   0  -2   4 1636.44   44.40
   0  -2   4 1658.53   44.50
   0  -2   4 1683.83   45.60
   0  -2   4 1605.14   45.00
   0  -2   4 1610.14   45.80
   0  -2   4 1678.63   43.20
  -1   2  -4   88.69    5.40
  -1   2  -4   94.49    5.90
  -1   2  -4   83.49    5.40
  -1   2  -4   76.19    4.70
  -1   2  -4   82.69    5.00
  -1   2  -4   84.99    5.10
  -1   2  -4   84.89    3.30
  -1   2  -4   82.19    4.90
  -1   2  -4   81.39    6.30
  -1   2  -4   89.59    4.80
  -1   2  -4   84.49    4.40
  -1   2  -4   84.69    4.70
  -1   2  -4   82.99    4.90
  -1   2  -4   97.79    5.50
  -1   2  -4   87.49    4.70
  -1   2  -4   90.29    5.70
   1  -2   4   93.29    4.60
   1  -2   4   91.99    3.90
   1  -2   4   79.19    5.30
   1  -2   4   92.29    5.50
   1  -2   4   87.49    4.60
   1  -2   4   86.69    5.00
   1  -2   4   86.19    3.50
   1  -2   4   86.79    4.20
   1  -2   4   84.19    5.90
   1  -2   4   90.59    5.30
   1  -2   4   82.89    5.70
   1  -2   4   95.39    6.10
   1  -2   4   85.19    4.60
   1  -2   4   86.09    3.50
   1  -2   4   82.99    4.40
   1  -2   4   84.19    5.70
  -2   2  -4 4029.80  105.49
  -2   2  -4 4087.99  103.79
  -2   2  -4 3937.41  106.49
  -2   2  -4 4042.80  105.79
  -2   2  -4 3996.70  104.99
  -2   2  -4 4091.29  104.29
  -2   2  -4 4064.09  106.39
  -2   2  -4 3962.10  108.09
  -2   2  -4 4072.49  103.39
  -2   2  -4 4099.99  104.69
  -2   2  -4 3932.51  105.39
  -2   2  -4 4053.19  106.99
   2  -2   4 4113.39  105.79
   2  -2   4 3931.71  102.89
   2  -2   4 3984.40  103.79
   2  -2   4 3905.11  104.09
   2  -2   4 4073.79  104.79
   2  -2   4 3660.93  104.99
   2  -2   4 3952.80  104.79
   2  -2   4 3947.10  103.69
   2  -2   4 3826.62  104.99
   2  -2   4 3939.51  104.79
   2  -2   4 3987.70  104.59
   2  -2   4 3937.81  103.79
   2  -2   4 4122.09  105.09
  -3   2  -4 1314.97   39.50
  -3   2  -4 1367.16   42.20
  -3   2  -4 1340.17   40.30
  -3   2  -4 1255.27   36.40
  -3   2  -4 1383.06   38.40
  -3   2  -4 1305.87   37.10
  -3   2  -4 1319.87   36.50
  -3   2  -4 1315.67   39.00
  -3   2  -4 1309.57   38.90
  -3   2  -4 1267.27   38.80
   3  -2   4 1316.47   37.20
   3  -2   4 1315.57   37.20
   3  -2   4 1301.77   36.30
   3  -2   4 1368.06   36.40
   3  -2   4 1353.26   37.80
   3  -2   4 1332.27   38.10
   3  -2   4 1325.97   38.40
   3  -2   4 1346.87   37.50
   3  -2   4 1361.56   37.90
  -4   2  -4  751.12   25.70
  -4   2  -4  759.12   24.90
  -4   2  -4  725.83   25.40
  -4   2  -4  766.72   29.40
  -4   2  -4  689.83   23.20
  -4   2  -4  748.63   21.90
  -4   2  -4  725.93   27.00
  -4   2  -4  752.12   22.80
  -4   2  -4  737.53   26.00
  -4   2  -4  774.92   25.50
   4  -2   4  767.92   24.10
   4  -2   4  755.12   23.80
   4  -2   4  817.32   24.30
   4  -2   4  746.03   22.80
   4  -2   4  770.12   22.00
   4  -2   4  782.32   24.60
   4  -2   4  778.32   24.00
   4  -2   4  753.12   23.80
   4  -2   4  761.02   24.80
  -5   2  -4  573.14   24.60
  -5   2  -4  602.14   23.70
  -5   2  -4  591.14   22.90
  -5   2  -4  573.44   21.90
  -5   2  -4  604.64   27.70
  -5   2  -4  562.64   22.70
  -5   2  -4  607.74   22.40
   5  -2   4  630.54   21.50
   5  -2   4  575.34   19.80
   5  -2   4  578.94   17.70
   5  -2   4  599.34   20.90
   5  -2   4  607.74   21.20
   5  -2   4  549.65   21.40
   5  -2   4  583.14   21.40
   5  -2   4  584.54   20.40
  -6   2  -4   16.50    7.50
  -6   2  -4   14.60    8.10
  -6   2  -4   24.20    7.60
  -6   2  -4   18.00    7.40
  -6   2  -4   41.60   10.30
  -6   2  -4   13.80   10.90
  -6   2  -4   21.50    7.90
   6  -2   4   29.90    6.10
   6  -2   4   19.60    6.40
   6  -2   4   24.40    7.10
   6  -2   4   -6.20    7.40
   6  -2   4   23.50    5.70
   6  -2   4   17.10    5.80
   6  -2   4   21.90    6.50
   6   1  -4   11.60    6.20
   6   1  -4   -0.90    4.20
   6   1  -4    3.80    4.00
   6   1  -4   -6.90    4.90
   6   1  -4    4.10    4.40
   6   1  -4    1.60    4.70
   6   1  -4   -1.30    3.20
  -6  -1   4    4.70    6.30
  -6  -1   4   -1.20    5.30
  -6  -1   4    1.10    4.80
  -6  -1   4    9.50    5.70
  -6  -1   4   -4.20    4.90
  -6  -1   4    4.40    5.10
   5   1  -4 1306.17   37.70
   5   1  -4 1287.27   37.90
   5   1  -4 1155.78   35.90
   5   1  -4 1289.87   35.40
   5   1  -4 1229.68   37.30
   5   1  -4 1254.67   40.30
   5   1  -4 1292.57   38.00
  -5  -1   4 1282.57   40.00
  -5  -1   4 1296.67   38.70
  -5  -1   4 1260.77   38.60
  -5  -1   4 1194.08   38.10
  -5  -1   4 1314.27   37.10
  -5  -1   4 1277.77   38.20
   4   1  -4  335.97   14.70
   4   1  -4  330.57   10.60
   4   1  -4  347.47   11.40
   4   1  -4  341.37   12.50
   4   1  -4  357.36   12.10
   4   1  -4  352.96   13.40
   4   1  -4  338.47   12.70
   4   1  -4  327.57   12.20
   4   1  -4  353.36   12.90
   4   1  -4  337.37   12.80
  -4  -1   4  338.77   13.20
  -4  -1   4  341.87   13.00
  -4  -1   4  340.37   13.20
  -4  -1   4  342.47   14.20
  -4  -1   4  355.36   13.40
  -4  -1   4  340.77   12.90
  -4  -1   4  332.57   13.60
   3   1  -4  542.55   16.90
   3   1  -4  542.15   16.70
   3   1  -4  551.84   15.40
   3   1  -4  536.85   17.00
   3   1  -4  522.75   15.60
   3   1  -4  549.95   17.80
   3   1  -4  559.94   17.00
   3   1  -4  549.15   16.40
   3   1  -4  553.14   16.00
   3   1  -4  531.45   18.80
   3   1  -4  534.05   16.20
  -3  -1   4  551.64   16.40
  -3  -1   4  554.64   15.70
  -3  -1   4  533.25   17.00
  -3  -1   4  491.35   17.00
  -3  -1   4  529.05   17.10
  -3  -1   4  557.34   15.10
  -3  -1   4  554.74   17.10
  -3  -1   4  563.74   17.40
  -3  -1   4  561.44   18.00
  -3  -1   4  542.95   17.30
   2   1  -4  854.21   26.00
   2   1  -4  831.32   23.80
   2   1  -4  866.91   23.30
   2   1  -4  873.01   23.90
   2   1  -4  856.21   24.90
   2   1  -4  887.01   24.20
   2   1  -4  860.31   24.60
   2   1  -4  871.71   24.00
   2   1  -4  860.61   24.30
   2   1  -4  883.81   24.10
   2   1  -4  865.51   24.50
   2   1  -4  862.01   23.90
  -2  -1   4  878.51   23.50
  -2  -1   4  899.61   24.60
  -2  -1   4  854.21   24.60
  -2  -1   4  859.61   24.50
  -2  -1   4  886.91   24.90
  -2  -1   4  859.91   23.60
  -2  -1   4  881.71   24.70
  -2  -1   4  846.62   25.20
  -2  -1   4  885.61   24.70
  -2  -1   4  851.51   24.20
  -2  -1   4  881.61   23.40
  -2  -1   4  866.11   24.60
  -2  -1   4  853.71   25.40
   1   1  -4 2953.60   77.89
   1   1  -4 2936.51   77.59
   1   1  -4 3071.79   78.09
   1   1  -4 2963.80   77.69
   1   1  -4 3082.29   77.89
   1   1  -4 3060.69   79.29
   1   1  -4 2890.51   77.19
   1   1  -4 2978.20   78.39
   1   1  -4 2931.21   77.59
   1   1  -4 2918.01   78.59
   1   1  -4 3030.00   79.09
   1   1  -4 3142.89   77.89
   1   1  -4 3076.39   77.59
  -1  -1   4 2980.50   77.59
  -1  -1   4 2903.91   77.69
  -1  -1   4 2900.91   77.89
  -1  -1   4 3219.98   78.89
  -1  -1   4 3011.60   78.29
  -1  -1   4 2860.31   78.59
  -1  -1   4 3039.20   78.59
  -1  -1   4 2959.60   78.79
  -1  -1   4 2945.11   77.09
  -1  -1   4 3052.39   77.79
  -1  -1   4 3078.29   79.29
  -1  -1   4 2982.50   77.89
  -1  -1   4 2928.01   77.99
  -1  -1   4 2873.91   77.99
  -1  -1   4 2955.70   78.09
   0   1  -4   18.60    2.20
   0   1  -4   16.20    2.00
   0   1  -4   11.70    1.50
   0   1  -4   12.80    2.40
   0   1  -4   13.90    1.70
   0   1  -4   15.60    2.00
   0   1  -4   14.30    2.20
   0   1  -4   14.40    1.50
   0   1  -4   17.00    2.30
   0   1  -4   14.00    2.10
   0   1  -4   14.90    2.10
   0   1  -4   14.50    2.00
   0   1  -4   18.80    2.80
   0   1  -4   14.30    1.90
   0   1  -4   18.30    2.30
   0   1  -4   17.00    2.40
   0  -1   4   15.10    2.00
   0  -1   4   10.40    1.90
   0  -1   4   14.90    2.40
   0  -1   4   16.00    1.90
   0  -1   4   12.80    2.40
   0  -1   4   12.30    2.00
   0  -1   4   13.80    2.60
   0  -1   4   12.30    1.50
   0  -1   4   15.30    2.60
   0  -1   4   15.50    2.20
   0  -1   4   12.90    1.70
   0  -1   4   15.00    1.80
   0  -1   4   17.00    2.10
   0  -1   4   18.10    2.20
  -1   1  -4 3592.14   89.49
  -1   1  -4 3365.16   89.69
  -1   1  -4 3461.25   89.19
  -1   1  -4 3344.27   89.19
  -1   1  -4 3515.85   88.49
  -1   1  -4 3488.95   88.89
  -1   1  -4 3374.76   87.99
  -1   1  -4 3423.76   90.09
  -1   1  -4 3307.97   89.99
  -1   1  -4 3462.35   88.19
  -1   1  -4 3467.45   89.29
  -1   1  -4 3333.07   90.79
  -1   1  -4 3560.84   88.59
  -1   1  -4 3401.86   89.69
  -1   1  -4 3498.85   89.19
  -1   1  -4 3371.16   89.59
  -1   1  -4 3348.76   88.29
   1  -1   4 3478.15   88.39
   1  -1   4 3390.46   88.99
   1  -1   4 3329.77   89.39
   1  -1   4 3365.66   89.59
   1  -1   4 3516.95   89.89
   1  -1   4 3460.45   89.69
   1  -1   4 3565.94   89.69
   1  -1   4 3304.77   87.99
   1  -1   4 3316.37   88.89
   1  -1   4 3423.26   91.29
   1  -1   4 3300.17   88.19
   1  -1   4 3313.97   87.49
   1  -1   4 3399.66   88.99
   1  -1   4 3407.36   88.99
   1  -1   4 3396.76   89.19
   1  -1   4 3205.08   88.59
  -2   1  -4  815.72   23.40
  -2   1  -4  792.82   23.70
  -2   1  -4  804.12   23.80
  -2   1  -4  783.62   22.50
  -2   1  -4  784.42   23.70
  -2   1  -4  806.22   23.10
  -2   1  -4  765.52   23.10
  -2   1  -4  763.32   22.50
  -2   1  -4  774.82   25.50
  -2   1  -4  765.62   24.60
   2  -1   4  766.82   22.50
   2  -1   4  766.32   22.40
   2  -1   4  739.03   22.40
   2  -1   4  792.52   22.90
   2  -1   4  761.12   22.80
   2  -1   4  772.72   21.70
   2  -1   4  821.72   23.70
   2  -1   4  802.92   21.80
   2  -1   4  800.62   21.90
   2  -1   4  791.42   23.50
   2  -1   4  797.52   23.00
   2  -1   4  772.42   23.20
  -3   1  -4   82.39    6.10
  -3   1  -4   78.79    7.10
  -3   1  -4   67.79    5.80
  -3   1  -4   71.69    6.60
  -3   1  -4   79.09    8.10
  -3   1  -4   66.99    7.30
  -3   1  -4   80.89    5.80
  -3   1  -4   76.79    6.20
   3  -1   4   79.99    4.80
   3  -1   4   74.89    5.40
   3  -1   4   73.09    5.80
   3  -1   4   77.89    5.20
   3  -1   4   84.59    5.20
   3  -1   4   73.69    4.00
   3  -1   4   77.79    5.10
   3  -1   4   73.49    5.50
   3  -1   4   76.69    5.40
  -4   1  -4 1489.15   44.20
  -4   1  -4 1449.26   43.60
  -4   1  -4 1512.45   43.90
  -4   1  -4 1462.45   45.20
  -4   1  -4 1484.55   47.40
  -4   1  -4 1513.15   43.80
  -4   1  -4 1489.55   42.50
   4  -1   4 1433.46   39.20
   4  -1   4 1477.65   42.70
   4  -1   4 1496.45   41.40
   4  -1   4 1467.45   41.80
   4  -1   4 1526.25   42.60
   4  -1   4 1403.76   39.90
   4  -1   4 1444.16   42.30
   4  -1   4 1338.97   41.90
   4  -1   4 1511.05   41.90
  -5   1  -4   85.29    8.70
  -5   1  -4   91.49    9.60
  -5   1  -4   75.99    9.20
  -5   1  -4   90.69   11.00
  -5   1  -4   78.49   11.50
  -5   1  -4   71.39    8.50
  -5   1  -4   73.49    8.80
   5  -1   4   66.09    6.80
   5  -1   4   71.89    6.70
   5  -1   4   92.39    8.10
   5  -1   4   89.29    9.40
   5  -1   4   83.29    7.70
   5  -1   4   93.29    7.30
   5  -1   4   64.69    7.60
   5  -1   4   80.79    4.90
  -6   1  -4  380.66   19.50
  -6   1  -4  405.46   20.30
  -6   1  -4  372.86   19.60
  -6   1  -4  396.26   17.90
  -6   1  -4  418.46   25.60
  -6   1  -4  399.76   19.50
  -6   1  -4  392.56   22.40
   6  -1   4  406.56   18.30
   6  -1   4  403.36   15.00
   6  -1   4  427.36   18.40
   6  -1   4  366.36   16.10
   6  -1   4  427.06   16.90
   6  -1   4  381.76   17.90
   6  -1   4  380.66   18.10
   6  -1   4  419.56   17.60
   6   0  -4  665.83   22.80
   6   0  -4  699.13   22.10
   6   0  -4  708.13   24.50
   6   0  -4  677.53   24.40
   6   0  -4  677.63   24.00
   6   0  -4  662.33   26.20
   6   0  -4  723.03   24.50
   6   0  -4  651.13   21.90
  -6   0   4  713.33   27.70
  -6   0   4  647.94   25.00
  -6   0   4  663.63   25.40
  -6   0   4  674.23   23.50
  -6   0   4  680.83   25.80
  -6   0   4  684.23   25.70
  -6   0   4  652.03   27.20
   5   0  -4  373.16   13.40
   5   0  -4  340.27   14.30
   5   0  -4  372.86   14.30
   5   0  -4  343.87   14.70
   5   0  -4  355.06   13.90
   5   0  -4  352.76   15.70
   5   0  -4  369.06   13.40
   5   0  -4  305.97   12.40
   5   0  -4  372.16   14.40
  -5   0   4  347.97   15.60
  -5   0   4  360.06   15.10
  -5   0   4  374.46   15.00
  -5   0   4  349.77   14.30
  -5   0   4  365.96   15.20
  -5   0   4  359.46   16.60
   4   0  -4   15.60    4.00
   4   0  -4   16.60    3.80
   4   0  -4   18.30    3.20
   4   0  -4   18.30    3.40
   4   0  -4   14.10    3.20
   4   0  -4   19.40    3.40
   4   0  -4   18.10    2.90
   4   0  -4   13.00    3.60
   4   0  -4   12.50    2.90
  -4   0   4   11.50    3.30
  -4   0   4   18.30    4.30
  -4   0   4   17.20    4.60
  -4   0   4    8.90    3.20
  -4   0   4    8.80    2.80
  -4   0   4   11.40    3.20
  -4   0   4   14.30    4.00
   3   0  -4 1565.64   42.70
   3   0  -4 1618.24   43.10
   3   0  -4 1570.34   44.40
   3   0  -4 1602.54   43.40
   3   0  -4 1481.45   42.90
   3   0  -4 1563.44   40.80
   3   0  -4 1583.74   42.20
   3   0  -4 1576.54   42.70
   3   0  -4 1597.84   42.90
   3   0  -4 1567.84   41.40
  -3   0   4 1533.55   42.40
  -3   0   4 1588.54   42.00
  -3   0   4 1547.85   43.60
  -3   0   4 1519.15   43.10
  -3   0   4 1553.44   43.20
  -3   0   4 1651.73   43.50
  -3   0   4 1534.75   43.30
  -3   0   4 1312.47   42.60
   2   0  -4  639.64   18.80
   2   0  -4  653.73   18.80
   2   0  -4  635.74   18.90
   2   0  -4  644.34   19.00
   2   0  -4  664.13   17.90
   2   0  -4  615.44   18.80
   2   0  -4  595.14   18.50
   2   0  -4  636.34   18.10
   2   0  -4  638.64   18.90
   2   0  -4  660.33   18.60
   2   0  -4  630.74   18.40
   2   0  -4  612.24   19.80
  -2   0   4  656.43   19.00
  -2   0   4  637.14   18.10
  -2   0   4  632.74   18.90
  -2   0   4  658.23   19.00
  -2   0   4  626.94   18.60
  -2   0   4  605.04   19.50
  -2   0   4  647.14   18.20
  -2   0   4  630.64   19.20
  -2   0   4  596.34   19.00
  -2   0   4  599.94   18.80
  -2   0   4  654.43   19.60
  -2   0   4  674.13   18.80
  -2   0   4  637.54   18.80
   1   0  -4  328.97   10.20
   1   0  -4  306.27    9.60
   1   0  -4  327.47   10.40
   1   0  -4  324.37   10.50
   1   0  -4  315.17   10.00
   1   0  -4  302.47   10.20
   1   0  -4  316.17   10.10
   1   0  -4  318.57   10.00
   1   0  -4  341.97    9.80
   1   0  -4  331.27    9.60
   1   0  -4  329.67   10.30
   1   0  -4  319.87   10.60
  -1   0   4  330.27   10.50
  -1   0   4  304.97   10.00
  -1   0   4  315.57   10.30
  -1   0   4  310.57   10.70
  -1   0   4  315.67   10.30
  -1   0   4  321.17   10.10
  -1   0   4  309.47   10.50
  -1   0   4  331.07   10.70
  -1   0   4  317.37    9.80
  -1   0   4  309.17   10.10
  -1   0   4  314.37   10.70
  -1   0   4  316.67   10.00
   0   0  -4  405.76   11.90
   0   0  -4  386.56   12.00
   0   0  -4  378.66   11.50
   0   0  -4  417.46   12.20
   0   0  -4  400.96   11.50
   0   0  -4  390.96   12.30
   0   0  -4  391.46   12.60
   0   0  -4  401.76   12.40
   0   0  -4  399.26   11.20
   0   0  -4  391.16   12.10
   0   0  -4  395.76   11.80
   0   0  -4  374.36   11.80
   0   0  -4  391.06   11.90
   0   0  -4  393.76   11.60
   0   0  -4  380.06   12.50
   0   0   4  392.06   11.60
   0   0   4  395.56   12.80
   0   0   4  407.86   12.00
   0   0   4  392.26   11.40
   0   0   4  394.96   11.50
   0   0   4  395.56   11.80
   0   0   4  389.16   11.80
   0   0   4  398.46   12.30
   0   0   4  372.56   12.20
   0   0   4  394.56   12.10
   0   0   4  384.66   11.40
   0   0   4  369.46   12.10
   0   0   4  399.56   12.60
   0   0   4  381.56   12.00
   0   0   4  399.66   12.20
   0   0   4  399.16   12.60
  -1   0  -4 1824.42   48.30
  -1   0  -4 1770.12   49.10
  -1   0  -4 1757.42   47.40
  -1   0  -4 1784.72   47.90
  -1   0  -4 1789.42   49.30
  -1   0  -4 1829.42   48.10
  -1   0  -4 1847.82   48.30
  -1   0  -4 1821.42   48.80
  -1   0  -4 1792.12   47.90
  -1   0  -4 1732.33   47.40
  -1   0  -4 1772.22   49.10
  -1   0  -4 1812.52   48.30
  -1   0  -4 1880.51   48.40
  -1   0  -4 1770.32   48.40
  -1   0  -4 1836.82   47.40
  -1   0  -4 1834.62   48.80
   1   0   4 1824.12   48.10
   1   0   4 1800.62   48.30
   1   0   4 1848.81   47.50
   1   0   4 1837.72   48.40
   1   0   4 1784.32   47.60
   1   0   4 1842.42   48.30
   1   0   4 1930.11   49.00
   1   0   4 1787.22   49.10
   1   0   4 1780.12   49.70
   1   0   4 1823.72   48.40
   1   0   4 1582.14   48.20
   1   0   4 1851.91   47.70
   1   0   4 1812.72   48.70
   1   0   4 1803.42   48.10
   1   0   4 1815.72   48.50
  -2   0  -4  562.84   19.30
  -2   0  -4  565.84   19.00
  -2   0  -4  551.74   18.70
  -2   0  -4  574.04   16.20
  -2   0  -4  572.14   18.20
  -2   0  -4  589.34   18.10
  -2   0  -4  585.14   16.40
  -2   0  -4  568.94   18.50
  -2   0  -4  559.24   18.20
  -2   0  -4  578.94   16.80
  -2   0  -4  585.64   17.80
   2   0   4  568.54   17.50
   2   0   4  576.34   17.60
   2   0   4  565.44   17.20
   2   0   4  592.74   16.30
   2   0   4  573.44   17.50
   2   0   4  584.84   16.10
   2   0   4  564.24   19.10
   2   0   4  586.74   17.00
   2   0   4  581.04   17.30
   2   0   4  570.64   17.90
   2   0   4  565.84   16.80
   2   0   4  572.24   17.70
   2   0   4  504.65   16.60
  -3   0  -4 3153.88   85.39
  -3   0  -4 3212.18   82.99
  -3   0  -4 3152.88   85.79
  -3   0  -4 3117.99   85.09
  -3   0  -4 3137.79   87.69
  -3   0  -4 3242.98   84.79
  -3   0  -4 3178.98   85.49
  -3   0  -4 3219.98   86.69
   3   0   4 3189.58   84.39
   3   0   4 3165.18   84.49
   3   0   4 3180.58   81.89
   3   0   4 3100.69   83.79
   3   0   4 3282.37   85.29
   3   0   4 2883.61   82.69
   3   0   4 3200.68   84.69
   3   0   4 3154.08   84.59
   3   0   4 3198.68   83.79
  -4   0  -4   33.80    5.20
  -4   0  -4   32.80    4.70
  -4   0  -4   27.80    4.70
  -4   0  -4   42.40    5.40
  -4   0  -4   29.40    6.50
  -4   0  -4   47.40    6.70
  -4   0  -4   38.50    4.60
   4   0   4   34.90    4.80
   4   0   4   27.30    3.80
   4   0   4   36.40    4.80
   4   0   4   35.20    4.80
   4   0   4   34.80    4.60
   4   0   4   35.80    4.60
   4   0   4   37.20    4.20
   4   0   4   41.00    5.20
   4   0   4   37.50    2.90
   4   0   4   32.90    4.60
  -5   0  -4  400.46   17.90
  -5   0  -4  374.36   18.70
  -5   0  -4  380.46   16.90
  -5   0  -4  394.56   16.90
  -5   0  -4  389.86   17.40
  -5   0  -4  400.36   21.20
  -5   0  -4  381.96   15.00
   5   0   4  397.26   15.10
   5   0   4  366.56   15.60
   5   0   4  395.76   15.60
   5   0   4  390.36   14.60
   5   0   4  397.86   16.50
   5   0   4  363.56   13.80
   5   0   4  395.76   16.60
   5   0   4  378.76   16.20
   5   0   4  357.66   15.20
   5   0   4  372.96   13.40
  -6   0  -4  407.26   19.80
  -6   0  -4  421.76   19.60
  -6   0  -4  417.26   20.60
  -6   0  -4  428.36   20.80
  -6   0  -4  440.16   25.80
  -6   0  -4  394.36   22.70
   6   0   4  415.56   18.60
   6   0   4  429.26   19.40
   6   0   4  421.56   16.70
   6   0   4  427.96   19.40
   6   0   4  441.56   18.50
   6   0   4  417.46   19.50
   6   0   4  422.66   16.10
   6   0   4  432.36   17.90
   6  -1  -4  674.93   25.30
   6  -1  -4  692.73   24.30
   6  -1  -4  688.83   23.80
   6  -1  -4  728.03   26.30
   6  -1  -4  705.03   25.00
   6  -1  -4  697.83   24.70
   6  -1  -4  691.03   23.70
  -6   1   4  712.73   29.10
  -6   1   4  676.03   26.90
  -6   1   4  703.13   25.90
  -6   1   4  708.73   26.80
  -6   1   4  706.83   27.00
  -6   1   4  735.63   28.90
  -6   1   4  707.53   25.00
   5  -1  -4  137.89    8.00
   5  -1  -4  134.49    8.10
   5  -1  -4  146.69    9.20
   5  -1  -4  124.59    6.50
   5  -1  -4  127.79    8.10
   5  -1  -4  119.39    9.30
   5  -1  -4  125.19    9.60
   5  -1  -4  151.28    8.60
   5  -1  -4  125.79    8.20
  -5   1   4  119.89   10.60
  -5   1   4  109.49    9.00
  -5   1   4  134.09   10.00
  -5   1   4  118.99   10.80
  -5   1   4  125.39    8.60
  -5   1   4  135.89    9.40
  -5   1   4  149.19    9.90
   4  -1  -4 1391.56   37.90
   4  -1  -4 1378.96   40.40
   4  -1  -4 1392.26   39.20
   4  -1  -4 1358.76   39.60
   4  -1  -4 1392.36   40.80
   4  -1  -4 1367.26   39.60
   4  -1  -4 1376.76   40.10
  -4   1   4 1362.76   40.90
  -4   1   4 1388.66   40.70
  -4   1   4 1392.06   40.80
  -4   1   4 1416.46   42.30
  -4   1   4 1346.47   41.00
  -4   1   4 1385.66   39.90
   3  -1  -4  108.99    6.20
   3  -1  -4  107.59    6.60
   3  -1  -4  109.89    5.50
   3  -1  -4  109.59    5.40
   3  -1  -4  107.49    6.80
   3  -1  -4  108.99    6.20
   3  -1  -4  102.39    6.00
   3  -1  -4  113.09    7.00
  -3   1   4  110.99    6.50
  -3   1   4  113.19    6.10
  -3   1   4  104.49    6.70
  -3   1   4  107.59    7.40
  -3   1   4  111.29    6.70
  -3   1   4  109.99    6.00
  -3   1   4  113.29    7.20
  -3   1   4  113.19    4.70
   2  -1  -4    4.00    1.80
   2  -1  -4    3.00    2.10
   2  -1  -4    7.20    2.40
   2  -1  -4    4.00    1.90
   2  -1  -4    5.80    1.60
   2  -1  -4    0.70    1.80
   2  -1  -4    5.80    1.90
   2  -1  -4    3.00    1.90
   2  -1  -4    4.10    2.00
   2  -1  -4    5.60    2.10
  -2   1   4    7.70    2.20
  -2   1   4    2.00    2.50
  -2   1   4    6.20    1.90
  -2   1   4    5.90    2.10
  -2   1   4    2.80    2.40
  -2   1   4    6.10    2.40
  -2   1   4    2.60    1.80
  -2   1   4    3.40    2.10
  -2   1   4    5.40    1.50
  -2   1   4    5.50    2.40
  -2   1   4    5.30    1.50
  -2   1   4    5.00    2.30
  -2   1   4    3.10    1.50
  -2   1   4   10.20    2.90
   1  -1  -4 2599.64   68.29
   1  -1  -4 2543.35   69.29
   1  -1  -4 2598.04   69.49
   1  -1  -4 2692.23   68.69
   1  -1  -4 2596.94   68.59
   1  -1  -4 2678.73   68.99
   1  -1  -4 2681.63   69.39
   1  -1  -4 2585.44   69.49
   1  -1  -4 2560.94   69.19
   1  -1  -4 2587.44   68.49
   1  -1  -4 2624.74   69.69
   1  -1  -4 2659.03   69.59
   1  -1  -4 2650.43   69.49
  -1   1   4 2632.34   69.49
  -1   1   4 2681.23   69.39
  -1   1   4 2611.44   69.19
  -1   1   4 2708.73   69.39
  -1   1   4 2713.83   69.79
  -1   1   4 2678.23   69.19
  -1   1   4 2555.94   68.79
  -1   1   4 2643.74   69.49
  -1   1   4 2653.53   68.79
  -1   1   4 2579.64   69.89
  -1   1   4 2639.14   69.59
  -1   1   4 2588.64   68.89
  -1   1   4 2551.64   68.99
  -1   1   4 2664.03   68.99
   0  -1  -4 2377.06   60.69
   0  -1  -4 2298.17   60.39
   0  -1  -4 2327.17   59.69
   0  -1  -4 2353.16   60.49
   0  -1  -4 2182.58   60.39
   0  -1  -4 2279.37   60.89
   0  -1  -4 2357.56   60.09
   0  -1  -4 2187.68   60.09
   0  -1  -4 2257.17   60.49
   0  -1  -4 2276.77   60.79
   0  -1  -4 2288.27   60.69
   0  -1  -4 2273.37   61.09
   0  -1  -4 2292.27   60.59
   0  -1  -4 2280.27   59.39
   0  -1  -4 2204.68   60.59
   0  -1  -4 2311.37   59.29
   0   1   4 2379.96   60.49
   0   1   4 2320.47   60.19
   0   1   4 2149.19   60.99
   0   1   4 2271.57   59.79
   0   1   4 2334.77   60.19
   0   1   4 2259.67   60.49
   0   1   4 2287.57   60.59
   0   1   4 2312.47   60.69
   0   1   4 2316.27   60.89
   0   1   4 2271.27   60.69
   0   1   4 2288.97   59.69
   0   1   4 2246.78   60.39
   0   1   4 2270.57   59.49
   0   1   4 2304.67   60.49
  -1  -1  -4  124.49    6.30
  -1  -1  -4  135.29    6.00
  -1  -1  -4  128.89    6.00
  -1  -1  -4  131.99    5.90
  -1  -1  -4  133.29    6.30
  -1  -1  -4  140.09    5.80
  -1  -1  -4  142.59    5.80
  -1  -1  -4  129.49    6.40
  -1  -1  -4  129.49    6.10
  -1  -1  -4  139.19    5.70
  -1  -1  -4  127.79    5.90
  -1  -1  -4  133.19    5.10
  -1  -1  -4  135.89    6.60
  -1  -1  -4  136.99    6.00
   1   1   4  135.79    6.10
   1   1   4  136.19    6.40
   1   1   4  145.99    5.40
   1   1   4  135.29    6.10
   1   1   4  141.69    4.50
   1   1   4  133.79    6.10
   1   1   4  130.39    5.50
   1   1   4  120.49    6.10
   1   1   4  132.89    5.80
   1   1   4  136.69    5.50
   1   1   4  124.79    6.80
   1   1   4  131.19    5.80
   1   1   4  146.99    7.10
   1   1   4  140.49    6.50
  -2  -1  -4 1256.87   33.80
  -2  -1  -4 1195.28   33.70
  -2  -1  -4 1242.58   34.50
  -2  -1  -4 1218.58   33.40
  -2  -1  -4 1176.98   34.10
  -2  -1  -4 1114.69   32.80
  -2  -1  -4 1138.79   31.30
  -2  -1  -4 1198.68   34.50
  -2  -1  -4 1167.18   33.20
  -2  -1  -4 1202.28   33.30
   2   1   4 1196.68   31.60
   2   1   4 1154.08   33.80
   2   1   4 1209.48   33.00
   2   1   4 1173.78   32.70
   2   1   4 1178.68   32.90
   2   1   4 1139.39   33.80
   2   1   4 1178.08   32.70
   2   1   4 1030.30   33.60
   2   1   4 1215.28   33.50
   2   1   4 1165.28   31.30
   2   1   4 1154.28   32.30
   2   1   4 1189.78   34.00
   2   1   4 1164.38   33.20
   2   1   4 1147.29   33.70
  -3  -1  -4 1307.37   38.20
  -3  -1  -4 1259.37   39.10
  -3  -1  -4 1317.67   40.00
  -3  -1  -4 1282.27   37.90
  -3  -1  -4 1328.07   38.30
  -3  -1  -4 1332.37   34.90
  -3  -1  -4 1401.56   38.40
  -3  -1  -4 1326.77   37.70
  -3  -1  -4 1400.36   39.80
   3   1   4 1273.17   38.20
   3   1   4 1307.97   37.60
   3   1   4 1349.56   38.50
   3   1   4 1328.77   37.40
   3   1   4 1317.37   34.90
   3   1   4 1344.17   38.90
   3   1   4 1332.87   37.30
   3   1   4 1221.58   36.40
   3   1   4 1352.76   36.70
   3   1   4 1283.57   38.40
   3   1   4 1311.17   36.80
   3   1   4 1281.97   38.20
  -4  -1  -4  189.98   10.40
  -4  -1  -4  193.08   10.90
  -4  -1  -4  182.28   11.30
  -4  -1  -4  190.48   10.10
  -4  -1  -4  200.28   12.00
  -4  -1  -4  206.28   13.10
   4   1   4  185.08    9.60
   4   1   4  193.78    9.20
   4   1   4  203.88   10.40
   4   1   4  202.58    8.80
   4   1   4  204.58   10.80
   4   1   4  191.08   10.10
   4   1   4  195.18    9.50
   4   1   4  189.18    9.20
   4   1   4  184.88    8.50
   4   1   4  181.78    9.60
  -5  -1  -4  847.42   29.10
  -5  -1  -4  847.12   30.40
  -5  -1  -4  896.51   29.60
  -5  -1  -4  871.11   31.20
  -5  -1  -4  872.11   33.00
   5   1   4  888.21   29.40
   5   1   4  879.91   28.20
   5   1   4  840.12   27.30
   5   1   4  839.32   25.50
   5   1   4  837.82   28.90
   5   1   4  780.32   25.40
   5   1   4  866.81   29.50
   5   1   4  807.52   26.30
  -6  -1  -4    1.80   10.30
  -6  -1  -4    7.30    7.60
  -6  -1  -4    1.20    6.10
  -6  -1  -4  -15.00    8.60
  -6  -1  -4    7.60    6.70
   6   1   4   -5.70    6.00
   6   1   4    0.20    4.70
   6   1   4    0.80    6.30
   6   1   4    7.30    6.90
   6   1   4    2.90    6.30
   6   1   4    3.50    5.60
   6  -2  -4   78.89    7.00
   6  -2  -4   76.89    8.50
   6  -2  -4   79.19    9.10
   6  -2  -4   78.99    9.10
   6  -2  -4  102.19   10.70
   6  -2  -4   88.39    8.50
   6  -2  -4   80.99    8.80
   6  -2  -4   78.69    9.00
   6  -2  -4   74.29    8.80
  -6   2   4   68.19   10.70
  -6   2   4   84.99   10.70
  -6   2   4   82.59    9.90
  -6   2   4   85.19   10.60
  -6   2   4   84.99   11.20
  -6   2   4   72.59    9.80
  -6   2   4   82.09   10.70
  -6   2   4   84.09   10.80
  -6   2   4   78.79   11.40
   5  -2  -4  823.92   25.40
   5  -2  -4  863.61   27.90
   5  -2  -4  858.51   28.30
   5  -2  -4  745.33   27.40
   5  -2  -4  853.31   27.40
   5  -2  -4  853.81   27.00
   5  -2  -4  857.21   27.40
  -5   2   4  831.82   28.90
  -5   2   4  843.52   29.40
  -5   2   4  824.62   27.60
  -5   2   4  874.51   31.50
  -5   2   4  820.22   30.30
  -5   2   4  836.02   29.60
  -5   2   4  846.12   28.80
   4  -2  -4  846.72   26.10
   4  -2  -4  830.82   26.60
   4  -2  -4  885.81   27.30
   4  -2  -4  797.92   25.90
   4  -2  -4  847.82   27.10
   4  -2  -4  850.41   26.50
  -4   2   4  826.12   26.10
  -4   2   4  858.21   28.00
  -4   2   4  839.32   28.70
  -4   2   4  811.42   29.10
  -4   2   4  839.92   27.80
  -4   2   4  864.71   28.00
  -4   2   4  819.62   24.50
  -4   2   4  837.82   27.40
  -4   2   4  808.92   23.60
   3  -2  -4  734.13   23.30
   3  -2  -4  700.13   22.20
   3  -2  -4  732.33   23.00
   3  -2  -4  727.23   22.30
   3  -2  -4  732.33   22.60
   3  -2  -4  717.23   23.10
   3  -2  -4  712.83   22.80
  -3   2   4  709.43   24.20
  -3   2   4  753.72   23.80
  -3   2   4  716.43   21.30
  -3   2   4  717.43   20.80
  -3   2   4  711.53   23.20
  -3   2   4  719.03   25.00
  -3   2   4  732.63   24.20
  -3   2   4  736.33   20.40
  -3   2   4  724.13   21.90
  -3   2   4  718.63   23.60
   2  -2  -4 2257.87   62.29
   2  -2  -4 2268.47   61.79
   2  -2  -4 2265.17   61.79
   2  -2  -4 2273.77   62.29
   2  -2  -4 2343.67   60.69
   2  -2  -4 2291.77   62.19
   2  -2  -4 2338.07   62.49
   2  -2  -4 2307.47   61.59
  -2   2   4 2310.37   62.19
  -2   2   4 2309.67   60.69
  -2   2   4 2301.47   63.19
  -2   2   4 2295.67   62.69
  -2   2   4 2271.97   62.59
  -2   2   4 2314.67   61.49
  -2   2   4 2269.67   63.59
  -2   2   4 2336.07   61.39
  -2   2   4 2285.07   63.99
  -2   2   4 2331.87   61.19
   1  -2  -4   26.70    3.40
   1  -2  -4   25.90    3.40
   1  -2  -4   26.70    2.00
   1  -2  -4   23.90    3.10
   1  -2  -4   24.40    3.10
   1  -2  -4   24.80    3.10
   1  -2  -4   26.00    3.10
   1  -2  -4   28.70    3.40
   1  -2  -4   24.70    3.50
   1  -2  -4   27.00    3.10
   1  -2  -4   25.70    3.00
  -1   2   4   27.50    4.20
  -1   2   4   29.00    3.70
  -1   2   4   26.90    3.60
  -1   2   4   24.40    3.20
  -1   2   4   26.50    3.40
  -1   2   4   22.90    3.30
  -1   2   4   25.20    3.00
  -1   2   4   26.50    3.30
  -1   2   4   19.30    3.00
  -1   2   4   29.90    3.30
  -1   2   4   25.80    3.60
  -1   2   4   27.90    2.00
   0  -2  -4   77.59    4.70
   0  -2  -4   75.29    4.10
   0  -2  -4   71.29    3.40
   0  -2  -4   68.39    4.40
   0  -2  -4   62.79    4.60
   0  -2  -4   66.89    4.00
   0  -2  -4   68.99    4.30
   0  -2  -4   69.49    4.70
   0  -2  -4   64.99    4.40
   0  -2  -4   78.99    5.00
   0  -2  -4   70.59    4.50
   0   2   4   74.89    5.00
   0   2   4   69.79    4.40
   0   2   4   75.59    4.20
   0   2   4   73.49    3.80
   0   2   4   68.49    4.80
   0   2   4   75.49    5.10
   0   2   4   69.89    4.70
   0   2   4   68.39    4.50
   0   2   4   79.29    5.20
   0   2   4   72.79    4.50
   0   2   4   77.99    4.70
   0   2   4   71.39    4.40
  -1  -2  -4 1889.41   53.49
  -1  -2  -4 2016.00   53.69
  -1  -2  -4 2006.30   52.39
  -1  -2  -4 1941.41   52.59
  -1  -2  -4 1964.40   52.99
  -1  -2  -4 1962.90   53.69
  -1  -2  -4 1924.01   52.79
  -1  -2  -4 1928.51   51.69
  -1  -2  -4 1947.01   51.69
   1   2   4 2018.60   51.29
   1   2   4 1963.80   52.89
   1   2   4 1969.00   53.09
   1   2   4 1947.71   54.39
   1   2   4 1987.10   52.49
   1   2   4 1984.70   53.69
   1   2   4 1929.11   53.09
   1   2   4 2030.70   52.69
   1   2   4 1948.71   54.09
   1   2   4 1934.31   54.39
   1   2   4 1961.60   53.89
   1   2   4 2017.60   52.69
   1   2   4 1921.41   53.49
  -2  -2  -4  412.26   13.70
  -2  -2  -4  417.46   12.30
  -2  -2  -4  434.46   13.70
  -2  -2  -4  441.96   14.10
  -2  -2  -4  408.36   13.80
  -2  -2  -4  420.16   14.10
  -2  -2  -4  391.26   14.80
  -2  -2  -4  382.36   12.70
  -2  -2  -4  399.16   15.00
  -2  -2  -4  434.46   14.20
   2   2   4  407.36   15.10
   2   2   4  418.96   13.20
   2   2   4  409.86   15.20
   2   2   4  430.96   12.70
   2   2   4  396.06   15.00
   2   2   4  410.26   13.50
   2   2   4  411.56   14.00
   2   2   4  410.16   14.70
   2   2   4  448.96   14.50
   2   2   4  397.86   14.50
   2   2   4  425.16   12.70
   2   2   4  432.36   13.30
  -3  -2  -4  964.80   34.00
  -3  -2  -4 1148.19   33.20
  -3  -2  -4 1141.69   34.60
  -3  -2  -4 1203.48   33.40
  -3  -2  -4 1131.29   34.20
  -3  -2  -4 1119.59   32.80
  -3  -2  -4 1138.79   33.30
  -3  -2  -4 1155.38   33.30
  -3  -2  -4 1134.09   30.10
  -3  -2  -4 1150.18   35.00
   3   2   4 1129.99   31.50
   3   2   4 1178.98   34.10
   3   2   4 1112.89   32.30
   3   2   4 1170.88   34.80
   3   2   4 1096.39   34.70
   3   2   4 1121.79   33.40
   3   2   4 1144.19   33.00
   3   2   4 1136.69   31.60
   3   2   4 1118.79   34.40
   3   2   4 1128.19   32.50
  -4  -2  -4  704.43   25.60
  -4  -2  -4  728.93   26.40
  -4  -2  -4  717.83   23.80
  -4  -2  -4  714.43   24.10
  -4  -2  -4  765.62   26.00
   4   2   4  746.53   23.50
   4   2   4  680.63   25.10
   4   2   4  725.83   22.90
   4   2   4  703.83   24.80
   4   2   4  701.83   24.10
   4   2   4  701.83   24.90
   4   2   4  699.23   22.60
  -5  -2  -4   29.30    6.30
  -5  -2  -4   15.10    5.10
  -5  -2  -4   12.80    5.90
  -5  -2  -4   25.80    6.30
  -5  -2  -4    9.50    7.10
  -5  -2  -4    5.80    7.80
   5   2   4   26.10    6.90
   5   2   4   25.20    6.00
   5   2   4   19.80    6.00
   5   2   4   25.00    5.30
   5   2   4   26.20    5.20
   5   2   4   23.20    6.30
   6  -3  -4  867.51   27.20
   6  -3  -4  800.22   30.40
   6  -3  -4  791.42   29.70
   6  -3  -4  831.52   29.10
   6  -3  -4  841.82   29.20
   6  -3  -4  807.32   28.50
   6  -3  -4  827.62   29.20
   6  -3  -4  839.42   28.90
  -6   3   4  853.51   31.30
  -6   3   4  841.82   31.50
  -6   3   4  880.21   32.80
  -6   3   4  844.92   34.50
  -6   3   4  806.62   28.40
  -6   3   4  897.71   32.50
  -6   3   4  868.11   30.70
  -6   3   4  846.12   34.10
  -6   3   4  876.51   33.50
   5  -3  -4  430.36   16.90
   5  -3  -4  450.65   18.60
   5  -3  -4  435.86   17.60
   5  -3  -4  412.46   16.10
   5  -3  -4  429.26   17.30
   5  -3  -4  415.56   17.90
   5  -3  -4  430.26   17.20
  -5   3   4  413.36   19.60
  -5   3   4  460.95   21.80
  -5   3   4  416.46   19.80
  -5   3   4  406.76   18.50
  -5   3   4  444.16   17.50
  -5   3   4  425.36   20.70
  -5   3   4  429.06   19.10
  -5   3   4  435.66   19.60
   4  -3  -4  479.05   17.40
   4  -3  -4  497.05   18.80
   4  -3  -4  500.15   18.20
   4  -3  -4  478.65   17.50
   4  -3  -4  488.05   17.60
   4  -3  -4  482.75   18.40
   4  -3  -4  465.75   17.70
  -4   3   4  509.85   17.70
  -4   3   4  497.45   16.60
  -4   3   4  503.65   20.60
  -4   3   4  490.15   19.90
  -4   3   4  487.85   19.90
  -4   3   4  492.95   21.00
  -4   3   4  487.95   19.40
  -4   3   4  482.15   20.20
   3  -3  -4  620.84   21.20
   3  -3  -4  634.74   20.30
   3  -3  -4  629.44   20.90
   3  -3  -4  650.03   21.30
   3  -3  -4  636.54   21.00
  -3   3   4  647.94   19.90
  -3   3   4  597.54   19.70
  -3   3   4  640.44   21.90
  -3   3   4  594.34   22.40
  -3   3   4  634.34   19.70
  -3   3   4  627.94   21.40
  -3   3   4  618.24   22.30
  -3   3   4  648.74   23.70
  -3   3   4  622.74   23.10
  -3   3   4  625.44   22.30
  -3   3   4  634.14   20.10
   2  -3  -4  307.47   11.40
   2  -3  -4  314.37   12.00
   2  -3  -4  314.47   12.00
   2  -3  -4  320.27   12.20
   2  -3  -4  315.67   12.10
   2  -3  -4  305.67   11.90
  -2   3   4  277.87   10.80
  -2   3   4  306.17   12.60
  -2   3   4  305.07   11.60
  -2   3   4  304.97   12.70
  -2   3   4  300.97   13.40
  -2   3   4  316.77   11.90
  -2   3   4  305.77   13.60
  -2   3   4  304.37   10.20
  -2   3   4  294.77   12.40
  -2   3   4  303.17   13.70
  -2   3   4  301.17   12.00
   1  -3  -4  581.94   17.60
   1  -3  -4  553.24   16.50
   1  -3  -4  559.84   17.50
   1  -3  -4  565.54   18.20
   1  -3  -4  550.54   17.50
   1  -3  -4  532.95   17.60
   1  -3  -4  542.85   17.00
   1  -3  -4  558.24   17.40
  -1   3   4  540.05   17.80
  -1   3   4  561.64   18.90
  -1   3   4  530.35   17.80
  -1   3   4  517.95   16.50
  -1   3   4  521.65   17.50
  -1   3   4  562.74   19.60
  -1   3   4  539.45   18.60
  -1   3   4  512.85   17.70
  -1   3   4  555.34   17.80
  -1   3   4  492.35   18.80
  -1   3   4  524.05   17.80
  -1   3   4  532.75   17.10
  -1   3   4  540.45   15.50
  -1   3   4  567.64   16.80
   0  -3  -4 1434.06   38.90
   0  -3  -4 1412.36   39.10
   0  -3  -4 1443.36   39.80
   0  -3  -4 1375.66   39.00
   0  -3  -4 1414.26   40.10
   0  -3  -4 1419.86   39.50
   0  -3  -4 1392.26   38.40
   0  -3  -4 1382.86   37.70
   0  -3  -4 1429.56   37.70
   0  -3  -4 1424.06   39.00
   0   3   4 1397.96   40.60
   0   3   4 1399.56   39.00
   0   3   4 1440.16   38.90
   0   3   4 1354.66   36.90
   0   3   4 1402.46   40.20
   0   3   4 1425.16   39.00
   0   3   4 1431.16   38.40
   0   3   4 1400.26   39.20
   0   3   4 1408.46   41.10
   0   3   4 1355.56   40.20
   0   3   4 1418.56   38.90
   0   3   4 1393.36   40.90
   0   3   4 1451.45   38.80
  -1  -3  -4   27.90    4.10
  -1  -3  -4   37.70    3.90
  -1  -3  -4   38.50    3.80
  -1  -3  -4   29.90    4.10
  -1  -3  -4   32.00    3.50
  -1  -3  -4   24.00    3.60
  -1  -3  -4   35.10    4.00
   1   3   4   38.60    4.20
   1   3   4   28.70    4.10
   1   3   4   32.90    4.80
   1   3   4   35.20    5.30
   1   3   4   23.10    3.70
   1   3   4   31.80    4.40
   1   3   4   31.00    3.90
   1   3   4   45.40    4.90
   1   3   4   27.20    3.20
  -2  -3  -4   54.09    5.50
  -2  -3  -4   61.19    5.10
  -2  -3  -4   66.39    6.00
  -2  -3  -4   59.09    4.70
  -2  -3  -4   62.19    5.20
  -2  -3  -4   62.09    5.00
  -2  -3  -4   59.89    4.60
  -2  -3  -4   60.29    5.70
  -2  -3  -4   56.39    6.40
   2   3   4   69.59    4.80
   2   3   4   61.19    4.60
   2   3   4   61.69    5.20
   2   3   4   57.99    5.90
   2   3   4   45.50    5.70
   2   3   4   67.39    6.00
   2   3   4   62.09    6.10
   2   3   4   51.29    6.20
   2   3   4   64.79    5.40
   2   3   4   53.79    6.10
  -3  -3  -4 1051.09   31.60
  -3  -3  -4 1110.59   31.50
  -3  -3  -4 1081.79   31.40
  -3  -3  -4  904.51   30.70
  -3  -3  -4 1031.60   31.30
  -3  -3  -4 1041.00   33.00
  -3  -3  -4 1070.29   31.20
  -3  -3  -4  896.81   32.10
  -3  -3  -4 1045.30   28.50
  -3  -3  -4 1130.49   31.50
  -3  -3  -4 1095.69   33.50
   3   3   4 1086.49   34.40
   3   3   4 1065.39   32.10
   3   3   4 1059.69   33.80
   3   3   4 1166.28   33.40
   3   3   4 1089.59   33.90
   3   3   4 1094.59   33.30
   3   3   4 1057.99   30.40
  -4  -3  -4  154.78    9.70
  -4  -3  -4  149.19    9.10
  -4  -3  -4  142.19   10.90
  -4  -3  -4  153.28    9.20
  -4  -3  -4  141.69   12.20
  -4  -3  -4  168.78   11.90
  -4  -3  -4  142.29   10.80
   4   3   4  158.08    9.40
   4   3   4  177.88   10.90
   4   3   4  141.59   10.70
   4   3   4  148.79    9.80
   4   3   4  142.29   11.30
   4   3   4  159.18   11.10
  -5  -3  -4  471.15   22.20
  -5  -3  -4  497.65   19.30
  -5  -3  -4  501.35   21.70
  -5  -3  -4  464.85   22.80
  -5  -3  -4  461.45   19.70
  -5  -3  -4  504.15   19.10
  -5  -3  -4  485.65   21.90
   5   3   4  485.35   20.90
   5   3   4  501.35   21.90
   5   3   4  488.65   21.90
   5   3   4  474.65   19.30
   5   3   4  423.56   21.70
   5   3   4  490.65   18.50
   6  -4  -4   84.89    9.60
  -6   4   4  123.29   14.30
   5  -4  -4  139.69   12.00
   5  -4  -4  153.38   11.60
   5  -4  -4  154.68   10.70
   5  -4  -4  165.28   11.30
   5  -4  -4  138.89   10.80
   5  -4  -4  124.69   10.00
   5  -4  -4  146.09   10.40
  -5   4   4  149.79   13.60
  -5   4   4  159.28   14.20
  -5   4   4  141.89   11.70
  -5   4   4  143.99   14.50
  -5   4   4  156.68   13.30
  -5   4   4  144.79   14.60
  -5   4   4  151.08   15.30
  -5   4   4  126.79   13.50
  -5   4   4  138.09    9.40
   4  -4  -4 1410.16   43.90
   4  -4  -4 1482.55   44.10
   4  -4  -4 1447.46   42.30
   4  -4  -4 1478.45   44.80
   4  -4  -4 1456.75   44.10
   4  -4  -4 1442.46   42.80
   4  -4  -4 1435.76   44.30
  -4   4   4 1459.95   46.80
  -4   4   4 1503.65   42.40
  -4   4   4 1425.66   45.00
  -4   4   4 1421.96   45.10
  -4   4   4 1512.45   46.90
  -4   4   4 1529.15   47.60
  -4   4   4 1470.55   47.80
  -4   4   4 1450.25   46.10
  -4   4   4 1516.35   43.20
   3  -4  -4   30.20    4.40
   3  -4  -4   27.80    4.90
   3  -4  -4   23.00    4.50
   3  -4  -4   29.40    4.30
   3  -4  -4   23.40    4.50
   3  -4  -4   32.10    5.20
  -3   4   4   26.90    5.30
  -3   4   4   24.70    5.50
  -3   4   4   23.70    5.10
  -3   4   4   32.80    5.00
  -3   4   4   23.00    5.60
  -3   4   4   32.90    5.10
  -3   4   4   21.00    5.30
  -3   4   4   26.60    4.20
  -3   4   4   30.50    4.70
  -3   4   4   23.60    5.50
  -3   4   4   31.70    6.10
   2  -4  -4 1473.65   42.30
   2  -4  -4 1469.25   42.40
   2  -4  -4 1511.35   43.30
   2  -4  -4 1555.04   43.20
   2  -4  -4 1496.05   43.70
   2  -4  -4 1525.55   43.20
  -2   4   4 1498.55   43.40
  -2   4   4 1508.95   43.40
  -2   4   4 1545.55   44.70
  -2   4   4 1404.86   42.50
  -2   4   4 1516.65   43.70
  -2   4   4 1443.56   40.10
  -2   4   4 1435.46   40.00
  -2   4   4 1469.55   43.30
  -2   4   4 1488.25   46.00
  -2   4   4 1502.15   45.40
  -2   4   4 1498.25   43.20
  -2   4   4 1479.05   43.50
  -2   4   4 1516.35   45.50
   1  -4  -4  364.16   12.80
   1  -4  -4  346.47   12.90
   1  -4  -4  342.57   12.90
   1  -4  -4  353.66   12.90
   1  -4  -4  348.37   13.80
   1  -4  -4  358.56   13.50
  -1   4   4  353.86   15.00
  -1   4   4  332.97   10.30
  -1   4   4  348.37   12.80
  -1   4   4  343.17   14.50
  -1   4   4  362.66   14.00
  -1   4   4  335.77   10.70
  -1   4   4  353.96   14.10
  -1   4   4  338.97   13.40
  -1   4   4  343.17   14.60
  -1   4   4  353.06   13.30
  -1   4   4  358.26   15.40
  -1   4   4  346.97   13.20
  -1   4   4  320.27   11.70
  -1   4   4  338.27   12.30
   0  -4  -4   90.49    6.70
   0  -4  -4   84.69    5.60
   0  -4  -4   98.99    5.90
   0  -4  -4   88.29    6.20
   0  -4  -4   90.39    5.90
   0  -4  -4   95.19    5.80
   0  -4  -4   85.39    5.70
   0  -4  -4   89.99    5.80
   0  -4  -4   84.79    6.60
   0  -4  -4   86.69    6.60
   0   4   4   95.89    7.50
   0   4   4   83.49    6.00
   0   4   4   99.49    7.30
   0   4   4   92.29    6.60
   0   4   4   84.39    6.80
   0   4   4   80.49    7.30
   0   4   4   96.59    6.70
   0   4   4   86.99    6.80
   0   4   4   77.39    4.70
   0   4   4   89.69    7.50
   0   4   4   90.89    5.10
  -1  -4  -4  233.38    9.30
  -1  -4  -4  241.98   10.60
  -1  -4  -4  231.58    9.80
  -1  -4  -4  233.68    9.30
  -1  -4  -4  232.98   10.70
  -1  -4  -4  231.38    9.50
   1   4   4  257.07   11.50
   1   4   4  239.48    9.50
   1   4   4  226.68   11.80
   1   4   4  252.07   11.50
   1   4   4  237.68   11.20
   1   4   4  222.58    8.30
   1   4   4  245.58   11.50
  -2  -4  -4  700.03   23.40
  -2  -4  -4  678.63   22.60
  -2  -4  -4  697.93   21.30
  -2  -4  -4  642.54   21.20
  -2  -4  -4  675.93   21.00
  -2  -4  -4  684.93   21.20
  -2  -4  -4  728.33   23.20
  -2  -4  -4  695.53   21.40
   2   4   4  692.03   24.20
   2   4   4  640.54   22.30
   2   4   4  704.83   23.80
   2   4   4  735.43   24.20
   2   4   4  739.93   22.60
   2   4   4  708.23   25.30
   2   4   4  677.23   21.60
   2   4   4  692.23   24.70
   2   4   4  685.23   24.90
  -3  -4  -4    3.10    3.10
  -3  -4  -4    0.40    4.40
  -3  -4  -4    1.30    4.00
  -3  -4  -4    4.40    4.40
  -3  -4  -4   -0.20    3.20
  -3  -4  -4    8.10    5.20
   3   4   4    3.20    4.00
   3   4   4   -3.80    4.80
   3   4   4    9.20    4.50
   3   4   4   -2.70    4.60
   3   4   4   -1.60    4.60
   3   4   4    6.50    4.50
   3   4   4    5.30    3.70
  -4  -4  -4  105.19    9.50
  -4  -4  -4   99.39    8.40
  -4  -4  -4  101.39   11.40
  -4  -4  -4  109.69    8.30
  -4  -4  -4  120.39   11.00
  -4  -4  -4   88.29   10.30
   4   4   4  118.39   11.80
   4   4   4  111.89   10.80
   4   4   4  121.99   10.10
   4   4   4  118.29   10.40
   4   4   4  105.59   12.00
   4   4   4  105.39   11.50
   5  -5  -4  713.53   26.70
   5  -5  -4  761.42   28.80
   5  -5  -4  694.83   27.10
   5  -5  -4  739.53   28.50
   5  -5  -4  711.93   27.40
   5  -5  -4  729.23   27.40
  -5   5   4  762.62   27.40
  -5   5   4  815.62   35.80
  -5   5   4  809.02   30.90
  -5   5   4  727.23   30.70
  -5   5   4  749.33   31.50
  -5   5   4  740.83   30.60
  -5   5   4  770.52   32.80
   4  -5  -4   82.39   10.20
   4  -5  -4   89.39    8.80
   4  -5  -4   85.69    9.80
   4  -5  -4   95.39   10.60
   4  -5  -4   98.09    8.80
   4  -5  -4   77.39   10.10
   4  -5  -4   85.69    9.60
  -4   5   4   75.09    9.20
  -4   5   4   84.09   10.10
  -4   5   4   96.59   11.80
  -4   5   4   75.69    8.60
  -4   5   4   85.59   11.10
  -4   5   4   79.99   11.10
  -4   5   4   79.79   11.00
  -4   5   4  100.39   11.40
  -4   5   4   81.49   10.80
   3  -5  -4  146.69   10.70
   3  -5  -4  150.38   10.00
   3  -5  -4  139.59    9.90
   3  -5  -4  127.89    8.80
   3  -5  -4  120.69    9.70
   3  -5  -4  117.29    9.60
  -3   5   4  118.19   12.00
  -3   5   4  132.59    9.60
  -3   5   4  134.89    8.80
  -3   5   4  132.79   11.00
  -3   5   4  159.78   12.60
  -3   5   4   97.39   11.40
  -3   5   4  121.89    9.60
  -3   5   4  134.19   11.00
  -3   5   4  137.59   11.90
  -3   5   4  127.49   12.20
  -3   5   4  143.29   10.80
   2  -5  -4  729.73   23.90
   2  -5  -4  669.03   23.50
   2  -5  -4  705.03   23.60
   2  -5  -4  708.43   22.90
   2  -5  -4  727.23   24.80
  -2   5   4  707.03   23.40
  -2   5   4  738.83   24.40
  -2   5   4  689.63   24.50
  -2   5   4  728.63   27.30
  -2   5   4  691.23   23.10
  -2   5   4  737.43   24.70
  -2   5   4  693.53   25.90
  -2   5   4  689.43   23.80
  -2   5   4  668.13   23.10
  -2   5   4  700.63   26.50
   1  -5  -4   14.20    4.60
   1  -5  -4    7.40    3.10
   1  -5  -4    5.30    3.80
   1  -5  -4    3.20    3.60
   1  -5  -4    7.00    3.30
   1  -5  -4    8.60    3.60
  -1   5   4    9.40    5.00
  -1   5   4   10.60    4.20
  -1   5   4    4.50    4.50
  -1   5   4    6.40    3.80
  -1   5   4    4.50    4.60
  -1   5   4   10.40    3.80
  -1   5   4    4.70    4.10
  -1   5   4   15.90    4.40
  -1   5   4   10.10    4.40
   0  -5  -4  501.35   18.70
   0  -5  -4  429.46   21.10
   0  -5  -4  501.85   16.10
   0  -5  -4  489.15   16.50
   0  -5  -4  512.65   17.80
   0  -5  -4  504.05   17.00
   0  -5  -4  492.15   16.60
   0   5   4  522.35   20.80
   0   5   4  497.85   16.90
   0   5   4  503.25   20.10
   0   5   4  521.95   19.60
   0   5   4  508.15   19.30
   0   5   4  502.55   19.40
   0   5   4  462.95   17.80
   0   5   4  474.05   15.60
  -1  -5  -4   63.19    6.90
  -1  -5  -4   63.89    5.70
  -1  -5  -4   64.89    7.50
  -1  -5  -4   73.89    8.00
  -1  -5  -4   63.39    5.60
  -1  -5  -4   56.29    6.40
  -1  -5  -4   67.09    6.70
   1   5   4   51.29    7.50
   1   5   4   62.49    8.20
   1   5   4   65.29    7.90
   1   5   4   64.69    5.70
   1   5   4   68.79    7.70
   1   5   4   64.79    7.90
  -2  -5  -4   60.79    7.50
  -2  -5  -4   78.59    7.90
  -2  -5  -4   63.29    8.00
  -2  -5  -4   61.49    5.70
  -2  -5  -4   54.29    7.50
  -2  -5  -4   71.39    6.10
   2   5   4   62.09    6.90
   2   5   4   69.29    8.60
   2   5   4   72.29    8.90
   2   5   4   75.69    9.70
   2   5   4   49.40    7.10
  -3  -5  -4  155.28    8.90
  -3  -5  -4  145.99   11.90
  -3  -5  -4  144.89   11.00
  -3  -5  -4  178.68   11.90
  -3  -5  -4  159.28    8.90
   3   5   4  158.18   12.70
   3   5   4  159.78   13.60
   3   5   4  174.78   13.70
   3   5   4  148.29   11.80
   3   5   4  154.08   12.20
   3   5   4  153.28    9.20
   3   5   4  150.38   13.70
  -4  -5  -4  418.96   20.20
  -4  -5  -4  433.16   16.70
  -4  -5  -4  452.75   21.10
  -4  -5  -4  473.05   17.50
   4   5   4  441.96   19.90
   4   5   4  439.46   23.20
   4   5   4  511.95   21.50
   4   5   4  424.26   21.80
   4   5   4  389.76   22.20
   4   5   4  463.45   22.80
   4  -6  -4  368.26   19.50
   4  -6  -4  400.56   18.70
   4  -6  -4  402.06   17.40
   4  -6  -4  369.86   18.80
   4  -6  -4  335.27   18.30
  -4   6   4  392.96   21.80
  -4   6   4  356.46   22.20
  -4   6   4  419.16   22.50
  -4   6   4  386.26   18.80
  -4   6   4  405.46   22.90
  -4   6   4  369.96   21.00
  -4   6   4  393.76   20.90
  -4   6   4  399.76   23.90
   3  -6  -4  903.61   30.20
   3  -6  -4  886.01   30.40
   3  -6  -4  871.61   30.30
   3  -6  -4  837.22   31.50
   3  -6  -4  879.21   28.60
   3  -6  -4  838.02   30.70
  -3   6   4  826.32   30.90
  -3   6   4  861.91   30.10
  -3   6   4  858.41   30.80
  -3   6   4  914.21   31.10
  -3   6   4  914.71   30.00
  -3   6   4  908.11   30.60
  -3   6   4  952.40   34.90
  -3   6   4  907.31   34.30
  -3   6   4  939.21   34.10
   2  -6  -4   52.59    6.80
   2  -6  -4   45.70    6.50
   2  -6  -4   41.40    6.90
   2  -6  -4   39.80    6.10
   2  -6  -4   44.90    6.60
  -2   6   4   48.90    6.00
  -2   6   4   40.70    7.80
  -2   6   4   44.00    7.70
  -2   6   4   40.80    8.60
  -2   6   4   41.80    7.40
  -2   6   4   42.80    9.00
  -2   6   4   38.20    8.00
  -2   6   4   57.19    7.40
   1  -6  -4  313.67   13.60
   1  -6  -4  330.77   14.00
   1  -6  -4  320.27   14.20
   1  -6  -4  323.47   13.60
   1  -6  -4  309.67   15.50
  -1   6   4  292.57   13.00
  -1   6   4  308.17   17.60
  -1   6   4  315.47   15.70
  -1   6   4  295.87   15.70
  -1   6   4  289.67   16.40
  -1   6   4  285.97   15.10
   0  -6  -4  401.06   16.00
   0  -6  -4  385.36   14.90
   0  -6  -4  404.16   15.30
   0  -6  -4  363.76   13.30
   0  -6  -4  426.06   18.00
   0  -6  -4  400.86   16.00
   0   6   4  393.06   18.30
   0   6   4  405.86   18.40
   0   6   4  422.86   19.60
   0   6   4  373.96   14.40
   0   6   4  377.06   18.00
   0   6   4  385.86   16.20
   0   6   4  373.76   19.30
  -1  -6  -4   13.90    5.80
  -1  -6  -4   23.70    4.50
  -1  -6  -4   23.30    4.60
  -1  -6  -4   23.90    5.50
  -1  -6  -4   22.30    5.60
  -1  -6  -4   25.40    6.10
   1   6   4   22.90    8.20
   1   6   4   16.80    6.00
   1   6   4   10.80    6.60
   1   6   4   19.70    6.20
   1   6   4   19.70    6.50
  -2  -6  -4  211.38   10.00
  -2  -6  -4  224.78   10.70
  -2  -6  -4  224.48   13.30
  -2  -6  -4  230.38   13.00
  -2  -6  -4  247.88   14.60
   2   6   4  253.57   17.50
   2   6   4  229.88   13.40
   2   6   4  225.98   15.10
   2   6   4  206.68   12.60
   2   6   4  233.28   14.80
   2  -7  -4  528.95   21.50
   2  -7  -4  552.34   22.20
   2  -7  -4  539.75   24.70
   2  -7  -4  549.74   23.60
   2  -7  -4  516.95   20.50
   2  -7  -4  532.15   21.50
  -2   7   4  552.04   26.30
  -2   7   4  527.55   26.30
  -2   7   4  537.85   25.50
  -2   7   4  528.25   21.40
  -2   7   4  530.65   23.90
  -2   7   4  558.84   24.50
   1  -7  -4  334.87   16.30
   1  -7  -4  405.66   16.70
   1  -7  -4  358.66   19.10
   1  -7  -4  368.36   17.70
   1  -7  -4  400.16   16.90
  -1   7   4  416.66   22.50
  -1   7   4  421.56   21.40
  -1   7   4  358.66   20.20
  -1   7   4  381.56   20.10
  -1   7   4  377.96   19.00
   0  -7  -4  143.99   11.50
   0  -7  -4  124.59   12.90
   0  -7  -4  135.29   11.70
   0  -7  -4  143.09   10.20
   0  -7  -4  144.69   10.10
   0   7   4  143.19   14.80
   0   7   4  146.39   11.30
   0   7   4  148.89   14.60
   0   7   4  106.89   13.20
   0   7   4  102.29   11.60
  -1  -7  -4  122.69   11.70
  -1  -7  -4  148.49   14.10
   1   7   4  133.39   14.60
   1   7   4  140.99   15.30
   1   7   4  136.99   17.20
   1   7   4  125.29   14.60
   0   8  -5   11.60    7.40
   0   8  -5   25.80    8.80
   0   8  -5    7.60    7.40
   0   8  -5   22.10    7.70
   0   8  -5    8.80    8.70
   0  -8   5   13.80    6.20
   3   7  -5  309.97   17.30
   3   7  -5  278.47   18.60
  -3  -7   5  261.17   13.30
  -3  -7   5  263.17   12.90
  -3  -7   5  282.27   15.50
  -3  -7   5  264.67   11.80
   2   7  -5   52.29    8.60
   2   7  -5   52.09    8.40
   2   7  -5   66.89    9.60
   2   7  -5   57.79    8.40
  -2  -7   5   61.19    6.30
  -2  -7   5   71.99    9.10
  -2  -7   5   42.00    6.20
  -2  -7   5   45.60    6.70
   1   7  -5   18.60    7.10
   1   7  -5   21.80    5.80
   1   7  -5   21.10    6.50
   1   7  -5   13.90    6.50
   1   7  -5   26.20    6.20
   1   7  -5   15.20    6.30
  -1  -7   5   24.90    4.70
  -1  -7   5   19.60    4.70
  -1  -7   5   21.20    5.80
  -1  -7   5   27.70    4.50
  -1  -7   5   23.60    3.00
  -1  -7   5   21.80    5.20
   0   7  -5  327.47   16.40
   0   7  -5  311.47   16.10
   0   7  -5  289.37   16.70
   0   7  -5  309.57   17.80
   0   7  -5  284.77   14.30
   0   7  -5  335.47   17.10
   0  -7   5  301.67   11.50
   0  -7   5  333.57   13.90
   0  -7   5  316.47   12.60
   0  -7   5  294.47   11.00
   0  -7   5  310.97   14.80
   0  -7   5  304.67   12.40
  -1   7  -5  337.27   15.20
  -1   7  -5  375.76   19.50
  -1   7  -5  355.16   18.90
  -1   7  -5  345.07   17.60
  -1   7  -5  333.57   17.80
  -1   7  -5  356.76   18.30
   1  -7   5  338.77   13.90
   1  -7   5  343.77   13.80
   1  -7   5  357.66   13.80
   1  -7   5  322.67   16.10
   1  -7   5  351.96   13.50
   1  -7   5  345.17   12.40
   1  -7   5  348.57   15.20
  -2   7  -5   25.10    8.50
  -2   7  -5   23.00    7.50
  -2   7  -5   28.00    8.20
  -2   7  -5   19.70    7.30
  -2   7  -5   27.80    7.40
  -2   7  -5   43.70    6.90
   2  -7   5   16.30    5.30
   2  -7   5   16.10    4.60
   2  -7   5   29.00    5.70
   2  -7   5   21.70    5.10
   2  -7   5   18.00    5.80
   2  -7   5   24.90    5.90
   2  -7   5   10.50    4.80
  -3   7  -5  405.36   21.50
  -3   7  -5  341.77   22.10
  -3   7  -5  420.16   17.60
  -3   7  -5  406.46   23.20
  -3   7  -5  375.36   19.90
  -3   7  -5  415.86   20.90
   3  -7   5  397.06   15.00
   3  -7   5  364.36   18.50
   3  -7   5  326.07   16.50
   3  -7   5  387.06   17.40
   3  -7   5  398.56   17.40
   3  -7   5  408.46   17.10
   3  -7   5  349.77   16.90
   4   6  -5  166.58   13.80
   4   6  -5  135.69   12.00
   4   6  -5  159.88   13.20
   4   6  -5  141.19   13.10
   4   6  -5  142.79   14.90
  -4  -6   5  135.59   12.70
  -4  -6   5  134.19    9.20
  -4  -6   5  133.89   10.70
   3   6  -5  464.65   19.50
   3   6  -5  453.25   21.50
   3   6  -5  504.05   20.40
  -3  -6   5  463.05   17.90
  -3  -6   5  487.05   17.50
  -3  -6   5  507.95   16.20
  -3  -6   5  510.05   16.40
  -3  -6   5  496.85   16.50
   2   6  -5   36.90    6.30
   2   6  -5   33.10    6.80
   2   6  -5   41.50    6.90
   2   6  -5   33.50    6.20
  -2  -6   5   40.60    5.40
  -2  -6   5   33.80    4.40
  -2  -6   5   32.40    4.70
  -2  -6   5   36.60    4.60
  -2  -6   5   35.10    5.20
   1   6  -5  442.16   17.50
   1   6  -5  436.96   17.20
   1   6  -5  414.46   17.20
   1   6  -5  458.95   18.60
   1   6  -5  450.15   18.00
   1   6  -5  455.45   19.00
  -1  -6   5  417.26   14.40
  -1  -6   5  422.16   14.40
  -1  -6   5  426.36   16.10
  -1  -6   5  432.66   13.20
  -1  -6   5  417.86   15.30
  -1  -6   5  433.66   13.60
   0   6  -5  212.38   10.70
   0   6  -5  199.38   10.90
   0   6  -5  206.28   12.20
   0   6  -5  216.98   12.30
   0   6  -5  205.88   11.60
   0   6  -5  201.78   11.60
   0   6  -5  200.28   12.50
   0  -6   5  188.98   10.10
   0  -6   5  189.18    8.60
   0  -6   5  206.08    8.20
   0  -6   5  193.28    8.10
   0  -6   5  165.28    8.60
   0  -6   5  193.38   10.30
   0  -6   5  210.28    9.90
  -1   6  -5   48.60    5.40
  -1   6  -5   50.59    7.10
  -1   6  -5   50.09    6.10
  -1   6  -5   58.69    8.80
  -1   6  -5   46.80    7.00
  -1   6  -5   58.69    8.30
  -1   6  -5   48.70    7.60
   1  -6   5   48.30    8.20
   1  -6   5   49.99    5.80
   1  -6   5   46.90    4.90
   1  -6   5   61.49    5.70
   1  -6   5   38.50    5.80
   1  -6   5   58.39    5.40
   1  -6   5   45.90    5.50
   1  -6   5   51.89    5.50
  -2   6  -5  844.22   30.40
  -2   6  -5  838.72   31.60
  -2   6  -5  835.82   27.50
  -2   6  -5  843.62   27.40
  -2   6  -5  835.22   29.50
  -2   6  -5  862.81   25.10
  -2   6  -5  895.21   32.10
  -2   6  -5  886.91   30.20
   2  -6   5  829.92   24.80
   2  -6   5  847.52   26.20
   2  -6   5  848.42   27.00
   2  -6   5  855.21   27.10
   2  -6   5  835.42   26.70
   2  -6   5  830.12   27.30
   2  -6   5  874.61   28.90
  -3   6  -5  631.94   24.40
  -3   6  -5  646.44   28.10
  -3   6  -5  635.24   25.90
  -3   6  -5  630.04   22.70
  -3   6  -5  624.24   22.10
  -3   6  -5  619.34   27.10
  -3   6  -5  631.64   24.40
   3  -6   5  636.74   23.90
   3  -6   5  596.74   22.20
   3  -6   5  630.44   22.10
   3  -6   5  631.54   20.60
   3  -6   5  582.24   19.90
   3  -6   5  609.14   21.90
   3  -6   5  603.24   22.50
   3  -6   5  641.64   21.40
  -4   6  -5  153.58   13.20
  -4   6  -5  170.08   16.00
  -4   6  -5  164.68   15.00
  -4   6  -5  180.68   18.30
  -4   6  -5  177.58   13.60
  -4   6  -5  205.88   14.50
  -4   6  -5  116.39   16.60
  -4   6  -5  151.58   14.20
   4  -6   5  154.68   12.10
   4  -6   5  159.58   11.00
   4  -6   5  156.98   11.40
   4  -6   5  164.98   12.40
   4  -6   5  174.08   10.50
   4  -6   5  164.28   12.50
   4  -6   5  182.68   11.50
   4  -6   5  142.99   10.60
   5   5  -5  760.52   28.50
   5   5  -5  777.82   27.50
   5   5  -5  752.42   26.90
   5   5  -5  765.12   31.90
   5   5  -5  771.72   28.40
  -5  -5   5  769.02   24.40
  -5  -5   5  782.12   27.20
  -5  -5   5  799.62   25.70
   4   5  -5  301.17   17.40
   4   5  -5  304.07   14.20
   4   5  -5  277.07   15.40
   4   5  -5  291.27   14.40
   4   5  -5  290.47   13.60
   4   5  -5  288.77   13.80
  -4  -5   5  285.97   10.90
  -4  -5   5  287.87   13.40
  -4  -5   5  285.07   12.10
  -4  -5   5  289.07   10.60
  -4  -5   5  251.67    9.90
   3   5  -5  358.26   14.60
   3   5  -5  366.86   14.80
   3   5  -5  353.46   14.30
   3   5  -5  362.36   15.90
   3   5  -5  345.77   17.10
  -3  -5   5  345.17   12.10
  -3  -5   5  351.06   11.10
  -3  -5   5  372.56   13.70
  -3  -5   5  382.76   14.30
  -3  -5   5  347.97   11.40
  -3  -5   5  357.06   12.00
  -3  -5   5  350.96   11.60
  -3  -5   5  351.16   12.20
   2   5  -5  544.65   20.60
   2   5  -5  551.94   18.90
   2   5  -5  568.04   20.60
   2   5  -5  568.14   20.20
   2   5  -5  548.65   20.90
  -2  -5   5  555.94   16.40
  -2  -5   5  565.04   16.30
  -2  -5   5  547.65   17.80
  -2  -5   5  556.74   17.50
  -2  -5   5  580.24   18.90
  -2  -5   5  574.54   15.90
  -2  -5   5  560.84   16.60
   1   5  -5  636.24   22.00
   1   5  -5  627.84   21.30
   1   5  -5  622.94   20.90
   1   5  -5  595.34   20.90
   1   5  -5  626.14   21.80
   1   5  -5  608.54   22.00
  -1  -5   5  619.14   19.80
  -1  -5   5  597.44   17.10
  -1  -5   5  614.44   17.20
  -1  -5   5  619.34   17.80
  -1  -5   5  588.44   18.30
  -1  -5   5  632.14   19.40
  -1  -5   5  609.84   18.50
  -1  -5   5  611.24   18.30
  -1  -5   5  610.04   17.80
  -1  -5   5  631.64   17.70
  -1  -5   5  619.94   17.50
   0   5  -5   79.09    7.80
   0   5  -5   83.89    7.20
   0   5  -5   86.99    5.10
   0   5  -5   73.59    6.40
   0   5  -5   71.79    7.60
   0   5  -5   81.49    6.90
   0   5  -5   81.39    7.20
   0   5  -5   78.19    6.70
   0  -5   5   80.89    5.10
   0  -5   5   76.29    5.90
   0  -5   5   74.79    6.80
   0  -5   5   84.09    5.70
   0  -5   5   78.49    6.20
   0  -5   5   84.39    6.40
   0  -5   5   80.59    7.40
   0  -5   5   83.29    6.30
   0  -5   5   86.99    5.00
   0  -5   5   88.19    5.00
   0  -5   5   83.39    4.80
  -1   5  -5  902.11   30.40
  -1   5  -5  856.91   25.10
  -1   5  -5  916.51   29.40
  -1   5  -5  933.51   28.20
  -1   5  -5  886.61   30.60
  -1   5  -5  899.11   29.40
  -1   5  -5  907.21   29.00
  -1   5  -5  890.21   26.60
   1  -5   5  890.71   26.50
   1  -5   5  893.21   27.20
   1  -5   5  925.51   26.50
   1  -5   5  897.21   28.40
   1  -5   5  897.51   25.90
   1  -5   5  950.90   28.50
   1  -5   5  869.21   24.50
   1  -5   5  892.81   26.00
   1  -5   5  871.41   25.40
   1  -5   5  895.21   25.70
   1  -5   5  907.51   26.70
   1  -5   5  850.71   26.50
  -2   5  -5  275.57   13.30
  -2   5  -5  307.47   13.40
  -2   5  -5  281.97   14.10
  -2   5  -5  299.67   12.20
  -2   5  -5  278.37   15.40
  -2   5  -5  286.07   15.00
  -2   5  -5  271.67   12.50
  -2   5  -5  295.57   12.00
  -2   5  -5  265.07   13.10
   2  -5   5  282.27   11.70
   2  -5   5  274.17   11.80
   2  -5   5  279.37   11.20
   2  -5   5  280.17   11.70
   2  -5   5  289.27   12.70
   2  -5   5  293.27   11.30
   2  -5   5  270.87   11.40
   2  -5   5  267.57   14.70
   2  -5   5  299.17   10.30
  -3   5  -5    3.40    4.90
  -3   5  -5    6.90    5.30
  -3   5  -5    6.90    4.30
  -3   5  -5   13.60    4.90
  -3   5  -5   17.80    7.00
  -3   5  -5   -3.10    4.80
  -3   5  -5   11.50    4.40
  -3   5  -5    6.00    5.30
  -3   5  -5    5.20    4.70
  -3   5  -5   10.20    6.10
   3  -5   5   16.80    4.10
   3  -5   5   10.50    3.70
   3  -5   5    8.60    3.40
   3  -5   5   11.70    4.20
   3  -5   5   10.30    3.80
   3  -5   5    6.10    3.60
   3  -5   5   11.70    3.80
   3  -5   5    5.20    3.30
  -4   5  -5  848.22   30.30
  -4   5  -5  869.41   27.50
  -4   5  -5  892.01   32.60
  -4   5  -5  850.11   32.30
  -4   5  -5  891.11   30.10
  -4   5  -5  918.71   36.00
  -4   5  -5  882.01   34.40
  -4   5  -5  942.71   30.10
  -4   5  -5  886.91   31.80
   4  -5   5  881.51   27.60
   4  -5   5  887.51   26.40
   4  -5   5  886.21   29.10
   4  -5   5  899.81   28.50
   4  -5   5  901.31   28.20
   4  -5   5  910.51   27.90
   4  -5   5  849.81   29.80
   4  -5   5  866.81   30.10
   4  -5   5  906.21   30.00
  -5   5  -5  158.98   19.40
  -5   5  -5  118.59   13.70
  -5   5  -5  134.79   12.50
  -5   5  -5  134.99   15.50
  -5   5  -5  130.19   14.90
  -5   5  -5  128.99   17.70
  -5   5  -5  123.19   14.00
  -5   5  -5  144.09   11.30
  -5   5  -5  133.19   12.60
   5  -5   5  123.89    9.80
   5  -5   5  150.28   10.30
   5  -5   5  139.79   10.90
   5  -5   5  107.69   11.80
   5  -5   5  139.19   11.20
   5  -5   5  129.39   12.80
   5  -5   5  126.79   11.60
   5  -5   5  132.69   11.90
   5  -5   5  122.19   11.10
   5   4  -5  287.37   15.10
   5   4  -5  346.87   19.00
   5   4  -5  326.37   14.30
   5   4  -5  314.37   14.80
   5   4  -5  315.47   15.60
  -5  -4   5  338.57   16.30
  -5  -4   5  332.77   15.20
  -5  -4   5  318.67   13.70
  -5  -4   5  329.77   13.30
  -5  -4   5  321.27   13.00
   4   4  -5   -0.60    4.00
   4   4  -5    5.20    4.40
   4   4  -5    0.20    4.90
   4   4  -5    2.50    4.10
   4   4  -5    0.60    3.80
   4   4  -5   -0.20    4.40
  -4  -4   5   -0.30    3.20
  -4  -4   5    3.50    3.50
  -4  -4   5   -3.20    2.90
  -4  -4   5    0.20    2.40
  -4  -4   5   -1.70    4.60
  -4  -4   5    3.00    2.40
  -4  -4   5    5.00    2.90
   3   4  -5 1471.95   41.50
   3   4  -5 1468.75   42.50
   3   4  -5 1501.85   45.60
   3   4  -5 1492.45   42.70
   3   4  -5 1503.85   42.40
   3   4  -5 1494.65   44.00
  -3  -4   5 1576.74   40.50
  -3  -4   5 1465.45   40.10
  -3  -4   5 1461.85   40.80
  -3  -4   5 1569.64   42.30
  -3  -4   5 1529.15   42.80
  -3  -4   5 1504.15   40.20
  -3  -4   5 1317.47   39.60
  -3  -4   5 1470.15   40.30
  -3  -4   5 1512.15   40.30
   2   4  -5  177.48    9.20
   2   4  -5  169.98    9.70
   2   4  -5  171.38    8.30
   2   4  -5  164.28    9.60
   2   4  -5  161.58    9.20
   2   4  -5  165.88    7.90
   2   4  -5  155.38    6.90
  -2  -4   5  166.48    6.50
  -2  -4   5  174.58    6.60
  -2  -4   5  161.28    7.20
  -2  -4   5  170.48    5.90
  -2  -4   5  172.18    6.50
  -2  -4   5  174.68    6.80
  -2  -4   5  185.88    8.00
  -2  -4   5  164.78    5.60
  -2  -4   5  161.78    6.60
  -2  -4   5  164.48    6.50
  -2  -4   5  172.18    7.00
  -2  -4   5  166.88    6.00
  -2  -4   5  161.78    7.70
   1   4  -5  758.82   22.00
   1   4  -5  745.73   23.80
   1   4  -5  738.03   24.40
   1   4  -5  734.23   23.60
   1   4  -5  760.42   24.20
   1   4  -5  770.92   24.80
   1   4  -5  781.42   23.90
  -1  -4   5  741.43   21.00
  -1  -4   5  735.33   20.90
  -1  -4   5  750.52   21.50
  -1  -4   5  751.12   21.20
  -1  -4   5  732.33   20.50
  -1  -4   5  747.23   20.20
  -1  -4   5  742.83   20.90
  -1  -4   5  734.03   20.40
  -1  -4   5  701.33   22.10
  -1  -4   5  741.33   21.40
  -1  -4   5  750.72   22.00
  -1  -4   5  768.12   22.30
   0   4  -5  324.67   13.10
   0   4  -5  305.47    9.80
   0   4  -5  339.77   14.30
   0   4  -5  329.57   11.00
   0   4  -5  336.27   11.90
   0   4  -5  332.87   13.00
   0   4  -5  331.27   13.00
   0   4  -5  353.96   14.00
   0   4  -5  334.87   13.30
   0  -4   5  350.96   12.30
   0  -4   5  341.97   11.00
   0  -4   5  340.57   12.10
   0  -4   5  343.47   11.10
   0  -4   5  344.87   11.20
   0  -4   5  316.47   11.80
   0  -4   5  324.47   10.20
   0  -4   5  332.07   11.70
   0  -4   5  337.47   10.30
   0  -4   5  331.77   12.30
  -1   4  -5  347.47   15.20
  -1   4  -5  309.67   10.30
  -1   4  -5  344.87   11.50
  -1   4  -5  316.97   13.10
  -1   4  -5  330.67   11.90
  -1   4  -5  325.47   12.20
  -1   4  -5  336.97   11.80
  -1   4  -5  334.97   13.30
  -1   4  -5  344.47   14.80
  -1   4  -5  337.57   13.80
  -1   4  -5  278.47   11.20
  -1   4  -5  323.77   13.00
   1  -4   5  333.67   11.80
   1  -4   5  334.67   13.00
   1  -4   5  340.97   12.00
   1  -4   5  328.87   10.40
   1  -4   5  341.77   11.90
   1  -4   5  342.37   12.00
   1  -4   5  333.17   11.00
   1  -4   5  330.57   12.60
   1  -4   5  335.37   11.60
   1  -4   5  335.37   13.50
   1  -4   5  345.17    9.90
  -2   4  -5  322.67   13.10
  -2   4  -5  301.97   12.90
  -2   4  -5  316.77   11.70
  -2   4  -5  310.47   14.60
  -2   4  -5  306.87   13.90
  -2   4  -5  307.27   12.30
  -2   4  -5  296.07   12.60
  -2   4  -5  307.07   15.40
  -2   4  -5  320.47   13.30
   2  -4   5  315.47   12.60
   2  -4   5  322.27   12.20
   2  -4   5  319.97   12.20
   2  -4   5  321.47   11.30
   2  -4   5  310.07   14.40
   2  -4   5  317.87   11.70
   2  -4   5  297.07   10.50
   2  -4   5  307.97   11.70
   2  -4   5  335.87   10.60
   2  -4   5  255.17   11.90
  -3   4  -5 1402.86   42.60
  -3   4  -5 1381.46   42.30
  -3   4  -5 1375.26   40.70
  -3   4  -5 1394.76   41.90
  -3   4  -5 1367.06   40.50
  -3   4  -5 1283.17   36.50
  -3   4  -5 1351.16   43.40
  -3   4  -5 1339.27   44.50
  -3   4  -5 1377.06   40.30
   3  -4   5 1370.26   40.10
   3  -4   5 1387.26   39.10
   3  -4   5 1411.76   38.50
   3  -4   5 1388.76   38.40
   3  -4   5 1336.67   40.30
   3  -4   5 1355.86   40.50
   3  -4   5 1334.47   38.80
   3  -4   5 1357.46   37.30
   3  -4   5 1325.57   39.50
  -4   4  -5   37.90    5.70
  -4   4  -5   50.19    7.20
  -4   4  -5   42.00    7.30
  -4   4  -5   45.40    8.40
  -4   4  -5   38.00    7.70
  -4   4  -5   33.20    8.60
  -4   4  -5   49.50    6.60
  -4   4  -5   46.60    7.30
  -4   4  -5   36.60    6.00
  -4   4  -5   39.20    7.50
   4  -4   5   48.20    5.50
   4  -4   5   51.39    6.20
   4  -4   5   46.70    6.00
   4  -4   5   45.10    6.20
   4  -4   5   48.60    5.60
   4  -4   5   40.00    5.30
   4  -4   5   41.90    6.40
   4  -4   5   39.40    5.30
   4  -4   5   57.89    6.50
  -5   4  -5  260.97   13.70
  -5   4  -5  241.78   16.70
  -5   4  -5  265.27   16.90
  -5   4  -5  281.17   21.10
  -5   4  -5  255.97   16.20
  -5   4  -5  279.37   14.00
  -5   4  -5  292.47   19.50
  -5   4  -5  268.67   13.20
  -5   4  -5  262.67   18.00
  -5   4  -5  268.77   16.60
   5  -4   5  264.67   12.30
   5  -4   5  264.37   13.70
   5  -4   5  287.07   13.70
   5  -4   5  270.27   13.90
   5  -4   5  292.67   13.50
   5  -4   5  267.57   11.70
   5  -4   5  275.97   13.70
   5  -4   5  256.17   14.90
   5  -4   5  245.38   14.70
   6   3  -5  524.75   20.60
   6   3  -5  482.05   21.00
   6   3  -5  469.95   20.80
   6   3  -5  470.85   24.30
  -6  -3   5  535.45   21.70
  -6  -3   5  509.95   23.10
  -6  -3   5  518.75   20.00
  -6  -3   5  512.25   20.30
  -6  -3   5  449.76   19.50
   5   3  -5   97.79    8.10
   5   3  -5   96.49    7.80
   5   3  -5  104.79    8.70
   5   3  -5  102.39   11.20
   5   3  -5   91.59    8.60
  -5  -3   5  110.49    7.90
  -5  -3   5   99.29    7.50
  -5  -3   5   87.19    8.30
  -5  -3   5   97.79   10.20
  -5  -3   5   96.19    7.80
   4   3  -5 1291.67   37.70
   4   3  -5 1281.97   38.70
   4   3  -5 1269.87   36.80
   4   3  -5 1232.78   37.20
   4   3  -5 1270.67   40.70
   4   3  -5 1252.27   36.10
   4   3  -5 1219.88   34.70
  -4  -3   5 1261.97   36.50
  -4  -3   5 1291.07   37.90
  -4  -3   5 1267.27   34.20
  -4  -3   5 1325.17   37.20
  -4  -3   5 1277.97   36.30
  -4  -3   5 1317.57   36.20
  -4  -3   5 1246.78   36.30
   3   3  -5   71.19    5.80
   3   3  -5   80.49    5.60
   3   3  -5   72.49    5.30
   3   3  -5   70.09    4.50
   3   3  -5   70.99    6.90
   3   3  -5   81.79    6.50
   3   3  -5   76.89    5.60
  -3  -3   5   71.19    5.10
  -3  -3   5   69.99    4.90
  -3  -3   5   76.19    5.60
  -3  -3   5   69.49    4.10
  -3  -3   5   77.39    4.80
  -3  -3   5   72.99    4.30
  -3  -3   5   72.99    4.30
  -3  -3   5   68.59    5.10
  -3  -3   5   69.99    5.30
   2   3  -5  225.18    7.70
   2   3  -5  221.98   10.60
   2   3  -5  222.48   10.20
   2   3  -5  224.98    9.90
   2   3  -5  233.78    7.90
   2   3  -5  223.38    8.70
   2   3  -5  226.98   10.60
   2   3  -5  230.48    8.30
  -2  -3   5  223.28    8.10
  -2  -3   5  238.68    9.20
  -2  -3   5  231.58    7.80
  -2  -3   5  232.88    8.20
  -2  -3   5  243.48    8.20
  -2  -3   5  235.38    8.20
  -2  -3   5  223.18    7.20
  -2  -3   5  230.88    8.10
  -2  -3   5  220.08    8.60
  -2  -3   5  218.08    8.20
  -2  -3   5  228.18    8.90
   1   3  -5 1971.60   55.79
   1   3  -5 2030.30   56.09
   1   3  -5 2071.09   54.59
   1   3  -5 1996.60   53.59
   1   3  -5 2156.58   56.69
   1   3  -5 1891.91   53.49
   1   3  -5 2088.39   53.69
   1   3  -5 2070.09   56.99
   1   3  -5 2032.30   56.09
  -1  -3   5 2083.29   54.39
  -1  -3   5 2008.40   53.19
  -1  -3   5 2015.20   54.29
  -1  -3   5 2060.39   53.99
  -1  -3   5 2063.89   54.69
  -1  -3   5 2061.59   53.89
  -1  -3   5 2072.09   54.19
  -1  -3   5 1992.40   54.59
  -1  -3   5 2074.59   54.19
  -1  -3   5 2009.10   53.39
   0   3  -5  372.26   13.90
   0   3  -5  365.46   14.50
   0   3  -5  368.76   13.50
   0   3  -5  372.56   12.00
   0   3  -5  375.76   11.20
   0   3  -5  363.96   12.40
   0   3  -5  384.06   10.90
   0   3  -5  359.26   13.30
   0   3  -5  349.17   13.40
   0   3  -5  358.86   11.50
   0   3  -5  375.06   11.50
   0  -3   5  369.36   12.60
   0  -3   5  368.76   12.90
   0  -3   5  381.96   12.50
   0  -3   5  377.36   12.10
   0  -3   5  375.46   12.00
   0  -3   5  362.16   11.70
   0  -3   5  367.76   10.50
   0  -3   5  393.46   11.90
  -1   3  -5  317.57   10.10
  -1   3  -5  347.27   13.30
  -1   3  -5  319.07   12.50
  -1   3  -5  319.47   11.50
  -1   3  -5  327.57   11.80
  -1   3  -5  303.27   12.50
  -1   3  -5  314.77   11.10
  -1   3  -5  327.87   12.20
  -1   3  -5  312.57   11.60
  -1   3  -5  330.77   11.10
  -1   3  -5  316.07   10.90
  -1   3  -5  319.47   12.00
   1  -3   5  307.87   10.90
   1  -3   5  318.27   11.30
   1  -3   5  286.57   11.30
   1  -3   5  322.07    9.40
   1  -3   5  305.17   12.00
   1  -3   5  322.97   11.10
   1  -3   5  320.07    9.30
   1  -3   5  316.47   12.30
   1  -3   5  315.97   10.10
   1  -3   5  315.07   10.90
   1  -3   5  302.77   11.50
  -2   3  -5  367.56   14.50
  -2   3  -5  367.96   13.50
  -2   3  -5  366.66   13.20
  -2   3  -5  358.56   15.20
  -2   3  -5  384.36   13.60
  -2   3  -5  347.67   10.90
  -2   3  -5  357.46   16.10
  -2   3  -5  364.36   10.90
  -2   3  -5  375.56   13.40
  -2   3  -5  372.26   14.40
   2  -3   5  367.66   13.40
   2  -3   5  360.06   13.20
   2  -3   5  354.66   13.00
   2  -3   5  372.26   12.50
   2  -3   5  361.86   10.80
   2  -3   5  365.36   14.80
   2  -3   5  369.26   12.90
   2  -3   5  362.86   11.70
   2  -3   5  360.36   12.20
   2  -3   5  368.66   11.70
  -3   3  -5  669.03   21.10
  -3   3  -5  651.63   22.50
  -3   3  -5  661.93   23.50
  -3   3  -5  653.73   22.90
  -3   3  -5  641.94   20.00
  -3   3  -5  655.83   21.50
  -3   3  -5  657.03   22.40
  -3   3  -5  664.93   25.90
  -3   3  -5  695.23   21.60
  -3   3  -5  621.34   23.30
  -3   3  -5  654.63   24.40
   3  -3   5  657.63   20.30
   3  -3   5  658.13   20.70
   3  -3   5  693.43   21.90
   3  -3   5  679.43   20.50
   3  -3   5  670.83   19.40
   3  -3   5  680.93   22.10
   3  -3   5  665.43   21.80
   3  -3   5  675.93   20.50
   3  -3   5  657.23   21.40
  -4   3  -5   78.89    7.10
  -4   3  -5   90.99   10.10
  -4   3  -5   64.99    8.70
  -4   3  -5   67.79    8.20
  -4   3  -5   49.70    7.10
  -4   3  -5   79.19    7.10
  -4   3  -5   75.49    8.90
  -4   3  -5   72.09    8.10
  -4   3  -5   81.49   11.00
  -4   3  -5   78.39    6.80
   4  -3   5   86.09    6.90
   4  -3   5   71.89    5.70
   4  -3   5   69.09    6.60
   4  -3   5   78.89    5.40
   4  -3   5   83.99    7.00
   4  -3   5   87.49    7.30
   4  -3   5   75.39    6.70
   4  -3   5   69.79    7.20
   4  -3   5   86.69    6.70
  -5   3  -5  632.84   25.40
  -5   3  -5  666.63   25.40
  -5   3  -5  656.73   27.90
  -5   3  -5  618.94   23.80
  -5   3  -5  650.93   26.90
  -5   3  -5  672.53   22.20
  -5   3  -5  668.23   21.00
  -5   3  -5  669.13   25.80
  -5   3  -5  664.83   30.50
   5  -3   5  695.63   23.60
   5  -3   5  712.63   23.70
   5  -3   5  685.23   21.90
   5  -3   5  662.53   20.80
   5  -3   5  682.03   23.80
   5  -3   5  711.73   23.70
   5  -3   5  673.93   24.20
   5  -3   5  667.93   24.80
   6   2  -5   13.60    7.50
   6   2  -5   28.60    6.60
   6   2  -5   23.10    6.10
   6   2  -5   28.40    6.90
   6   2  -5   36.30    5.50
  -6  -2   5   25.10    7.60
  -6  -2   5   39.80    7.20
  -6  -2   5   27.10    6.60
  -6  -2   5   28.10    6.40
  -6  -2   5   22.40    6.30
  -6  -2   5   31.00    6.10
   5   2  -5  653.63   25.50
   5   2  -5  634.94   20.40
   5   2  -5  638.24   22.40
   5   2  -5  689.03   22.80
   5   2  -5  654.03   21.90
   5   2  -5  664.13   21.60
  -5  -2   5  651.03   22.30
  -5  -2   5  637.64   22.70
  -5  -2   5  647.54   22.30
  -5  -2   5  653.43   22.60
  -5  -2   5  657.73   23.80
   4   2  -5 1142.89   32.70
   4   2  -5 1113.09   31.80
   4   2  -5 1120.69   33.60
   4   2  -5 1067.39   30.20
   4   2  -5 1151.18   32.80
   4   2  -5 1067.29   29.60
   4   2  -5 1078.29   30.50
   4   2  -5 1134.19   35.50
   4   2  -5 1150.78   32.30
   4   2  -5 1071.19   30.70
  -4  -2   5  932.41   33.00
  -4  -2   5 1141.59   32.80
  -4  -2   5 1121.09   32.40
  -4  -2   5 1060.79   30.00
  -4  -2   5 1102.79   32.40
  -4  -2   5 1098.49   32.40
  -4  -2   5 1167.88   32.90
  -4  -2   5 1135.99   33.30
   3   2  -5  877.91   24.00
   3   2  -5  923.31   25.50
   3   2  -5  812.22   24.20
   3   2  -5  843.12   24.80
   3   2  -5  853.61   27.80
   3   2  -5  799.22   23.30
   3   2  -5  868.81   23.30
   3   2  -5  855.91   24.80
   3   2  -5  837.82   26.30
   3   2  -5  883.21   25.30
  -3  -2   5  848.02   25.10
  -3  -2   5  855.31   25.30
  -3  -2   5  888.11   26.10
  -3  -2   5  864.41   24.90
  -3  -2   5  879.71   24.00
  -3  -2   5  872.71   25.80
  -3  -2   5  845.92   23.80
  -3  -2   5  858.71   25.60
  -3  -2   5  858.71   24.40
  -3  -2   5  846.32   23.80
  -3  -2   5  901.51   25.30
   2   2  -5 2856.81   78.19
   2   2  -5 2980.60   77.39
   2   2  -5 3024.60   77.49
   2   2  -5 2865.11   74.59
   2   2  -5 2887.41   75.59
   2   2  -5 2864.51   74.69
   2   2  -5 2901.51   75.09
   2   2  -5 2923.91   78.19
   2   2  -5 2997.30   75.69
   2   2  -5 2917.41   74.99
   2   2  -5 2914.91   75.59
   2   2  -5 2890.51   75.29
  -2  -2   5 3037.10   75.99
  -2  -2   5 2830.62   75.29
  -2  -2   5 2575.44   75.89
  -2  -2   5 2857.11   75.89
  -2  -2   5 3015.10   75.99
  -2  -2   5 2949.90   75.99
  -2  -2   5 2866.61   75.89
  -2  -2   5 2424.96   75.19
  -2  -2   5 2868.01   75.99
  -2  -2   5 2853.21   75.89
  -2  -2   5 3009.80   76.69
   1   2  -5    8.40    1.80
   1   2  -5    8.40    1.70
   1   2  -5    8.90    2.40
   1   2  -5    8.70    2.00
   1   2  -5   11.70    1.60
   1   2  -5   10.70    1.80
   1   2  -5    9.60    2.40
   1   2  -5    7.50    2.20
   1   2  -5   11.10    2.40
   1   2  -5   10.60    2.00
   1   2  -5   10.70    2.00
   1   2  -5   14.60    3.30
   1   2  -5    9.50    2.50
  -1  -2   5    9.70    2.80
  -1  -2   5    8.80    1.90
  -1  -2   5    8.50    1.80
  -1  -2   5   10.30    1.90
  -1  -2   5   11.50    2.00
  -1  -2   5   13.50    2.50
  -1  -2   5    8.80    1.80
  -1  -2   5   13.90    2.80
  -1  -2   5    8.70    2.20
  -1  -2   5   12.00    2.00
  -1  -2   5   11.10    1.60
  -1  -2   5   10.00    1.90
   0   2  -5  400.16   12.90
   0   2  -5  380.86   12.70
   0   2  -5  418.76   13.20
   0   2  -5  423.96   12.50
   0   2  -5  401.86   11.40
   0   2  -5  394.26   13.40
   0   2  -5  401.46   12.90
   0   2  -5  411.36   13.90
   0   2  -5  421.56   13.60
   0   2  -5  399.76   14.50
   0   2  -5  407.16   12.60
   0   2  -5  415.96   11.30
   0   2  -5  402.16   13.80
   0  -2   5  402.06   13.30
   0  -2   5  396.36   12.40
   0  -2   5  408.56   12.60
   0  -2   5  375.36   14.20
   0  -2   5  408.86   11.50
   0  -2   5  388.06   13.80
   0  -2   5  402.66   12.50
   0  -2   5  415.26   13.00
   0  -2   5  407.56   13.60
   0  -2   5  395.36   12.40
   0  -2   5  403.76   12.70
   0  -2   5  378.36   13.60
  -1   2  -5 1400.26   41.00
  -1   2  -5 1368.76   39.70
  -1   2  -5 1390.56   39.10
  -1   2  -5 1408.06   38.50
  -1   2  -5 1443.46   39.10
  -1   2  -5 1364.16   39.30
  -1   2  -5 1395.86   36.80
  -1   2  -5 1335.57   36.70
  -1   2  -5 1431.86   38.30
  -1   2  -5 1379.76   37.60
  -1   2  -5 1365.66   38.80
   1  -2   5 1407.46   38.50
   1  -2   5 1381.76   36.70
   1  -2   5 1420.06   39.30
   1  -2   5 1387.56   38.30
   1  -2   5 1336.57   37.70
   1  -2   5 1417.86   39.00
   1  -2   5 1416.56   39.20
   1  -2   5 1361.76   38.20
   1  -2   5 1400.56   38.60
   1  -2   5 1420.46   38.90
   1  -2   5 1390.76   36.90
  -2   2  -5  107.09    6.80
  -2   2  -5   98.79    7.50
  -2   2  -5  105.09    7.20
  -2   2  -5  110.99    8.40
  -2   2  -5  105.09    6.50
  -2   2  -5  103.79    6.90
  -2   2  -5  102.89    6.20
  -2   2  -5  102.69    5.40
  -2   2  -5  102.99    5.10
  -2   2  -5  108.39    6.50
  -2   2  -5  112.59    5.90
  -2   2  -5  110.19    7.30
   2  -2   5  107.09    5.10
   2  -2   5  101.69    4.30
   2  -2   5  110.09    8.10
   2  -2   5  107.29    5.20
   2  -2   5  110.69    5.90
   2  -2   5  102.99    5.40
   2  -2   5  104.89    5.70
   2  -2   5  107.79    6.10
   2  -2   5  106.89    6.10
   2  -2   5   97.89    6.70
   2  -2   5  108.59    5.20
  -3   2  -5  815.12   27.60
  -3   2  -5  839.82   26.30
  -3   2  -5  818.62   27.10
  -3   2  -5  826.22   25.90
  -3   2  -5  812.22   26.50
  -3   2  -5  822.22   24.70
  -3   2  -5  852.01   23.50
  -3   2  -5  739.23   25.60
  -3   2  -5  815.32   29.30
   3  -2   5  798.92   24.50
   3  -2   5  814.32   25.50
   3  -2   5  830.12   25.10
   3  -2   5  839.42   25.50
   3  -2   5  822.62   25.10
   3  -2   5  828.22   23.60
   3  -2   5  826.42   23.50
   3  -2   5  825.92   24.40
  -4   2  -5  560.64   21.50
  -4   2  -5  555.54   20.70
  -4   2  -5  542.75   19.90
  -4   2  -5  556.74   20.90
  -4   2  -5  569.24   22.60
  -4   2  -5  548.55   20.20
  -4   2  -5  551.84   23.90
   4  -2   5  545.05   19.80
   4  -2   5  537.25   18.90
   4  -2   5  562.24   19.60
   4  -2   5  576.64   19.20
   4  -2   5  549.85   17.90
   4  -2   5  563.64   19.30
   4  -2   5  588.04   19.40
   4  -2   5  577.14   17.10
  -5   2  -5   75.99    8.80
  -5   2  -5   83.29    9.70
  -5   2  -5   93.59   10.50
  -5   2  -5   65.79    7.70
  -5   2  -5   94.49   12.10
  -5   2  -5   97.79   13.80
  -5   2  -5   82.29    9.30
   5  -2   5   73.99    7.90
   5  -2   5   78.39    8.10
   5  -2   5   67.59    5.70
   5  -2   5   63.79    7.20
   5  -2   5   73.39    9.30
   5  -2   5   68.29    7.50
   5  -2   5   77.49    7.50
   5  -2   5   73.79    8.10
  -6   2  -5  309.37   17.20
  -6   2  -5  283.27   21.50
  -6   2  -5  299.57   18.80
  -6   2  -5  328.87   24.70
  -6   2  -5  336.07   17.80
  -6   2  -5  289.47   17.70
  -6   2  -5  328.87   19.60
   6  -2   5  315.97   16.70
   6  -2   5  324.47   15.20
   6  -2   5  311.47   16.60
   6  -2   5  338.27   15.80
   6  -2   5  332.27   17.50
   6  -2   5  313.77   15.70
   6   1  -5  800.52   26.80
   6   1  -5  769.22   26.10
   6   1  -5  753.32   25.60
   6   1  -5  755.92   26.10
   6   1  -5  729.83   22.60
   6   1  -5  732.03   23.10
   6   1  -5  789.32   29.50
  -6  -1   5  757.22   25.30
  -6  -1   5  734.73   29.10
  -6  -1   5  748.33   26.90
  -6  -1   5  722.93   27.00
  -6  -1   5  745.83   27.20
  -6  -1   5  722.43   26.80
   5   1  -5  740.63   24.00
   5   1  -5  708.83   26.20
   5   1  -5  698.73   21.30
   5   1  -5  735.23   23.90
   5   1  -5  727.23   21.60
   5   1  -5  673.03   23.70
   5   1  -5  704.53   23.40
  -5  -1   5  727.33   24.60
  -5  -1   5  716.43   25.80
  -5  -1   5  699.13   23.50
  -5  -1   5  734.03   24.90
  -5  -1   5  695.13   24.10
  -5  -1   5  724.73   24.30
   4   1  -5  384.56   14.00
   4   1  -5  389.56   14.80
   4   1  -5  351.86   12.30
   4   1  -5  390.16   13.70
   4   1  -5  384.86   13.00
   4   1  -5  382.96   13.80
   4   1  -5  384.66   12.00
   4   1  -5  391.26   16.20
   4   1  -5  388.96   13.70
   4   1  -5  394.36   13.20
   4   1  -5  381.46   14.40
  -4  -1   5  390.46   14.40
  -4  -1   5  405.06   14.50
  -4  -1   5  384.26   14.60
  -4  -1   5  421.76   15.80
  -4  -1   5  381.56   14.70
  -4  -1   5  381.46   14.60
  -4  -1   5  396.16   12.70
   3   1  -5 1399.56   38.80
   3   1  -5 1405.56   41.30
   3   1  -5 1401.76   38.50
   3   1  -5 1431.96   38.60
   3   1  -5 1356.96   39.20
   3   1  -5 1237.38   37.70
   3   1  -5 1420.66   37.80
   3   1  -5 1459.55   39.00
   3   1  -5 1379.76   38.60
   3   1  -5 1490.35   39.80
   3   1  -5 1436.76   38.80
  -3  -1   5 1408.06   38.10
  -3  -1   5 1426.06   39.70
  -3  -1   5 1421.16   37.90
  -3  -1   5 1396.36   39.20
  -3  -1   5 1378.16   39.50
  -3  -1   5 1415.36   40.30
  -3  -1   5 1426.76   39.30
  -3  -1   5 1400.96   39.30
  -3  -1   5 1375.16   39.60
   2   1  -5  829.72   21.40
   2   1  -5  817.12   23.00
   2   1  -5  798.82   22.60
   2   1  -5  777.62   23.40
   2   1  -5  811.32   21.10
   2   1  -5  791.82   24.30
   2   1  -5  822.42   23.00
   2   1  -5  804.92   22.80
   2   1  -5  774.12   22.00
   2   1  -5  782.02   22.50
   2   1  -5  782.12   24.50
   2   1  -5  800.82   22.10
   2   1  -5  767.12   22.30
  -2  -1   5  783.32   23.00
  -2  -1   5  796.52   22.10
  -2  -1   5  805.32   22.90
  -2  -1   5  812.12   23.20
  -2  -1   5  792.62   23.40
  -2  -1   5  812.22   21.50
  -2  -1   5  669.13   22.60
  -2  -1   5  796.22   23.20
  -2  -1   5  777.42   22.70
   1   1  -5 1821.92   48.20
   1   1  -5 1836.02   48.80
   1   1  -5 1837.82   49.20
   1   1  -5 1819.32   48.60
   1   1  -5 1838.72   48.20
   1   1  -5 1791.92   49.60
   1   1  -5 1794.72   48.20
   1   1  -5 1843.42   46.80
   1   1  -5 1815.32   48.60
   1   1  -5 1844.92   48.50
   1   1  -5 1746.13   47.70
   1   1  -5 1804.22   48.10
   1   1  -5 1787.52   48.40
  -1  -1   5 1750.12   48.20
  -1  -1   5 1865.61   48.60
  -1  -1   5 1818.52   48.60
  -1  -1   5 1787.02   48.10
  -1  -1   5 1786.22   49.99
  -1  -1   5 1804.42   48.60
  -1  -1   5 1836.42   49.40
  -1  -1   5 1712.43   49.00
  -1  -1   5 1777.22   47.70
  -1  -1   5 1819.52   49.50
  -1  -1   5 1775.32   48.00
  -1  -1   5 1879.21   49.20
  -1  -1   5 1810.82   48.60
  -1  -1   5 1860.81   48.80
  -1  -1   5 1836.42   49.10
   0   1  -5 2850.31   73.59
   0   1  -5 2808.32   74.39
   0   1  -5 2813.72   74.89
   0   1  -5 2902.51   72.69
   0   1  -5 2836.12   74.59
   0   1  -5 2784.32   75.29
   0   1  -5 2871.11   75.59
   0   1  -5 2855.81   74.39
   0   1  -5 2740.63   75.19
   0   1  -5 2915.31   74.19
   0   1  -5 2815.12   74.39
   0   1  -5 2850.91   73.89
   0   1  -5 2925.31   74.29
   0   1  -5 2912.71   73.09
   0   1  -5 2921.91   74.19
   0   1  -5 2843.22   74.29
   0  -1   5 2776.12   74.19
   0  -1   5 2910.41   76.19
   0  -1   5 2725.93   74.39
   0  -1   5 2747.33   75.29
   0  -1   5 2779.32   74.09
   0  -1   5 2790.72   74.69
   0  -1   5 2812.22   73.79
   0  -1   5 2803.82   73.59
   0  -1   5 2776.62   74.69
   0  -1   5 2778.82   75.29
   0  -1   5 2851.51   74.79
   0  -1   5 2719.43   74.29
   0  -1   5 2808.42   73.99
  -1   1  -5    7.70    2.00
  -1   1  -5    7.10    1.30
  -1   1  -5    6.80    2.20
  -1   1  -5    5.90    2.30
  -1   1  -5    6.60    2.30
  -1   1  -5    7.90    2.40
  -1   1  -5    9.80    2.10
  -1   1  -5   10.80    2.70
  -1   1  -5   10.50    2.60
  -1   1  -5    8.20    1.80
  -1   1  -5    5.60    2.40
  -1   1  -5    5.90    2.20
  -1   1  -5    5.80    1.90
  -1   1  -5    7.00    2.80
  -1   1  -5    9.20    2.10
  -1   1  -5   10.80    2.50
  -1   1  -5    9.30    1.90
   1  -1   5    7.20    2.20
   1  -1   5    4.20    2.80
   1  -1   5    5.60    2.60
   1  -1   5    7.20    2.90
   1  -1   5    6.20    1.80
   1  -1   5    9.20    1.90
   1  -1   5    6.70    1.70
   1  -1   5    4.90    3.60
   1  -1   5   11.90    2.80
   1  -1   5    7.00    1.70
   1  -1   5    7.30    1.60
   1  -1   5    7.40    2.70
   1  -1   5    9.40    1.80
   1  -1   5   10.60    1.40
   1  -1   5    4.60    1.90
   1  -1   5    8.80    3.00
  -2   1  -5  168.18    7.40
  -2   1  -5  171.78    8.70
  -2   1  -5  158.38    7.90
  -2   1  -5  136.49    7.80
  -2   1  -5  165.58    8.90
  -2   1  -5  166.08    8.40
  -2   1  -5  174.98    7.30
  -2   1  -5  165.28    7.10
  -2   1  -5  173.78    9.90
  -2   1  -5  171.78    8.40
  -2   1  -5  167.08    8.90
  -2   1  -5  178.08    8.70
   2  -1   5  165.28    8.70
   2  -1   5  172.48    6.70
   2  -1   5  170.78    6.40
   2  -1   5  171.38    7.00
   2  -1   5  169.58    7.90
   2  -1   5  183.18    7.50
   2  -1   5  165.68    6.30
   2  -1   5  166.28    7.50
   2  -1   5  168.08    7.10
   2  -1   5  172.18    7.30
   2  -1   5  169.08    7.60
  -3   1  -5 1157.98   36.90
  -3   1  -5 1152.38   34.90
  -3   1  -5 1113.69   34.20
  -3   1  -5 1137.69   34.30
  -3   1  -5 1101.99   35.60
  -3   1  -5 1147.29   32.90
   3  -1   5 1157.08   31.20
   3  -1   5 1165.48   33.70
   3  -1   5 1157.28   32.10
   3  -1   5 1152.58   33.10
   3  -1   5 1113.59   32.10
   3  -1   5 1146.59   33.20
   3  -1   5 1138.79   32.80
   3  -1   5 1101.19   33.00
   3  -1   5 1150.68   33.00
  -4   1  -5  209.48   14.00
  -4   1  -5  223.58   11.00
  -4   1  -5  208.28   11.30
  -4   1  -5  208.58   11.20
  -4   1  -5  202.18   11.50
  -4   1  -5  232.68   13.00
  -4   1  -5  206.98   11.30
   4  -1   5  212.58    8.00
   4  -1   5  223.08   10.20
   4  -1   5  202.58    8.70
   4  -1   5  230.08    9.70
   4  -1   5  209.78   10.10
   4  -1   5  231.68   10.90
   4  -1   5  205.28   10.10
   4  -1   5  228.58   10.10
   4  -1   5  206.48   10.70
  -5   1  -5  492.55   20.30
  -5   1  -5  504.25   24.70
  -5   1  -5  480.15   20.20
  -5   1  -5  480.75   21.00
  -5   1  -5  535.15   23.20
  -5   1  -5  516.25   20.90
  -5   1  -5  482.65   18.30
   5  -1   5  471.55   19.30
   5  -1   5  483.35   19.10
   5  -1   5  487.35   19.10
   5  -1   5  463.15   14.80
   5  -1   5  532.75   18.40
   5  -1   5  467.25   19.50
   5  -1   5  510.15   19.30
   5  -1   5  473.25   18.10
   5  -1   5  507.45   18.30
  -6   1  -5  246.98   14.20
  -6   1  -5  234.38   16.90
  -6   1  -5  230.88   15.50
  -6   1  -5  210.28   15.80
  -6   1  -5  263.27   22.10
  -6   1  -5  239.68   16.40
  -6   1  -5  277.37   20.20
   6  -1   5  233.98   14.70
   6  -1   5  249.48   12.00
   6  -1   5  227.48   14.30
   6  -1   5  273.67   14.30
   6  -1   5  227.98   14.50
   6  -1   5  235.18   13.40
   6  -1   5  258.97   13.40
   6  -1   5  224.28   15.10
   6   0  -5  126.49   10.00
   6   0  -5  122.49    8.20
   6   0  -5  129.09   10.00
   6   0  -5  118.79    7.70
   6   0  -5  129.39   10.70
   6   0  -5  114.89    8.50
   6   0  -5  117.09   12.00
   6   0  -5  117.49    9.70
  -6   0   5  122.79   13.60
  -6   0   5  118.69   10.60
  -6   0   5  125.89   10.40
  -6   0   5  136.79   11.60
  -6   0   5  133.99   11.10
  -6   0   5  110.19   11.00
  -6   0   5  112.59   13.00
   5   0  -5  115.69    7.80
   5   0  -5  117.49    7.80
   5   0  -5  104.19    7.00
   5   0  -5  116.89    7.00
   5   0  -5   94.09    8.60
   5   0  -5   97.19    9.50
   5   0  -5  121.59    8.00
   5   0  -5  111.39    8.60
   5   0  -5  101.89    6.40
  -5   0   5  126.89    8.90
  -5   0   5  122.59    8.90
  -5   0   5  110.49   10.00
  -5   0   5  115.29    8.50
  -5   0   5  128.99    9.60
  -5   0   5  129.59    8.70
   4   0  -5 3325.37   86.99
   4   0  -5 3193.88   86.99
   4   0  -5 3282.97   89.19
   4   0  -5 3182.38   84.49
   4   0  -5 3245.68   86.59
   4   0  -5 3355.76   86.79
   4   0  -5 3183.78   86.69
   4   0  -5 3226.08   85.99
   4   0  -5 3196.88   87.59
  -4   0   5 3202.28   87.89
  -4   0   5 3388.86   89.59
  -4   0   5 3231.98   88.39
  -4   0   5 3178.38   87.29
  -4   0   5 3207.38   87.49
  -4   0   5 3288.97   88.09
   3   0  -5  244.28   11.10
   3   0  -5  252.47    9.60
   3   0  -5  272.67   10.10
   3   0  -5  258.47    8.30
   3   0  -5  263.97   10.00
   3   0  -5  265.37    9.40
   3   0  -5  259.57   10.30
   3   0  -5  255.67   10.30
   3   0  -5  268.97   10.80
  -3   0   5  264.77    9.80
  -3   0   5  255.47   10.30
  -3   0   5  254.87   10.30
  -3   0   5  259.87   10.60
  -3   0   5  252.57   10.50
  -3   0   5  255.37    8.10
  -3   0   5  261.87    9.40
  -3   0   5  255.67    9.90
   2   0  -5 4757.52  123.69
   2   0  -5 4754.52  125.39
   2   0  -5 4677.53  124.19
   2   0  -5 4823.62  124.89
   2   0  -5 4760.02  125.39
   2   0  -5 4778.32  125.39
   2   0  -5 4763.12  124.29
   2   0  -5 4877.91  125.29
   2   0  -5 4698.83  125.29
  -2   0   5 4887.11  125.19
  -2   0   5 5062.59  125.69
  -2   0   5 4946.21  125.19
  -2   0   5 4739.53  124.49
  -2   0   5 4753.32  125.69
  -2   0   5 4806.22  124.19
  -2   0   5 4769.72  125.19
  -2   0   5 4826.92  126.19
  -2   0   5 4838.22  125.29
   1   0  -5 2302.97   62.79
   1   0  -5 2366.06   62.39
   1   0  -5 2403.86   61.49
   1   0  -5 2315.77   61.29
   1   0  -5 2308.07   61.19
   1   0  -5 2305.97   62.49
   1   0  -5 2335.67   61.99
   1   0  -5 2343.77   61.99
   1   0  -5 2419.16   62.09
   1   0  -5 2373.56   61.69
   1   0  -5 2399.86   61.69
   1   0  -5 2355.46   62.39
   1   0  -5 2361.46   62.29
   1   0  -5 2316.77   61.99
  -1   0   5 2392.36   62.69
  -1   0   5 2308.67   61.49
  -1   0   5 2382.76   62.19
  -1   0   5 2272.77   60.49
  -1   0   5 2266.37   62.59
  -1   0   5 2283.27   61.79
  -1   0   5 2310.57   62.49
  -1   0   5 2389.56   61.99
  -1   0   5 2388.26   62.29
  -1   0   5 2285.37   62.19
  -1   0   5 2231.48   61.69
   0   0  -5   28.10    3.20
   0   0  -5   28.80    3.10
   0   0  -5   32.10    3.50
   0   0  -5   28.90    2.90
   0   0  -5   40.50    3.60
   0   0  -5   30.00    3.20
   0   0  -5   30.50    3.10
   0   0  -5   29.50    3.30
   0   0  -5   30.60    3.30
   0   0  -5   24.40    3.20
   0   0  -5   31.70    3.40
   0   0  -5   26.10    2.90
   0   0  -5   27.90    3.30
   0   0  -5   31.30    3.00
   0   0  -5   30.40    2.40
   0   0   5   27.70    3.20
   0   0   5   30.10    4.10
   0   0   5   31.20    3.40
   0   0   5   27.40    2.40
   0   0   5   28.40    2.70
   0   0   5   27.60    3.20
   0   0   5   30.00    3.10
   0   0   5   30.60    3.40
   0   0   5   28.20    4.00
   0   0   5   27.60    3.10
   0   0   5   25.60    3.20
   0   0   5   36.30    4.40
   0   0   5   28.70    2.60
   0   0   5   28.70    3.10
   0   0   5   31.60    3.00
   0   0   5   28.70    2.40
  -1   0  -5 1895.81   50.29
  -1   0  -5 1928.01   51.09
  -1   0  -5 1857.41   51.29
  -1   0  -5 1926.81   50.79
  -1   0  -5 1868.41   51.39
  -1   0  -5 1879.61   49.70
  -1   0  -5 1866.51   50.39
  -1   0  -5 1786.12   50.69
  -1   0  -5 1850.51   49.99
  -1   0  -5 1945.51   49.99
  -1   0  -5 1881.21   51.69
  -1   0  -5 1882.21   52.09
  -1   0  -5 1827.72   51.69
   1   0   5 1883.11   50.59
   1   0   5 1882.31   50.59
   1   0   5 1921.61   50.09
   1   0   5 1841.62   52.19
   1   0   5 1913.61   50.99
   1   0   5 1887.51   50.79
   1   0   5 1911.51   49.90
   1   0   5 1915.21   52.39
   1   0   5 1883.81   50.19
   1   0   5 1865.91   51.49
   1   0   5 1902.81   50.69
   1   0   5 1875.51   51.09
   1   0   5 1891.51   51.09
   1   0   5 1924.11   50.89
  -2   0  -5 1201.48   32.80
  -2   0  -5 1190.48   34.90
  -2   0  -5 1230.98   34.50
  -2   0  -5 1207.48   35.10
  -2   0  -5 1179.08   35.80
  -2   0  -5 1244.98   32.70
  -2   0  -5 1170.18   34.20
  -2   0  -5 1185.58   35.90
  -2   0  -5 1195.88   35.30
  -2   0  -5 1184.58   34.60
  -2   0  -5 1193.48   33.20
   2   0   5 1188.68   33.30
   2   0   5 1189.98   32.90
   2   0   5 1321.17   34.70
   2   0   5 1183.18   33.30
   2   0   5 1223.88   33.90
   2   0   5 1217.18   33.50
   2   0   5 1232.18   34.30
   2   0   5 1206.68   34.30
   2   0   5 1202.48   34.30
   2   0   5 1229.58   32.70
  -3   0  -5  107.79    7.30
  -3   0  -5   96.99    7.90
  -3   0  -5  110.19    5.40
  -3   0  -5  109.59    9.10
  -3   0  -5  101.39    7.40
  -3   0  -5   92.49    8.10
  -3   0  -5  114.49    7.40
   3   0   5  109.99    6.10
   3   0   5   98.79    6.50
   3   0   5  105.19    5.10
   3   0   5   97.39    6.00
   3   0   5  108.19    6.90
   3   0   5  102.69    4.70
   3   0   5   97.79    6.40
   3   0   5  103.49    6.90
   3   0   5  102.99    6.50
   3   0   5   94.39    6.00
   3   0   5  105.69    6.60
  -4   0  -5  195.48    8.70
  -4   0  -5  204.38   12.30
  -4   0  -5  192.68   10.80
  -4   0  -5  221.18   11.60
  -4   0  -5  223.78   13.90
  -4   0  -5  175.08   10.50
   4   0   5  202.68    9.60
   4   0   5  217.88    9.60
   4   0   5  223.68   10.70
   4   0   5  215.48   10.30
   4   0   5  204.68   10.00
   4   0   5  214.28   10.10
   4   0   5  214.98   10.70
   4   0   5  182.48   10.10
   4   0   5  205.68    7.20
  -5   0  -5  398.86   17.90
  -5   0  -5  422.46   21.70
  -5   0  -5  372.46   18.20
  -5   0  -5  402.06   19.90
  -5   0  -5  407.96   14.90
  -5   0  -5  392.86   18.00
   5   0   5  400.46   17.10
   5   0   5  377.16   16.00
   5   0   5  403.96   17.40
   5   0   5  378.56   14.10
   5   0   5  406.86   16.30
   5   0   5  407.46   16.10
   5   0   5  407.86   15.40
   5   0   5  375.96   14.80
   5   0   5  380.16   16.90
  -6   0  -5   -4.80    9.30
  -6   0  -5    2.70    6.70
  -6   0  -5   -5.40    7.40
  -6   0  -5    4.60    6.80
  -6   0  -5   32.50   11.80
   6   0   5   -3.50    6.00
   6   0   5    4.40    6.10
   6   0   5    8.40    5.80
   6   0   5  -11.00    6.10
   6   0   5    0.10    6.10
   6   0   5    3.40    5.50
   6   0   5   -7.60    6.30
   6   0   5   -0.60    5.20
   6  -1  -5   50.59    7.80
   6  -1  -5   55.29    6.80
   6  -1  -5   47.60    6.20
   6  -1  -5   59.99    8.20
   6  -1  -5   55.59    7.20
   6  -1  -5   48.90    6.10
   6  -1  -5   46.90    6.70
  -6   1   5   60.89   10.40
  -6   1   5   51.29    9.70
  -6   1   5   36.40    7.70
  -6   1   5   52.39    7.90
  -6   1   5   57.29    9.10
  -6   1   5   48.80    8.30
  -6   1   5   48.80    8.40
   5  -1  -5 1126.29   34.10
   5  -1  -5 1129.29   35.70
   5  -1  -5 1172.58   35.20
   5  -1  -5 1171.08   36.60
   5  -1  -5 1132.09   35.60
   5  -1  -5 1151.18   34.90
   5  -1  -5 1129.59   34.80
   5  -1  -5 1129.49   31.90
  -5   1   5 1186.78   38.60
  -5   1   5 1154.28   35.60
  -5   1   5 1152.08   37.10
  -5   1   5 1170.68   37.00
  -5   1   5 1160.88   36.60
  -5   1   5 1143.39   39.00
  -5   1   5 1153.48   36.30
   4  -1  -5  197.18   10.10
   4  -1  -5  193.88    9.10
   4  -1  -5  189.38   10.40
   4  -1  -5  201.48    9.40
   4  -1  -5  198.18    8.10
   4  -1  -5  193.18   10.20
   4  -1  -5  200.78    9.10
  -4   1   5  199.98   10.20
  -4   1   5  180.08   10.20
  -4   1   5  191.88   10.10
  -4   1   5  199.18   10.50
  -4   1   5  199.58   11.30
  -4   1   5  191.98    9.30
   3  -1  -5  313.17   12.30
   3  -1  -5  325.17   12.00
   3  -1  -5  313.67   11.10
   3  -1  -5  316.97   11.90
   3  -1  -5  317.57   11.70
   3  -1  -5  317.87   12.80
   3  -1  -5  321.57   10.80
  -3   1   5  306.17   13.00
  -3   1   5  310.07   10.30
  -3   1   5  324.77   12.80
  -3   1   5  329.07   12.60
  -3   1   5  326.37   12.50
  -3   1   5  310.47   13.30
  -3   1   5  319.37   11.40
   2  -1  -5 2556.64   70.19
   2  -1  -5 2632.54   70.39
   2  -1  -5 2657.43   70.39
   2  -1  -5 2547.05   68.39
   2  -1  -5 2663.63   69.69
   2  -1  -5 2625.94   69.99
   2  -1  -5 2653.93   68.49
  -2   1   5 2602.34   69.69
  -2   1   5 2581.24   68.59
  -2   1   5 2614.94   70.59
  -2   1   5 2600.24   70.19
  -2   1   5 2603.54   70.09
  -2   1   5 2657.33   69.09
  -2   1   5 2699.23   69.09
  -2   1   5 2611.34   70.09
  -2   1   5 2630.84   69.49
  -2   1   5 2578.14   71.19
   1  -1  -5    9.30    2.30
   1  -1  -5    9.50    2.00
   1  -1  -5   10.60    2.20
   1  -1  -5   10.10    2.20
   1  -1  -5    8.60    2.30
   1  -1  -5    8.10    2.20
   1  -1  -5    5.40    1.90
   1  -1  -5    6.10    1.90
   1  -1  -5   10.70    2.80
   1  -1  -5   10.20    2.20
   1  -1  -5    8.90    2.00
  -1   1   5   13.50    2.80
  -1   1   5    6.40    2.30
  -1   1   5    8.70    2.00
  -1   1   5   11.40    2.50
  -1   1   5    9.70    2.80
  -1   1   5    7.50    2.00
  -1   1   5   11.10    2.30
  -1   1   5   11.00    2.00
  -1   1   5    7.90    2.30
  -1   1   5   11.40    2.10
  -1   1   5    7.30    2.70
  -1   1   5   10.60    2.30
  -1   1   5    8.50    1.90
   0  -1  -5 3254.17   82.89
   0  -1  -5 3102.09   84.19
   0  -1  -5 3106.99   84.39
   0  -1  -5 3246.08   84.99
   0  -1  -5 3340.17   84.29
   0  -1  -5 3196.88   83.99
   0  -1  -5 3245.38   84.89
   0  -1  -5 3171.18   84.29
   0  -1  -5 3217.78   83.19
   0  -1  -5 3216.08   83.79
   0  -1  -5 3166.98   84.29
   0  -1  -5 3090.49   83.19
   0  -1  -5 3316.57   83.59
   0   1   5 3230.08   83.49
   0   1   5 3220.28   84.79
   0   1   5 3189.48   83.79
   0   1   5 3175.68   83.79
   0   1   5 3137.39   84.19
   0   1   5 3075.59   83.99
   0   1   5 3226.78   83.79
   0   1   5 3105.19   84.29
   0   1   5 3198.08   83.09
   0   1   5 3247.28   85.09
   0   1   5 3207.98   84.49
   0   1   5 3272.07   84.39
  -1  -1  -5  126.19    6.80
  -1  -1  -5  126.49    6.40
  -1  -1  -5  128.29    6.30
  -1  -1  -5  124.99    6.50
  -1  -1  -5  125.99    6.30
  -1  -1  -5  133.09    6.10
  -1  -1  -5  122.69    6.30
  -1  -1  -5  121.99    6.90
  -1  -1  -5  133.79    6.60
  -1  -1  -5  126.79    5.40
  -1  -1  -5  128.59    5.90
   1   1   5  127.79    5.50
   1   1   5  130.89    5.90
   1   1   5  129.59    6.20
   1   1   5  131.89    6.40
   1   1   5  131.19    6.50
   1   1   5  130.39    6.70
   1   1   5  126.39    7.80
   1   1   5  121.29    5.90
   1   1   5  125.49    4.90
   1   1   5  127.39    6.80
   1   1   5  127.89    6.20
   1   1   5  119.39    4.40
  -2  -1  -5   31.50    5.10
  -2  -1  -5   31.80    3.50
  -2  -1  -5   33.70    4.00
  -2  -1  -5   34.70    4.30
  -2  -1  -5   34.00    4.20
  -2  -1  -5   38.10    4.90
  -2  -1  -5   37.90    5.00
  -2  -1  -5   26.70    3.90
  -2  -1  -5   33.40    4.50
  -2  -1  -5   36.90    4.70
   2   1   5   29.10    3.80
   2   1   5   29.70    3.90
   2   1   5   29.60    3.90
   2   1   5   36.50    3.30
   2   1   5   34.30    3.90
   2   1   5   34.00    5.60
   2   1   5   32.40    4.10
   2   1   5   33.70    4.20
   2   1   5   31.60    4.00
   2   1   5   24.50    3.80
  -3  -1  -5  534.05   18.40
  -3  -1  -5  520.65   19.60
  -3  -1  -5  527.65   19.20
  -3  -1  -5  523.05   15.50
  -3  -1  -5  527.05   19.80
  -3  -1  -5  532.05   18.40
  -3  -1  -5  523.35   18.40
  -3  -1  -5  512.65   18.30
  -3  -1  -5  526.35   18.10
   3   1   5  538.15   17.90
   3   1   5  539.95   17.70
   3   1   5  532.95   18.50
   3   1   5  525.75   18.40
   3   1   5  548.35   17.20
   3   1   5  539.95   18.70
   3   1   5  538.75   17.30
   3   1   5  476.85   16.70
   3   1   5  518.15   17.80
   3   1   5  527.45   15.50
   3   1   5  550.64   19.00
  -4  -1  -5  542.65   22.00
  -4  -1  -5  501.15   21.00
  -4  -1  -5  509.25   19.50
  -4  -1  -5  543.25   19.80
  -4  -1  -5  553.54   20.90
   4   1   5  526.05   19.60
   4   1   5  526.95   18.20
   4   1   5  521.85   18.60
   4   1   5  535.55   17.50
   4   1   5  550.94   20.40
   4   1   5  545.25   17.70
   4   1   5  490.25   18.70
   4   1   5  492.55   17.60
   4   1   5  529.85   19.60
  -5  -1  -5   40.20    8.40
  -5  -1  -5   22.20    6.70
  -5  -1  -5   29.70    6.50
  -5  -1  -5   39.70    9.00
  -5  -1  -5   36.50    6.80
   5   1   5   51.89    7.00
   5   1   5   43.90    6.00
   5   1   5   44.30    7.10
   5   1   5   41.00    5.20
   5   1   5   40.10    6.70
   5   1   5   36.50    6.60
   5   1   5   37.40    5.40
   5   1   5   49.10    6.90
   6  -2  -5  159.68   12.90
   6  -2  -5  177.88   11.70
   6  -2  -5  179.98   11.70
   6  -2  -5  170.18    8.90
   6  -2  -5  175.18   12.90
   6  -2  -5  153.08   10.90
   6  -2  -5  169.38   12.70
   6  -2  -5  168.88   11.20
   6  -2  -5  151.98   11.20
  -6   2   5  176.28   16.50
  -6   2   5  181.98   13.20
  -6   2   5  182.88   14.70
  -6   2   5  167.58   14.80
  -6   2   5  174.18   16.10
  -6   2   5  191.88   14.20
  -6   2   5  168.28   14.10
  -6   2   5  181.58   14.10
   5  -2  -5  376.86   15.70
   5  -2  -5  381.86   15.20
   5  -2  -5  366.46   13.90
   5  -2  -5  363.46   16.40
   5  -2  -5  365.76   16.40
   5  -2  -5  391.76   16.50
   5  -2  -5  385.16   15.60
  -5   2   5  376.96   17.50
  -5   2   5  374.66   18.50
  -5   2   5  370.06   15.80
  -5   2   5  377.76   19.10
  -5   2   5  387.86   17.80
  -5   2   5  396.16   17.80
  -5   2   5  368.96   16.80
   4  -2  -5  640.64   20.40
   4  -2  -5  618.94   21.30
   4  -2  -5  623.14   21.80
   4  -2  -5  623.24   22.00
   4  -2  -5  635.54   21.00
   4  -2  -5  635.94   21.00
   4  -2  -5  611.34   21.10
   4  -2  -5  635.24   21.80
  -4   2   5  649.83   22.90
  -4   2   5  614.14   22.60
  -4   2   5  630.44   22.10
  -4   2   5  643.64   23.80
  -4   2   5  656.13   24.70
  -4   2   5  628.04   20.80
  -4   2   5  615.04   18.90
  -4   2   5  597.54   19.40
  -4   2   5  646.74   23.00
   3  -2  -5 2493.15   67.09
   3  -2  -5 2437.96   67.49
   3  -2  -5 2489.25   67.99
   3  -2  -5 2501.15   66.99
   3  -2  -5 2468.95   67.59
  -3   2   5 2439.06   68.99
  -3   2   5 2423.76   68.09
  -3   2   5 2452.65   66.09
  -3   2   5 2434.26   67.69
  -3   2   5 2418.46   64.49
  -3   2   5 2479.95   65.89
  -3   2   5 2484.45   65.19
  -3   2   5 2399.96   68.09
  -3   2   5 2485.85   69.29
   2  -2  -5   68.69    5.30
   2  -2  -5   60.39    5.80
   2  -2  -5   67.09    3.10
   2  -2  -5   66.29    4.90
   2  -2  -5   64.69    5.60
   2  -2  -5   64.09    5.20
   2  -2  -5   56.09    5.90
   2  -2  -5   62.99    5.10
  -2   2   5   48.60    4.90
  -2   2   5   59.09    5.40
  -2   2   5   69.59    4.00
  -2   2   5   59.39    6.00
  -2   2   5   72.69    5.90
  -2   2   5   57.99    5.50
  -2   2   5   66.89    4.60
  -2   2   5   67.99    4.90
  -2   2   5   70.39    5.90
   1  -2  -5 1486.55   41.30
   1  -2  -5 1476.25   39.70
   1  -2  -5 1527.75   38.90
   1  -2  -5 1491.25   40.40
   1  -2  -5 1478.55   40.60
   1  -2  -5 1439.26   40.80
   1  -2  -5 1457.45   40.40
   1  -2  -5 1490.75   40.90
   1  -2  -5 1498.35   41.10
   1  -2  -5 1463.65   41.00
  -1   2   5 1486.45   41.60
  -1   2   5 1478.45   40.90
  -1   2   5 1425.96   39.50
  -1   2   5 1349.56   41.10
  -1   2   5 1221.38   40.50
  -1   2   5 1515.25   40.90
  -1   2   5 1509.55   38.60
  -1   2   5 1476.15   41.10
  -1   2   5 1474.15   42.30
  -1   2   5 1492.95   40.60
  -1   2   5 1446.56   40.70
  -1   2   5 1551.94   40.90
  -1   2   5 1496.35   41.20
   0  -2  -5 1787.32   47.00
   0  -2  -5 1657.43   47.60
   0  -2  -5 1749.82   45.80
   0  -2  -5 1719.03   48.10
   0  -2  -5 1724.23   47.50
   0  -2  -5 1768.42   47.40
   0  -2  -5 1770.42   48.00
   0   2   5 1716.93   47.40
   0   2   5 1746.93   46.40
   0   2   5 1805.42   45.40
   0   2   5 1718.23   48.10
   0   2   5 1754.82   48.20
   0   2   5 1755.82   48.50
   0   2   5 1740.53   47.90
   0   2   5 1799.82   47.70
   0   2   5 1771.32   47.90
   0   2   5 1494.75   47.40
   0   2   5 1795.42   47.00
  -1  -2  -5    5.70    2.10
  -1  -2  -5    4.60    2.60
  -1  -2  -5    9.30    2.70
  -1  -2  -5    8.20    2.50
  -1  -2  -5    5.20    3.10
  -1  -2  -5   17.10    3.40
  -1  -2  -5   11.90    3.00
   1   2   5    6.70    2.40
   1   2   5    6.90    2.50
   1   2   5   -2.60    3.40
   1   2   5    8.00    2.60
   1   2   5    3.10    2.00
   1   2   5    3.40    2.80
   1   2   5    8.10    2.90
   1   2   5    8.00    2.60
   1   2   5    2.50    2.70
   1   2   5   10.40    3.00
   1   2   5    2.50    2.60
   1   2   5    4.80    2.70
   1   2   5    9.60    2.40
  -2  -2  -5  934.71   29.10
  -2  -2  -5  945.81   29.10
  -2  -2  -5  898.31   25.90
  -2  -2  -5  923.91   27.90
  -2  -2  -5  951.60   27.60
  -2  -2  -5  932.81   27.30
  -2  -2  -5  962.90   28.10
  -2  -2  -5  891.91   25.40
  -2  -2  -5  948.41   27.00
  -2  -2  -5  922.81   28.60
  -2  -2  -5  944.51   27.90
   2   2   5  965.20   26.60
   2   2   5  944.61   27.40
   2   2   5  937.71   27.10
   2   2   5 1003.60   28.60
   2   2   5  925.01   26.70
   2   2   5  935.11   28.60
   2   2   5  971.00   26.90
   2   2   5  908.11   28.10
   2   2   5  947.61   28.60
   2   2   5  942.01   26.20
   2   2   5  917.41   29.30
   2   2   5  924.21   29.10
   2   2   5  919.11   29.20
  -3  -2  -5   34.90    5.40
  -3  -2  -5   35.00    4.80
  -3  -2  -5   27.60    5.30
  -3  -2  -5   28.50    4.40
  -3  -2  -5   32.10    5.70
  -3  -2  -5   42.20    4.20
  -3  -2  -5   32.50    5.50
  -3  -2  -5   32.20    5.40
  -3  -2  -5   32.90    4.90
  -3  -2  -5   32.20    4.40
   3   2   5   42.70    6.20
   3   2   5   31.30    4.90
   3   2   5   32.90    4.60
   3   2   5   40.10    4.50
   3   2   5   36.40    5.50
   3   2   5   36.50    4.60
   3   2   5   36.80    4.20
   3   2   5   36.20    4.70
   3   2   5   35.10    5.00
   3   2   5   32.30    5.30
  -4  -2  -5   19.40    4.90
  -4  -2  -5   24.10    6.30
  -4  -2  -5   14.40    4.50
  -4  -2  -5   15.00    5.10
  -4  -2  -5   16.00    5.70
  -4  -2  -5   19.50    5.60
  -4  -2  -5   19.10    4.40
   4   2   5   20.00    5.20
   4   2   5   24.40    5.00
   4   2   5   23.20    4.60
   4   2   5   21.40    5.50
   4   2   5   16.70    5.10
   4   2   5   30.00    5.00
   4   2   5   32.90    4.40
   4   2   5   34.40    6.60
  -5  -2  -5   58.79    8.50
  -5  -2  -5   61.19   10.40
  -5  -2  -5   69.59    8.20
  -5  -2  -5   75.39   10.50
  -5  -2  -5   86.49    9.50
  -5  -2  -5   46.50    7.70
  -5  -2  -5   62.59    8.70
   5   2   5   65.39    8.30
   5   2   5   62.49    5.80
   5   2   5   63.59    7.20
   5   2   5   62.49    9.00
   5   2   5   66.19    8.50
   5   2   5   59.29    8.50
   5   2   5   75.99    9.60
   6  -3  -5  157.38   12.90
   6  -3  -5  125.29   11.30
   6  -3  -5  131.89   11.20
   6  -3  -5  142.99   10.10
   6  -3  -5  142.89   13.40
   6  -3  -5  132.49   13.30
   6  -3  -5  117.59   11.30
   6  -3  -5  122.69   11.40
  -6   3   5  142.19   15.40
  -6   3   5  166.98   14.90
  -6   3   5  104.29   14.00
  -6   3   5  145.29   14.70
  -6   3   5  131.29   14.90
  -6   3   5  123.29   12.70
  -6   3   5  117.19   14.30
  -6   3   5  132.19   11.60
  -6   3   5  160.48   17.40
   5  -3  -5  286.77   13.70
   5  -3  -5  257.57   14.30
   5  -3  -5  245.18   12.40
   5  -3  -5  283.77   14.00
   5  -3  -5  266.47   13.30
   5  -3  -5  294.17   15.10
   5  -3  -5  270.87   13.80
  -5   3   5  264.77   15.90
  -5   3   5  283.47   15.50
  -5   3   5  308.97   17.20
  -5   3   5  288.57   17.40
  -5   3   5  294.67   13.90
  -5   3   5  297.57   16.30
  -5   3   5  311.47   18.30
  -5   3   5  283.67   16.30
  -5   3   5  280.27   11.30
   4  -3  -5  861.91   27.50
   4  -3  -5  883.01   29.00
   4  -3  -5  830.32   28.10
   4  -3  -5  875.01   27.70
   4  -3  -5  868.51   27.40
   4  -3  -5  856.91   27.80
   4  -3  -5  831.52   27.90
  -4   3   5  842.02   29.10
  -4   3   5  917.31   27.30
  -4   3   5  866.41   30.30
  -4   3   5  865.01   31.70
  -4   3   5  910.11   26.30
  -4   3   5  889.31   31.30
  -4   3   5  839.52   30.00
  -4   3   5  819.82   28.70
  -4   3   5  832.12   30.10
  -4   3   5  841.52   25.20
   3  -3  -5  404.76   15.90
   3  -3  -5  423.56   15.20
   3  -3  -5  400.86   15.60
   3  -3  -5  418.36   15.90
   3  -3  -5  402.06   15.40
  -3   3   5  418.06   14.90
  -3   3   5  398.96   14.40
  -3   3   5  435.76   17.00
  -3   3   5  405.66   16.20
  -3   3   5  413.76   14.30
  -3   3   5  394.96   17.80
  -3   3   5  390.86   16.20
  -3   3   5  408.66   16.90
  -3   3   5  404.26   17.30
   2  -3  -5 1633.94   46.30
   2  -3  -5 1639.54   45.80
   2  -3  -5 1609.64   46.20
   2  -3  -5 1628.24   46.30
   2  -3  -5 1631.04   45.50
   2  -3  -5 1610.34   46.30
  -2   3   5 1642.24   43.50
  -2   3   5 1571.34   44.80
  -2   3   5 1647.64   47.20
  -2   3   5 1570.74   46.40
  -2   3   5 1642.14   46.00
  -2   3   5 1605.14   46.80
  -2   3   5 1607.74   48.80
  -2   3   5 1587.04   44.70
  -2   3   5 1644.84   46.00
  -2   3   5 1667.63   48.40
  -2   3   5 1644.54   45.70
  -2   3   5 1656.63   48.30
   1  -3  -5 2155.08   59.09
   1  -3  -5 2185.58   59.19
   1  -3  -5 2197.28   58.29
   1  -3  -5 2190.88   58.99
   1  -3  -5 2114.19   57.99
   1  -3  -5 2172.38   59.29
   1  -3  -5 2164.08   59.59
  -1   3   5 2027.10   57.99
  -1   3   5 2165.68   59.29
  -1   3   5 2231.08   61.09
  -1   3   5 2174.48   60.19
  -1   3   5 2023.90   58.29
  -1   3   5 2202.98   59.69
  -1   3   5 2159.08   59.09
  -1   3   5 2217.68   56.39
  -1   3   5 2170.38   57.19
  -1   3   5 2182.78   59.39
  -1   3   5 2197.08   60.29
  -1   3   5 2130.99   61.39
  -1   3   5 2124.79   58.99
  -1   3   5 2040.00   58.89
   0  -3  -5  565.24   19.00
   0  -3  -5  586.64   18.40
   0  -3  -5  576.74   18.70
   0  -3  -5  550.34   17.70
   0  -3  -5  575.34   16.50
   0  -3  -5  563.74   18.90
   0  -3  -5  571.84   18.30
   0  -3  -5  574.54   18.40
   0  -3  -5  591.74   18.50
   0  -3  -5  557.14   17.00
   0   3   5  520.75   18.50
   0   3   5  571.94   19.80
   0   3   5  631.74   20.30
   0   3   5  570.54   19.20
   0   3   5  592.44   20.10
   0   3   5  570.84   19.40
   0   3   5  572.54   17.70
   0   3   5  567.24   18.30
   0   3   5  566.84   18.20
  -1  -3  -5  867.51   27.50
  -1  -3  -5  858.81   26.50
  -1  -3  -5  880.81   26.70
  -1  -3  -5  919.41   26.30
  -1  -3  -5  910.91   27.70
  -1  -3  -5  933.51   27.70
  -1  -3  -5  887.91   26.60
   1   3   5  903.91   28.20
   1   3   5  930.71   25.70
   1   3   5  888.71   27.80
   1   3   5  932.81   26.00
   1   3   5  925.01   28.10
   1   3   5  870.81   26.40
   1   3   5  904.01   26.50
   1   3   5  892.61   29.30
   1   3   5  896.61   27.60
   1   3   5  918.71   28.80
  -2  -3  -5  252.47   10.10
  -2  -3  -5  247.78   10.40
  -2  -3  -5  244.88   11.20
  -2  -3  -5  245.88   11.40
  -2  -3  -5  236.88    9.40
  -2  -3  -5  260.17   12.10
  -2  -3  -5  243.38   11.20
  -2  -3  -5  236.48   10.20
   2   3   5  230.78   10.10
   2   3   5  239.78    9.80
   2   3   5  254.37   11.30
   2   3   5  242.48    9.40
   2   3   5  248.98   12.10
   2   3   5  217.68   11.30
   2   3   5  241.38    8.80
   2   3   5  246.18    9.40
   2   3   5  251.67   11.60
   2   3   5  231.08   12.10
   2   3   5  245.78    9.10
   2   3   5  241.68   12.10
   2   3   5  242.88   10.00
  -3  -3  -5   79.79    7.50
  -3  -3  -5   64.09    8.20
  -3  -3  -5   78.59    8.30
  -3  -3  -5   86.49    8.10
  -3  -3  -5   69.99    6.60
  -3  -3  -5   61.29    7.00
  -3  -3  -5   79.19    7.50
  -3  -3  -5   81.79    6.60
   3   3   5   72.19    7.70
   3   3   5   81.79    7.50
   3   3   5   73.79    8.10
   3   3   5   65.29    8.20
   3   3   5   77.69    7.10
   3   3   5   81.79    8.30
   3   3   5   74.19    7.80
  -4  -3  -5  579.14   21.50
  -4  -3  -5  620.04   21.70
  -4  -3  -5  632.44   23.50
  -4  -3  -5  612.14   23.80
  -4  -3  -5  635.24   21.70
  -4  -3  -5  612.94   23.80
   4   3   5  581.34   22.90
   4   3   5  593.74   21.50
   4   3   5  606.14   24.50
   4   3   5  628.64   22.80
   4   3   5  629.44   24.20
   4   3   5  592.74   23.80
  -5  -3  -5   52.19    7.70
  -5  -3  -5   49.90    8.50
  -5  -3  -5   53.39   10.20
  -5  -3  -5   52.49    9.40
  -5  -3  -5   43.90    9.00
  -5  -3  -5   50.39    7.70
  -5  -3  -5   31.90    8.50
   5   3   5   67.99    8.60
   5   3   5   49.70    9.20
   5   3   5   51.49    9.90
   5   3   5   43.00    7.20
   5   3   5   39.80    8.80
   5   3   5   24.80    7.60
   5  -4  -5  620.64   23.80
   5  -4  -5  631.14   25.30
   5  -4  -5  633.64   23.00
   5  -4  -5  637.24   24.30
   5  -4  -5  631.34   23.60
   5  -4  -5  635.74   25.00
   5  -4  -5  634.14   23.50
  -5   4   5  638.34   26.00
  -5   4   5  629.94   26.60
  -5   4   5  719.93   28.80
  -5   4   5  686.53   24.70
  -5   4   5  656.73   27.80
  -5   4   5  702.83   28.70
  -5   4   5  613.44   27.00
  -5   4   5  676.13   29.50
  -5   4   5  632.64   21.70
   4  -4  -5  139.19   10.10
   4  -4  -5  135.19    9.50
   4  -4  -5  137.39    9.60
   4  -4  -5  142.39   10.00
   4  -4  -5  130.99    9.80
   4  -4  -5  147.49   10.90
   4  -4  -5  142.29   10.50
  -4   4   5  138.79    9.90
  -4   4   5  138.39   13.60
  -4   4   5  137.59    9.00
  -4   4   5  160.28   11.80
  -4   4   5  149.59   12.40
  -4   4   5  150.48   12.50
  -4   4   5  139.29    9.50
  -4   4   5  130.39   12.30
  -4   4   5  152.78   13.80
  -4   4   5  139.69   12.90
   3  -4  -5  980.10   32.30
   3  -4  -5  999.50   32.70
   3  -4  -5 1043.20   31.60
   3  -4  -5 1040.60   32.50
   3  -4  -5 1027.90   32.60
  -3   4   5 1054.89   30.30
  -3   4   5 1021.50   33.20
  -3   4   5 1022.80   35.00
  -3   4   5 1081.19   34.60
  -3   4   5 1041.70   36.00
  -3   4   5 1049.79   34.00
  -3   4   5 1058.99   35.70
  -3   4   5 1032.00   31.80
  -3   4   5 1029.20   31.40
  -3   4   5 1000.00   32.80
   2  -4  -5  712.33   22.90
   2  -4  -5  705.23   23.00
   2  -4  -5  672.73   23.20
   2  -4  -5  672.73   22.20
   2  -4  -5  655.83   22.60
   2  -4  -5  677.93   22.80
  -2   4   5  701.03   23.20
  -2   4   5  674.53   23.50
  -2   4   5  696.63   25.70
  -2   4   5  682.43   25.10
  -2   4   5  687.33   23.40
  -2   4   5  696.03   24.00
  -2   4   5  650.73   20.80
  -2   4   5  675.43   22.70
  -2   4   5  659.33   22.80
  -2   4   5  693.73   24.90
  -2   4   5  708.63   22.90
  -2   4   5  651.33   21.10
  -2   4   5  722.53   23.10
   1  -4  -5    6.60    2.90
   1  -4  -5    0.00    3.00
   1  -4  -5    3.10    3.00
   1  -4  -5    5.40    3.00
   1  -4  -5    1.70    2.80
   1  -4  -5    4.90    2.80
   1  -4  -5    3.40    3.80
  -1   4   5   -0.80    3.10
  -1   4   5   16.10    5.40
  -1   4   5    4.00    3.40
  -1   4   5    4.50    3.70
  -1   4   5   10.00    4.50
  -1   4   5   -1.60    3.60
  -1   4   5    1.90    3.50
  -1   4   5    7.80    3.10
  -1   4   5    4.60    3.80
  -1   4   5    5.40    4.40
  -1   4   5    7.00    3.90
  -1   4   5    2.50    3.00
   0  -4  -5 1501.05   40.60
   0  -4  -5 1544.95   42.80
   0  -4  -5 1485.95   41.80
   0  -4  -5 1487.25   43.30
   0  -4  -5 1517.95   42.70
   0  -4  -5 1563.04   43.50
   0  -4  -5 1496.05   42.30
   0  -4  -5 1432.16   40.70
   0  -4  -5 1488.05   44.10
   0  -4  -5 1506.25   42.50
   0   4   5 1473.95   41.40
   0   4   5 1512.25   44.50
   0   4   5 1538.75   45.40
   0   4   5 1470.15   41.60
   0   4   5 1481.65   42.40
   0   4   5 1485.35   41.40
   0   4   5 1537.75   44.50
   0   4   5 1536.35   45.50
   0   4   5 1545.85   44.80
   0   4   5 1490.85   42.60
  -1  -4  -5  561.34   19.20
  -1  -4  -5  586.84   19.80
  -1  -4  -5  567.64   20.10
  -1  -4  -5  597.54   19.10
  -1  -4  -5  576.64   18.90
  -1  -4  -5  615.34   18.90
  -1  -4  -5  575.64   20.00
   1   4   5  591.34   20.80
   1   4   5  604.94   21.20
   1   4   5  592.44   18.90
   1   4   5  608.24   20.50
   1   4   5  584.74   21.10
   1   4   5  569.34   21.80
   1   4   5  551.94   17.30
  -2  -4  -5  413.06   16.40
  -2  -4  -5  427.36   15.00
  -2  -4  -5  413.46   14.90
  -2  -4  -5  409.56   15.00
  -2  -4  -5  428.86   16.80
  -2  -4  -5  409.36   16.40
   2   4   5  440.56   18.50
   2   4   5  423.56   15.60
   2   4   5  446.16   17.60
   2   4   5  402.56   17.00
   2   4   5  404.56   18.00
   2   4   5  401.26   15.50
   2   4   5  403.86   14.90
   2   4   5  396.56   18.10
  -3  -4  -5  131.49   10.30
  -3  -4  -5  157.08    9.80
  -3  -4  -5  152.38    8.90
  -3  -4  -5  152.28   10.90
  -3  -4  -5  155.08   11.50
  -3  -4  -5  154.98    8.90
   3   4   5  144.59   10.50
   3   4   5  145.49   12.00
   3   4   5  174.68   11.20
   3   4   5  143.79    8.10
   3   4   5  161.58   11.90
   3   4   5  155.18   12.50
   3   4   5  157.08   12.00
  -4  -4  -5   62.79    9.10
  -4  -4  -5   62.39    9.20
  -4  -4  -5   56.99    7.90
  -4  -4  -5   54.59    6.60
  -4  -4  -5   49.10    8.00
  -4  -4  -5   63.19    7.40
   4   4   5   46.60    7.60
   4   4   5   62.79   10.50
   4   4   5   54.69    9.10
   4   4   5   53.79    8.00
   4   4   5   58.69    9.70
   4   4   5   40.80    9.20
   5  -5  -5   -4.50    7.10
   5  -5  -5    1.30    6.40
   5  -5  -5    2.70    5.80
   5  -5  -5    8.50    6.20
   5  -5  -5    1.00    6.90
   5  -5  -5    8.50    7.00
  -5   5   5   18.50   10.10
  -5   5   5    5.70    9.40
  -5   5   5   10.90    9.30
  -5   5   5   -0.10    8.00
  -5   5   5   11.40    9.90
  -5   5   5    1.10   12.50
  -5   5   5   10.30    7.20
  -5   5   5   13.00    9.90
  -5   5   5    1.30    9.80
   4  -5  -5  282.97   15.10
   4  -5  -5  290.97   15.70
   4  -5  -5  271.47   15.50
   4  -5  -5  266.87   14.00
   4  -5  -5  263.07   14.80
   4  -5  -5  256.77   15.30
   4  -5  -5  272.07   13.50
  -4   5   5  290.87   18.90
  -4   5   5  250.67   17.30
  -4   5   5  281.57   17.90
  -4   5   5  263.57   18.20
  -4   5   5  269.87   14.20
  -4   5   5  279.97   13.80
  -4   5   5  270.97   16.20
  -4   5   5  279.87   13.90
  -4   5   5  264.17   17.40
  -4   5   5  288.57   19.40
  -4   5   5  272.27   19.20
   3  -5  -5  974.10   33.30
   3  -5  -5  996.90   32.80
   3  -5  -5 1024.30   32.80
   3  -5  -5  981.40   31.20
   3  -5  -5 1000.90   32.20
   3  -5  -5  999.10   32.60
  -3   5   5  956.90   33.20
  -3   5   5 1004.10   32.00
  -3   5   5 1014.40   36.50
  -3   5   5 1002.20   32.30
  -3   5   5 1019.60   33.20
  -3   5   5  907.71   32.50
  -3   5   5 1005.90   35.60
  -3   5   5 1012.20   33.30
  -3   5   5  972.10   34.70
  -3   5   5  988.50   35.50
  -3   5   5  981.40   28.40
   2  -5  -5   11.30    4.50
   2  -5  -5    4.00    4.20
   2  -5  -5   12.20    4.60
   2  -5  -5    4.10    4.10
   2  -5  -5    8.90    4.20
  -2   5   5    9.60    6.10
  -2   5   5    9.10    4.90
  -2   5   5   13.60    4.90
  -2   5   5   10.60    5.40
  -2   5   5   13.20    5.40
  -2   5   5    7.10    4.50
  -2   5   5    9.60    5.40
  -2   5   5   11.50    6.70
  -2   5   5    2.00    4.80
   1  -5  -5 2082.09   59.89
   1  -5  -5 2042.70   58.19
   1  -5  -5 2101.89   58.39
   1  -5  -5 2047.40   58.29
   1  -5  -5 2085.19   58.29
  -1   5   5 2028.20   58.09
  -1   5   5 2108.69   61.49
  -1   5   5 1994.00   55.79
  -1   5   5 2112.69   59.89
  -1   5   5 2056.69   59.99
  -1   5   5 2121.69   60.39
  -1   5   5 2096.59   62.29
   0  -5  -5  178.18    9.30
   0  -5  -5  162.48    9.70
   0  -5  -5  176.88    9.70
   0  -5  -5  172.98    9.30
   0  -5  -5  161.68    8.90
   0  -5  -5  168.68   10.30
   0   5   5  163.58   11.00
   0   5   5  180.68   12.30
   0   5   5  171.48   11.60
   0   5   5  203.28   11.70
   0   5   5  162.58   10.80
   0   5   5  151.28    6.60
   0   5   5  173.48   10.90
   0   5   5  170.18   10.50
  -1  -5  -5  231.38   12.00
  -1  -5  -5  232.38   10.70
  -1  -5  -5  252.77   13.00
  -1  -5  -5  216.98   11.90
  -1  -5  -5  257.57   11.70
  -1  -5  -5  239.28   10.80
   1   5   5  237.38   12.90
   1   5   5  238.68   12.20
   1   5   5  247.98   14.70
   1   5   5  241.68   13.60
   1   5   5  241.28   13.50
  -2  -5  -5  503.05   19.20
  -2  -5  -5  494.35   18.90
  -2  -5  -5  478.65   17.30
  -2  -5  -5  465.55   17.00
  -2  -5  -5  491.35   19.60
   2   5   5  498.25   22.40
   2   5   5  479.25   18.50
   2   5   5  492.45   20.50
   2   5   5  474.85   17.90
   2   5   5  521.35   21.40
  -3  -5  -5   29.90    7.00
  -3  -5  -5   47.40    6.30
  -3  -5  -5   44.60    7.80
  -3  -5  -5   22.50    7.60
  -3  -5  -5   39.90    5.60
   3   5   5   54.99   10.20
   3   5   5   35.60    7.90
   3   5   5   34.80    7.50
   3   5   5   33.80    8.80
   4  -6  -5  326.87   18.20
   4  -6  -5  301.27   18.70
  -4   6   5  387.36   19.00
  -4   6   5  312.87   22.00
  -4   6   5  376.16   23.00
   3  -6  -5    4.40    5.50
   3  -6  -5    5.20    6.20
   3  -6  -5   -6.00    5.60
   3  -6  -5    8.30    5.80
   3  -6  -5    5.90    6.20
   3  -6  -5   -4.10    5.60
  -3   6   5   -1.40    6.20
  -3   6   5   12.10    7.60
  -3   6   5    3.00    8.20
  -3   6   5    1.90    7.90
  -3   6   5    4.10    7.40
  -3   6   5   -1.90    7.90
  -3   6   5    8.10    7.00
  -3   6   5    7.90    8.10
   2  -6  -5  221.98   14.00
   2  -6  -5  205.08   12.40
   2  -6  -5  211.78   12.80
   2  -6  -5  201.98   12.20
   2  -6  -5  215.78   12.70
  -2   6   5  218.88   14.90
  -2   6   5  254.57   17.20
  -2   6   5  218.68   13.90
  -2   6   5  186.98   11.90
  -2   6   5  232.58   12.60
  -2   6   5  203.88   14.20
  -2   6   5  212.88   16.20
   1  -6  -5  352.56   16.20
   1  -6  -5  365.96   15.90
   1  -6  -5  385.16   16.10
   1  -6  -5  358.86   17.60
   1  -6  -5  376.96   15.80
  -1   6   5  342.27   14.20
  -1   6   5  373.26   17.50
  -1   6   5  399.86   20.40
  -1   6   5  406.66   19.80
  -1   6   5  375.56   18.40
  -1   6   5  387.56   18.20
   0  -6  -5   80.09    9.30
   0  -6  -5   76.39    9.20
   0  -6  -5   69.89    7.60
   0  -6  -5   95.99    8.90
   0  -6  -5   75.49    8.20
   0  -6  -5   77.49    8.10
   0   6   5   77.59   11.10
   0   6   5  102.99   10.90
   0   6   5   71.99    9.10
   0   6   5   75.39    9.40
   0   6   5   83.49   11.40
   0   6   5   74.79    9.30
  -1  -6  -5  748.33   27.70
  -1  -6  -5  742.33   25.60
  -1  -6  -5  729.33   24.00
  -1  -6  -5  752.22   24.80
  -1  -6  -5  695.13   26.00
  -1  -6  -5  771.12   24.90
   1   6   5  744.83   28.00
   1   6   5  755.92   27.00
   1   6   5  782.62   29.00
   1   6   5  763.32   28.70
   1   6   5  775.42   30.70
  -2  -6  -5    8.30    6.50
  -2  -6  -5   -4.60    4.70
  -2  -6  -5   13.80    6.20
  -2  -6  -5   -1.30    6.40
  -2  -6  -5    1.90    4.70
   2   6   5   17.00    9.30
   2   6   5   14.70    6.80
   2   6   5   -5.40    6.50
   2   6   5   10.30    7.40
   2   6   5    1.50    6.10
  -1   7   5  106.49   13.10
  -1   7   5  126.19   15.10
   2   7  -6  141.19   13.30
   2   7  -6  123.09   13.00
   2   7  -6  125.49   12.70
   2   7  -6  146.99   13.60
  -2  -7   6  139.99    8.80
  -2  -7   6  138.69    9.90
  -2  -7   6  116.69    9.70
   1   7  -6  889.51   31.00
   1   7  -6  866.51   29.70
   1   7  -6  884.11   31.50
   1   7  -6  853.41   30.10
   1   7  -6  869.81   29.70
   1   7  -6  819.92   31.10
  -1  -7   6  876.01   24.70
  -1  -7   6  860.21   27.50
  -1  -7   6  864.11   28.30
   0   7  -6   24.00    7.20
   0   7  -6   19.10    6.00
   0   7  -6   23.30    7.10
   0   7  -6   22.90    8.10
   0   7  -6   36.80    7.70
   0   7  -6   19.10    7.40
   0  -7   6   14.50    4.30
   0  -7   6   23.00    5.20
   0  -7   6   30.60    3.80
   0  -7   6   23.10    3.90
   0  -7   6   29.30    5.00
   0  -7   6   24.20    5.80
  -1   7  -6  335.17   19.20
  -1   7  -6  344.17   17.90
  -1   7  -6  325.37   15.60
  -1   7  -6  352.56   18.90
  -1   7  -6  343.27   18.00
  -1   7  -6  326.97   17.10
   1  -7   6  325.37   15.90
   1  -7   6  343.87   15.00
   1  -7   6  328.27   13.10
   1  -7   6  315.27   13.70
   1  -7   6  345.07   13.70
   1  -7   6  335.27   13.40
  -2   7  -6   85.99   10.90
  -2   7  -6   79.19   11.30
  -2   7  -6   73.89   10.30
  -2   7  -6   86.99   11.90
  -2   7  -6   98.49   13.00
  -2   7  -6   94.79   11.60
   2  -7   6   80.79    9.00
   2  -7   6   70.19    8.40
   2  -7   6   79.89    9.50
   2  -7   6   85.69    8.90
   2  -7   6   90.89   10.40
   2  -7   6   88.79    8.60
  -3   7  -6   36.40   11.20
  -3   7  -6   43.70    9.90
  -3   7  -6   43.90    9.00
  -3   7  -6   52.29   11.00
  -3   7  -6   53.99   10.20
  -3   7  -6   56.09    9.30
   3  -7   6   37.00    6.60
   3  -7   6   44.40    7.20
   3  -7   6   39.40    7.20
   3  -7   6   37.60    7.20
   3  -7   6   54.69    6.50
   3  -7   6   42.80    8.00
   3  -7   6   35.90    6.80
   4   6  -6  403.26   19.40
   4   6  -6  429.36   18.80
   4   6  -6  403.26   22.00
  -4  -6   6  381.66   17.10
  -4  -6   6  391.26   16.20
   3   6  -6  273.97   15.70
   3   6  -6  297.47   15.80
   3   6  -6  272.37   14.30
   3   6  -6  301.77   17.00
  -3  -6   6  260.77   10.80
  -3  -6   6  299.87   12.90
  -3  -6   6  256.57   12.90
   2   6  -6 1133.19   36.20
   2   6  -6 1143.59   36.90
   2   6  -6 1201.98   37.50
   2   6  -6 1145.09   36.90
  -2  -6   6 1094.19   31.90
  -2  -6   6 1164.48   34.70
  -2  -6   6 1063.69   31.80
  -2  -6   6 1142.49   33.10
  -2  -6   6 1122.59   30.70
  -2  -6   6 1137.59   33.00
   1   6  -6    9.50    4.60
   1   6  -6    7.80    5.70
   1   6  -6   12.90    4.80
   1   6  -6   16.20    5.00
   1   6  -6    4.70    5.10
   1   6  -6    1.30    4.60
  -1  -6   6    5.40    3.30
  -1  -6   6    2.50    3.30
  -1  -6   6    6.00    2.30
  -1  -6   6    5.00    4.00
  -1  -6   6    8.00    2.90
  -1  -6   6    4.30    2.30
  -1  -6   6    2.50    3.30
   0   6  -6  432.16   19.40
   0   6  -6  434.36   19.30
   0   6  -6  444.76   18.20
   0   6  -6  416.26   16.60
   0   6  -6  456.75   17.70
   0   6  -6  440.46   18.50
   0   6  -6  461.85   19.00
   0  -6   6  461.85   17.00
   0  -6   6  469.55   15.00
   0  -6   6  455.55   14.80
   0  -6   6  454.55   16.30
   0  -6   6  436.16   14.40
   0  -6   6  455.95   15.30
   0  -6   6  425.06   16.60
  -1   6  -6  494.85   18.70
  -1   6  -6  489.35   21.40
  -1   6  -6  494.85   20.20
  -1   6  -6  479.95   19.60
  -1   6  -6  496.95   21.30
  -1   6  -6  474.35   20.20
   1  -6   6  496.15   16.10
   1  -6   6  479.95   17.70
   1  -6   6  482.65   16.90
   1  -6   6  484.35   18.70
   1  -6   6  481.15   16.80
   1  -6   6  514.45   17.20
  -2   6  -6   21.90    7.00
  -2   6  -6   15.40    6.10
  -2   6  -6   16.90    4.50
  -2   6  -6   17.90    6.60
  -2   6  -6   14.40    5.70
  -2   6  -6   25.00    5.70
  -2   6  -6   29.70    8.00
  -2   6  -6   19.90    5.90
   2  -6   6   15.70    4.20
   2  -6   6   21.40    4.60
   2  -6   6   11.80    4.70
   2  -6   6   17.90    4.10
   2  -6   6   17.10    4.60
   2  -6   6   16.50    3.90
   2  -6   6   15.80    4.70
   2  -6   6   14.00    4.00
  -3   6  -6  419.06   23.00
  -3   6  -6  394.76   16.90
  -3   6  -6  435.16   19.10
  -3   6  -6  395.86   18.20
  -3   6  -6  406.56   21.30
  -3   6  -6  391.76   18.00
  -3   6  -6  430.26   19.00
  -3   6  -6  391.26   20.00
   3  -6   6  417.06   15.70
   3  -6   6  407.26   17.20
   3  -6   6  418.86   17.90
   3  -6   6  390.66   14.80
   3  -6   6  410.06   16.70
   3  -6   6  371.46   16.30
   3  -6   6  394.96   14.80
   3  -6   6  369.66   16.80
  -4   6  -6  122.69   12.60
  -4   6  -6  110.79   13.10
  -4   6  -6   99.79   13.90
  -4   6  -6  107.69   12.30
  -4   6  -6   72.69   13.20
  -4   6  -6  111.69   14.50
  -4   6  -6  106.19   12.30
  -4   6  -6  121.49   14.00
   4  -6   6  103.89    9.80
   4  -6   6  103.79   11.10
   4  -6   6  109.39   11.20
   4  -6   6  111.39   11.40
   4  -6   6   99.79   11.20
   4  -6   6  122.39   10.40
   4  -6   6   85.89   10.00
   4  -6   6  124.99   10.30
   5   5  -6  252.47   15.00
   5   5  -6  234.48   16.50
   5   5  -6  238.88   15.10
   5   5  -6  190.88   17.50
   5   5  -6  222.48   14.80
  -5  -5   6  257.27   14.00
  -5  -5   6  249.28   12.90
  -5  -5   6  227.38   11.20
   4   5  -6   73.39    8.60
   4   5  -6   61.79    7.00
   4   5  -6   72.99   10.20
   4   5  -6   74.99    9.20
   4   5  -6   57.99    7.40
  -4  -5   6   60.19    6.10
  -4  -5   6   63.09    6.70
  -4  -5   6   68.09    7.70
  -4  -5   6   63.99    5.20
  -4  -5   6   57.69    5.40
   3   5  -6  489.15   16.50
   3   5  -6  489.05   19.50
   3   5  -6  490.55   20.90
   3   5  -6  491.35   19.50
   3   5  -6  464.25   17.50
   3   5  -6  461.55   17.60
  -3  -5   6  490.85   15.40
  -3  -5   6  477.25   14.80
  -3  -5   6  504.05   17.50
  -3  -5   6  470.75   15.90
  -3  -5   6  516.05   15.70
   2   5  -6  450.65   18.10
   2   5  -6  457.75   16.20
   2   5  -6  464.75   18.40
   2   5  -6  470.25   18.50
   2   5  -6  431.26   17.60
  -2  -5   6  427.76   14.30
  -2  -5   6  442.06   13.50
  -2  -5   6  469.55   15.00
  -2  -5   6  450.75   14.90
  -2  -5   6  418.16   14.10
  -2  -5   6  461.65   13.60
  -2  -5   6  466.45   16.40
  -2  -5   6  455.05   14.20
   1   5  -6  847.82   26.70
   1   5  -6  823.02   27.00
   1   5  -6  819.22   27.90
   1   5  -6  862.41   28.30
   1   5  -6  845.82   27.00
  -1  -5   6  788.92   24.30
  -1  -5   6  844.42   24.90
  -1  -5   6  836.52   25.10
  -1  -5   6  817.02   23.50
  -1  -5   6  826.72   23.70
  -1  -5   6  850.31   23.60
  -1  -5   6  775.92   24.50
   0   5  -6 1287.77   40.10
   0   5  -6 1312.77   38.40
   0   5  -6 1289.57   39.10
   0   5  -6 1311.37   36.90
   0   5  -6 1282.37   38.90
   0   5  -6 1256.27   39.70
   0  -5   6 1302.87   37.40
   0  -5   6 1175.78   34.30
   0  -5   6 1326.77   35.90
   0  -5   6 1281.17   35.70
   0  -5   6 1289.77   35.80
   0  -5   6 1261.77   37.00
   0  -5   6 1285.17   34.50
   0  -5   6 1279.27   36.70
   0  -5   6 1238.08   36.80
  -1   5  -6   58.99    6.90
  -1   5  -6   58.49    5.20
  -1   5  -6   63.49    5.10
  -1   5  -6   60.19    8.00
  -1   5  -6   52.99    6.70
  -1   5  -6   53.79    6.90
  -1   5  -6   80.09    8.10
  -1   5  -6   64.89    6.80
  -1   5  -6   65.59    6.00
  -1   5  -6   69.49    7.60
   1  -5   6   66.19    5.50
   1  -5   6   61.99    5.40
   1  -5   6   70.79    5.20
   1  -5   6   50.79    4.90
   1  -5   6   64.99    6.00
   1  -5   6   69.49    6.30
   1  -5   6   61.19    5.40
   1  -5   6   61.99    5.20
   1  -5   6   63.29    7.20
   1  -5   6   62.29    8.10
  -2   5  -6  221.68   11.60
  -2   5  -6  225.98   11.60
  -2   5  -6  211.38   13.50
  -2   5  -6  228.98   14.20
  -2   5  -6  216.08   10.70
  -2   5  -6  227.48   12.60
  -2   5  -6  227.78   11.70
  -2   5  -6  200.28   11.80
  -2   5  -6  213.08   10.60
  -2   5  -6  196.48   10.40
   2  -5   6  219.48    8.50
   2  -5   6  226.78   10.20
   2  -5   6  213.38   10.40
   2  -5   6  223.08    8.80
   2  -5   6  206.68   10.00
   2  -5   6  229.98   11.20
   2  -5   6  213.28   10.20
   2  -5   6  210.88    9.20
  -3   5  -6  289.67   14.80
  -3   5  -6  297.57   16.80
  -3   5  -6  302.87   14.80
  -3   5  -6  284.17   15.50
  -3   5  -6  282.37   13.90
  -3   5  -6  268.67   12.40
  -3   5  -6  281.17   14.20
  -3   5  -6  288.27   14.00
  -3   5  -6  298.77   18.20
   3  -5   6  277.67   13.60
   3  -5   6  305.47   13.50
   3  -5   6  273.77   11.30
   3  -5   6  301.07   12.10
   3  -5   6  276.87   12.40
   3  -5   6  285.17   12.90
   3  -5   6  287.17   11.50
   3  -5   6  294.57   13.60
   3  -5   6  285.27   10.60
  -4   5  -6   25.50    7.70
  -4   5  -6   23.30    6.10
  -4   5  -6   24.10    6.50
  -4   5  -6   25.30    9.20
  -4   5  -6   25.40    6.10
  -4   5  -6   52.49   10.60
  -4   5  -6   25.00    7.10
  -4   5  -6   22.90    8.10
   4  -5   6   28.30    4.80
   4  -5   6   20.20    5.00
   4  -5   6   27.50    6.10
   4  -5   6   13.90    4.80
   4  -5   6   22.60    5.20
   4  -5   6   27.10    5.50
   4  -5   6   13.60    5.30
   4  -5   6   28.70    5.30
   4  -5   6   19.70    5.70
   5   4  -6   17.40    6.40
   5   4  -6   27.50    6.20
   5   4  -6   12.70    7.00
   5   4  -6   17.90    6.40
   5   4  -6   16.40    5.50
   5   4  -6   22.20    5.90
  -5  -4   6   16.90    5.00
  -5  -4   6   18.50    6.80
  -5  -4   6   11.20    4.90
  -5  -4   6   11.80    4.20
  -5  -4   6   18.70    4.80
   4   4  -6 1289.77   40.30
   4   4  -6 1369.66   39.70
   4   4  -6 1361.56   41.10
   4   4  -6 1306.07   39.70
   4   4  -6 1381.56   44.80
   4   4  -6 1388.46   42.60
  -4  -4   6 1438.66   41.60
  -4  -4   6 1369.26   39.10
  -4  -4   6 1460.55   37.70
  -4  -4   6 1400.16   39.20
  -4  -4   6 1387.36   40.60
  -4  -4   6 1411.26   39.10
  -4  -4   6 1461.35   40.70
   3   4  -6  309.47   14.80
   3   4  -6  291.67   11.20
   3   4  -6  296.47   12.00
   3   4  -6  294.27   13.60
   3   4  -6  298.67   12.10
  -3  -4   6  295.07   10.20
  -3  -4   6  296.27   11.30
  -3  -4   6  298.07   11.20
  -3  -4   6  280.27   10.50
  -3  -4   6  289.57   10.70
  -3  -4   6  308.57   12.00
  -3  -4   6  303.07   10.40
   2   4  -6 1736.13   49.60
   2   4  -6 1709.93   49.80
   2   4  -6 1733.53   47.00
   2   4  -6 1713.93   49.90
   2   4  -6 1720.93   49.00
   2   4  -6 1628.64   45.90
  -2  -4   6 1672.33   46.10
  -2  -4   6 1715.23   45.70
  -2  -4   6 1672.33   45.80
  -2  -4   6 1685.83   46.30
  -2  -4   6 1688.23   45.60
  -2  -4   6 1689.13   46.10
  -2  -4   6 1750.42   48.00
  -2  -4   6 1794.62   46.70
   1   4  -6 1564.64   42.50
   1   4  -6 1596.34   46.60
   1   4  -6 1623.94   45.50
   1   4  -6 1593.24   45.30
   1   4  -6 1587.44   45.30
   1   4  -6 1580.44   46.00
  -1  -4   6 1590.24   42.70
  -1  -4   6 1600.74   43.40
  -1  -4   6 1574.44   43.40
  -1  -4   6 1474.05   41.70
  -1  -4   6 1563.64   43.10
  -1  -4   6 1588.54   43.20
  -1  -4   6 1564.94   41.50
  -1  -4   6 1571.44   42.70
  -1  -4   6 1591.14   42.60
   0   4  -6   37.50    5.50
   0   4  -6   40.40    6.00
   0   4  -6   44.70    5.50
   0   4  -6   37.70    4.70
   0   4  -6   39.50    5.10
   0   4  -6   37.60    5.10
   0   4  -6   36.10    4.20
   0   4  -6   41.40    5.40
   0  -4   6   28.10    3.40
   0  -4   6   38.10    3.90
   0  -4   6   44.60    5.20
   0  -4   6   34.00    4.30
   0  -4   6   41.80    5.40
   0  -4   6   36.00    2.70
   0  -4   6   45.50    4.00
   0  -4   6   40.00    4.00
  -1   4  -6 1527.45   43.70
  -1   4  -6 1554.84   45.60
  -1   4  -6 1589.14   46.70
  -1   4  -6 1558.64   42.90
  -1   4  -6 1528.55   45.20
  -1   4  -6 1572.44   45.00
  -1   4  -6 1560.54   43.40
  -1   4  -6 1555.14   42.70
  -1   4  -6 1466.65   42.60
  -1   4  -6 1604.34   43.90
  -1   4  -6 1582.74   45.10
  -1   4  -6 1612.74   47.80
  -1   4  -6 1516.35   42.00
   1  -4   6 1578.84   43.70
   1  -4   6 1561.64   45.10
   1  -4   6 1597.64   44.40
   1  -4   6 1538.85   41.90
   1  -4   6 1547.25   43.40
   1  -4   6 1551.14   44.70
   1  -4   6 1514.75   43.30
   1  -4   6 1598.94   43.30
  -2   4  -6  697.23   23.20
  -2   4  -6  693.83   23.10
  -2   4  -6  679.33   23.20
  -2   4  -6  675.73   26.10
  -2   4  -6  716.23   23.10
  -2   4  -6  704.63   24.20
  -2   4  -6  688.43   23.80
  -2   4  -6  661.83   22.30
  -2   4  -6  692.13   22.30
  -2   4  -6  724.63   25.40
   2  -4   6  720.03   22.40
   2  -4   6  700.73   24.60
   2  -4   6  685.83   22.70
   2  -4   6  709.03   22.10
   2  -4   6  691.23   21.60
   2  -4   6  712.43   21.00
   2  -4   6  701.43   22.50
   2  -4   6  705.43   20.20
   2  -4   6  682.13   20.00
   2  -4   6  667.73   19.00
  -3   4  -6  184.58   10.30
  -3   4  -6  210.68   13.20
  -3   4  -6  179.98   11.50
  -3   4  -6  193.58   10.20
  -3   4  -6  180.28    9.80
  -3   4  -6  177.08   11.20
  -3   4  -6  184.28    7.30
  -3   4  -6  203.48   11.80
  -3   4  -6  186.48   13.90
   3  -4   6  181.88    8.80
   3  -4   6  190.58    9.90
   3  -4   6  191.18   10.20
   3  -4   6  186.98    9.70
   3  -4   6  194.78    9.00
   3  -4   6  193.88   10.10
   3  -4   6  187.08    8.70
   3  -4   6  195.78    8.70
   3  -4   6  183.98    7.70
  -4   4  -6  172.48   13.50
  -4   4  -6  181.38   13.60
  -4   4  -6  166.58   10.20
  -4   4  -6  155.38    9.20
  -4   4  -6  168.58   14.20
  -4   4  -6  152.48   15.40
  -4   4  -6  185.68   12.80
  -4   4  -6  181.68   10.60
  -4   4  -6  166.38   10.60
   4  -4   6  175.78   11.20
   4  -4   6  171.98    9.60
   4  -4   6  184.28   10.60
   4  -4   6  177.78    9.90
   4  -4   6  180.88   10.70
   4  -4   6  170.28    9.00
   4  -4   6  195.48    8.70
   4  -4   6  186.28   11.10
   4  -4   6  179.98    9.80
  -5   4  -6  150.88   19.00
  -5   4  -6  154.08   11.90
  -5   4  -6  150.78   11.80
  -5   4  -6  162.38   17.90
  -5   4  -6  177.98   16.70
  -5   4  -6  185.48   15.30
  -5   4  -6  178.38   14.90
  -5   4  -6  157.98   15.40
   5  -4   6  162.78   12.90
   5  -4   6  168.88   11.50
   5  -4   6  143.19   11.30
   5  -4   6  157.98   10.00
   5  -4   6  166.08   12.70
   5  -4   6  173.58   12.10
   5  -4   6  177.88    9.60
   5  -4   6  146.69   11.30
   6   3  -6   68.59    9.30
   6   3  -6   83.49   10.50
   6   3  -6  105.59   14.20
   6   3  -6   71.59    8.60
  -6  -3   6   66.49    8.30
  -6  -3   6   69.29    8.50
  -6  -3   6   66.49    8.30
  -6  -3   6   73.59   10.50
  -6  -3   6   62.69    8.70
   5   3  -6  644.94   23.60
   5   3  -6  617.24   19.90
   5   3  -6  579.34   21.00
   5   3  -6  620.64   22.40
   5   3  -6  643.84   25.80
   5   3  -6  587.84   21.60
  -5  -3   6  631.34   22.70
  -5  -3   6  631.64   21.70
  -5  -3   6  632.84   21.40
  -5  -3   6  614.44   18.20
  -5  -3   6  604.14   21.40
  -5  -3   6  574.94   22.50
   4   3  -6  148.49    9.90
   4   3  -6  132.89    7.40
   4   3  -6  139.49    8.30
   4   3  -6  134.29    8.20
   4   3  -6  143.29    7.90
   4   3  -6  149.19   11.00
  -4  -3   6  138.39    8.40
  -4  -3   6  144.39    9.50
  -4  -3   6  143.49    7.60
  -4  -3   6  150.78    8.10
  -4  -3   6  151.98    8.10
  -4  -3   6  152.78    8.80
  -4  -3   6  155.58    6.60
   3   3  -6  106.59    8.40
   3   3  -6  109.89    6.60
   3   3  -6  126.49    8.00
   3   3  -6  116.99    6.30
   3   3  -6  123.39    6.70
   3   3  -6  114.39    6.20
  -3  -3   6  111.59    5.60
  -3  -3   6  114.99    6.60
  -3  -3   6  117.89    6.80
  -3  -3   6  111.09    6.80
  -3  -3   6  119.39    6.20
  -3  -3   6  119.29    6.50
  -3  -3   6  115.79    5.80
   2   3  -6 2410.76   66.99
   2   3  -6 2489.85   70.69
   2   3  -6 2561.74   70.19
   2   3  -6 2565.34   70.79
   2   3  -6 2564.24   67.59
   2   3  -6 2630.54   70.09
   2   3  -6 2588.04   66.79
  -2  -3   6 2496.25   67.69
  -2  -3   6 2515.85   67.69
  -2  -3   6 2686.23   67.69
  -2  -3   6 2663.63   69.09
  -2  -3   6 2533.95   67.39
  -2  -3   6 2541.45   66.29
  -2  -3   6 2588.14   67.89
  -2  -3   6 2471.35   66.69
  -2  -3   6 2543.65   67.89
   1   3  -6   23.90    3.00
   1   3  -6    9.10    3.10
   1   3  -6   21.00    2.40
   1   3  -6   20.00    4.00
   1   3  -6   15.90    3.30
   1   3  -6   19.60    2.30
   1   3  -6   16.50    2.50
   1   3  -6   23.10    3.60
   1   3  -6   15.00    3.80
   1   3  -6   12.00    3.40
   1   3  -6   18.30    2.00
  -1  -3   6   16.30    3.20
  -1  -3   6   15.80    2.30
  -1  -3   6   15.20    2.60
  -1  -3   6   15.60    2.20
  -1  -3   6   15.50    2.30
  -1  -3   6   12.00    2.30
  -1  -3   6   14.00    3.20
  -1  -3   6   16.20    2.50
  -1  -3   6   16.90    2.70
   0   3  -6 3515.45   91.39
   0   3  -6 3483.35   91.69
   0   3  -6 3604.44   90.89
   0   3  -6 3555.24   94.89
   0   3  -6 3561.44   89.79
   0   3  -6 3503.35   92.19
   0   3  -6 3268.57   90.89
   0   3  -6 3524.65   93.69
   0   3  -6 3512.35   93.49
   0  -3   6 3426.56   92.19
   0  -3   6 3417.66   91.59
   0  -3   6 3532.35   91.79
   0  -3   6 3366.86   91.49
   0  -3   6 3481.95   91.39
   0  -3   6 3519.85   91.49
  -1   3  -6  498.95   16.40
  -1   3  -6  495.05   15.20
  -1   3  -6  492.65   17.10
  -1   3  -6  488.75   18.80
  -1   3  -6  415.66   16.00
  -1   3  -6  461.05   15.70
  -1   3  -6  500.25   17.90
  -1   3  -6  479.15   15.70
  -1   3  -6  480.25   17.40
  -1   3  -6  484.15   15.20
  -1   3  -6  501.25   16.60
   1  -3   6  491.65   15.90
   1  -3   6  487.35   15.70
   1  -3   6  472.15   15.30
   1  -3   6  471.35   17.00
   1  -3   6  498.15   16.10
   1  -3   6  492.95   17.40
   1  -3   6  482.65   15.70
   1  -3   6  492.35   14.30
  -2   3  -6  200.08   10.40
  -2   3  -6  205.88    7.10
  -2   3  -6  206.48    9.40
  -2   3  -6  208.48    9.80
  -2   3  -6  192.88   10.40
  -2   3  -6  216.88    9.70
  -2   3  -6  198.88   10.90
  -2   3  -6  211.28   10.30
  -2   3  -6  229.78   12.60
   2  -3   6  190.98    9.10
   2  -3   6  200.68    6.60
   2  -3   6  195.38    7.60
   2  -3   6  199.78   11.70
   2  -3   6  197.68    7.80
   2  -3   6  206.78    9.00
   2  -3   6  206.78    9.20
   2  -3   6  194.58    8.30
   2  -3   6  209.88    9.40
  -3   3  -6  989.50   29.30
  -3   3  -6  986.60   31.10
  -3   3  -6  997.20   30.60
  -3   3  -6  963.70   27.80
  -3   3  -6 1007.30   34.70
  -3   3  -6  985.10   32.50
  -3   3  -6  997.50   33.00
  -3   3  -6 1000.90   31.50
  -3   3  -6  939.41   28.10
  -3   3  -6  987.50   32.70
   3  -3   6  983.80   30.30
   3  -3   6 1013.10   29.40
   3  -3   6  975.80   28.70
   3  -3   6 1076.19   29.10
   3  -3   6  980.70   27.60
   3  -3   6  977.00   30.10
   3  -3   6 1010.40   30.50
   3  -3   6  968.10   30.60
   3  -3   6  996.00   28.90
  -4   3  -6  273.67   13.90
  -4   3  -6  278.87   11.40
  -4   3  -6  265.87   15.40
  -4   3  -6  271.97   17.40
  -4   3  -6  256.57   15.90
  -4   3  -6  290.87   14.30
  -4   3  -6  280.57   13.10
  -4   3  -6  274.97   15.10
   4  -3   6  271.77   12.10
   4  -3   6  269.87   10.60
   4  -3   6  265.57   12.40
   4  -3   6  275.07   12.60
   4  -3   6  259.27   13.10
   4  -3   6  273.47   11.90
   4  -3   6  281.57   10.80
   4  -3   6  282.27   12.90
  -5   3  -6  107.29   12.30
  -5   3  -6  129.79   16.50
  -5   3  -6  115.49   10.80
  -5   3  -6  138.09   12.20
  -5   3  -6  131.39   14.00
  -5   3  -6  112.69   15.10
  -5   3  -6  120.89   11.80
  -5   3  -6  118.99   12.70
   5  -3   6  107.89    9.70
   5  -3   6  111.49    9.80
   5  -3   6  128.39   10.10
   5  -3   6   93.89   10.80
   5  -3   6  117.49    9.00
   5  -3   6  110.19    7.60
   5  -3   6  116.79   10.00
   5  -3   6  110.29   11.00
   6   2  -6   76.09    8.80
   6   2  -6   85.09   11.30
   6   2  -6   77.29    8.60
   6   2  -6   79.79    9.20
  -6  -2   6   83.49    9.70
  -6  -2   6   71.49   10.00
  -6  -2   6   81.29    9.00
  -6  -2   6   92.39    9.90
  -6  -2   6   88.49   10.10
  -6  -2   6  102.79   10.40
   5   2  -6  142.99    9.80
   5   2  -6  146.79    9.30
   5   2  -6  151.98    9.30
   5   2  -6  158.38   10.90
   5   2  -6  152.68    8.80
   5   2  -6  142.99   11.80
  -5  -2   6  137.79   10.90
  -5  -2   6  142.69    9.30
  -5  -2   6  147.89    9.40
  -5  -2   6  156.08   10.20
  -5  -2   6  157.38   10.20
   4   2  -6  516.55   15.90
   4   2  -6  520.15   15.70
   4   2  -6  529.65   19.20
   4   2  -6  552.24   21.20
   4   2  -6  521.55   18.00
   4   2  -6  518.55   16.70
   4   2  -6  528.05   18.00
   4   2  -6  540.55   17.70
   4   2  -6  549.74   18.10
  -4  -2   6  555.94   18.70
  -4  -2   6  524.65   16.00
  -4  -2   6  559.64   18.80
  -4  -2   6  530.25   16.30
  -4  -2   6  571.84   19.10
  -4  -2   6  569.84   18.70
  -4  -2   6  578.54   19.90
  -4  -2   6  529.85   18.10
  -4  -2   6  490.75   16.70
  -4  -2   6  548.35   19.00
   3   2  -6 1914.71   53.79
   3   2  -6 1970.20   53.29
   3   2  -6 2010.70   53.09
   3   2  -6 1988.50   55.39
   3   2  -6 1955.20   52.49
   3   2  -6 1978.00   52.49
   3   2  -6 2079.09   57.39
   3   2  -6 1974.90   53.59
   3   2  -6 2069.19   54.09
  -3  -2   6 1988.70   53.39
  -3  -2   6 1960.40   54.19
  -3  -2   6 2012.00   52.09
  -3  -2   6 1961.80   54.29
  -3  -2   6 1973.00   54.89
  -3  -2   6 1949.70   52.79
  -3  -2   6 1932.41   53.79
  -3  -2   6 2015.60   54.19
  -3  -2   6 1983.40   54.59
  -3  -2   6 1987.90   52.79
   2   2  -6   28.50    3.30
   2   2  -6   25.30    2.90
   2   2  -6   30.90    3.40
   2   2  -6   25.60    3.50
   2   2  -6   24.70    2.80
   2   2  -6   22.30    2.70
   2   2  -6   15.40    3.20
   2   2  -6   28.90    2.80
   2   2  -6   33.90    4.40
   2   2  -6   31.70    4.30
   2   2  -6   25.80    4.20
   2   2  -6   26.80    3.40
  -2  -2   6   25.60    2.30
  -2  -2   6   24.40    2.90
  -2  -2   6   30.30    3.10
  -2  -2   6   27.00    3.50
  -2  -2   6   26.20    3.30
  -2  -2   6   27.10    3.90
  -2  -2   6   36.40    3.60
  -2  -2   6   25.80    3.60
  -2  -2   6   24.20    3.20
   1   2  -6 1802.12   50.29
   1   2  -6 1758.22   46.50
   1   2  -6 1801.32   49.60
   1   2  -6 1800.72   49.30
   1   2  -6 1787.62   47.50
   1   2  -6 1781.02   48.20
   1   2  -6 1740.23   49.60
   1   2  -6 1749.22   47.40
   1   2  -6 1780.12   47.90
   1   2  -6 1803.02   47.90
  -1  -2   6 1826.32   47.00
  -1  -2   6 1751.12   47.80
  -1  -2   6 1762.32   48.20
  -1  -2   6 1801.92   48.30
  -1  -2   6 1706.43   48.50
  -1  -2   6 1743.23   48.60
  -1  -2   6 1915.21   48.60
  -1  -2   6 1804.02   47.40
  -1  -2   6 1818.32   47.50
  -1  -2   6 1737.23   47.80
   0   2  -6 2544.45   72.69
   0   2  -6 2845.32   70.79
   0   2  -6 2668.83   73.59
   0   2  -6 2720.63   73.59
   0   2  -6 2804.62   74.19
   0   2  -6 2793.42   72.49
   0   2  -6 2780.42   72.19
   0   2  -6 2721.83   73.39
   0   2  -6 2659.73   72.89
   0   2  -6 2769.92   72.89
   0   2  -6 2715.43   71.29
   0   2  -6 2765.82   74.99
   0  -2   6 2720.93   72.69
   0  -2   6 2721.13   72.49
   0  -2   6 2789.02   72.29
   0  -2   6 2746.43   72.49
   0  -2   6 2781.82   73.39
   0  -2   6 2735.73   72.29
   0  -2   6 2758.52   72.99
   0  -2   6 2743.93   71.39
  -1   2  -6  101.19    6.70
  -1   2  -6  105.49    5.90
  -1   2  -6   98.49    6.20
  -1   2  -6   96.79    7.70
  -1   2  -6   99.79    5.50
  -1   2  -6  100.09    6.20
  -1   2  -6  101.69    6.20
  -1   2  -6  105.39    6.80
  -1   2  -6   95.59    4.60
  -1   2  -6  100.69    4.50
   1  -2   6   75.39    5.10
   1  -2   6  103.19    5.70
   1  -2   6   97.29    4.10
   1  -2   6  100.69    4.50
   1  -2   6   97.09    5.60
   1  -2   6   94.69    6.40
   1  -2   6  102.59    5.60
   1  -2   6   75.69    4.70
   1  -2   6  101.49    7.10
  -2   2  -6 2033.80   54.09
  -2   2  -6 2021.90   57.39
  -2   2  -6 2029.40   55.99
  -2   2  -6 2110.19   57.49
  -2   2  -6 2089.39   56.69
  -2   2  -6 2025.70   56.09
  -2   2  -6 2092.19   57.89
  -2   2  -6 2008.40   56.39
  -2   2  -6 2015.50   58.89
   2  -2   6 2022.70   55.59
   2  -2   6 1928.21   55.39
   2  -2   6 2042.10   55.49
   2  -2   6 2053.79   54.19
   2  -2   6 2057.19   54.49
   2  -2   6 1996.60   52.99
   2  -2   6 2005.90   55.99
   2  -2   6 2010.40   54.39
   2  -2   6 1954.10   55.29
  -3   2  -6   10.40    4.30
  -3   2  -6    3.70    3.30
  -3   2  -6    8.00    5.20
  -3   2  -6   11.00    3.50
  -3   2  -6   13.20    4.90
  -3   2  -6   14.40    4.50
  -3   2  -6   11.70    4.40
  -3   2  -6    7.10    3.60
  -3   2  -6   10.80    4.40
  -3   2  -6   11.70    3.60
   3  -2   6    8.20    2.70
   3  -2   6    8.60    3.00
   3  -2   6   11.60    3.10
   3  -2   6   15.50    3.60
   3  -2   6   13.60    4.30
   3  -2   6   10.00    2.50
   3  -2   6    7.60    2.60
   3  -2   6   13.50    3.10
   3  -2   6   11.90    3.30
  -4   2  -6   42.20    6.60
  -4   2  -6   53.59    8.70
  -4   2  -6   37.20    7.40
  -4   2  -6   56.39    7.10
  -4   2  -6   48.90    7.50
  -4   2  -6   55.19    7.50
   4  -2   6   66.49    7.20
   4  -2   6   56.09    5.60
   4  -2   6   52.89    6.10
   4  -2   6   57.09    7.20
   4  -2   6   52.59    5.80
   4  -2   6   55.39    6.50
   4  -2   6   57.69    4.80
   4  -2   6   47.10    6.00
  -5   2  -6   93.69   11.30
  -5   2  -6   96.69   10.20
  -5   2  -6   94.29   10.10
  -5   2  -6   92.39   10.10
  -5   2  -6   78.59   11.60
  -5   2  -6   84.19   11.40
   5  -2   6   97.39    9.80
   5  -2   6   98.79    9.10
   5  -2   6   93.29   10.20
   5  -2   6   92.59    6.30
   5  -2   6   78.89    8.60
   5  -2   6   77.69    8.10
   5  -2   6   98.69    9.00
   5  -2   6   87.49    9.10
   6   1  -6   19.60    4.00
   6   1  -6   31.80    6.00
   6   1  -6   28.10    5.90
   6   1  -6   14.50    6.10
   6   1  -6   14.70    7.20
   6   1  -6   17.80    5.50
  -6  -1   6   31.00    7.00
  -6  -1   6   22.40    6.60
  -6  -1   6   24.90    7.20
  -6  -1   6   17.60    6.30
  -6  -1   6   19.60    6.20
  -6  -1   6   19.90    7.90
   5   1  -6  352.86   14.10
   5   1  -6  355.86   14.30
   5   1  -6  360.06   17.10
   5   1  -6  320.67   15.00
   5   1  -6  336.37   13.80
   5   1  -6  346.37   12.50
   5   1  -6  333.47   12.70
  -5  -1   6  339.47   15.00
  -5  -1   6  336.87   14.70
  -5  -1   6  344.57   15.30
  -5  -1   6  350.56   16.60
  -5  -1   6  339.97   14.70
   4   1  -6  435.96   15.30
   4   1  -6  427.46   14.10
   4   1  -6  428.16   15.10
   4   1  -6  414.16   15.00
   4   1  -6  433.36   16.00
   4   1  -6  436.86   14.50
   4   1  -6  447.46   17.90
   4   1  -6  442.76   15.10
   4   1  -6  434.96   15.90
  -4  -1   6  430.66   16.20
  -4  -1   6  431.86   15.80
  -4  -1   6  433.36   16.20
  -4  -1   6  424.16   15.80
  -4  -1   6  431.96   14.20
  -4  -1   6  425.16   15.70
   3   1  -6  557.74   16.20
   3   1  -6  506.05   17.00
   3   1  -6  463.45   16.00
   3   1  -6  498.35   16.70
   3   1  -6  494.75   16.30
   3   1  -6  512.95   15.90
   3   1  -6  490.05   15.80
   3   1  -6  501.75   18.50
   3   1  -6  497.55   14.80
  -3  -1   6  506.85   15.20
  -3  -1   6  498.75   17.10
  -3  -1   6  500.25   16.80
  -3  -1   6  504.35   16.90
  -3  -1   6  473.65   17.40
  -3  -1   6  507.55   16.80
  -3  -1   6  507.45   15.40
  -3  -1   6  502.95   16.80
  -3  -1   6  499.35   16.40
   2   1  -6 1561.04   43.00
   2   1  -6 1649.33   44.60
   2   1  -6 1603.44   42.50
   2   1  -6 1501.95   42.50
   2   1  -6 1514.85   41.20
   2   1  -6 1547.65   42.30
   2   1  -6 1480.35   41.90
   2   1  -6 1541.55   44.00
   2   1  -6 1543.65   40.50
   2   1  -6 1489.25   42.20
   2   1  -6 1476.85   40.60
  -2  -1   6 1590.34   42.70
  -2  -1   6 1532.05   42.50
  -2  -1   6 1565.84   41.70
  -2  -1   6 1514.55   42.70
  -2  -1   6 1535.25   42.50
  -2  -1   6 1557.54   43.10
   1   1  -6 3164.98   81.89
   1   1  -6 3248.38   81.79
   1   1  -6 3107.29   83.29
   1   1  -6 3134.29   80.29
   1   1  -6 3159.88   82.39
   1   1  -6 3039.90   82.39
   1   1  -6 3129.99   82.19
   1   1  -6 2953.20   81.39
   1   1  -6 3145.39   82.99
   1   1  -6 3232.28   82.29
  -1  -1   6 3186.48   82.59
  -1  -1   6 3033.60   81.49
  -1  -1   6 3090.79   81.69
  -1  -1   6 3101.59   82.39
  -1  -1   6 3041.40   81.89
  -1  -1   6 3123.09   81.39
  -1  -1   6 3099.89   82.39
  -1  -1   6 3113.19   82.09
  -1  -1   6 3073.69   82.29
  -1  -1   6 3137.19   82.69
   0   1  -6  673.63   20.30
   0   1  -6  710.53   21.90
   0   1  -6  664.33   21.40
   0   1  -6  677.63   19.20
   0   1  -6  636.24   20.30
   0   1  -6  700.43   18.70
   0   1  -6  703.63   19.80
   0   1  -6  696.83   20.90
   0   1  -6  672.23   21.50
   0   1  -6  700.53   20.40
   0   1  -6  714.83   21.30
   0   1  -6  682.53   20.50
   0  -1   6  662.43   20.50
   0  -1   6  685.93   21.20
   0  -1   6  684.63   21.00
   0  -1   6  683.83   20.10
   0  -1   6  716.33   20.30
   0  -1   6  708.33   20.00
   0  -1   6  678.53   19.80
   0  -1   6  711.43   20.40
   0  -1   6  676.53   20.50
   0  -1   6  695.53   20.90
  -1   1  -6 2092.49   55.39
  -1   1  -6 2082.59   56.79
  -1   1  -6 2107.79   57.49
  -1   1  -6 2062.49   56.39
  -1   1  -6 2034.50   55.89
  -1   1  -6 2083.39   54.29
  -1   1  -6 2007.30   56.89
  -1   1  -6 2117.79   53.39
  -1   1  -6 2045.40   54.89
  -1   1  -6 2055.29   54.79
  -1   1  -6 2045.10   55.69
  -1   1  -6 2129.79   54.59
   1  -1   6 1993.50   55.79
   1  -1   6 2075.19   56.69
   1  -1   6 2054.19   54.59
   1  -1   6 2050.19   55.69
   1  -1   6 2018.90   54.69
   1  -1   6 2069.19   55.69
   1  -1   6 2059.09   55.29
   1  -1   6 1952.20   55.79
   1  -1   6 2040.10   54.79
   1  -1   6 2102.09   55.59
  -2   1  -6  454.75   15.00
  -2   1  -6  463.45   16.50
  -2   1  -6  465.45   18.00
  -2   1  -6  448.66   17.00
  -2   1  -6  469.55   16.10
  -2   1  -6  477.05   15.10
  -2   1  -6  447.46   16.30
  -2   1  -6  470.05   16.90
  -2   1  -6  474.45   16.40
   2  -1   6  466.85   15.60
   2  -1   6  482.65   15.60
   2  -1   6  456.15   14.40
   2  -1   6  463.65   14.00
   2  -1   6  465.15   15.50
   2  -1   6  453.55   15.00
   2  -1   6  454.55   14.90
   2  -1   6  424.86   15.10
   2  -1   6  458.75   14.20
   2  -1   6  475.15   15.80
  -3   1  -6  456.05   17.70
  -3   1  -6  466.75   17.50
  -3   1  -6  461.15   17.80
  -3   1  -6  464.95   16.00
  -3   1  -6  457.95   17.50
  -3   1  -6  462.35   17.00
  -3   1  -6  478.65   15.80
  -3   1  -6  468.55   19.50
  -3   1  -6  445.26   18.30
   3  -1   6  432.96   15.80
   3  -1   6  465.85   16.60
   3  -1   6  462.65   16.30
   3  -1   6  454.75   16.00
   3  -1   6  484.85   16.20
   3  -1   6  487.45   14.50
   3  -1   6  442.56   15.00
   3  -1   6  460.65   16.30
   3  -1   6  472.85   15.90
  -4   1  -6  919.51   32.50
  -4   1  -6  963.20   33.90
  -4   1  -6  971.10   32.30
  -4   1  -6  988.00   32.50
  -4   1  -6 1033.10   30.00
  -4   1  -6  984.90   35.10
   4  -1   6  968.20   30.70
   4  -1   6  987.60   30.70
   4  -1   6 1031.30   31.40
   4  -1   6 1019.70   29.60
   4  -1   6  991.90   30.80
   4  -1   6 1011.90   27.80
   4  -1   6  996.40   30.40
   4  -1   6  985.60   30.60
  -5   1  -6   11.00    6.30
  -5   1  -6   -4.50    7.50
  -5   1  -6    4.40    6.00
  -5   1  -6    5.90    4.90
  -5   1  -6    9.10    7.10
  -5   1  -6  -10.80    4.90
   5  -1   6    5.10    6.40
   5  -1   6    3.60    4.10
   5  -1   6   -8.80    3.90
   5  -1   6    1.60    4.70
   5  -1   6    0.20    4.70
   5  -1   6   -5.00    4.10
   5  -1   6    4.80    4.80
   5  -1   6    1.00    3.30
   5  -1   6    7.80    5.10
   6   0  -6   36.80    6.50
   6   0  -6   26.80    5.00
   6   0  -6   42.00    7.80
   6   0  -6   24.50    6.40
   6   0  -6   39.30    6.80
   6   0  -6   40.50    6.30
   6   0  -6   41.90    5.60
  -6   0   6   36.60    7.70
  -6   0   6   35.60    7.70
  -6   0   6   32.70    8.70
  -6   0   6   39.60    7.80
  -6   0   6   36.20    7.40
  -6   0   6   28.80    6.70
   5   0  -6  633.14   21.20
   5   0  -6  586.34   21.60
   5   0  -6  619.44   21.00
   5   0  -6  598.84   20.20
   5   0  -6  605.94   23.30
   5   0  -6  626.44   21.00
   5   0  -6  595.04   18.00
   5   0  -6  619.84   19.80
   5   0  -6  575.54   21.30
  -5   0   6  600.44   22.30
  -5   0   6  598.84   21.80
  -5   0   6  605.24   22.60
  -5   0   6  632.34   22.50
  -5   0   6  619.24   22.20
  -5   0   6  591.74   23.80
   4   0  -6  125.49    9.00
   4   0  -6  129.79    7.30
   4   0  -6  135.39    7.80
   4   0  -6  115.59    7.90
   4   0  -6  118.79    8.20
   4   0  -6  135.09    6.90
   4   0  -6  120.19    7.10
   4   0  -6  127.09    7.30
  -4   0   6  125.89    8.30
  -4   0   6  122.59    7.80
  -4   0   6  127.49    7.50
  -4   0   6  123.69    7.80
  -4   0   6  120.69    9.20
  -4   0   6  126.89    7.10
   3   0  -6 1163.78   34.30
   3   0  -6 1166.08   35.50
   3   0  -6 1147.89   32.60
   3   0  -6 1156.78   33.90
   3   0  -6 1148.19   33.20
   3   0  -6 1154.38   31.40
   3   0  -6 1164.38   34.00
   3   0  -6 1192.68   33.50
   3   0  -6 1204.68   33.90
  -3   0   6 1166.98   34.10
  -3   0   6 1175.98   34.30
  -3   0   6 1162.28   31.80
  -3   0   6 1184.08   35.40
  -3   0   6 1203.18   33.10
  -3   0   6 1175.68   34.60
  -3   0   6 1183.08   33.70
  -3   0   6 1162.58   34.20
   2   0  -6 1073.39   31.20
   2   0  -6 1105.19   31.10
   2   0  -6 1074.09   30.90
   2   0  -6 1118.89   30.50
   2   0  -6 1108.29   29.80
   2   0  -6 1057.29   29.30
   2   0  -6 1084.19   31.00
  -2   0   6 1100.59   30.30
  -2   0   6 1064.99   30.90
  -2   0   6  936.31   30.90
  -2   0   6 1099.39   31.00
  -2   0   6 1071.69   30.80
  -2   0   6 1095.29   30.80
  -2   0   6 1059.79   31.70
   1   0  -6  109.99    6.20
   1   0  -6  114.49    6.60
   1   0  -6   94.49    5.40
   1   0  -6  110.29    5.40
   1   0  -6  115.09    6.20
   1   0  -6  123.89    5.80
   1   0  -6  105.69    5.90
   1   0  -6  109.59    5.80
   1   0  -6  110.99    4.90
   1   0  -6  118.59    6.10
   1   0  -6  110.39    5.90
  -1   0   6  115.69    5.30
  -1   0   6  106.19    6.20
  -1   0   6  106.99    6.20
  -1   0   6  111.89    6.10
  -1   0   6  112.39    5.60
  -1   0   6  117.69    4.40
  -1   0   6  109.49    5.80
  -1   0   6  114.69    5.70
  -1   0   6  107.79    5.30
  -1   0   6  108.09    6.80
   0   0  -6 3369.86   87.19
   0   0  -6 3189.18   86.59
   0   0  -6 3315.67   87.09
   0   0  -6 3229.88   87.69
   0   0  -6 3338.27   86.59
   0   0  -6 3274.87   87.79
   0   0  -6 3386.36   86.39
   0   0  -6 3321.67   85.39
   0   0  -6 3318.67   87.29
   0   0  -6 3386.26   86.09
   0   0  -6 3267.77   85.69
   0   0   6 3340.37   87.29
   0   0   6 3204.88   86.99
   0   0   6 3268.87   86.69
   0   0   6 3286.87   85.89
   0   0   6 3285.47   87.09
   0   0   6 3317.27   87.19
   0   0   6 3205.98   86.49
   0   0   6 3261.57   86.09
   0   0   6 3159.48   85.89
   0   0   6 3358.46   86.49
   0   0   6 3360.06   85.89
   0   0   6 3278.37   87.79
  -1   0  -6 2209.68   60.49
  -1   0  -6 2257.77   59.29
  -1   0  -6 2260.37   62.09
  -1   0  -6 2180.28   59.89
  -1   0  -6 2251.57   61.09
  -1   0  -6 2256.87   59.49
  -1   0  -6 2340.07   62.09
  -1   0  -6 2131.89   61.09
  -1   0  -6 2252.37   60.69
  -1   0  -6 2274.97   61.49
   1   0   6 2338.67   60.89
   1   0   6 2295.87   60.49
   1   0   6 2364.16   61.29
   1   0   6 2150.98   60.79
   1   0   6 2248.77   59.19
   1   0   6 2258.67   60.49
   1   0   6 2254.07   59.99
   1   0   6 2208.38   60.79
   1   0   6 2261.57   60.79
   1   0   6 2306.57   59.69
   1   0   6 2249.18   60.49
   1   0   6 2266.47   62.49
   1   0   6 2194.48   59.69
  -2   0  -6  919.71   24.90
  -2   0  -6  889.31   27.10
  -2   0  -6  911.41   27.40
  -2   0  -6  892.71   28.10
  -2   0  -6  903.41   26.50
  -2   0  -6  925.41   26.90
  -2   0  -6  887.31   27.40
  -2   0  -6  875.31   28.30
   2   0   6  864.71   26.80
   2   0   6  941.31   27.20
   2   0   6  897.61   26.90
   2   0   6  911.21   26.00
   2   0   6  905.11   25.20
   2   0   6  815.52   25.70
   2   0   6  898.01   26.80
   2   0   6  903.31   24.50
   2   0   6  916.11   26.60
   2   0   6  873.21   25.50
   2   0   6  927.51   27.20
   2   0   6  899.01   26.40
  -3   0  -6  646.14   22.30
  -3   0  -6  688.93   21.80
  -3   0  -6  643.94   22.50
  -3   0  -6  667.33   19.20
  -3   0  -6  658.83   22.00
  -3   0  -6  677.13   23.00
  -3   0  -6  654.23   23.60
  -3   0  -6  647.64   23.80
   3   0   6  668.73   21.60
   3   0   6  635.74   20.90
   3   0   6  636.54   19.80
   3   0   6  679.13   21.90
   3   0   6  660.73   19.10
   3   0   6  654.93   21.00
   3   0   6  680.33   21.70
   3   0   6  680.53   20.80
   3   0   6  617.34   20.20
   3   0   6  686.53   22.00
   3   0   6  647.94   19.30
   3   0   6  664.13   21.70
  -4   0  -6   58.09    7.00
  -4   0  -6   58.69    8.00
  -4   0  -6   46.20    6.40
  -4   0  -6   54.29    7.20
  -4   0  -6   54.59    6.70
  -4   0  -6   63.29    5.70
  -4   0  -6   63.49    8.50
  -4   0  -6   60.29    7.80
   4   0   6   47.80    4.60
   4   0   6   61.19    6.40
   4   0   6   61.99    6.60
   4   0   6   66.29    6.70
   4   0   6   65.59    6.90
   4   0   6   55.09    7.00
   4   0   6   63.39    7.00
   4   0   6   53.89    7.00
   4   0   6   62.59    6.10
  -5   0  -6   32.30    7.00
  -5   0  -6   29.40    7.10
  -5   0  -6   41.70    8.70
  -5   0  -6   32.20    7.50
  -5   0  -6   29.40    8.90
   5   0   6   41.00    5.80
   5   0   6   35.50    5.50
   5   0   6   43.10    5.70
   5   0   6   34.60    6.30
   5   0   6   46.50    7.60
   5   0   6   35.70    6.30
   5   0   6   38.30    6.20
   5   0   6   27.40    6.20
   5   0   6   42.70    6.80
   6  -1  -6  310.37   14.50
   6  -1  -6  295.47   11.70
   6  -1  -6  295.67   14.00
   6  -1  -6  335.47   15.50
   6  -1  -6  340.57   17.60
   6  -1  -6  318.07   15.30
   6  -1  -6  320.37   14.80
   6  -1  -6  295.07   15.60
  -6   1   6  350.46   20.50
  -6   1   6  320.67   17.20
  -6   1   6  305.97   16.50
  -6   1   6  303.67   16.00
  -6   1   6  290.27   16.90
  -6   1   6  298.37   17.00
  -6   1   6  326.17   19.70
   5  -1  -6  109.29    7.60
   5  -1  -6   97.89    7.90
   5  -1  -6   89.09    6.20
   5  -1  -6   98.79    8.00
   5  -1  -6  111.39    9.20
   5  -1  -6   87.29    9.30
   5  -1  -6  105.69    8.00
   5  -1  -6   95.99   10.00
  -5   1   6   92.49    8.40
  -5   1   6   94.09    9.50
  -5   1   6  106.49    9.20
  -5   1   6   91.19    9.40
  -5   1   6   99.89   10.80
  -5   1   6   99.09    9.00
   4  -1  -6  351.76   13.20
   4  -1  -6  386.06   14.00
   4  -1  -6  384.76   15.60
   4  -1  -6  392.66   14.40
   4  -1  -6  387.66   14.80
   4  -1  -6  407.06   16.40
   4  -1  -6  417.66   15.40
   4  -1  -6  390.46   14.50
   4  -1  -6  419.56   16.00
  -4   1   6  381.56   16.90
  -4   1   6  404.76   14.90
  -4   1   6  398.36   15.80
  -4   1   6  405.26   16.50
  -4   1   6  414.36   16.10
  -4   1   6  403.66   16.30
  -4   1   6  406.96   12.70
   3  -1  -6 1753.32   47.10
   3  -1  -6 1707.03   48.90
   3  -1  -6 1809.12   48.10
   3  -1  -6 1752.72   48.70
   3  -1  -6 1713.43   49.20
   3  -1  -6 1696.93   46.30
   3  -1  -6 1728.93   48.90
   3  -1  -6 1765.32   50.19
  -3   1   6 1717.63   49.60
  -3   1   6 1746.03   48.40
  -3   1   6 1723.03   46.10
  -3   1   6 1698.83   46.90
  -3   1   6 1782.22   49.30
  -3   1   6 1748.03   48.00
  -3   1   6 1706.43   47.60
  -3   1   6 1748.72   49.40
   2  -1  -6    3.50    2.10
   2  -1  -6    2.00    2.70
   2  -1  -6    2.60    2.30
   2  -1  -6    2.90    2.30
   2  -1  -6    2.60    2.20
   2  -1  -6    2.10    2.20
   2  -1  -6   -0.30    2.10
  -2   1   6    1.00    2.10
  -2   1   6   -0.80    2.00
  -2   1   6    1.20    2.00
  -2   1   6    7.80    3.30
  -2   1   6    2.20    1.80
  -2   1   6   -0.80    1.60
  -2   1   6    2.70    2.30
  -2   1   6    2.80    2.00
  -2   1   6    2.20    2.50
   1  -1  -6 4489.65  121.19
   1  -1  -6 4550.84  122.09
   1  -1  -6 4599.44  121.99
   1  -1  -6 4826.52  120.29
   1  -1  -6 4484.35  121.89
   1  -1  -6 4641.24  120.79
   1  -1  -6 4696.03  121.69
   1  -1  -6 4794.02  121.29
  -1   1   6 4576.34  121.89
  -1   1   6 4579.54  121.19
  -1   1   6 4822.32  121.59
  -1   1   6 4812.92  121.49
  -1   1   6 4740.53  121.09
  -1   1   6 4563.04  121.39
  -1   1   6 4546.94  119.79
  -1   1   6 4582.14  120.79
  -1   1   6 4705.53  122.49
   0  -1  -6 1048.80   30.50
   0  -1  -6 1051.49   31.20
   0  -1  -6 1012.40   30.00
   0  -1  -6 1058.89   30.60
   0  -1  -6 1032.20   30.70
   0  -1  -6 1063.39   31.20
   0  -1  -6 1075.09   29.70
   0  -1  -6 1100.29   30.20
   0  -1  -6 1079.49   29.40
   0   1   6 1055.79   29.20
   0   1   6 1072.59   30.20
   0   1   6 1080.19   29.80
   0   1   6 1046.00   29.90
   0   1   6 1053.69   30.50
   0   1   6 1094.99   30.80
   0   1   6 1076.69   30.10
   0   1   6 1051.89   30.80
   0   1   6 1030.80   30.10
  -1  -1  -6  401.46   14.70
  -1  -1  -6  327.37   13.10
  -1  -1  -6  401.76   12.90
  -1  -1  -6  388.46   13.70
  -1  -1  -6  385.66   14.20
  -1  -1  -6  389.76   13.40
  -1  -1  -6  401.06   13.60
   1   1   6  350.26   13.20
   1   1   6  401.36   13.20
   1   1   6  361.66   13.50
   1   1   6  401.06   14.30
   1   1   6  398.06   12.90
   1   1   6  395.56   13.40
   1   1   6  363.56   11.20
   1   1   6  361.86   12.50
   1   1   6  400.96   11.90
   1   1   6  391.76   14.10
  -2  -1  -6 2066.69   58.79
  -2  -1  -6 2185.98   59.29
  -2  -1  -6 2141.99   59.39
  -2  -1  -6 2168.38   59.19
  -2  -1  -6 2188.58   60.69
  -2  -1  -6 2159.68   60.49
  -2  -1  -6 2138.09   59.29
  -2  -1  -6 2150.78   57.29
  -2  -1  -6 2261.07   59.79
   2   1   6 1986.70   57.19
   2   1   6 2207.38   59.79
   2   1   6 2205.88   59.99
   2   1   6 2148.29   59.79
   2   1   6 2186.38   58.89
   2   1   6 2211.38   58.79
   2   1   6 2241.88   58.99
   2   1   6 2058.19   57.99
   2   1   6 2063.29   56.59
  -3  -1  -6  176.78    9.40
  -3  -1  -6  180.48   10.60
  -3  -1  -6  176.38    9.40
  -3  -1  -6  168.78    9.10
  -3  -1  -6  177.98   11.10
  -3  -1  -6  171.48   11.10
  -3  -1  -6  173.08   10.20
  -3  -1  -6  180.88    9.80
   3   1   6  175.08    8.70
   3   1   6  168.88    9.70
   3   1   6  178.38    9.70
   3   1   6  188.18    9.10
   3   1   6  171.58    8.90
   3   1   6  186.88    9.20
   3   1   6  168.08    7.30
   3   1   6  181.68    9.70
   3   1   6  175.18    9.50
   3   1   6  189.18    8.60
  -4  -1  -6  922.41   31.40
  -4  -1  -6  845.52   30.20
  -4  -1  -6  931.71   29.40
  -4  -1  -6  873.51   29.30
  -4  -1  -6  875.11   31.00
  -4  -1  -6  884.21   29.60
  -4  -1  -6  906.51   29.60
   4   1   6  895.91   27.50
   4   1   6  844.42   28.00
   4   1   6  857.21   24.90
   4   1   6  870.51   28.20
   4   1   6  897.31   29.70
   4   1   6  917.71   30.10
   4   1   6  889.31   29.70
   4   1   6  940.81   27.50
   4   1   6  913.21   28.70
  -5  -1  -6  172.68   12.60
  -5  -1  -6  164.68   12.60
  -5  -1  -6  189.78   15.50
  -5  -1  -6  177.98   15.90
  -5  -1  -6  187.08   13.40
  -5  -1  -6  166.88   13.00
  -5  -1  -6  181.78   12.90
   5   1   6  194.48   10.40
   5   1   6  179.78   11.80
   5   1   6  171.18   12.60
   5   1   6  179.78   12.90
   5   1   6  184.68   12.20
   5   1   6  172.38   10.80
   5   1   6  172.68   10.20
   5   1   6  174.68   12.50
   6  -2  -6   -2.10    5.10
   6  -2  -6   -3.80    4.90
   6  -2  -6    1.60    5.00
   6  -2  -6    1.60    5.60
   6  -2  -6   -2.20    4.80
   6  -2  -6   -5.70    6.50
   6  -2  -6   -1.40    6.30
  -6   2   6    9.10    7.30
  -6   2   6   11.10    7.90
  -6   2   6   -2.80    6.00
  -6   2   6    0.60    6.50
  -6   2   6  -14.60    8.10
  -6   2   6    3.70    9.00
  -6   2   6   -1.50    7.20
   5  -2  -6  353.56   16.10
   5  -2  -6  354.26   16.50
   5  -2  -6  339.07   13.30
   5  -2  -6  329.27   14.70
   5  -2  -6  338.47   14.40
   5  -2  -6  339.27   15.10
   5  -2  -6  325.87   15.80
  -5   2   6  366.46   15.40
  -5   2   6  351.36   19.10
  -5   2   6  351.26   17.30
  -5   2   6  350.36   16.40
  -5   2   6  337.37   17.00
  -5   2   6  327.47   18.00
  -5   2   6  321.57   17.00
   4  -2  -6  502.05   18.90
   4  -2  -6  482.55   18.80
   4  -2  -6  510.85   18.20
   4  -2  -6  497.15   17.70
   4  -2  -6  500.35   18.70
   4  -2  -6  482.25   16.90
   4  -2  -6  487.35   18.30
  -4   2   6  503.45   19.70
  -4   2   6  501.65   20.60
  -4   2   6  512.65   16.30
  -4   2   6  478.55   19.30
  -4   2   6  487.95   19.00
  -4   2   6  493.75   19.90
  -4   2   6  483.45   21.40
  -4   2   6  497.35   17.40
   3  -2  -6   42.00    6.00
   3  -2  -6   61.09    5.80
   3  -2  -6   58.99    5.70
   3  -2  -6   61.49    6.30
   3  -2  -6   60.69    5.70
   3  -2  -6   68.09    6.20
  -3   2   6   66.09    7.30
  -3   2   6   65.39    5.80
  -3   2   6   63.39    6.70
  -3   2   6   65.19    6.30
  -3   2   6   59.69    4.90
  -3   2   6   58.09    5.40
  -3   2   6   61.99    6.90
  -3   2   6   66.09    7.00
   2  -2  -6  346.87   12.90
   2  -2  -6  341.47   12.80
   2  -2  -6  321.67   12.20
   2  -2  -6  341.97   13.20
   2  -2  -6  341.27   10.30
   2  -2  -6  352.26   13.30
   2  -2  -6  350.36   13.20
  -2   2   6  350.66   14.60
  -2   2   6  347.87   11.30
  -2   2   6  344.67   14.20
  -2   2   6  353.06   13.40
  -2   2   6  339.27   13.20
  -2   2   6  332.27   13.10
  -2   2   6  339.77   12.50
  -2   2   6  337.57   12.20
  -2   2   6  339.47   13.20
   1  -2  -6 1046.60   29.90
   1  -2  -6 1014.40   30.60
   1  -2  -6 1017.20   30.90
   1  -2  -6 1040.90   30.60
   1  -2  -6 1037.70   28.60
   1  -2  -6 1015.60   30.30
   1  -2  -6 1027.60   30.40
   1  -2  -6 1022.40   30.40
  -1   2   6 1063.29   30.60
  -1   2   6 1041.10   31.20
  -1   2   6 1023.90   27.90
  -1   2   6 1055.99   30.10
  -1   2   6 1063.49   30.10
  -1   2   6 1038.00   30.50
  -1   2   6  987.70   29.00
  -1   2   6 1029.70   30.50
  -1   2   6 1080.19   30.90
  -1   2   6 1007.70   30.10
  -1   2   6 1061.19   27.80
  -1   2   6 1047.60   32.00
   0  -2  -6  174.78    8.20
   0  -2  -6  176.98    8.70
   0  -2  -6  171.88    8.10
   0  -2  -6  171.88    8.00
   0  -2  -6  179.88    8.80
   0  -2  -6  179.78    6.60
   0  -2  -6  179.28    8.30
   0   2   6  173.18    8.40
   0   2   6  167.38    8.20
   0   2   6  174.78    7.10
   0   2   6  182.58    8.30
   0   2   6  177.88    8.20
   0   2   6  180.08    9.20
   0   2   6  181.68    6.60
   0   2   6  182.58    7.90
   0   2   6  170.68    6.80
   0   2   6  170.08    8.40
   0   2   6  166.18    8.50
  -1  -2  -6 2814.52   78.99
  -1  -2  -6 2962.00   80.29
  -1  -2  -6 2979.10   76.49
  -1  -2  -6 3039.00   78.79
  -1  -2  -6 2835.72   80.19
  -1  -2  -6 2940.71   79.49
  -1  -2  -6 2945.41   79.79
  -1  -2  -6 2962.10   79.29
   1   2   6 2874.31   80.09
   1   2   6 3033.60   79.99
   1   2   6 2936.31   80.89
   1   2   6 2978.70   79.19
   1   2   6 2936.21   80.89
   1   2   6 2942.21   79.39
   1   2   6 2941.91   76.39
   1   2   6 2925.61   78.39
   1   2   6 2861.11   77.19
   1   2   6 3070.39   80.39
   1   2   6 3176.58   79.39
   1   2   6 2947.80   79.39
   1   2   6 2993.40   80.39
  -2  -2  -6   12.60    4.10
  -2  -2  -6   16.90    3.80
  -2  -2  -6   11.10    3.50
  -2  -2  -6   11.50    3.70
  -2  -2  -6   11.30    3.20
  -2  -2  -6   11.80    3.20
  -2  -2  -6    8.00    3.50
  -2  -2  -6   11.50    3.50
   2   2   6   15.20    3.90
   2   2   6   12.40    3.90
   2   2   6   10.00    3.80
   2   2   6   12.90    3.00
   2   2   6    8.60    3.40
   2   2   6   18.20    6.20
   2   2   6   10.90    3.20
   2   2   6   17.00    3.70
   2   2   6   13.60    3.40
   2   2   6   13.60    3.80
   2   2   6   14.00    3.90
   2   2   6    7.70    3.10
   2   2   6   14.00    3.10
   2   2   6    7.70    3.70
  -3  -2  -6  554.34   19.30
  -3  -2  -6  553.34   19.40
  -3  -2  -6  522.35   19.40
  -3  -2  -6  559.14   19.60
  -3  -2  -6  546.05   20.90
  -3  -2  -6  566.14   21.10
  -3  -2  -6  548.45   20.10
  -3  -2  -6  548.35   25.90
   3   2   6  593.74   20.30
   3   2   6  576.34   20.00
   3   2   6  545.15   20.80
   3   2   6  538.15   20.50
   3   2   6  550.24   19.10
   3   2   6  547.65   18.20
   3   2   6  582.64   19.50
   3   2   6  557.34   20.70
   3   2   6  554.34   18.20
  -4  -2  -6  368.36   16.40
  -4  -2  -6  405.66   16.50
  -4  -2  -6  416.76   16.70
  -4  -2  -6  367.56   16.90
  -4  -2  -6  390.56   17.70
  -4  -2  -6  383.16   18.00
  -4  -2  -6  375.36   17.70
   4   2   6  396.26   16.20
   4   2   6  367.06   16.10
   4   2   6  391.36   15.50
   4   2   6  379.86   17.60
   4   2   6  386.36   17.80
   4   2   6  384.86   17.50
   4   2   6  395.06   14.40
   4   2   6  369.06   16.50
  -5  -2  -6   17.30    7.30
  -5  -2  -6   12.80    8.60
  -5  -2  -6   18.50    7.00
  -5  -2  -6    7.90    9.20
  -5  -2  -6    3.40    6.00
  -5  -2  -6    8.20    6.40
  -5  -2  -6   13.30    6.00
   5   2   6   20.10    6.60
   5   2   6    3.60    6.80
   5   2   6   10.90    7.00
   5   2   6    3.10    5.80
   5   2   6   16.20    6.90
   5   2   6    4.50    5.80
   5   2   6    0.10    6.30
   6  -3  -6  470.15   20.90
   6  -3  -6  451.45   21.60
   6  -3  -6  495.75   20.00
   6  -3  -6  455.75   17.90
   6  -3  -6  476.45   20.40
   6  -3  -6  417.26   19.80
   6  -3  -6  452.15   21.60
   6  -3  -6  423.56   19.70
  -6   3   6  479.05   25.40
  -6   3   6  479.95   23.40
  -6   3   6  474.55   24.90
  -6   3   6  362.26   24.40
  -6   3   6  485.75   23.50
  -6   3   6  444.06   23.80
  -6   3   6  492.75   23.90
  -6   3   6  433.16   20.90
   5  -3  -6   -1.40    5.20
   5  -3  -6   11.40    6.00
   5  -3  -6   11.30    5.40
   5  -3  -6   15.30    4.90
   5  -3  -6   14.50    4.80
   5  -3  -6    7.80    4.90
   5  -3  -6    5.40    4.90
  -5   3   6   11.30    6.40
  -5   3   6   11.20    7.30
  -5   3   6    9.80    5.40
  -5   3   6    7.40    6.90
  -5   3   6    4.30    5.40
  -5   3   6   11.10    6.70
  -5   3   6   10.90    7.50
  -5   3   6    8.30    8.10
  -5   3   6   19.00    7.30
   4  -3  -6   34.80    5.80
   4  -3  -6   31.80    5.20
   4  -3  -6   26.80    5.40
   4  -3  -6   37.60    5.90
   4  -3  -6   28.20    5.40
   4  -3  -6   27.90    5.50
   4  -3  -6   35.30    5.80
  -4   3   6   28.10    6.10
  -4   3   6   42.80    5.50
  -4   3   6   29.20    6.50
  -4   3   6   29.40    6.40
  -4   3   6   35.70    5.10
  -4   3   6   32.70    7.20
  -4   3   6   28.80    4.80
  -4   3   6   47.10    7.90
  -4   3   6   36.60    6.90
   3  -3  -6  723.63   24.30
   3  -3  -6  735.03   24.70
   3  -3  -6  716.93   23.60
   3  -3  -6  716.43   24.10
   3  -3  -6  687.23   23.70
  -3   3   6  743.03   25.50
  -3   3   6  730.43   22.30
  -3   3   6  689.83   22.70
  -3   3   6  769.02   27.10
  -3   3   6  680.33   24.30
  -3   3   6  740.53   25.00
  -3   3   6  725.23   25.70
  -3   3   6  723.93   26.20
  -3   3   6  738.83   23.30
   2  -3  -6  830.42   25.50
   2  -3  -6  760.22   25.50
   2  -3  -6  831.02   25.90
   2  -3  -6  786.02   25.70
   2  -3  -6  832.02   25.90
  -2   3   6  753.02   24.00
  -2   3   6  808.42   25.50
  -2   3   6  814.12   26.60
  -2   3   6  788.12   25.80
  -2   3   6  818.22   27.80
  -2   3   6  817.62   25.20
  -2   3   6  813.52   26.20
  -2   3   6  820.42   22.80
  -2   3   6  818.32   27.60
  -2   3   6  791.02   25.50
   1  -3  -6  461.15   16.80
   1  -3  -6  462.25   16.10
   1  -3  -6  494.65   16.80
   1  -3  -6  486.85   16.40
   1  -3  -6  470.85   16.50
   1  -3  -6  473.35   16.90
   1  -3  -6  470.05   13.70
   1  -3  -6  488.05   16.70
  -1   3   6  480.45   17.50
  -1   3   6  464.05   16.90
  -1   3   6  463.75   16.70
  -1   3   6  463.85   16.60
  -1   3   6  463.15   18.60
  -1   3   6  474.25   17.00
  -1   3   6  461.65   14.00
  -1   3   6  458.85   13.80
  -1   3   6  482.85   18.50
  -1   3   6  481.75   16.50
  -1   3   6  459.65   17.80
   0  -3  -6 1149.89   34.20
   0  -3  -6 1131.89   33.60
   0  -3  -6 1153.58   31.20
   0  -3  -6 1148.69   32.90
   0  -3  -6 1099.69   33.80
   0  -3  -6 1147.49   34.20
   0  -3  -6 1115.39   33.50
   0  -3  -6 1204.08   33.90
   0   3   6 1154.78   33.60
   0   3   6 1075.69   34.00
   0   3   6 1129.99   35.40
   0   3   6 1154.98   32.80
   0   3   6 1150.98   35.00
   0   3   6 1147.89   35.00
   0   3   6 1163.58   34.70
   0   3   6 1142.59   32.40
   0   3   6 1138.79   33.20
   0   3   6 1176.08   34.70
   0   3   6 1177.48   33.80
  -1  -3  -6  476.95   17.30
  -1  -3  -6  478.15   17.00
  -1  -3  -6  473.65   17.10
  -1  -3  -6  485.25   17.20
  -1  -3  -6  478.55   16.30
  -1  -3  -6  482.85   16.60
  -1  -3  -6  484.75   16.40
   1   3   6  482.65   17.50
   1   3   6  470.35   17.60
   1   3   6  474.85   17.50
   1   3   6  489.85   16.30
   1   3   6  510.95   17.80
   1   3   6  446.16   17.00
   1   3   6  469.95   18.00
   1   3   6  426.06   15.40
   1   3   6  455.75   16.20
  -2  -3  -6  303.87   11.90
  -2  -3  -6  305.97   13.20
  -2  -3  -6  298.97   13.30
  -2  -3  -6  283.87   12.60
  -2  -3  -6  282.87   11.80
  -2  -3  -6  225.08   12.60
  -2  -3  -6  275.87   12.30
   2   3   6  276.27   11.00
   2   3   6  272.37   13.60
   2   3   6  282.57   12.80
   2   3   6  274.37   11.40
   2   3   6  270.37   11.10
   2   3   6  298.37   13.20
   2   3   6  274.27   12.80
   2   3   6  288.37   13.80
   2   3   6  277.07   12.00
   2   3   6  269.37   11.20
   2   3   6  270.67   13.80
   2   3   6  277.07   11.70
  -3  -3  -6  884.61   26.30
  -3  -3  -6  950.30   30.40
  -3  -3  -6  887.11   30.30
  -3  -3  -6  898.01   28.50
  -3  -3  -6  895.51   28.40
  -3  -3  -6  888.41   27.70
  -3  -3  -6  873.21   29.80
   3   3   6  903.21   29.30
   3   3   6  921.91   28.30
   3   3   6  908.91   31.20
   3   3   6  930.41   30.40
   3   3   6  898.21   30.00
   3   3   6  861.51   31.00
   3   3   6  902.51   31.10
  -4  -3  -6   60.29    7.90
  -4  -3  -6   56.09    8.70
  -4  -3  -6   39.40    7.10
  -4  -3  -6   69.29    8.60
  -4  -3  -6   52.79    7.20
  -4  -3  -6   54.29    7.70
  -4  -3  -6   33.20    7.60
   4   3   6   62.39    9.50
   4   3   6   61.39    8.10
   4   3   6   44.10    7.10
   4   3   6   47.10    8.40
   4   3   6   40.80    7.40
   4   3   6   62.59    9.00
   5  -4  -6   34.60    7.90
   5  -4  -6   20.50    6.80
   5  -4  -6   45.50    7.50
   5  -4  -6   29.20    7.60
   5  -4  -6   32.90    6.20
   5  -4  -6   36.20    7.00
   5  -4  -6   32.70    6.60
  -5   4   6   46.50    7.20
  -5   4   6   32.30    9.60
  -5   4   6   33.70    9.50
  -5   4   6   27.70    8.80
  -5   4   6   36.60    9.00
  -5   4   6   38.80    7.90
  -5   4   6   36.90    9.60
  -5   4   6   49.70   10.50
  -5   4   6   27.10    9.70
   4  -4  -6  472.65   19.10
   4  -4  -6  475.25   19.10
   4  -4  -6  483.55   20.30
   4  -4  -6  491.25   19.90
   4  -4  -6  494.35   19.70
   4  -4  -6  459.85   19.80
   4  -4  -6  467.55   18.60
  -4   4   6  498.65   18.30
  -4   4   6  400.26   21.10
  -4   4   6  520.65   23.80
  -4   4   6  488.75   18.30
  -4   4   6  504.35   22.30
  -4   4   6  472.45   22.30
  -4   4   6  483.65   17.60
  -4   4   6  492.55   22.20
  -4   4   6  490.85   24.00
  -4   4   6  494.85   20.80
   3  -4  -6   62.49    7.80
   3  -4  -6   51.09    6.30
   3  -4  -6   60.69    7.10
   3  -4  -6   47.70    6.50
   3  -4  -6   60.59    7.60
  -3   4   6   65.79    7.00
  -3   4   6   49.10    7.40
  -3   4   6   53.09    8.80
  -3   4   6   60.19    6.70
  -3   4   6   50.59    7.20
  -3   4   6   55.89    8.60
  -3   4   6   49.40    6.80
  -3   4   6   52.69    7.70
  -3   4   6   45.80    8.00
  -3   4   6   54.99    6.90
   2  -4  -6    8.40    3.40
   2  -4  -6   10.20    3.80
   2  -4  -6    9.80    3.40
   2  -4  -6    2.40    3.30
   2  -4  -6    7.20    3.90
  -2   4   6    8.50    4.40
  -2   4   6    0.10    4.10
  -2   4   6    2.10    4.40
  -2   4   6    6.90    4.90
  -2   4   6   15.80    5.30
  -2   4   6    5.90    3.90
  -2   4   6    1.30    5.20
  -2   4   6    3.00    4.50
  -2   4   6   10.10    5.20
  -2   4   6   17.30    4.80
  -2   4   6   11.30    4.30
   1  -4  -6  602.44   20.60
   1  -4  -6  607.84   19.50
   1  -4  -6  616.24   20.40
   1  -4  -6  605.04   20.20
   1  -4  -6  593.74   21.20
   1  -4  -6  546.05   19.80
   1  -4  -6  583.54   20.20
  -1   4   6  514.65   22.40
  -1   4   6  587.74   21.20
  -1   4   6  606.14   22.60
  -1   4   6  610.64   21.50
  -1   4   6  618.54   21.20
  -1   4   6  569.24   22.70
  -1   4   6  585.54   21.80
  -1   4   6  610.24   20.70
  -1   4   6  553.14   20.30
  -1   4   6  592.64   20.40
  -1   4   6  578.24   16.90
   0  -4  -6  608.14   20.40
   0  -4  -6  627.54   21.40
   0  -4  -6  629.74   20.60
   0  -4  -6  584.14   19.00
   0  -4  -6  643.14   22.20
   0  -4  -6  658.13   21.80
   0  -4  -6  626.34   20.90
   0  -4  -6  586.64   18.30
   0  -4  -6  666.53   21.10
   0   4   6  636.24   20.20
   0   4   6  598.64   20.50
   0   4   6  642.04   20.80
   0   4   6  635.04   23.20
   0   4   6  616.54   20.90
   0   4   6  607.34   20.10
   0   4   6  634.94   23.10
   0   4   6  649.54   22.60
   0   4   6  618.34   22.60
   0   4   6  632.84   22.50
  -1  -4  -6  629.04   20.90
  -1  -4  -6  620.24   20.70
  -1  -4  -6  649.34   21.90
  -1  -4  -6  631.94   20.80
  -1  -4  -6  635.64   22.00
  -1  -4  -6  630.44   21.50
   1   4   6  660.83   23.20
   1   4   6  659.13   23.30
   1   4   6  592.34   20.80
   1   4   6  638.14   21.90
   1   4   6  599.74   23.40
   1   4   6  608.94   22.10
  -2  -4  -6  637.34   22.50
  -2  -4  -6  629.34   22.50
  -2  -4  -6  623.44   22.50
  -2  -4  -6  614.94   20.90
  -2  -4  -6  610.74   20.90
   2   4   6  609.44   20.90
   2   4   6  625.84   24.70
   2   4   6  598.64   20.80
   2   4   6  631.54   24.50
   2   4   6  654.63   23.40
   2   4   6  652.23   23.70
   2   4   6  580.04   20.40
  -3  -4  -6    8.00    4.20
  -3  -4  -6   -5.10    6.00
  -3  -4  -6    4.10    5.20
  -3  -4  -6    5.60    4.40
  -3  -4  -6   18.80    5.50
  -3  -4  -6   13.90    6.50
   3   4   6    1.60    5.40
   3   4   6   10.90    6.40
   3   4   6   -4.50    5.80
   3   4   6    6.90    5.50
   3   4   6    6.60    5.70
   3   4   6    8.80    6.90
  -4  -4  -6  282.57   16.40
  -4  -4  -6  282.87   14.30
  -4  -4  -6  287.87   17.00
  -4  -4  -6  261.07   13.90
  -4  -4  -6  304.77   17.60
   4   4   6  274.57   17.60
   4   4   6  216.88   17.20
   4   4   6  291.37   19.00
   4   4   6  250.67   17.00
   4   4   6  256.47   15.90
   4   4   6  275.57   16.40
   4  -5  -6   84.19    9.90
   4  -5  -6   76.79    9.80
   4  -5  -6   74.79    8.70
   4  -5  -6   57.19    8.40
   4  -5  -6   84.19    8.90
   4  -5  -6   68.49    8.50
   4  -5  -6   80.29    9.90
  -4   5   6   71.09   10.90
  -4   5   6   81.79   10.20
  -4   5   6   65.89    8.90
  -4   5   6   63.29   11.30
  -4   5   6   98.39   12.60
  -4   5   6   73.29   12.00
  -4   5   6   77.69   11.90
  -4   5   6   66.79   10.10
  -4   5   6   91.89   12.70
  -4   5   6   84.69   11.20
   3  -5  -6   49.90    7.70
   3  -5  -6   54.29    7.90
   3  -5  -6   54.89    6.90
   3  -5  -6   53.19    7.60
   3  -5  -6   48.30    7.30
  -3   5   6   46.70    9.50
  -3   5   6   62.09    8.00
  -3   5   6   63.39    9.90
  -3   5   6   68.69   10.80
  -3   5   6   49.00    8.30
  -3   5   6   53.69    9.10
  -3   5   6   45.50    8.70
  -3   5   6   46.20    8.30
  -3   5   6   49.60    6.90
  -3   5   6   60.29    8.20
   2  -5  -6  664.03   23.30
   2  -5  -6  668.53   22.70
   2  -5  -6  638.84   23.20
   2  -5  -6  621.44   23.10
   2  -5  -6  630.44   23.80
  -2   5   6  647.44   23.60
  -2   5   6  618.54   21.50
  -2   5   6  639.34   26.30
  -2   5   6  623.24   22.80
  -2   5   6  652.03   26.80
  -2   5   6  628.54   23.80
  -2   5   6  657.03   25.10
  -2   5   6  602.44   23.40
   1  -5  -6   42.60    6.40
   1  -5  -6   50.49    6.30
   1  -5  -6   39.20    6.00
   1  -5  -6   35.40    5.60
   1  -5  -6   45.90    6.30
  -1   5   6   38.40    7.50
  -1   5   6   40.70    6.70
  -1   5   6   42.40    5.00
  -1   5   6   34.20    5.70
  -1   5   6   35.60    6.60
  -1   5   6   60.59    8.10
  -1   5   6   41.20    7.70
  -1   5   6   39.10    6.50
   0  -5  -6   83.09    7.70
   0  -5  -6   59.29    7.40
   0  -5  -6   65.89    7.40
   0  -5  -6   89.49    8.60
   0  -5  -6   67.49    7.40
   0  -5  -6   78.09    8.60
   0   5   6   82.69    9.40
   0   5   6   77.69    9.40
   0   5   6   76.49    9.30
   0   5   6   71.29    7.60
   0   5   6   76.79   10.20
   0   5   6   79.29    9.30
   0   5   6   60.59    8.20
  -1  -5  -6  645.94   23.30
  -1  -5  -6  655.73   23.00
  -1  -5  -6  661.03   22.00
  -1  -5  -6  643.54   21.90
  -1  -5  -6  638.14   24.10
  -1  -5  -6  661.83   22.50
   1   5   6  652.03   25.10
   1   5   6  642.64   23.40
   1   5   6  576.44   23.40
   1   5   6  676.93   25.40
   1   5   6  662.33   26.20
  -2  -5  -6  181.28   10.20
  -2  -5  -6  189.18   10.90
  -2  -5  -6  177.28   11.70
  -2  -5  -6  170.98   12.20
  -2  -5  -6  163.58   12.00
   2   5   6  198.78   13.90
   2   5   6  186.68   14.90
   2   5   6  166.88   11.30
   2   5   6  199.48   14.30
   2   5   6  163.78   11.20
  -3  -5  -6  440.76   20.30
  -3  -5  -6  469.65   20.60
  -3  -5  -6  376.46   16.90
  -3  -5  -6  424.56   17.50
  -3  -5  -6  406.66   20.00
   3   5   6  455.25   21.00
   3   5   6  459.55   21.70
   3   5   6  443.66   23.10
   3   5   6  450.15   23.50
   3  -6  -6  199.28   14.50
   3  -6  -6  196.78   15.10
   3  -6  -6  237.48   14.10
   3  -6  -6  182.88   14.30
   3  -6  -6  145.39   13.40
   3  -6  -6  211.38   14.50
  -3   6   6  233.38   19.20
  -3   6   6  191.18   14.80
  -3   6   6  196.48   18.50
  -3   6   6  179.78   17.80
  -3   6   6  217.98   15.40
  -3   6   6  197.18   15.40
  -3   6   6  210.68   14.10
   2  -6  -6   74.19    9.50
   2  -6  -6   81.79   10.10
   2  -6  -6   72.99    9.10
   2  -6  -6   71.39    8.90
   2  -6  -6   79.79    9.10
  -2   6   6   81.09   12.40
  -2   6   6   72.49    8.10
  -2   6   6   83.39   10.40
  -2   6   6   84.79   11.90
  -2   6   6   86.59   10.50
  -2   6   6   86.19   10.80
   1  -6  -6   96.89   10.10
   1  -6  -6   96.39   11.20
   1  -6  -6   76.99    9.70
   1  -6  -6   92.69    9.50
   1  -6  -6   84.29   10.10
  -1   6   6   99.99   11.70
  -1   6   6   86.19   10.10
  -1   6   6   84.09   10.20
  -1   6   6   80.39   11.70
  -1   6   6   75.69   11.20
   0  -6  -6  737.83   26.70
   0  -6  -6  799.62   29.10
   0  -6  -6  781.42   26.10
   0  -6  -6  766.32   27.10
   0  -6  -6  752.12   26.30
   0   6   6  717.43   25.70
   0   6   6  796.02   30.40
   0   6   6  812.92   30.00
   0   6   6  819.02   30.30
   0   6   6  805.32   31.60
   0   6   6  735.83   28.80
  -1  -6  -6   14.30    6.20
  -1  -6  -6   12.30    5.60
  -1  -6  -6    4.50    5.20
  -1  -6  -6    2.90    6.30
  -1  -6  -6   13.30    6.10
  -1  -6  -6    7.70    7.00
   1   6   6    4.10    8.70
   1   6   6   13.60    7.40
   1   6   6   13.50    7.50
   1   6   6   14.60    7.50
   1   6   6    9.50    7.80
   2   7  -7  606.54   24.00
   2   7  -7  568.74   24.90
   2   7  -7  571.44   24.40
   2   7  -7  597.84   25.10
  -2  -7   7  568.84   21.50
  -2  -7   7  565.94   20.10
  -2  -7   7  621.64   20.40
  -2  -7   7  561.34   17.10
   1   7  -7   56.69    9.30
   1   7  -7   59.99    9.00
   1   7  -7   72.69    9.20
   1   7  -7   63.29    8.30
   1   7  -7   61.09    9.50
  -1  -7   7   62.09    8.20
  -1  -7   7   46.40    4.90
  -1  -7   7   55.19    6.80
   0   7  -7  850.81   32.20
   0   7  -7  829.22   30.30
   0   7  -7  846.02   30.80
   0   7  -7  833.62   29.20
   0   7  -7  863.11   32.20
   0  -7   7  840.42   27.50
   0  -7   7  820.92   25.40
   0  -7   7  881.81   28.70
   0  -7   7  809.42   25.10
   0  -7   7  842.12   26.10
  -1   7  -7  376.16   19.10
  -1   7  -7  384.66   17.80
  -1   7  -7  397.36   19.30
  -1   7  -7  371.96   18.50
  -1   7  -7  375.56   20.90
  -1   7  -7  372.46   21.10
   1  -7   7  375.36   13.90
   1  -7   7  363.86   14.90
   1  -7   7  384.66   17.10
   1  -7   7  375.86   15.00
   1  -7   7  386.26   16.10
   1  -7   7  386.66   15.50
  -2   7  -7   60.49   11.50
  -2   7  -7   47.10    9.20
  -2   7  -7   56.39    9.30
  -2   7  -7   59.89    9.10
  -2   7  -7   53.99   11.30
  -2   7  -7   55.79    9.40
   2  -7   7   64.89    7.90
   2  -7   7   70.89    8.30
   2  -7   7   51.69    8.10
   2  -7   7   50.49    6.70
   2  -7   7   58.19    7.50
   2  -7   7   53.79    7.00
   4   6  -7  226.88   15.40
   4   6  -7  209.78   18.10
   4   6  -7  251.57   16.60
  -4  -6   7  261.47   12.80
  -4  -6   7  247.78   13.00
  -4  -6   7  246.08   13.70
  -4  -6   7  234.68    9.80
   3   6  -7  482.35   21.00
   3   6  -7  494.15   19.00
   3   6  -7  485.65   22.40
   3   6  -7  477.75   20.90
  -3  -6   7  457.95   16.10
  -3  -6   7  465.45   15.60
  -3  -6   7  477.75   18.20
  -3  -6   7  471.55   14.70
   2   6  -7   18.20    6.60
   2   6  -7    4.70    5.20
   2   6  -7   10.30    6.60
   2   6  -7    1.40    5.70
  -2  -6   7    2.20    3.80
  -2  -6   7    5.00    3.40
  -2  -6   7   13.00    4.50
  -2  -6   7    4.30    4.60
  -2  -6   7   -2.60    3.80
  -2  -6   7    1.20    3.60
  -2  -6   7    4.50    2.30
   1   6  -7  418.66   17.00
   1   6  -7  392.96   17.40
   1   6  -7  418.06   17.60
   1   6  -7  409.36   18.70
   1   6  -7  431.36   19.10
  -1  -6   7  420.06   13.60
  -1  -6   7  418.56   15.40
  -1  -6   7  412.76   15.10
  -1  -6   7  394.76   13.30
  -1  -6   7  409.96   15.70
  -1  -6   7  383.26   14.20
   0   6  -7 1091.09   33.80
   0   6  -7 1162.18   35.90
   0   6  -7 1152.58   36.80
   0   6  -7 1176.28   38.00
   0   6  -7 1114.49   36.60
   0   6  -7 1149.39   38.10
   0  -6   7 1120.59   32.50
   0  -6   7 1124.09   30.90
   0  -6   7 1111.69   32.70
   0  -6   7 1117.59   32.60
   0  -6   7 1157.78   34.00
   0  -6   7 1097.19   34.30
  -1   6  -7   24.80    7.00
  -1   6  -7   11.50    6.20
  -1   6  -7   14.60    5.40
  -1   6  -7    8.20    5.10
  -1   6  -7    7.70    5.10
  -1   6  -7   10.60    5.20
   1  -6   7   16.60    4.10
   1  -6   7    7.40    3.80
   1  -6   7   16.80    4.00
   1  -6   7   13.50    3.80
   1  -6   7    7.60    3.90
   1  -6   7   10.30    3.20
  -2   6  -7 1186.08   38.10
  -2   6  -7 1203.78   39.60
  -2   6  -7 1167.78   38.00
  -2   6  -7 1185.68   40.90
  -2   6  -7 1165.58   33.90
  -2   6  -7 1198.38   41.80
  -2   6  -7 1159.08   36.40
  -2   6  -7 1205.98   37.70
   2  -6   7 1167.28   32.80
   2  -6   7 1147.99   36.00
   2  -6   7 1118.49   35.60
   2  -6   7 1172.78   35.80
   2  -6   7 1189.68   34.10
   2  -6   7 1207.68   37.40
   2  -6   7 1193.38   35.70
  -3   6  -7   64.79    9.10
  -3   6  -7   71.79    9.50
  -3   6  -7   62.39    7.90
  -3   6  -7   54.59    9.10
  -3   6  -7   53.99   10.70
  -3   6  -7   78.09   12.30
  -3   6  -7   70.59    9.50
  -3   6  -7   57.99    8.10
   3  -6   7   45.00    7.20
   3  -6   7   47.30    5.80
   3  -6   7   64.39    7.90
   3  -6   7   50.49    7.20
   3  -6   7   64.49    8.00
   3  -6   7   53.09    6.80
   3  -6   7   65.89    8.80
   3  -6   7   70.89    8.90
   4   5  -7   94.09    9.50
   4   5  -7  102.29   11.20
   4   5  -7   90.49    8.40
   4   5  -7   90.59   12.40
   4   5  -7  102.89    9.50
  -4  -5   7   92.79    6.50
  -4  -5   7   91.79    6.70
  -4  -5   7   91.59    8.80
  -4  -5   7  106.09    8.50
  -4  -5   7   82.89    6.20
   3   5  -7   69.69    8.50
   3   5  -7   66.59    9.00
   3   5  -7   88.79    9.10
   3   5  -7   62.19    7.90
   3   5  -7   59.39    7.20
  -3  -5   7   74.19    6.90
  -3  -5   7   65.19    6.60
  -3  -5   7   65.49    7.20
  -3  -5   7   73.09    5.60
  -3  -5   7   62.09    4.80
  -3  -5   7   65.29    5.20
   2   5  -7  498.65   19.70
   2   5  -7  478.45   20.00
   2   5  -7  491.95   19.30
   2   5  -7  503.45   19.90
  -2  -5   7  485.95   15.30
  -2  -5   7  475.85   15.80
  -2  -5   7  505.65   17.80
  -2  -5   7  501.55   16.40
  -2  -5   7  533.45   16.80
  -2  -5   7  510.55   15.40
  -2  -5   7  499.35   16.20
  -2  -5   7  497.15   16.50
   1   5  -7  981.00   32.60
   1   5  -7 1003.00   31.70
   1   5  -7 1013.80   31.40
   1   5  -7 1044.80   33.40
   1   5  -7 1021.80   31.90
  -1  -5   7  966.90   28.60
  -1  -5   7 1000.20   29.40
  -1  -5   7 1004.60   28.40
  -1  -5   7 1003.40   29.70
  -1  -5   7  947.21   29.50
  -1  -5   7 1007.40   28.50
  -1  -5   7  973.10   29.30
   0   5  -7  173.28   10.90
   0   5  -7  155.18    8.30
   0   5  -7  172.48   10.20
   0   5  -7  181.88   10.30
   0   5  -7  179.68    9.80
   0   5  -7  157.68   10.20
   0   5  -7  176.98   11.40
   0  -5   7  177.18    8.80
   0  -5   7  142.59    9.90
   0  -5   7  182.78    7.90
   0  -5   7  165.78    6.10
   0  -5   7  175.78    8.30
   0  -5   7  175.68   11.20
   0  -5   7  163.18    7.60
   0  -5   7  145.69    8.10
  -1   5  -7 1056.09   30.70
  -1   5  -7 1096.39   34.30
  -1   5  -7 1070.79   35.70
  -1   5  -7 1076.49   30.30
  -1   5  -7 1059.29   34.60
  -1   5  -7 1089.29   32.40
  -1   5  -7 1097.09   34.20
  -1   5  -7 1122.49   36.90
   1  -5   7 1075.29   32.10
   1  -5   7 1067.99   30.10
   1  -5   7 1095.79   32.10
   1  -5   7 1063.59   31.80
   1  -5   7 1106.49   34.10
   1  -5   7 1063.39   32.10
   1  -5   7 1119.99   33.20
  -2   5  -7  428.46   15.90
  -2   5  -7  403.36   19.20
  -2   5  -7  398.66   17.90
  -2   5  -7  403.66   17.20
  -2   5  -7  398.56   15.60
  -2   5  -7  425.36   17.60
  -2   5  -7  420.36   20.30
  -2   5  -7  414.76   17.00
  -2   5  -7  434.66   17.10
   2  -5   7  405.66   13.00
   2  -5   7  396.96   13.10
   2  -5   7  415.16   15.90
   2  -5   7  415.96   15.60
   2  -5   7  391.96   14.00
   2  -5   7  399.86   15.10
   2  -5   7  398.36   15.30
   2  -5   7  395.36   16.20
  -3   5  -7  431.66   19.50
  -3   5  -7  439.86   17.90
  -3   5  -7  419.26   19.10
  -3   5  -7  430.36   18.30
  -3   5  -7  425.26   18.10
  -3   5  -7  440.36   21.30
  -3   5  -7  400.16   16.30
  -3   5  -7  433.36   17.50
  -3   5  -7  411.26   22.30
   3  -5   7  419.16   17.30
   3  -5   7  437.86   15.70
   3  -5   7  402.76   16.60
   3  -5   7  408.16   16.90
   3  -5   7  424.76   13.30
   3  -5   7  416.46   16.00
   3  -5   7  406.56   14.80
   3  -5   7  426.86   17.50
   3  -5   7  433.06   14.90
  -4   5  -7  898.61   29.70
  -4   5  -7  889.11   32.50
  -4   5  -7  873.41   32.80
  -4   5  -7  891.61   31.80
  -4   5  -7  854.21   29.20
  -4   5  -7  889.31   36.90
  -4   5  -7  882.81   35.10
  -4   5  -7  926.21   32.90
   4  -5   7  904.51   30.60
   4  -5   7  913.01   28.60
   4  -5   7  866.61   31.00
   4  -5   7  894.71   28.00
   4  -5   7  907.31   28.20
   4  -5   7  895.81   30.50
   4  -5   7  925.71   30.30
   4  -5   7  902.21   28.80
   5   4  -7  189.78   12.00
   5   4  -7  224.28   13.00
   5   4  -7  209.18   16.10
   5   4  -7  215.98   14.90
   5   4  -7  207.18   12.50
  -5  -4   7  189.08   13.50
  -5  -4   7  197.18   10.80
  -5  -4   7  212.88   12.00
  -5  -4   7  213.68   11.20
  -5  -4   7  207.98   12.90
   4   4  -7    4.00    5.20
   4   4  -7    6.20    4.40
   4   4  -7    9.50    4.00
   4   4  -7    1.30    4.30
   4   4  -7   13.20    6.10
  -4  -4   7    0.30    4.50
  -4  -4   7    0.60    3.30
  -4  -4   7    9.50    2.80
  -4  -4   7    7.20    3.10
  -4  -4   7   10.30    3.80
  -4  -4   7    8.70    4.30
   3   4  -7  430.86   15.40
   3   4  -7  421.86   14.70
   3   4  -7  428.46   18.50
   3   4  -7  437.66   17.60
   3   4  -7  416.16   13.90
  -3  -4   7  446.96   15.30
  -3  -4   7  426.06   15.30
  -3  -4   7  442.36   14.20
  -3  -4   7  438.66   14.80
  -3  -4   7  412.46   14.00
  -3  -4   7  441.36   15.90
  -3  -4   7  421.76   14.30
   2   4  -7  130.59    6.20
   2   4  -7  127.59    7.10
   2   4  -7  134.19    9.00
   2   4  -7  122.59    9.00
   2   4  -7  134.99    8.70
   2   4  -7  128.09    9.30
  -2  -4   7  129.79    7.10
  -2  -4   7  138.29    7.00
  -2  -4   7  141.79    6.50
  -2  -4   7  139.19    8.10
  -2  -4   7  133.69    7.40
  -2  -4   7  131.89    6.00
  -2  -4   7  142.09    6.60
  -2  -4   7  136.09    7.60
  -2  -4   7  126.99    5.80
   1   4  -7   50.89    5.10
   1   4  -7   55.99    6.10
   1   4  -7   50.39    6.20
   1   4  -7   48.30    5.80
   1   4  -7   48.60    6.10
   1   4  -7   50.29    7.20
  -1  -4   7   51.19    4.40
  -1  -4   7   54.79    4.90
  -1  -4   7   57.99    5.50
  -1  -4   7   53.59    3.80
  -1  -4   7   56.69    4.60
  -1  -4   7   64.09    4.90
  -1  -4   7   43.20    5.50
  -1  -4   7   60.89    4.20
   0   4  -7 1129.59   35.30
   0   4  -7 1063.99   33.40
   0   4  -7 1086.89   29.80
   0   4  -7 1121.99   30.20
   0   4  -7 1088.99   33.40
   0   4  -7 1092.69   30.30
   0   4  -7 1047.40   31.90
   0   4  -7 1066.99   31.20
   0   4  -7 1098.79   34.10
   0  -4   7 1095.59   31.00
   0  -4   7 1077.79   31.30
   0  -4   7 1104.89   32.50
   0  -4   7 1102.19   31.60
   0  -4   7 1054.39   32.50
   0  -4   7 1086.09   31.30
   0  -4   7 1078.19   31.10
  -1   4  -7 1132.99   35.90
  -1   4  -7 1070.79   31.90
  -1   4  -7 1147.89   35.00
  -1   4  -7 1179.48   34.40
  -1   4  -7 1161.88   33.80
  -1   4  -7 1087.29   33.30
  -1   4  -7 1144.39   37.20
  -1   4  -7 1074.49   31.80
  -1   4  -7 1135.79   35.10
  -1   4  -7 1173.48   33.20
  -1   4  -7 1092.19   32.50
   1  -4   7 1145.09   32.70
   1  -4   7 1117.69   32.80
   1  -4   7 1150.38   31.00
   1  -4   7 1123.59   32.80
   1  -4   7 1146.29   34.70
   1  -4   7 1133.79   33.10
   1  -4   7 1154.78   33.50
  -2   4  -7  396.26   15.80
  -2   4  -7  401.76   15.80
  -2   4  -7  393.16   16.40
  -2   4  -7  407.96   16.90
  -2   4  -7  408.86   15.30
  -2   4  -7  409.06   15.40
  -2   4  -7  382.46   15.30
  -2   4  -7  415.26   18.90
  -2   4  -7  392.56   17.40
   2  -4   7  381.16   12.50
   2  -4   7  394.66   12.60
   2  -4   7  388.56   14.60
   2  -4   7  391.16   13.40
   2  -4   7  396.46   15.20
   2  -4   7  394.36   14.10
   2  -4   7  393.66   14.80
   2  -4   7  390.46   15.10
  -3   4  -7  594.34   17.90
  -3   4  -7  616.74   24.80
  -3   4  -7  594.04   22.60
  -3   4  -7  622.14   22.80
  -3   4  -7  655.53   21.40
  -3   4  -7  638.74   26.60
  -3   4  -7  612.74   23.10
  -3   4  -7  612.54   23.40
  -3   4  -7  645.24   21.70
   3  -4   7  655.13   19.90
   3  -4   7  629.34   21.60
   3  -4   7  616.84   22.10
   3  -4   7  623.34   20.30
   3  -4   7  637.54   20.30
   3  -4   7  638.94   21.90
   3  -4   7  626.94   19.80
   3  -4   7  643.44   21.90
   3  -4   7  601.54   18.10
  -4   4  -7   29.40    8.40
  -4   4  -7   43.50    7.40
  -4   4  -7   34.80    6.30
  -4   4  -7   28.40    5.50
  -4   4  -7   39.40   10.00
  -4   4  -7   38.50    7.10
  -4   4  -7   37.20    8.50
  -4   4  -7   38.10    8.50
  -4   4  -7   43.20    8.10
   4  -4   7   32.90    5.90
   4  -4   7   36.30    6.20
   4  -4   7   30.70    4.70
   4  -4   7   29.80    5.60
   4  -4   7   29.70    4.60
   4  -4   7   28.60    5.20
   4  -4   7   36.60    6.60
   4  -4   7   30.80    5.70
  -5   4  -7  151.58   18.20
  -5   4  -7  104.59   13.20
  -5   4  -7  134.59   13.80
  -5   4  -7  138.99   15.80
  -5   4  -7  113.69   13.80
  -5   4  -7  143.39   15.30
  -5   4  -7   98.79   14.60
  -5   4  -7  126.49   12.90
   5  -4   7  140.49    9.80
   5  -4   7  119.49   11.20
   5  -4   7  134.19   11.90
   5  -4   7  120.09   13.10
   5  -4   7  143.09   10.20
   5  -4   7  136.99   12.70
   5  -4   7  126.49   11.60
   6   3  -7  245.98   18.10
   5   3  -7  179.18   13.00
   5   3  -7  182.88   10.60
   5   3  -7  172.38   10.80
   5   3  -7  191.78   11.50
   5   3  -7  205.88   15.10
  -5  -3   7  200.58   11.90
  -5  -3   7  189.98   11.00
  -5  -3   7  213.88   13.00
  -5  -3   7  177.58   10.40
  -5  -3   7  203.78    8.70
  -5  -3   7  204.08   11.10
   4   3  -7  298.57   12.80
   4   3  -7  269.97   12.20
   4   3  -7  305.57   12.00
   4   3  -7  312.77   16.00
   4   3  -7  331.07   14.90
   4   3  -7  300.97   12.30
  -4  -3   7  310.77   12.30
  -4  -3   7  330.37   13.80
  -4  -3   7  314.57   13.00
  -4  -3   7  331.17   13.90
  -4  -3   7  336.07   12.90
  -4  -3   7  318.67   10.90
   3   3  -7  677.13   20.80
   3   3  -7  714.93   21.80
   3   3  -7  709.13   25.00
   3   3  -7  731.13   23.80
   3   3  -7  665.73   20.60
   3   3  -7  686.53   21.10
  -3  -3   7  684.63   21.20
  -3  -3   7  696.53   22.10
  -3  -3   7  684.03   20.60
  -3  -3   7  709.93   22.40
  -3  -3   7  699.13   21.70
  -3  -3   7  715.63   21.70
  -3  -3   7  714.73   22.40
   2   3  -7    5.20    2.40
   2   3  -7    6.40    3.20
   2   3  -7    9.50    3.70
   2   3  -7    5.10    2.50
   2   3  -7    7.30    3.30
   2   3  -7    3.20    3.00
   2   3  -7    5.30    2.80
  -2  -3   7    3.20    2.70
  -2  -3   7    6.50    2.30
  -2  -3   7    5.50    1.80
  -2  -3   7    5.00    1.90
  -2  -3   7    4.60    2.00
  -2  -3   7    3.90    2.10
  -2  -3   7    4.90    2.70
  -2  -3   7   11.00    3.60
   1   3  -7 2202.98   56.39
   1   3  -7 2167.18   56.59
   1   3  -7 2165.38   59.49
   1   3  -7 2169.28   59.69
   1   3  -7 2005.10   56.69
   1   3  -7 2116.19   57.39
   1   3  -7 2219.58   60.79
   1   3  -7 2086.89   59.29
  -1  -3   7 2167.48   58.59
  -1  -3   7 2063.19   56.19
  -1  -3   7 2141.79   57.19
  -1  -3   7 2126.79   56.79
  -1  -3   7 2121.69   56.99
  -1  -3   7 2120.59   57.59
  -1  -3   7 2122.39   57.89
  -1  -3   7 2181.48   57.39
  -1  -3   7 2099.59   58.19
  -1  -3   7 2134.19   57.59
   0   3  -7  693.83   22.30
   0   3  -7  681.63   22.60
   0   3  -7  695.23   21.30
   0   3  -7  698.23   22.20
   0   3  -7  682.83   22.70
   0   3  -7  687.93   18.70
   0   3  -7  661.83   21.60
   0   3  -7  643.44   23.10
   0   3  -7  693.13   23.90
   0   3  -7  689.33   20.60
   0   3  -7  686.53   21.00
   0   3  -7  677.13   18.80
   0  -3   7  677.23   19.00
   0  -3   7  708.43   20.80
   0  -3   7  695.23   21.00
   0  -3   7  671.53   21.60
   0  -3   7  701.83   21.10
   0  -3   7  675.03   21.90
   0  -3   7  721.43   20.80
   0  -3   7  681.23   20.70
  -1   3  -7   71.89    6.30
  -1   3  -7   64.19    3.50
  -1   3  -7   72.49    7.70
  -1   3  -7   76.09    6.10
  -1   3  -7   73.69    7.00
  -1   3  -7   63.19    6.10
  -1   3  -7   69.79    6.70
  -1   3  -7   66.39    6.00
  -1   3  -7   72.79    6.00
  -1   3  -7   68.49    5.90
   1  -3   7   66.99    5.30
   1  -3   7   77.69    5.00
   1  -3   7   67.09    5.10
   1  -3   7   67.79    7.90
   1  -3   7   72.99    5.20
   1  -3   7   72.79    5.20
  -2   3  -7 1844.92   53.79
  -2   3  -7 1717.33   51.39
  -2   3  -7 1836.02   52.39
  -2   3  -7 1849.21   53.09
  -2   3  -7 1786.82   48.70
  -2   3  -7 1862.91   52.59
  -2   3  -7 1875.61   52.29
  -2   3  -7 1879.31   55.69
   2  -3   7 1829.82   51.39
   2  -3   7 1833.42   51.79
   2  -3   7 1913.11   51.59
   2  -3   7 1859.61   50.39
   2  -3   7 1883.01   51.69
   2  -3   7 1843.72   49.50
   2  -3   7 1786.52   49.10
  -3   3  -7  304.67   14.80
  -3   3  -7  340.17   16.10
  -3   3  -7  335.17   17.70
  -3   3  -7  334.27   14.80
  -3   3  -7  336.07   12.10
  -3   3  -7  343.27   14.30
  -3   3  -7  359.16   16.10
  -3   3  -7  335.87   16.00
  -3   3  -7  328.77   14.40
   3  -3   7  341.87   12.60
   3  -3   7  325.67   12.20
   3  -3   7  341.57   11.30
   3  -3   7  364.16   12.80
   3  -3   7  333.37   14.10
   3  -3   7  341.47   13.80
   3  -3   7  333.67   13.60
   3  -3   7  332.17   13.80
  -4   3  -7  836.92   31.20
  -4   3  -7  838.12   31.20
  -4   3  -7  880.81   33.60
  -4   3  -7  853.81   31.10
  -4   3  -7  839.82   28.60
  -4   3  -7  830.42   28.90
  -4   3  -7  851.71   29.80
  -4   3  -7  831.92   26.00
  -4   3  -7  869.31   28.80
   4  -3   7  833.82   28.60
   4  -3   7  863.11   28.10
   4  -3   7  851.51   25.20
   4  -3   7  818.02   27.80
   4  -3   7  853.01   28.00
   4  -3   7  834.72   26.80
   4  -3   7  874.91   25.70
   4  -3   7  862.31   26.90
  -5   3  -7  333.17   16.70
  -5   3  -7  318.67   19.50
  -5   3  -7  328.27   14.70
  -5   3  -7  312.97   18.20
  -5   3  -7  322.37   22.60
  -5   3  -7  287.27   19.90
  -5   3  -7  323.37   20.80
  -5   3  -7  324.07   17.10
  -5   3  -7  319.27   18.30
   5  -3   7  329.77   15.60
   5  -3   7  336.97   16.00
   5  -3   7  330.07   16.50
   5  -3   7  303.87   15.30
   5  -3   7  309.17   16.60
   5  -3   7  333.97   15.50
   5  -3   7  325.47   12.60
   5  -3   7  328.07   14.10
   6   2  -7   -2.80    5.30
   6   2  -7    3.80    5.60
   6   2  -7    7.60    7.50
   6   2  -7    7.50    5.70
  -6  -2   7    4.80    6.70
  -6  -2   7  -10.40    5.30
  -6  -2   7    1.40    5.00
  -6  -2   7    1.50    5.70
  -6  -2   7    5.30    7.60
  -6  -2   7    2.80    5.60
   5   2  -7  573.04   20.30
   5   2  -7  586.84   23.90
   5   2  -7  542.75   19.50
   5   2  -7  586.04   21.80
   5   2  -7  550.04   20.20
   5   2  -7  557.34   20.00
   5   2  -7  539.15   16.70
  -5  -2   7  553.84   18.00
  -5  -2   7  572.74   22.40
  -5  -2   7  576.74   21.20
  -5  -2   7  593.24   21.10
  -5  -2   7  568.44   21.30
  -5  -2   7  583.84   20.90
   4   2  -7  343.37   16.40
   4   2  -7  358.66   13.40
   4   2  -7  331.57   11.70
   4   2  -7  348.97   13.50
   4   2  -7  374.56   13.20
   4   2  -7  355.26   14.20
   4   2  -7  388.86   15.30
  -4  -2   7  344.37   12.10
  -4  -2   7  358.66   13.90
  -4  -2   7  361.26   14.50
  -4  -2   7  370.46   14.40
  -4  -2   7  362.06   14.30
  -4  -2   7  336.77   14.30
  -4  -2   7  373.16   15.30
   3   2  -7  246.48    9.40
   3   2  -7  255.07    9.40
   3   2  -7  250.77   10.00
   3   2  -7  240.28    9.60
   3   2  -7  268.77   12.80
   3   2  -7  242.48    9.50
   3   2  -7  252.77   11.50
   3   2  -7  256.67   10.00
   3   2  -7  251.07   10.50
  -3  -2   7  263.17   11.40
  -3  -2   7  271.97    9.30
  -3  -2   7  253.07   10.60
  -3  -2   7  249.18    9.90
  -3  -2   7  245.98   10.00
  -3  -2   7  255.07   10.70
  -3  -2   7  262.27   10.70
  -3  -2   7  263.07   11.10
   2   2  -7  224.88    7.40
   2   2  -7  215.28    8.10
   2   2  -7  229.48   10.80
   2   2  -7  217.78    9.00
   2   2  -7  214.78    8.50
   2   2  -7  205.18    9.60
   2   2  -7  223.88   10.10
   2   2  -7  190.68    8.30
   2   2  -7  226.78   10.80
   2   2  -7  220.78    7.90
   2   2  -7  201.48    7.30
   2   2  -7  210.48    9.00
  -2  -2   7  231.68    9.10
  -2  -2   7  220.98    8.20
  -2  -2   7  224.68    9.50
  -2  -2   7  203.58    9.70
  -2  -2   7  222.48    9.20
  -2  -2   7  218.28    9.20
  -2  -2   7  221.28    8.70
   1   2  -7  699.73   19.40
   1   2  -7  727.13   21.60
   1   2  -7  691.83   21.10
   1   2  -7  707.03   22.80
   1   2  -7  727.43   20.90
   1   2  -7  710.53   23.50
   1   2  -7  700.03   21.40
   1   2  -7  687.93   21.30
   1   2  -7  765.82   22.70
   1   2  -7  723.43   21.80
  -1  -2   7  712.13   20.70
  -1  -2   7  729.43   21.10
  -1  -2   7  761.62   21.00
  -1  -2   7  716.33   21.30
  -1  -2   7  717.63   21.80
  -1  -2   7  734.23   21.70
  -1  -2   7  703.83   21.90
  -1  -2   7  718.13   22.30
  -1  -2   7  730.33   21.90
   0   2  -7   71.49    6.10
   0   2  -7   62.59    6.50
   0   2  -7   81.69    6.00
   0   2  -7   79.39    5.70
   0   2  -7   83.79    4.00
   0   2  -7   78.59    5.70
   0   2  -7   84.89    6.00
   0   2  -7   74.59    4.30
   0   2  -7   82.99    5.80
   0   2  -7   80.19    5.40
   0  -2   7   79.89    6.00
   0  -2   7   73.09    5.30
   0  -2   7   73.09    4.60
   0  -2   7   76.89    4.90
   0  -2   7   83.99    4.90
   0  -2   7   78.69    6.80
   0  -2   7   78.59    5.10
  -1   2  -7 2884.31   74.69
  -1   2  -7 2601.64   74.09
  -1   2  -7 2892.11   77.39
  -1   2  -7 2935.31   79.29
  -1   2  -7 2829.22   77.49
  -1   2  -7 2779.22   77.29
  -1   2  -7 2865.01   77.09
  -1   2  -7 2874.11   76.49
  -1   2  -7 2917.01   76.69
  -1   2  -7 2782.02   74.99
   1  -2   7 2835.12   74.49
   1  -2   7 2845.92   77.49
   1  -2   7 2849.51   76.49
   1  -2   7 2905.81   76.19
   1  -2   7 2787.42   73.99
   1  -2   7 2874.51   76.09
   1  -2   7 2916.21   76.39
   1  -2   7 2864.71   75.29
  -2   2  -7  172.08    9.10
  -2   2  -7  169.88    8.50
  -2   2  -7  163.78    9.00
  -2   2  -7  164.58    9.30
  -2   2  -7  159.38    7.30
  -2   2  -7  172.08   10.80
  -2   2  -7  152.38    9.40
  -2   2  -7  176.08    9.30
   2  -2   7  164.88    7.30
   2  -2   7  147.59    8.70
   2  -2   7  163.48    8.20
   2  -2   7  170.38    7.20
   2  -2   7  163.38    8.40
   2  -2   7  165.08    7.50
   2  -2   7  174.68    8.20
   2  -2   7  160.68    6.10
   2  -2   7  164.78    8.20
  -3   2  -7  572.84   18.10
  -3   2  -7  537.35   20.10
  -3   2  -7  510.45   21.00
  -3   2  -7  566.44   21.60
  -3   2  -7  548.55   22.80
  -3   2  -7  564.94   21.00
  -3   2  -7  556.54   20.50
  -3   2  -7  591.34   19.50
  -3   2  -7  563.24   20.10
   3  -2   7  577.44   18.60
   3  -2   7  555.14   18.20
   3  -2   7  509.35   18.00
   3  -2   7  544.65   19.10
   3  -2   7  543.95   19.10
   3  -2   7  565.34   19.70
   3  -2   7  568.74   17.40
   3  -2   7  562.64   17.10
   3  -2   7  580.34   19.20
  -4   2  -7  879.61   30.50
  -4   2  -7  894.11   33.80
  -4   2  -7  869.31   28.20
  -4   2  -7  882.11   30.20
  -4   2  -7  905.01   27.70
  -4   2  -7  904.51   31.60
  -4   2  -7  919.31   31.70
  -4   2  -7  882.81   32.00
  -4   2  -7  930.81   30.00
   4  -2   7  910.61   26.00
   4  -2   7  886.91   28.20
   4  -2   7  867.11   27.90
   4  -2   7  860.01   29.20
   4  -2   7  912.71   28.90
   4  -2   7  812.52   28.30
   4  -2   7  894.71   28.60
   4  -2   7  882.71   26.50
  -5   2  -7    8.00    7.80
  -5   2  -7    6.30    6.70
  -5   2  -7   18.80    9.20
  -5   2  -7   19.10    7.00
  -5   2  -7   18.70    6.10
  -5   2  -7   12.00    5.40
  -5   2  -7   14.20    7.80
  -5   2  -7   14.00   10.00
  -5   2  -7    7.00    6.60
   5  -2   7    5.70    5.50
   5  -2   7   13.00    5.40
   5  -2   7    4.40    5.90
   5  -2   7   19.90    4.40
   5  -2   7   14.10    5.30
   5  -2   7   10.10    4.90
   5  -2   7   14.40    6.20
   5  -2   7   26.80    6.40
   6   1  -7  925.91   30.50
   6   1  -7  893.11   29.90
   6   1  -7  909.31   33.90
   6   1  -7  881.51   27.10
   6   1  -7  905.31   30.30
  -6  -1   7  892.41   30.60
  -6  -1   7  959.00   32.10
  -6  -1   7  894.31   31.50
  -6  -1   7  857.41   31.20
  -6  -1   7  912.71   32.00
  -6  -1   7  894.31   33.90
   5   1  -7   29.20    5.70
   5   1  -7   14.90    3.50
   5   1  -7   14.20    4.40
   5   1  -7   21.70    6.10
   5   1  -7   26.20    5.90
   5   1  -7   22.70    4.80
   5   1  -7   18.10    3.80
   5   1  -7   25.40    4.50
  -5  -1   7   11.90    4.50
  -5  -1   7   21.50    5.30
  -5  -1   7   13.90    5.60
  -5  -1   7   37.80    5.90
  -5  -1   7   19.90    5.00
   4   1  -7  254.27   10.70
   4   1  -7  271.57   12.00
   4   1  -7  259.27   10.40
   4   1  -7  245.68    9.50
   4   1  -7  265.67   13.40
   4   1  -7  221.28   11.60
   4   1  -7  241.38   11.30
   4   1  -7  250.07   10.60
   4   1  -7  253.17   10.60
  -4  -1   7  236.78    9.20
  -4  -1   7  250.57   12.60
  -4  -1   7  258.87   11.50
  -4  -1   7  263.37   10.10
  -4  -1   7  271.27   11.70
  -4  -1   7  269.77   11.80
  -4  -1   7  263.37   12.00
  -4  -1   7  275.97   13.10
   3   1  -7 1452.05   40.00
   3   1  -7 1410.66   39.90
   3   1  -7 1322.97   39.20
   3   1  -7 1400.96   38.50
   3   1  -7 1406.66   39.10
   3   1  -7 1414.36   40.00
   3   1  -7 1395.86   37.30
   3   1  -7 1358.96   38.50
   3   1  -7 1373.06   38.70
   3   1  -7 1416.76   42.10
  -3  -1   7 1373.86   40.00
  -3  -1   7 1397.56   39.60
  -3  -1   7 1400.26   40.80
  -3  -1   7 1336.77   39.70
  -3  -1   7 1425.26   38.50
  -3  -1   7 1401.66   40.20
  -3  -1   7 1332.97   37.50
   2   1  -7  544.65   16.60
   2   1  -7  524.75   18.10
   2   1  -7  443.86   14.90
   2   1  -7  500.75   16.60
   2   1  -7  538.95   18.70
   2   1  -7  506.75   14.40
   2   1  -7  512.95   16.90
   2   1  -7  540.05   17.20
  -2  -1   7  425.16   16.80
  -2  -1   7  536.75   16.50
  -2  -1   7  512.65   15.70
  -2  -1   7  499.35   16.70
  -2  -1   7  528.75   17.00
  -2  -1   7  504.75   16.50
   1   1  -7  962.50   28.90
   1   1  -7 1085.59   30.20
   1   1  -7 1051.29   27.80
   1   1  -7 1030.40   30.50
   1   1  -7 1030.90   28.70
   1   1  -7 1026.60   30.80
   1   1  -7 1040.20   29.20
   1   1  -7 1053.79   29.50
   1   1  -7 1108.79   30.30
   1   1  -7 1016.60   29.60
   1   1  -7 1051.59   28.20
  -1  -1   7 1002.90   30.00
  -1  -1   7 1038.40   29.90
  -1  -1   7 1028.00   28.90
  -1  -1   7 1064.09   30.30
  -1  -1   7 1069.19   29.20
  -1  -1   7 1013.20   29.40
  -1  -1   7 1021.70   30.10
  -1  -1   7  880.41   29.10
   0   1  -7 1255.67   34.40
   0   1  -7 1290.67   35.70
   0   1  -7 1258.07   35.40
   0   1  -7 1251.57   36.50
   0   1  -7 1254.57   32.70
   0   1  -7 1218.58   36.30
   0   1  -7 1262.97   36.50
   0   1  -7 1247.58   33.80
   0   1  -7 1294.37   34.90
   0   1  -7 1226.88   33.20
   0  -1   7 1239.58   34.60
   0  -1   7 1265.37   33.90
   0  -1   7 1238.98   34.60
   0  -1   7 1263.47   34.40
   0  -1   7 1240.78   34.90
   0  -1   7 1238.18   34.90
   0  -1   7 1251.77   35.60
   0  -1   7 1094.79   35.00
  -1   1  -7  730.93   21.90
  -1   1  -7  690.13   20.80
  -1   1  -7  727.23   23.10
  -1   1  -7  723.53   21.10
  -1   1  -7  718.13   23.20
  -1   1  -7  718.23   21.40
  -1   1  -7  725.23   19.40
  -1   1  -7  717.63   20.40
  -1   1  -7  718.23   22.30
  -1   1  -7  691.33   23.60
   1  -1   7  721.93   21.30
   1  -1   7  721.53   21.90
   1  -1   7  712.93   21.90
   1  -1   7  713.03   20.80
   1  -1   7  675.63   21.60
   1  -1   7  708.73   20.90
   1  -1   7  703.33   21.70
   1  -1   7  688.43   22.00
  -2   1  -7  338.17   13.50
  -2   1  -7  342.27   13.20
  -2   1  -7  337.17   14.80
  -2   1  -7  336.47   13.40
  -2   1  -7  355.36   14.30
  -2   1  -7  347.57   14.50
  -2   1  -7  334.57   13.60
  -2   1  -7  326.47   12.00
   2  -1   7  338.87   12.60
   2  -1   7  317.97   12.80
   2  -1   7  330.37   11.30
   2  -1   7  315.57   12.50
   2  -1   7  328.07   11.10
   2  -1   7  306.77   11.70
   2  -1   7  336.97   12.10
   2  -1   7  331.77   12.40
   2  -1   7  338.37   12.70
  -3   1  -7 1668.23   49.00
  -3   1  -7 1630.74   47.70
  -3   1  -7 1648.44   50.09
  -3   1  -7 1606.84   47.90
  -3   1  -7 1636.24   48.60
  -3   1  -7 1704.43   45.80
  -3   1  -7 1642.94   48.20
  -3   1  -7 1560.74   49.20
  -3   1  -7 1638.54   46.40
   3  -1   7 1612.14   45.10
   3  -1   7 1664.03   44.70
   3  -1   7 1654.13   46.80
   3  -1   7 1573.04   47.10
   3  -1   7 1687.93   46.50
   3  -1   7 1657.03   47.10
   3  -1   7 1642.64   46.70
   3  -1   7 1638.74   47.20
   3  -1   7 1676.33   46.70
  -4   1  -7   23.00    6.20
  -4   1  -7   17.30    4.80
  -4   1  -7   21.00    7.20
  -4   1  -7   21.70    5.70
  -4   1  -7   14.60    5.60
  -4   1  -7   23.10    5.30
  -4   1  -7   31.00    6.90
  -4   1  -7   33.00    6.20
  -4   1  -7   23.70    4.60
   4  -1   7   30.50    5.40
   4  -1   7   28.40    3.70
   4  -1   7   23.70    4.80
   4  -1   7   25.60    4.70
   4  -1   7   24.30    5.00
   4  -1   7   23.50    4.90
   4  -1   7   24.90    4.90
   4  -1   7   19.10    5.80
   4  -1   7   26.50    4.40
  -5   1  -7  387.66   19.70
  -5   1  -7  424.96   17.90
  -5   1  -7  406.46   19.00
  -5   1  -7  393.46   19.20
  -5   1  -7  399.66   15.90
  -5   1  -7  428.96   23.20
  -5   1  -7  376.76   18.90
  -5   1  -7  392.96   21.40
   5  -1   7  378.06   16.70
   5  -1   7  371.26   16.00
   5  -1   7  380.26   12.70
   5  -1   7  409.76   17.90
   5  -1   7  409.66   17.40
   5  -1   7  386.26   18.00
   5  -1   7  399.36   18.00
   5  -1   7  349.27   17.20
   6   0  -7  314.97   14.90
   6   0  -7  301.17   13.00
   6   0  -7  277.87   15.50
   6   0  -7  276.47   14.10
   6   0  -7  267.37   13.10
   6   0  -7  318.27   15.10
   6   0  -7  304.77   17.60
  -6   0   7  323.67   19.10
  -6   0   7  290.27   16.40
  -6   0   7  273.47   15.40
  -6   0   7  305.47   16.30
  -6   0   7  292.17   16.20
  -6   0   7  295.27   17.00
   5   0  -7  211.28   11.90
   5   0  -7  237.78   10.30
   5   0  -7  225.08   11.10
   5   0  -7  215.98   11.00
   5   0  -7  225.88   12.70
   5   0  -7  239.78   14.30
   5   0  -7  232.38   11.10
   5   0  -7  242.18   11.50
  -5   0   7  233.88   12.80
  -5   0   7  241.88   14.50
  -5   0   7  237.38   13.10
  -5   0   7  242.98   13.20
  -5   0   7  209.18   12.30
  -5   0   7  239.48   12.20
   4   0  -7 1364.46   39.20
   4   0  -7 1375.86   39.50
   4   0  -7 1352.66   42.10
   4   0  -7 1380.26   38.20
   4   0  -7 1312.47   39.80
   4   0  -7 1412.76   40.60
   4   0  -7 1386.66   39.20
   4   0  -7 1399.76   39.30
  -4   0   7 1319.57   40.90
  -4   0   7 1337.07   40.40
  -4   0   7 1302.77   40.50
  -4   0   7 1390.76   38.90
  -4   0   7 1314.97   36.60
  -4   0   7 1383.56   40.00
   3   0  -7    9.50    2.50
   3   0  -7    5.90    2.60
   3   0  -7    6.20    2.80
   3   0  -7    5.50    2.50
   3   0  -7   11.40    3.80
   3   0  -7    3.50    2.90
   3   0  -7   10.50    3.60
   3   0  -7    2.40    3.30
  -3   0   7    6.00    1.90
  -3   0   7    8.10    2.70
  -3   0   7    9.60    3.50
  -3   0   7    8.60    2.50
  -3   0   7    6.20    4.10
  -3   0   7    7.70    2.90
  -3   0   7    9.10    2.80
  -3   0   7    6.30    2.70
   2   0  -7  112.29    6.80
   2   0  -7  101.59    6.20
   2   0  -7  107.79    6.20
   2   0  -7  102.99    5.70
   2   0  -7  107.89    7.00
   2   0  -7  113.39    6.40
   2   0  -7  115.99    5.60
  -2   0   7  101.89    6.00
  -2   0   7  100.49    6.70
  -2   0   7  102.19    7.30
  -2   0   7  101.79    5.70
  -2   0   7  104.19    6.30
   1   0  -7  743.83   22.90
   1   0  -7  749.42   21.50
   1   0  -7  742.73   23.30
   1   0  -7  744.53   22.30
   1   0  -7  724.03   22.60
   1   0  -7  742.33   23.70
   1   0  -7  736.13   23.00
   1   0  -7  775.52   22.70
  -1   0   7  753.82   20.80
  -1   0   7  798.02   23.10
  -1   0   7  743.53   23.00
  -1   0   7  739.83   22.10
  -1   0   7  736.03   22.50
  -1   0   7  729.23   21.90
  -1   0   7  745.13   21.90
  -1   0   7  732.83   23.20
   0   0  -7  461.15   13.60
   0   0  -7  443.86   16.00
   0   0  -7  459.85   15.70
   0   0  -7  453.45   15.00
   0   0  -7  463.95   14.70
   0   0  -7  454.65   14.10
   0   0  -7  456.05   16.10
   0   0  -7  430.36   15.20
   0   0  -7  486.75   15.70
   0   0   7  447.86   15.30
   0   0   7  471.25   14.40
   0   0   7  461.45   14.90
   0   0   7  463.85   14.20
   0   0   7  467.95   15.50
   0   0   7  439.56   14.30
   0   0   7  432.56   14.10
  -1   0  -7 1161.48   34.60
  -1   0  -7 1184.58   32.40
  -1   0  -7 1166.98   34.70
  -1   0  -7 1180.98   34.60
  -1   0  -7 1214.98   33.90
  -1   0  -7 1170.38   35.30
  -1   0  -7 1151.38   32.40
   1   0   7 1155.18   33.60
   1   0   7 1212.48   34.30
   1   0   7 1188.68   32.40
   1   0   7 1190.68   34.30
   1   0   7 1172.58   33.50
   1   0   7 1193.88   34.20
   1   0   7 1183.48   34.60
   1   0   7 1227.48   33.00
   1   0   7 1180.78   33.90
   1   0   7 1192.68   33.90
  -2   0  -7  975.60   31.30
  -2   0  -7 1007.30   31.80
  -2   0  -7  991.70   30.90
  -2   0  -7  996.70   29.00
  -2   0  -7  985.50   30.60
  -2   0  -7 1002.70   29.80
  -2   0  -7  968.10   31.20
  -2   0  -7 1014.20   30.50
   2   0   7 1081.79   30.10
   2   0   7 1010.40   28.20
   2   0   7 1024.80   30.50
   2   0   7  977.00   29.00
   2   0   7 1061.19   30.40
   2   0   7  972.40   29.40
   2   0   7  978.50   28.90
   2   0   7 1002.90   30.10
   2   0   7 1012.90   30.10
   2   0   7  933.71   27.50
   2   0   7 1023.10   29.90
  -3   0  -7   42.20    6.10
  -3   0  -7   46.60    6.40
  -3   0  -7   46.20    6.10
  -3   0  -7   40.20    5.60
  -3   0  -7   42.90    5.40
  -3   0  -7   44.40    6.30
  -3   0  -7   46.90    6.50
  -3   0  -7   47.10    6.20
   3   0   7   48.10    5.00
   3   0   7   40.10    5.60
   3   0   7   45.20    5.60
   3   0   7   42.40    5.10
   3   0   7   50.69    6.30
   3   0   7   30.50    4.80
   3   0   7   41.10    5.30
   3   0   7   38.90    3.90
   3   0   7   43.50    5.30
   3   0   7   27.70    4.80
   3   0   7   47.90    5.70
   3   0   7   48.50    5.50
  -4   0  -7  643.54   22.70
  -4   0  -7  634.64   24.30
  -4   0  -7  635.84   24.00
  -4   0  -7  617.04   23.10
  -4   0  -7  628.74   18.70
  -4   0  -7  604.94   24.80
  -4   0  -7  611.54   25.40
  -4   0  -7  670.13   23.90
   4   0   7  619.54   22.70
   4   0   7  646.34   22.80
   4   0   7  646.04   21.70
   4   0   7  685.03   23.90
   4   0   7  643.84   22.40
   4   0   7  631.34   21.60
   4   0   7  662.13   23.00
   4   0   7  633.14   22.10
  -5   0  -7  663.03   28.70
  -5   0  -7  641.74   25.80
  -5   0  -7  649.04   27.90
  -5   0  -7  684.83   25.10
  -5   0  -7  657.83   25.50
  -5   0  -7  618.84   26.10
  -5   0  -7  644.14   26.50
   5   0   7  673.03   22.30
   5   0   7  657.03   23.10
   5   0   7  689.93   24.60
   5   0   7  677.83   25.20
   5   0   7  607.84   22.80
   5   0   7  634.74   25.10
   5   0   7  666.43   25.10
   5   0   7  680.93   25.60
   5   0   7  666.73   23.70
   6  -1  -7  282.87   14.30
   6  -1  -7  250.77   14.00
   6  -1  -7  229.68   15.00
   6  -1  -7  257.57   13.60
   6  -1  -7  240.58   13.50
   6  -1  -7  278.87   13.40
   6  -1  -7  274.37   17.10
  -6   1   7  251.97   15.00
  -6   1   7  240.08   16.20
  -6   1   7  284.47   16.80
  -6   1   7  288.17   19.20
  -6   1   7  278.67   16.70
  -6   1   7  240.38   19.00
  -6   1   7  280.77   17.10
   5  -1  -7  426.66   15.60
   5  -1  -7  381.56   16.20
   5  -1  -7  378.46   13.30
   5  -1  -7  409.16   16.30
   5  -1  -7  393.96   16.10
   5  -1  -7  385.06   17.80
   5  -1  -7  404.76   18.40
   5  -1  -7  387.26   17.00
  -5   1   7  414.76   18.10
  -5   1   7  406.46   19.60
  -5   1   7  429.66   18.80
  -5   1   7  411.96   18.50
  -5   1   7  401.06   18.20
  -5   1   7  413.06   16.80
   4  -1  -7   85.39    7.10
   4  -1  -7   96.29    7.60
   4  -1  -7   95.49    7.90
   4  -1  -7  103.29    6.70
   4  -1  -7   94.29    8.30
   4  -1  -7   96.79    7.10
   4  -1  -7   85.49    8.80
   4  -1  -7   90.49    6.70
   4  -1  -7   80.29    6.30
  -4   1   7   90.59    9.20
  -4   1   7   93.99    8.10
  -4   1   7   91.09    6.00
  -4   1   7   90.29    8.20
  -4   1   7  100.59    7.90
  -4   1   7   86.09    8.40
  -4   1   7   86.69    6.60
   3  -1  -7  417.46   12.80
   3  -1  -7  422.26   16.10
   3  -1  -7  419.06   15.40
   3  -1  -7  411.56   15.50
   3  -1  -7  438.66   15.00
   3  -1  -7  415.36   16.00
   3  -1  -7  430.26   14.20
  -3   1   7  435.86   14.60
  -3   1   7  434.56   15.20
  -3   1   7  431.56   15.90
  -3   1   7  441.06   17.40
  -3   1   7  413.76   14.10
  -3   1   7  403.86   15.90
  -3   1   7  402.46   13.30
  -3   1   7  438.76   16.00
   2  -1  -7 1241.78   33.70
   2  -1  -7 1279.07   36.90
   2  -1  -7 1246.38   36.70
   2  -1  -7 1215.98   35.60
   2  -1  -7 1242.28   36.70
   2  -1  -7 1257.17   34.80
   2  -1  -7 1277.17   36.30
  -2   1   7 1242.98   35.00
  -2   1   7 1253.17   37.60
  -2   1   7 1247.58   36.00
  -2   1   7 1229.58   35.20
  -2   1   7 1215.48   36.20
  -2   1   7 1309.47   36.40
  -2   1   7 1281.07   37.00
  -2   1   7 1293.37   35.60
   1  -1  -7   14.00    3.30
   1  -1  -7   23.70    3.60
   1  -1  -7   12.60    3.00
   1  -1  -7   14.80    3.20
   1  -1  -7   16.30    3.00
   1  -1  -7   22.50    3.90
   1  -1  -7   18.10    3.20
   1  -1  -7   23.70    3.20
  -1   1   7    8.90    2.80
  -1   1   7   16.40    3.20
  -1   1   7   18.20    3.30
  -1   1   7   16.10    2.90
  -1   1   7   18.40    4.00
  -1   1   7   21.60    3.40
  -1   1   7   15.50    3.00
  -1   1   7   20.80    3.10
  -1   1   7   22.90    3.00
   0  -1  -7  123.09    7.20
   0  -1  -7  125.89    6.70
   0  -1  -7  121.89    6.20
   0  -1  -7  120.59    7.00
   0  -1  -7  128.69    7.50
   0  -1  -7  122.39    7.30
   0  -1  -7  123.59    6.80
   0   1   7  128.39    6.80
   0   1   7  114.69    7.70
   0   1   7  109.19    6.10
   0   1   7  127.69    7.20
   0   1   7  114.89    6.80
   0   1   7  119.89    6.50
   0   1   7  118.79    5.70
   0   1   7  128.09    7.10
   0   1   7  123.39    7.10
   0   1   7  118.49    6.70
  -1  -1  -7  816.12   24.00
  -1  -1  -7  829.62   24.90
  -1  -1  -7  829.32   26.00
  -1  -1  -7  823.72   24.80
  -1  -1  -7  809.92   25.20
  -1  -1  -7  810.12   25.90
  -1  -1  -7  805.32   24.80
   1   1   7  828.82   25.70
   1   1   7  763.92   22.90
   1   1   7  824.62   24.90
   1   1   7  800.92   24.70
   1   1   7  757.72   23.60
   1   1   7  824.12   24.20
   1   1   7  765.92   24.10
   1   1   7  753.82   22.20
   1   1   7  828.12   25.00
  -2  -1  -7  408.46   16.00
  -2  -1  -7  408.76   16.40
  -2  -1  -7  362.96   14.90
  -2  -1  -7  403.36   15.80
  -2  -1  -7  400.46   15.30
  -2  -1  -7  404.06   15.10
  -2  -1  -7  408.66   12.50
  -2  -1  -7  432.66   15.30
  -2  -1  -7  413.76   15.20
   2   1   7  410.56   15.20
   2   1   7  394.96   15.20
   2   1   7  418.76   14.70
   2   1   7  409.76   15.70
   2   1   7  408.16   15.40
   2   1   7  402.06   14.50
   2   1   7  397.46   13.00
   2   1   7  412.06   15.60
   2   1   7  410.96   13.60
   2   1   7  416.26   14.80
  -3  -1  -7  599.04   20.00
  -3  -1  -7  623.24   22.30
  -3  -1  -7  595.04   22.60
  -3  -1  -7  619.54   21.70
  -3  -1  -7  607.04   22.60
  -3  -1  -7  607.54   21.30
  -3  -1  -7  617.44   21.60
  -3  -1  -7  625.94   21.50
   3   1   7  560.74   20.20
   3   1   7  625.54   20.40
   3   1   7  630.84   21.90
   3   1   7  622.54   20.90
   3   1   7  648.84   22.20
   3   1   7  606.04   20.20
   3   1   7  607.04   21.10
   3   1   7  600.44   20.80
   3   1   7  625.64   21.80
  -4  -1  -7  277.27   14.10
  -4  -1  -7  302.67   14.50
  -4  -1  -7  284.77   14.60
  -4  -1  -7  309.07   16.50
  -4  -1  -7  277.77   14.30
  -4  -1  -7  294.97   16.00
  -4  -1  -7  279.17   15.20
   4   1   7  306.67   14.80
   4   1   7  286.47   14.60
   4   1   7  282.47   13.70
   4   1   7  299.97   12.80
   4   1   7  283.97   12.70
   4   1   7  272.07   14.50
   4   1   7  263.27   10.80
   4   1   7  277.57   13.40
   4   1   7  274.57   13.30
  -5  -1  -7    3.90    6.50
  -5  -1  -7    9.10    7.00
  -5  -1  -7    8.70    7.40
  -5  -1  -7    8.20    8.50
  -5  -1  -7   15.70    6.60
  -5  -1  -7    1.50    7.80
  -5  -1  -7    6.90    6.40
   5   1   7    8.00    6.80
   5   1   7   13.70    5.40
   5   1   7    6.30    6.30
   5   1   7   13.10    7.10
   5   1   7   15.00    6.20
   5   1   7   13.90    5.70
   5   1   7    6.70    6.70
   5   1   7   20.00    6.90
   6  -2  -7  674.33   25.10
   6  -2  -7  705.13   27.30
   6  -2  -7  675.23   25.20
   6  -2  -7  718.13   24.60
   6  -2  -7  648.84   26.60
   6  -2  -7  667.33   25.20
  -6   2   7  721.93   29.30
  -6   2   7  706.13   28.80
  -6   2   7  726.63   31.80
  -6   2   7  705.93   26.20
  -6   2   7  652.53   28.30
  -6   2   7  696.43   28.40
  -6   2   7  559.44   29.20
   5  -2  -7  182.18   10.10
   5  -2  -7  194.58   11.80
   5  -2  -7  195.58   12.80
   5  -2  -7  156.68   12.10
   5  -2  -7  189.68   12.80
   5  -2  -7  184.18   10.90
   5  -2  -7  190.28   10.80
  -5   2   7  208.68   14.10
  -5   2   7  190.18   11.30
  -5   2   7  179.28   13.50
  -5   2   7  211.68   15.50
  -5   2   7  207.28   14.00
  -5   2   7  190.38   12.60
  -5   2   7  187.98    9.00
  -5   2   7  194.28   16.00
   4  -2  -7 1119.49   35.70
   4  -2  -7 1178.98   36.90
   4  -2  -7 1160.68   36.40
   4  -2  -7 1199.18   36.50
   4  -2  -7 1168.68   37.00
   4  -2  -7 1167.48   34.50
   4  -2  -7 1176.78   35.40
  -4   2   7 1165.48   37.50
  -4   2   7 1203.38   38.70
  -4   2   7 1191.08   35.00
  -4   2   7 1167.18   36.80
  -4   2   7 1197.48   37.80
  -4   2   7 1131.39   33.80
  -4   2   7 1153.18   38.50
   3  -2  -7  691.93   23.10
   3  -2  -7  692.13   19.60
   3  -2  -7  697.73   23.30
   3  -2  -7  680.93   23.30
   3  -2  -7  682.23   22.70
   3  -2  -7  689.43   22.30
  -3   2   7  676.13   23.50
  -3   2   7  670.03   24.70
  -3   2   7  670.73   23.10
  -3   2   7  674.23   21.00
  -3   2   7  692.03   23.70
  -3   2   7  684.53   21.10
  -3   2   7  687.03   21.70
  -3   2   7  688.93   24.60
   2  -2  -7   62.99    6.00
   2  -2  -7   67.19    5.80
   2  -2  -7   63.09    6.00
   2  -2  -7   56.19    5.80
   2  -2  -7   59.59    4.30
   2  -2  -7   66.89    5.70
  -2   2   7   51.29    5.10
  -2   2   7   61.39    5.50
  -2   2   7   66.89    6.00
  -2   2   7   64.49    5.90
  -2   2   7   60.79    4.60
  -2   2   7   56.99    6.50
  -2   2   7   65.89    6.00
  -2   2   7   63.69    7.10
  -2   2   7   56.89    6.10
  -2   2   7   60.09    6.40
   1  -2  -7  395.56   13.00
   1  -2  -7  390.96   14.50
   1  -2  -7  393.86   14.70
   1  -2  -7  387.96   14.40
   1  -2  -7  374.26   14.80
   1  -2  -7  385.06   14.20
   1  -2  -7  388.36   14.70
  -1   2   7  376.26   14.80
  -1   2   7  386.16   11.30
  -1   2   7  397.56   14.20
  -1   2   7  407.56   14.70
  -1   2   7  414.86   14.70
  -1   2   7  399.26   13.80
  -1   2   7  404.76   14.30
  -1   2   7  395.46   14.50
  -1   2   7  383.56   15.10
  -1   2   7  404.76   16.10
  -1   2   7  398.56   14.20
   0  -2  -7 1582.44   44.70
   0  -2  -7 1568.74   45.10
   0  -2  -7 1599.44   44.10
   0  -2  -7 1573.64   45.40
   0  -2  -7 1606.04   44.90
   0  -2  -7 1572.44   44.90
   0   2   7 1565.44   44.90
   0   2   7 1582.74   44.50
   0   2   7 1548.95   43.00
   0   2   7 1571.44   42.70
   0   2   7 1546.65   45.00
   0   2   7 1569.64   43.90
   0   2   7 1554.64   42.30
   0   2   7 1619.74   45.10
   0   2   7 1525.85   44.50
   0   2   7 1621.24   45.00
   0   2   7 1550.84   45.70
  -1  -2  -7    0.00    2.70
  -1  -2  -7    3.80    3.00
  -1  -2  -7    1.30    2.40
  -1  -2  -7    0.50    3.00
  -1  -2  -7    4.30    2.10
  -1  -2  -7    5.20    4.20
  -1  -2  -7   -0.60    2.50
   1   2   7    0.20    2.60
   1   2   7   -2.80    3.30
   1   2   7    8.10    3.80
   1   2   7    3.60    2.50
   1   2   7    2.80    3.00
   1   2   7    3.90    3.50
   1   2   7    5.10    2.80
   1   2   7   -1.40    2.60
   1   2   7    1.80    3.30
   1   2   7    1.00    3.20
   1   2   7    1.90    3.00
   1   2   7    5.10    3.10
   1   2   7    2.20    3.20
  -2  -2  -7  365.76   14.30
  -2  -2  -7  347.97   14.90
  -2  -2  -7  371.36   14.70
  -2  -2  -7  369.56   14.50
  -2  -2  -7  372.26   12.70
  -2  -2  -7  376.66   15.70
  -2  -2  -7  343.17   15.00
   2   2   7  358.26   14.20
   2   2   7  351.06   13.50
   2   2   7  378.36   12.80
   2   2   7  367.66   14.50
   2   2   7  368.96   14.70
   2   2   7  372.96   15.70
   2   2   7  352.36   13.70
   2   2   7  352.86   13.30
   2   2   7  355.26   15.40
   2   2   7  366.06   15.40
   2   2   7  358.06   14.90
   2   2   7  364.76   13.20
  -3  -2  -7  618.34   23.70
  -3  -2  -7  674.63   24.50
  -3  -2  -7  668.63   22.60
  -3  -2  -7  637.04   22.50
  -3  -2  -7  617.64   21.90
  -3  -2  -7  626.54   19.50
  -3  -2  -7  661.43   22.40
  -3  -2  -7  657.53   23.20
   3   2   7  636.74   23.00
   3   2   7  635.24   20.40
   3   2   7  647.84   22.60
   3   2   7  648.84   22.40
   3   2   7  658.93   24.20
   3   2   7  630.24   23.70
   3   2   7  654.83   23.90
   3   2   7  706.23   23.40
   3   2   7  649.64   21.00
  -4  -2  -7    5.30    5.40
  -4  -2  -7   15.60    5.60
  -4  -2  -7   12.40    6.70
  -4  -2  -7    4.30    6.50
  -4  -2  -7   11.20    5.90
  -4  -2  -7   11.60    5.20
  -4  -2  -7   11.70    6.30
   4   2   7   12.30    6.10
   4   2   7    5.40    6.20
   4   2   7   18.70    5.60
   4   2   7   18.10    5.00
   4   2   7   18.60    5.70
   4   2   7   12.40    6.10
   4   2   7   16.40    5.80
   4   2   7   14.70    5.30
   5  -3  -7  220.28   13.60
   5  -3  -7  212.88   12.20
   5  -3  -7  215.28   13.00
   5  -3  -7  209.98   13.10
   5  -3  -7  191.98   12.10
   5  -3  -7  201.88   14.20
   5  -3  -7  194.48   12.50
   5  -3  -7  195.48   13.70
  -5   3   7  228.58   15.20
  -5   3   7  200.08   16.20
  -5   3   7  227.48   11.10
  -5   3   7  208.48   17.80
  -5   3   7  244.68   16.30
  -5   3   7  194.88   16.30
  -5   3   7  178.08   15.30
  -5   3   7  197.08   12.30
   4  -3  -7  701.83   25.70
   4  -3  -7  694.93   23.80
   4  -3  -7  704.33   25.30
   4  -3  -7  657.63   24.00
   4  -3  -7  674.23   24.10
   4  -3  -7  703.13   25.20
   4  -3  -7  686.33   25.00
  -4   3   7  686.53   22.30
  -4   3   7  717.13   27.40
  -4   3   7  759.52   28.20
  -4   3   7  723.33   28.90
  -4   3   7  729.83   27.10
  -4   3   7  683.93   26.00
  -4   3   7  698.73   23.00
  -4   3   7  707.73   25.80
  -4   3   7  713.33   23.10
   3  -3  -7    8.60    3.80
   3  -3  -7    8.60    3.80
   3  -3  -7   10.30    4.30
   3  -3  -7   12.30    4.30
   3  -3  -7   13.20    4.10
  -3   3   7   10.30    3.80
  -3   3   7   12.20    5.30
  -3   3   7   -1.40    3.80
  -3   3   7   12.70    5.10
  -3   3   7   12.20    4.60
  -3   3   7    7.10    5.50
  -3   3   7   10.20    5.40
  -3   3   7    6.90    4.20
  -3   3   7   19.10    4.50
   2  -3  -7 1103.09   34.00
   2  -3  -7 1150.68   34.30
   2  -3  -7 1100.09   34.10
   2  -3  -7 1141.69   33.90
   2  -3  -7 1107.89   34.20
  -2   3   7 1129.39   34.00
  -2   3   7 1117.19   35.10
  -2   3   7 1134.39   34.50
  -2   3   7 1098.19   30.70
  -2   3   7 1127.29   34.40
  -2   3   7 1077.49   36.30
  -2   3   7 1119.49   33.40
  -2   3   7 1125.59   36.20
  -2   3   7 1054.59   33.80
   1  -3  -7   55.79    6.30
   1  -3  -7   69.19    4.80
   1  -3  -7   74.69    6.50
   1  -3  -7   70.39    6.40
   1  -3  -7   72.69    8.10
   1  -3  -7   68.79    6.10
   1  -3  -7   78.79    6.50
   1  -3  -7   66.49    6.40
  -1   3   7   70.19    6.70
  -1   3   7   72.29    7.70
  -1   3   7   73.79    7.30
  -1   3   7   83.69    7.80
  -1   3   7   82.59    6.80
  -1   3   7   59.29    5.30
  -1   3   7   70.69    7.30
  -1   3   7   67.89    7.00
  -1   3   7   71.49    7.70
  -1   3   7   70.59    6.50
   0  -3  -7   11.50    3.30
   0  -3  -7   10.10    3.30
   0  -3  -7   14.30    4.90
   0  -3  -7   12.50    3.40
   0  -3  -7   12.60    3.40
   0  -3  -7   10.40    3.10
   0  -3  -7   11.90    3.80
   0  -3  -7    9.30    3.60
   0   3   7   11.80    4.00
   0   3   7   19.10    4.80
   0   3   7   12.50    3.80
   0   3   7    7.30    4.00
   0   3   7   10.80    4.10
   0   3   7   15.50    4.20
   0   3   7    7.30    3.40
   0   3   7    8.20    3.90
   0   3   7   13.50    4.00
   0   3   7    8.00    4.30
  -1  -3  -7  201.38   10.70
  -1  -3  -7  183.28   10.00
  -1  -3  -7  192.38    9.70
  -1  -3  -7  202.78   10.70
  -1  -3  -7  182.68    9.90
  -1  -3  -7  190.78    9.50
   1   3   7  190.28   10.70
   1   3   7  204.58   10.70
   1   3   7  163.78    9.80
   1   3   7  198.38   10.90
   1   3   7  190.28   10.20
   1   3   7  161.88   12.10
   1   3   7  195.98    9.60
   1   3   7  199.18   10.50
   1   3   7  188.68   10.20
  -2  -3  -7  679.43   23.70
  -2  -3  -7  701.63   23.10
  -2  -3  -7  681.53   24.20
  -2  -3  -7  683.43   22.70
  -2  -3  -7  677.03   24.20
   2   3   7  726.63   25.30
   2   3   7  708.43   24.30
   2   3   7  635.14   24.80
   2   3   7  692.43   22.90
   2   3   7  700.63   22.00
   2   3   7  654.63   24.10
   2   3   7  676.63   22.10
   2   3   7  661.73   25.10
   2   3   7  668.93   21.60
  -3  -3  -7   26.90    5.30
  -3  -3  -7   14.60    5.00
  -3  -3  -7   18.50    5.80
  -3  -3  -7   18.80    5.30
  -3  -3  -7   21.60    6.20
  -3  -3  -7   28.60    6.60
   3   3   7   27.90    6.60
   3   3   7   20.80    6.40
   3   3   7   31.90    4.70
   3   3   7   31.00    6.70
   3   3   7   25.90    6.00
   3   3   7   28.50    7.30
   3   3   7   22.00    6.10
   3   3   7   29.50    6.40
  -4  -3  -7  284.37   17.60
  -4  -3  -7  307.57   15.10
  -4  -3  -7  267.07   16.60
  -4  -3  -7  269.17   16.00
  -4  -3  -7  294.77   15.10
  -4  -3  -7  280.97   15.50
   4   3   7  284.87   15.90
   4   3   7  297.17   17.80
   4   3   7  280.67   15.70
   4   3   7  283.97   17.20
   4   3   7  279.87   17.30
   4   3   7  294.67   17.00
   5  -4  -7  821.82   31.30
   5  -4  -7  866.71   30.60
   5  -4  -7  857.81   30.00
   5  -4  -7  875.61   29.80
   5  -4  -7  863.61   29.90
   5  -4  -7  863.21   31.60
   5  -4  -7  844.22   29.80
   5  -4  -7  859.91   29.70
  -5   4   7  723.03   33.00
  -5   4   7  707.33   30.80
  -5   4   7  866.11   33.10
  -5   4   7  881.01   34.70
  -5   4   7  903.61   27.70
  -5   4   7  714.83   32.70
  -5   4   7  905.81   36.60
  -5   4   7  838.82   35.70
  -5   4   7  869.11   29.20
   4  -4  -7   57.79    7.60
   4  -4  -7   57.99    8.40
   4  -4  -7   67.19    8.70
   4  -4  -7   66.29    8.60
   4  -4  -7   80.29    9.40
   4  -4  -7   53.69    7.30
   4  -4  -7   68.39    9.70
  -4   4   7   77.89   11.70
  -4   4   7   59.39   10.40
  -4   4   7   63.99    7.60
  -4   4   7   52.69    9.40
  -4   4   7   52.59    8.30
  -4   4   7   63.89   10.20
  -4   4   7   45.10    8.00
  -4   4   7   76.09    9.10
  -4   4   7   67.49    8.40
  -4   4   7   49.30    9.30
   3  -4  -7  766.52   27.40
   3  -4  -7  779.52   27.50
   3  -4  -7  815.62   27.00
   3  -4  -7  826.32   28.20
   3  -4  -7  796.32   27.70
  -3   4   7  809.72   27.10
  -3   4   7  799.42   26.50
  -3   4   7  851.61   31.30
  -3   4   7  832.52   31.00
  -3   4   7  817.82   31.70
  -3   4   7  767.42   28.00
  -3   4   7  769.12   28.20
  -3   4   7  780.32   24.20
  -3   4   7  814.22   29.30
  -3   4   7  817.72   29.30
   2  -4  -7  493.85   18.50
   2  -4  -7  458.65   19.00
   2  -4  -7  492.45   19.20
   2  -4  -7  487.85   18.90
   2  -4  -7  468.85   18.80
  -2   4   7  508.15   19.40
  -2   4   7  468.95   19.20
  -2   4   7  491.95   21.70
  -2   4   7  521.35   19.10
  -2   4   7  504.35   19.60
  -2   4   7  509.65   19.90
  -2   4   7  509.65   20.90
  -2   4   7  488.65   19.40
  -2   4   7  494.25   22.10
  -2   4   7  485.15   17.00
   1  -4  -7    9.10    3.80
   1  -4  -7    7.00    3.90
   1  -4  -7    2.60    3.80
   1  -4  -7    1.30    3.70
   1  -4  -7   -1.10    3.90
   1  -4  -7    2.20    3.80
  -1   4   7    5.90    4.70
  -1   4   7    8.10    5.30
  -1   4   7    6.00    4.70
  -1   4   7   15.10    5.90
  -1   4   7   -2.40    5.30
  -1   4   7    2.90    4.00
  -1   4   7   -2.10    4.70
  -1   4   7    7.90    4.60
  -1   4   7    1.70    4.50
  -1   4   7    1.00    4.60
   0  -4  -7  899.71   28.60
   0  -4  -7  876.01   28.90
   0  -4  -7  884.61   29.60
   0  -4  -7  917.51   29.50
   0  -4  -7  879.71   28.50
   0  -4  -7  900.31   28.20
   0   4   7  915.51   27.90
   0   4   7  886.91   30.60
   0   4   7  888.31   27.90
   0   4   7  915.21   30.90
   0   4   7  885.11   30.00
   0   4   7  920.41   30.50
   0   4   7  896.81   28.70
   0   4   7  903.91   30.50
  -1  -4  -7  112.49    8.10
  -1  -4  -7  109.99    8.90
  -1  -4  -7  108.89    8.60
  -1  -4  -7   96.79    9.00
  -1  -4  -7  111.59    8.50
   1   4   7  124.49   10.40
   1   4   7  122.99   10.50
   1   4   7  116.79    9.80
   1   4   7  118.99    9.30
   1   4   7  120.69    9.40
   1   4   7  112.89   10.30
   1   4   7  111.69    8.50
  -2  -4  -7    7.10    4.50
  -2  -4  -7   -1.20    4.60
  -2  -4  -7    3.30    3.90
  -2  -4  -7   -3.80    5.10
  -2  -4  -7   -0.90    4.50
   2   4   7    1.80    5.30
   2   4   7    3.30    5.30
   2   4   7    0.40    5.30
   2   4   7   -1.50    5.90
   2   4   7    3.80    4.50
  -3  -4  -7  128.59   10.20
  -3  -4  -7   99.79   12.10
  -3  -4  -7  148.09   12.40
  -3  -4  -7  122.59   11.60
  -3  -4  -7  113.79    9.90
   3   4   7  121.29   12.40
   3   4   7  137.59   13.30
   3   4   7  100.99   12.50
   3   4   7  110.59   12.00
   3   4   7  119.59   13.60
   4  -5  -7  309.67   17.50
   4  -5  -7  303.37   17.50
   4  -5  -7  315.47   16.20
   4  -5  -7  296.07   17.20
   4  -5  -7  294.37   16.70
   4  -5  -7  298.77   16.30
   4  -5  -7  271.37   16.60
  -4   5   7  268.07   19.40
  -4   5   7  284.77   19.00
  -4   5   7  319.87   22.60
  -4   5   7  330.47   19.00
  -4   5   7  335.17   21.60
  -4   5   7  300.67   21.10
  -4   5   7  295.77   15.70
  -4   5   7  287.87   21.40
  -4   5   7  283.57   21.70
  -4   5   7  314.17   16.70
   3  -5  -7  472.65   20.80
   3  -5  -7  493.35   20.10
   3  -5  -7  483.05   21.00
   3  -5  -7  499.85   20.90
   3  -5  -7  456.05   20.60
  -3   5   7  534.35   25.20
  -3   5   7  490.65   23.40
  -3   5   7  511.05   24.50
  -3   5   7  494.25   20.80
  -3   5   7  490.25   19.70
  -3   5   7  494.85   25.20
  -3   5   7  490.55   21.90
  -3   5   7  484.45   22.20
  -3   5   7  483.45   19.90
   2  -5  -7  174.48   12.70
   2  -5  -7  178.28   11.60
   2  -5  -7  186.38   12.20
   2  -5  -7  189.28   11.90
   2  -5  -7  170.48   12.00
  -2   5   7  164.28   13.70
  -2   5   7  171.88   12.90
  -2   5   7  175.08   15.40
  -2   5   7  182.78   12.40
  -2   5   7  175.48   13.20
  -2   5   7  186.18   12.90
  -2   5   7  194.48   13.60
  -2   5   7  202.18   15.40
  -2   5   7  165.98   11.50
   1  -5  -7  175.28   11.20
   1  -5  -7  188.08   11.50
   1  -5  -7  165.08   12.10
   1  -5  -7  190.48   12.10
   1  -5  -7  196.18   11.60
  -1   5   7  184.28   12.80
  -1   5   7  171.98   13.90
  -1   5   7  191.38   14.40
  -1   5   7  176.98   11.20
  -1   5   7  155.28   14.00
  -1   5   7  189.78   12.80
  -1   5   7  217.68   13.80
   0  -5  -7   17.10    5.10
   0  -5  -7    7.90    5.10
   0  -5  -7   19.30    6.00
   0  -5  -7   19.60    4.90
   0  -5  -7   15.40    5.80
   0  -5  -7   28.70    5.70
   0   5   7   27.50    7.50
   0   5   7   17.50    6.40
   0   5   7   20.40    6.70
   0   5   7   27.50    7.30
   0   5   7    8.90    6.40
   0   5   7   12.20    6.10
  -1  -5  -7    1.30    4.50
  -1  -5  -7    4.50    4.80
  -1  -5  -7   -2.10    4.70
  -1  -5  -7   10.60    5.40
  -1  -5  -7    8.80    5.50
  -1  -5  -7   -5.70    5.70
   1   5   7    9.00    6.30
   1   5   7  -13.50    6.30
   1   5   7    0.30    6.30
   1   5   7   -2.10    6.10
   1   5   7   -2.50    5.40
  -2  -5  -7  279.97   13.80
  -2  -5  -7  269.67   14.90
  -2  -5  -7  280.87   15.50
  -2  -5  -7  274.57   13.70
  -2  -5  -7  262.57   15.70
   2   5   7  268.87   18.20
   2   5   7  269.87   17.10
   2   5   7  264.77   14.00
   2   5   7  285.17   17.20
   2   5   7  285.37   14.30
   2  -6  -7  401.76   20.30
   2  -6  -7  401.06   18.70
   2  -6  -7  389.66   19.20
   2  -6  -7  328.67   18.20
   2  -6  -7  437.36   20.00
  -2   6   7  447.46   20.70
  -2   6   7  411.76   20.90
  -2   6   7  424.76   22.30
  -2   6   7  448.36   24.20
  -2   6   7  411.66   23.70
  -2   6   7  405.16   18.00
   1  -6  -7  225.88   14.80
   1  -6  -7  220.48   15.20
   1  -6  -7  209.88   13.80
   1  -6  -7  242.38   14.20
   1  -6  -7  232.58   14.50
  -1   6   7  253.97   16.70
  -1   6   7  236.78   18.40
  -1   6   7  289.87   16.60
  -1   6   7  254.27   18.50
  -1   6   7  261.67   17.30
   0  -6  -7  149.99   12.10
   0  -6  -7  139.59   11.70
   0  -6  -7  153.08   13.10
   0  -6  -7  171.58   14.30
   0  -6  -7  157.98   12.50
   0   6   7  148.39   15.60
   0   6   7  162.98   15.10
   0   6   7  152.38   16.60
   0   6   7  152.18   15.70
   0   6   7  190.68   16.80
   2   7  -8   60.59   10.20
   2   7  -8   79.49   10.30
   2   7  -8   70.39   10.20
   2   7  -8   70.79   10.60
  -2  -7   8   77.69    8.50
  -2  -7   8   69.09    9.00
  -2  -7   8   63.69    5.50
  -2  -7   8   64.49    7.70
   1   7  -8  421.46   19.80
   1   7  -8  413.46   21.20
   1   7  -8  407.46   20.90
   1   7  -8  389.56   18.90
   1   7  -8  413.26   19.00
  -1  -7   8  394.86   13.90
  -1  -7   8  402.46   16.00
  -1  -7   8  384.96   13.50
  -1  -7   8  400.86   16.20
   0   7  -8   39.80    9.80
   0   7  -8   42.80    9.00
   0   7  -8   45.10    9.30
   0   7  -8   47.00    8.80
   0  -7   8   55.09    6.80
   0  -7   8   55.49    6.50
   0  -7   8   58.09    6.50
   0  -7   8   51.29    5.70
   0  -7   8   49.40    6.70
  -1   7  -8    5.10    7.60
  -1   7  -8    8.10    7.70
  -1   7  -8   16.00    7.70
  -1   7  -8   21.80    7.50
  -1   7  -8    3.20    7.80
   1  -7   8   17.30    4.80
   1  -7   8   13.10    5.70
   1  -7   8   11.00    5.40
   1  -7   8   17.50    5.60
   1  -7   8   22.00    5.20
  -2   7  -8  399.16   21.30
  -2   7  -8  430.86   20.90
  -2   7  -8  423.16   20.90
  -2   7  -8  435.86   23.40
  -2   7  -8  409.06   23.60
   2  -7   8  384.06   17.50
   2  -7   8  353.26   16.90
   2  -7   8  423.16   17.50
   2  -7   8  424.16   17.80
   2  -7   8  414.86   18.90
   2  -7   8  414.66   15.40
   3   6  -8  208.38   15.90
   3   6  -8  213.68   14.60
   3   6  -8  184.18   12.10
   3   6  -8  194.98   14.60
  -3  -6   8  195.08   11.50
  -3  -6   8  202.48    8.50
  -3  -6   8  206.38   10.00
   2   6  -8  107.79   11.30
   2   6  -8   96.39   10.90
   2   6  -8   83.39   10.70
   2   6  -8   83.19   11.80
  -2  -6   8   74.99    5.40
  -2  -6   8   86.99    7.20
  -2  -6   8   84.49    8.00
  -2  -6   8   77.89    7.00
  -2  -6   8   71.99    5.70
  -2  -6   8   81.19    8.20
   1   6  -8   81.59   11.20
   1   6  -8   69.19    9.50
   1   6  -8   76.99    9.20
   1   6  -8   60.89    8.10
   1   6  -8   57.79    7.70
  -1  -6   8   64.49    5.70
  -1  -6   8   70.99    5.70
  -1  -6   8   80.09    7.20
  -1  -6   8   61.09    6.70
  -1  -6   8   63.29    6.70
   0   6  -8   38.70    8.50
   0   6  -8   42.90    7.30
   0   6  -8   31.70    6.50
   0   6  -8   26.40    7.30
   0   6  -8   32.80    5.70
   0  -6   8   35.40    4.50
   0  -6   8   29.00    4.90
   0  -6   8   31.90    4.90
   0  -6   8   34.30    4.60
   0  -6   8   28.50    4.60
  -1   6  -8  584.14   22.90
  -1   6  -8  564.24   24.30
  -1   6  -8  609.94   26.00
  -1   6  -8  608.84   23.40
  -1   6  -8  574.34   23.10
   1  -6   8  581.54   21.20
   1  -6   8  602.84   20.60
   1  -6   8  574.34   20.10
   1  -6   8  575.44   20.20
   1  -6   8  567.84   20.00
   1  -6   8  573.44   18.00
  -2   6  -8   63.99   10.80
  -2   6  -8   74.19    9.10
  -2   6  -8   71.59    9.60
  -2   6  -8   66.49   10.10
  -2   6  -8   89.29    8.50
  -2   6  -8   65.79    9.20
   2  -6   8   86.59    7.40
   2  -6   8   87.29    9.10
   2  -6   8   66.79    7.90
   2  -6   8   89.99    8.40
   2  -6   8   78.29    8.40
   2  -6   8   80.19    7.70
  -3   6  -8   92.89   10.50
  -3   6  -8  100.89   11.60
  -3   6  -8  140.09   16.40
  -3   6  -8  125.69   14.30
  -3   6  -8  115.09   12.20
  -3   6  -8  115.69   14.00
  -3   6  -8   95.19   13.30
   3  -6   8  129.69   10.80
   3  -6   8  123.29    9.80
   3  -6   8  120.19   11.40
   3  -6   8  121.99   11.30
   3  -6   8  112.29   10.40
   3  -6   8  107.39    9.10
   4   5  -8  165.58   14.10
   4   5  -8  163.78   14.90
   4   5  -8  171.08   11.60
  -4  -5   8  168.28   10.70
  -4  -5   8  156.38    8.20
  -4  -5   8  165.98    8.80
  -4  -5   8  148.89   10.80
  -4  -5   8  163.58    8.60
   3   5  -8  998.20   34.30
   3   5  -8  976.40   32.70
   3   5  -8  964.40   33.50
   3   5  -8  945.51   32.60
   3   5  -8  958.90   29.30
  -3  -5   8  996.20   30.70
  -3  -5   8  966.50   28.30
  -3  -5   8  920.51   27.80
  -3  -5   8  967.20   29.50
  -3  -5   8  916.31   27.70
   2   5  -8  112.89   10.00
   2   5  -8  127.59   10.50
   2   5  -8  127.19   10.90
   2   5  -8  112.39   10.10
   2   5  -8  119.09    8.40
  -2  -5   8  117.09    6.10
  -2  -5   8  120.09    6.80
  -2  -5   8  113.39    6.80
  -2  -5   8  114.19    8.30
  -2  -5   8  107.09    8.00
  -2  -5   8  113.59    6.40
  -2  -5   8  110.49    7.90
   1   5  -8  652.43   24.30
   1   5  -8  670.73   23.90
   1   5  -8  646.44   23.40
   1   5  -8  676.63   25.20
   1   5  -8  633.04   22.80
  -1  -5   8  658.33   20.40
  -1  -5   8  676.33   20.70
  -1  -5   8  692.53   21.50
  -1  -5   8  673.93   21.00
   0   5  -8  351.66   16.40
   0   5  -8  338.87   14.20
   0   5  -8  355.66   15.70
   0   5  -8  365.56   15.80
   0   5  -8  339.27   13.50
   0   5  -8  362.86   17.20
   0  -5   8  338.17   12.70
   0  -5   8  327.77   15.30
   0  -5   8  364.96   13.40
   0  -5   8  337.27   13.00
   0  -5   8  353.26   13.20
   0  -5   8  357.36   13.50
  -1   5  -8  171.58   11.10
  -1   5  -8  199.98   12.70
  -1   5  -8  200.88   12.00
  -1   5  -8  183.08   13.40
  -1   5  -8  177.98    8.90
  -1   5  -8  190.68    9.30
  -1   5  -8  172.78   10.90
   1  -5   8  177.58    9.70
   1  -5   8  178.88    9.40
   1  -5   8  182.38    9.10
   1  -5   8  184.88    9.60
   1  -5   8  187.98    9.30
  -2   5  -8   87.69    8.60
  -2   5  -8  102.09   10.00
  -2   5  -8   94.79   11.10
  -2   5  -8   75.99    9.80
  -2   5  -8   86.79   11.90
  -2   5  -8   82.79    8.20
  -2   5  -8  100.39    8.20
  -2   5  -8   91.09    9.80
   2  -5   8   89.19    6.50
   2  -5   8   95.49    8.00
   2  -5   8   83.19    7.00
   2  -5   8   80.19    7.40
   2  -5   8   69.49    7.20
   2  -5   8   80.29    7.70
  -3   5  -8  739.63   25.80
  -3   5  -8  798.32   26.40
  -3   5  -8  741.03   31.70
  -3   5  -8  722.43   27.10
  -3   5  -8  785.22   30.50
  -3   5  -8  778.62   27.40
  -3   5  -8  752.62   28.80
  -3   5  -8  795.02   28.80
   3  -5   8  750.72   26.10
   3  -5   8  764.12   26.80
   3  -5   8  772.72   26.40
   3  -5   8  789.42   23.40
   3  -5   8  757.32   24.90
   3  -5   8  787.02   26.70
   3  -5   8  779.52   23.50
  -4   5  -8    1.60    6.60
  -4   5  -8    6.50    9.40
  -4   5  -8   18.90    9.40
  -4   5  -8    5.90    7.20
  -4   5  -8    2.40    8.00
  -4   5  -8   13.60    8.60
  -4   5  -8   -0.10    9.10
   4  -5   8   13.10    5.50
   4  -5   8   -6.30    5.60
   4  -5   8   22.30    6.40
   4  -5   8   10.30    6.40
   4  -5   8   10.80    5.80
   4  -5   8   10.90    5.10
   4  -5   8   12.00    5.80
   5   4  -8  135.79   10.90
   5   4  -8  140.99   14.70
   5   4  -8  123.09   11.60
   5   4  -8  137.39   13.50
   5   4  -8  150.28   11.50
  -5  -4   8  145.09   11.40
  -5  -4   8  147.79   12.90
  -5  -4   8  139.09   10.40
  -5  -4   8  152.58   10.90
  -5  -4   8  150.68    9.80
   4   4  -8 1143.39   37.00
   4   4  -8 1145.69   33.30
   4   4  -8 1110.99   32.80
   4   4  -8 1088.19   34.10
   4   4  -8 1138.89   39.10
  -4  -4   8 1125.59   35.60
  -4  -4   8 1127.59   32.00
  -4  -4   8 1125.59   35.00
  -4  -4   8 1117.59   33.40
  -4  -4   8 1122.99   33.30
  -4  -4   8 1148.09   35.00
   3   4  -8    4.40    3.40
   3   4  -8    4.70    4.80
   3   4  -8    0.20    4.40
   3   4  -8    1.30    4.90
   3   4  -8    1.80    3.50
  -3  -4   8    1.90    3.00
  -3  -4   8    4.50    2.40
  -3  -4   8    0.90    3.00
  -3  -4   8    8.90    4.00
  -3  -4   8    2.60    2.70
  -3  -4   8    2.70    3.80
   2   4  -8  321.27   11.80
   2   4  -8  334.07   11.80
   2   4  -8  363.46   15.20
   2   4  -8  344.87   15.70
   2   4  -8  346.27   15.10
   2   4  -8  346.87   15.30
  -2  -4   8  358.46   13.30
  -2  -4   8  333.27   11.80
  -2  -4   8  320.67   11.60
  -2  -4   8  335.57   12.20
  -2  -4   8  349.87   13.70
  -2  -4   8  332.17   11.10
  -2  -4   8  320.77   12.80
  -2  -4   8  358.96   12.30
  -2  -4   8  317.17   13.80
   1   4  -8  535.85   19.70
   1   4  -8  549.54   20.90
   1   4  -8  503.65   16.00
   1   4  -8  523.15   17.10
   1   4  -8  541.25   19.40
   1   4  -8  544.15   19.90
  -1  -4   8  515.15   15.50
  -1  -4   8  531.75   17.30
  -1  -4   8  541.05   18.60
  -1  -4   8  511.85   17.40
  -1  -4   8  536.15   17.00
  -1  -4   8  534.85   18.10
  -1  -4   8  532.55   17.30
  -1  -4   8  536.45   16.80
   0   4  -8   23.30    4.70
   0   4  -8   24.00    5.40
   0   4  -8   26.80    4.70
   0   4  -8   25.70    4.90
   0   4  -8   18.70    4.20
   0   4  -8   18.10    4.80
   0   4  -8   29.90    4.80
   0   4  -8   30.10    4.40
   0   4  -8   27.20    4.20
   0  -4   8   28.00    3.80
   0  -4   8   24.10    5.40
   0  -4   8   24.60    3.60
   0  -4   8   26.60    3.80
   0  -4   8   23.10    3.50
   0  -4   8   22.50    3.60
   0  -4   8   35.80    6.80
  -1   4  -8  744.73   25.60
  -1   4  -8  774.02   27.70
  -1   4  -8  693.83   23.90
  -1   4  -8  758.12   23.70
  -1   4  -8  767.52   26.10
  -1   4  -8  756.72   25.10
  -1   4  -8  676.03   22.10
  -1   4  -8  758.22   24.60
  -1   4  -8  725.73   22.80
  -1   4  -8  727.43   23.20
   1  -4   8  746.43   23.30
   1  -4   8  758.82   23.60
   1  -4   8  767.02   23.80
   1  -4   8  741.93   23.00
   1  -4   8  765.62   23.50
   1  -4   8  688.93   25.60
  -2   4  -8  409.76   15.80
  -2   4  -8  398.96   16.10
  -2   4  -8  413.76   18.10
  -2   4  -8  394.06   16.20
  -2   4  -8  390.06   17.30
  -2   4  -8  404.16   16.70
  -2   4  -8  369.76   19.00
  -2   4  -8  380.36   13.20
  -2   4  -8  380.26   15.90
   2  -4   8  393.06   12.80
   2  -4   8  401.16   15.20
   2  -4   8  389.46   15.00
   2  -4   8  383.96   15.20
   2  -4   8  386.86   15.40
   2  -4   8  403.96   14.40
   2  -4   8  374.76   12.30
  -3   4  -8   22.80    8.30
  -3   4  -8   24.80    3.60
  -3   4  -8   13.60    6.70
  -3   4  -8   16.20    5.50
  -3   4  -8   29.80    5.60
  -3   4  -8   25.20    6.00
  -3   4  -8   29.30    6.30
  -3   4  -8    8.30    6.50
   3  -4   8   22.20    4.30
   3  -4   8   20.70    5.20
   3  -4   8   21.60    4.90
   3  -4   8   28.30    5.20
   3  -4   8   23.30    4.90
   3  -4   8   20.10    4.10
   3  -4   8   30.00    4.70
  -4   4  -8  376.76   17.40
  -4   4  -8  429.66   23.60
  -4   4  -8  351.06   18.60
  -4   4  -8  367.66   18.20
  -4   4  -8  410.96   21.60
  -4   4  -8  347.27   18.60
  -4   4  -8  358.86   19.60
   4  -4   8  404.36   17.20
   4  -4   8  386.36   15.10
   4  -4   8  357.86   17.30
   4  -4   8  357.86   15.10
   4  -4   8  391.26   15.60
   4  -4   8  397.36   17.10
   4  -4   8  376.56   17.10
   5   3  -8  332.07   15.10
   5   3  -8  358.46   15.10
   5   3  -8  412.76   18.30
   5   3  -8  340.87   16.00
   5   3  -8  357.06   19.80
  -5  -3   8  359.36   13.20
  -5  -3   8  407.06   17.20
  -5  -3   8  359.96   17.70
  -5  -3   8  388.96   16.50
  -5  -3   8  371.06   16.10
  -5  -3   8  362.46   15.50
   4   3  -8   98.69   10.40
   4   3  -8   88.39    7.20
   4   3  -8   94.99    7.50
   4   3  -8   68.09    7.90
   4   3  -8  102.79    7.40
   4   3  -8   93.19    9.30
  -4  -3   8   97.39    5.90
  -4  -3   8  100.19    8.20
  -4  -3   8   99.09    7.00
  -4  -3   8   82.19    7.30
  -4  -3   8   92.19    7.50
  -4  -3   8  105.09    8.90
   3   3  -8  752.02   21.80
   3   3  -8  749.33   23.00
   3   3  -8  735.93   22.80
   3   3  -8  708.03   21.50
   3   3  -8  746.33   25.30
   3   3  -8  784.22   27.00
  -3  -3   8  741.33   23.30
  -3  -3   8  718.33   22.70
  -3  -3   8  744.03   24.00
  -3  -3   8  775.72   24.20
  -3  -3   8  760.12   22.20
  -3  -3   8  771.62   23.70
  -3  -3   8  677.53   24.50
   2   3  -8 1246.88   33.50
   2   3  -8 1224.88   34.20
   2   3  -8 1209.88   33.80
   2   3  -8 1223.18   37.20
   2   3  -8 1243.68   38.30
   2   3  -8 1222.28   35.10
   2   3  -8 1193.68   34.20
   2   3  -8 1232.58   33.50
   2   3  -8 1240.18   38.20
   2   3  -8 1252.17   37.10
  -2  -3   8 1216.98   33.50
  -2  -3   8 1239.78   34.80
  -2  -3   8 1250.17   35.40
  -2  -3   8 1276.57   36.30
  -2  -3   8 1261.47   35.80
  -2  -3   8 1241.68   36.20
  -2  -3   8 1228.78   35.00
   1   3  -8  260.87   12.80
   1   3  -8  247.48    9.70
   1   3  -8  238.68    9.60
   1   3  -8  253.27   11.60
   1   3  -8  249.18   11.70
   1   3  -8  261.37   11.50
   1   3  -8  230.18    9.70
   1   3  -8  244.58   10.40
  -1  -3   8  252.47    9.40
  -1  -3   8  246.88    9.50
  -1  -3   8  240.78    9.60
  -1  -3   8  254.37    9.60
  -1  -3   8  233.58   10.10
  -1  -3   8  245.58   10.40
  -1  -3   8  253.57   10.00
  -1  -3   8  256.37   11.90
  -1  -3   8  248.18    9.20
  -1  -3   8  257.57   10.80
   0   3  -8  389.56   15.20
   0   3  -8  386.56   15.00
   0   3  -8  379.36   14.00
   0   3  -8  402.26   16.50
   0   3  -8  398.06   14.80
   0   3  -8  362.96   13.40
   0   3  -8  386.46   15.50
   0   3  -8  385.66   13.80
   0   3  -8  358.56   14.60
   0   3  -8  371.26   11.70
   0  -3   8  370.16   11.90
   0  -3   8  387.56   13.40
   0  -3   8  384.46   13.10
   0  -3   8  391.36   13.70
   0  -3   8  372.86   13.60
   0  -3   8  386.96   13.30
   0  -3   8  384.36   14.80
  -1   3  -8  292.57   13.10
  -1   3  -8  283.07   14.20
  -1   3  -8  261.87   11.10
  -1   3  -8  292.87   12.40
  -1   3  -8  267.47   11.90
  -1   3  -8  296.47   13.50
  -1   3  -8  288.57   12.30
  -1   3  -8  294.17   12.60
  -1   3  -8  289.37   12.60
  -1   3  -8  276.47    9.40
   1  -3   8  295.77   11.40
   1  -3   8  285.37   14.60
   1  -3   8  290.07   11.60
   1  -3   8  292.27   11.60
   1  -3   8  275.07   11.30
   1  -3   8  300.37   11.00
  -2   3  -8   82.19    8.40
  -2   3  -8   83.49    8.00
  -2   3  -8   72.89    7.10
  -2   3  -8   64.09    7.10
  -2   3  -8   67.59    7.30
  -2   3  -8   71.29    5.00
  -2   3  -8   78.09    9.10
  -2   3  -8   74.29    7.10
   2  -3   8   76.49    5.70
   2  -3   8   81.89    6.40
   2  -3   8   72.49    5.30
   2  -3   8   81.19    6.40
   2  -3   8   76.69    6.60
   2  -3   8   71.59    5.60
   2  -3   8   90.99    6.60
  -3   3  -8  362.26   15.50
  -3   3  -8  353.16   15.70
  -3   3  -8  349.47   16.70
  -3   3  -8  363.26   15.40
  -3   3  -8  351.86   16.90
  -3   3  -8  345.07   12.90
  -3   3  -8  349.37   18.90
  -3   3  -8  281.17   15.50
   3  -3   8  357.26   14.60
   3  -3   8  365.86   13.50
   3  -3   8  365.16   14.90
   3  -3   8  358.76   14.60
   3  -3   8  379.56   13.30
   3  -3   8  360.36   11.60
   3  -3   8  339.47   13.10
   3  -3   8  353.06   15.00
  -4   3  -8  168.28   12.90
  -4   3  -8  161.08   12.50
  -4   3  -8  159.18   11.90
  -4   3  -8  163.48   14.20
  -4   3  -8  173.18   11.80
  -4   3  -8  154.88   14.30
  -4   3  -8  145.79   15.70
  -4   3  -8  182.88   14.60
  -4   3  -8  175.68    9.60
   4  -3   8  167.58    8.70
   4  -3   8  147.49   11.30
   4  -3   8  178.88   11.20
   4  -3   8  168.78   11.20
   4  -3   8  172.08   10.30
   4  -3   8  173.68   11.10
   4  -3   8  173.58    9.00
   4  -3   8  172.98   10.40
  -5   3  -8    7.70    7.70
  -5   3  -8   -8.30   10.00
  -5   3  -8   16.40    9.30
  -5   3  -8   -0.10   10.80
  -5   3  -8   -6.80    7.20
  -5   3  -8   -9.30    8.10
  -5   3  -8   10.50    7.60
  -5   3  -8    6.30    6.60
  -5   3  -8   -3.50    8.70
   5  -3   8    3.90    5.60
   5  -3   8   18.00    6.60
   5  -3   8  -11.10    5.50
   5  -3   8    9.90    6.00
   5  -3   8    9.80    6.20
   5  -3   8   15.10    5.10
   5  -3   8    3.40    6.30
   5  -3   8    0.20    6.40
   6   2  -8  523.85   21.00
   6   2  -8  519.25   20.40
   6   2  -8  527.95   21.30
   6   2  -8  538.05   25.50
  -6  -2   8  495.05   21.10
  -6  -2   8  528.85   24.30
  -6  -2   8  472.95   21.50
  -6  -2   8  525.05   22.10
  -6  -2   8  530.45   22.20
   5   2  -8  237.68   13.70
   5   2  -8  223.98   11.80
   5   2  -8  232.28    9.00
   5   2  -8  230.58   11.50
   5   2  -8  225.98   11.20
   5   2  -8  202.68   12.30
   5   2  -8  251.17   16.30
  -5  -2   8  233.08   10.30
  -5  -2   8  232.78   12.40
  -5  -2   8  241.98   12.80
  -5  -2   8  222.08   14.10
  -5  -2   8  240.78   13.10
  -5  -2   8  230.38   12.80
   4   2  -8 1156.08   31.90
   4   2  -8 1102.49   35.00
   4   2  -8 1101.49   33.40
   4   2  -8 1107.69   34.00
   4   2  -8 1074.09   32.90
   4   2  -8 1131.89   32.90
   4   2  -8 1171.78   38.00
  -4  -2   8 1130.99   32.40
  -4  -2   8 1200.48   35.30
  -4  -2   8 1115.89   34.20
  -4  -2   8 1158.68   35.10
  -4  -2   8 1121.49   34.60
  -4  -2   8 1168.18   35.90
   3   2  -8  918.21   28.20
   3   2  -8  862.21   26.10
   3   2  -8  913.71   30.10
   3   2  -8  909.91   25.50
   3   2  -8  851.81   27.10
   3   2  -8  874.61   26.40
   3   2  -8  776.02   25.30
   3   2  -8  919.41   25.90
   3   2  -8  859.81   25.80
  -3  -2   8  918.91   27.60
  -3  -2   8  917.21   27.50
  -3  -2   8  907.71   25.90
  -3  -2   8  886.61   28.00
  -3  -2   8  900.01   26.90
  -3  -2   8  898.51   27.50
   2   2  -8   18.20    2.40
   2   2  -8   15.00    4.00
   2   2  -8   19.20    4.00
   2   2  -8   20.10    3.90
   2   2  -8   13.90    3.00
   2   2  -8   15.00    3.60
   2   2  -8   20.10    2.90
   2   2  -8   18.00    3.40
   2   2  -8   15.40    3.60
   2   2  -8   17.80    2.30
   2   2  -8   20.90    3.60
   2   2  -8   19.40    4.40
   2   2  -8   18.00    4.10
  -2  -2   8   15.30    3.00
  -2  -2   8   14.50    3.10
  -2  -2   8   15.00    3.30
  -2  -2   8    9.00    4.00
  -2  -2   8   19.40    4.20
  -2  -2   8   16.10    2.70
  -2  -2   8   16.60    2.90
   1   2  -8  947.01   27.30
   1   2  -8  982.00   29.70
   1   2  -8  930.71   29.90
   1   2  -8  973.70   30.10
   1   2  -8  965.30   28.10
   1   2  -8  977.50   28.50
   1   2  -8  962.80   28.80
   1   2  -8  918.01   27.90
  -1  -2   8  913.21   27.00
  -1  -2   8  935.31   28.10
  -1  -2   8  950.50   28.30
  -1  -2   8  929.71   27.40
  -1  -2   8  951.00   28.40
  -1  -2   8  978.10   28.70
  -1  -2   8  950.30   27.70
   0   2  -8 1090.49   34.60
   0   2  -8 1201.38   31.70
   0   2  -8 1197.68   33.00
   0   2  -8 1227.48   36.60
   0   2  -8 1214.98   36.10
   0   2  -8 1167.38   32.10
   0   2  -8 1173.88   34.80
   0   2  -8 1189.88   34.30
   0   2  -8 1155.68   34.70
   0   2  -8 1190.68   35.80
   0  -2   8 1156.18   34.40
   0  -2   8 1227.78   34.30
   0  -2   8 1219.18   35.20
   0  -2   8 1225.18   33.70
   0  -2   8 1170.58   33.20
   0  -2   8 1208.88   34.60
   0  -2   8 1213.18   34.10
   0  -2   8 1215.58   33.90
  -1   2  -8  121.59    7.60
  -1   2  -8  118.39    7.60
  -1   2  -8  113.39    7.60
  -1   2  -8  112.79    7.40
  -1   2  -8  112.79    6.30
  -1   2  -8  111.69    8.70
  -1   2  -8   99.59    7.30
  -1   2  -8  120.59    6.00
  -1   2  -8  124.39    7.20
   1  -2   8  111.39    5.40
   1  -2   8  111.29    6.50
   1  -2   8   97.39    6.60
   1  -2   8  116.69    6.10
   1  -2   8  114.49    6.80
   1  -2   8  113.19    5.90
   1  -2   8  114.39    6.60
  -2   2  -8  287.77   11.00
  -2   2  -8  281.57   13.30
  -2   2  -8  296.67   13.00
  -2   2  -8  297.57   13.20
  -2   2  -8  294.67   14.80
  -2   2  -8  270.77   12.90
  -2   2  -8  287.17   13.00
  -2   2  -8  306.77   12.30
   2  -2   8  294.77   12.00
   2  -2   8  285.57   12.30
   2  -2   8  289.27   10.70
   2  -2   8  307.67   12.10
   2  -2   8  289.47   10.80
   2  -2   8  292.37   12.00
   2  -2   8  304.77   11.50
  -3   2  -8  351.26   15.60
  -3   2  -8  326.27   16.20
  -3   2  -8  355.56   16.60
  -3   2  -8  351.36   18.00
  -3   2  -8  371.26   14.40
  -3   2  -8  356.96   15.60
  -3   2  -8  351.06   13.20
  -3   2  -8  350.66   16.00
  -3   2  -8  355.16   15.40
   3  -2   8  346.47   14.40
   3  -2   8  358.76   13.50
   3  -2   8  354.26   13.70
   3  -2   8  358.86   14.60
   3  -2   8  379.16   12.70
   3  -2   8  338.87   12.20
   3  -2   8  342.27   14.70
   3  -2   8  359.16   14.40
  -4   2  -8   26.60    7.30
  -4   2  -8   27.30    5.10
  -4   2  -8   32.20    8.60
  -4   2  -8   30.50    6.40
  -4   2  -8   17.00    5.50
  -4   2  -8   24.20    7.20
  -4   2  -8   33.20    6.70
  -4   2  -8   22.00    5.30
  -4   2  -8   16.20    6.80
   4  -2   8   24.10    5.30
   4  -2   8   20.30    5.00
   4  -2   8   32.70    5.70
   4  -2   8   19.40    5.00
   4  -2   8   24.80    4.80
   4  -2   8   25.10    4.00
   4  -2   8   14.50    5.40
   4  -2   8   25.30    5.50
  -5   2  -8  499.35   20.20
  -5   2  -8  543.35   27.20
  -5   2  -8  531.15   20.50
  -5   2  -8  436.36   24.30
  -5   2  -8  509.45   24.80
  -5   2  -8  509.85   22.80
  -5   2  -8  523.85   23.20
  -5   2  -8  523.05   23.40
  -5   2  -8  494.85   24.70
   5  -2   8  482.95   20.90
   5  -2   8  470.55   21.10
   5  -2   8  534.25   21.10
   5  -2   8  494.85   16.90
   5  -2   8  486.85   20.50
   5  -2   8  493.15   21.40
   5  -2   8  507.15   20.90
   5  -2   8  535.85   19.30
   5  -2   8  521.15   21.00
   6   1  -8   48.40    5.80
   6   1  -8   63.29    7.90
   6   1  -8   50.69    7.90
   6   1  -8   65.99    8.00
   6   1  -8   60.29   10.10
  -6  -1   8   53.29   10.20
  -6  -1   8   67.39    9.60
  -6  -1   8   39.50    7.10
  -6  -1   8   53.29    8.20
  -6  -1   8   67.49    9.40
  -6  -1   8   50.69    9.00
   5   1  -8   90.29    8.00
   5   1  -8   83.49    9.50
   5   1  -8   81.89    9.20
   5   1  -8   90.69   10.90
   5   1  -8   91.99    7.70
   5   1  -8   75.49    7.30
   5   1  -8   82.39    6.70
   5   1  -8   79.99    6.70
  -5  -1   8  112.39    9.20
  -5  -1   8   83.29    8.70
  -5  -1   8   84.49    7.40
  -5  -1   8   91.29    9.40
  -5  -1   8   89.49    8.90
  -5  -1   8   85.59   10.50
   4   1  -8 1040.00   32.10
   4   1  -8 1020.40   29.80
   4   1  -8 1079.19   35.60
   4   1  -8 1096.29   32.80
   4   1  -8 1066.49   31.40
   4   1  -8 1042.40   31.40
   4   1  -8 1072.59   31.70
   4   1  -8 1099.79   31.60
  -4  -1   8 1076.09   33.00
  -4  -1   8 1077.59   34.60
  -4  -1   8 1077.79   32.80
  -4  -1   8 1076.49   31.10
  -4  -1   8 1049.40   33.10
  -4  -1   8 1039.80   33.30
   3   1  -8   72.79    7.00
   3   1  -8   64.39    5.00
   3   1  -8   69.49    5.40
   3   1  -8   62.29    4.40
   3   1  -8   59.69    5.50
   3   1  -8   69.69    6.80
   3   1  -8   74.19    6.40
   3   1  -8   72.09    5.50
   3   1  -8   68.29    6.00
   3   1  -8   66.99    4.50
   3   1  -8   66.09    7.10
  -3  -1   8   73.29    6.10
  -3  -1   8   65.69    7.70
  -3  -1   8   70.99    6.90
  -3  -1   8   69.49    5.60
  -3  -1   8   66.59    5.10
  -3  -1   8   65.69    5.70
   2   1  -8 2046.90   56.99
   2   1  -8 2053.29   54.49
   2   1  -8 1965.60   56.89
   2   1  -8 1968.70   55.39
   2   1  -8 2109.19   57.59
   2   1  -8 2007.30   59.29
   2   1  -8 2165.08   56.99
   2   1  -8 2177.28   58.89
   2   1  -8 2114.69   57.49
  -2  -1   8 2205.98   58.29
  -2  -1   8 2127.09   56.99
  -2  -1   8 2025.10   57.29
  -2  -1   8 2041.00   57.29
  -2  -1   8 2060.99   56.09
  -2  -1   8 2079.89   57.09
   1   1  -8  216.18    9.60
   1   1  -8  225.98    9.20
   1   1  -8  219.48   10.10
   1   1  -8  209.78    9.10
   1   1  -8  221.58   10.00
   1   1  -8  223.28    9.20
   1   1  -8  232.68   10.50
   1   1  -8  217.28   10.60
   1   1  -8  232.58    7.70
   1   1  -8  213.98    8.20
   1   1  -8  220.98    9.70
  -1  -1   8  209.88    8.50
  -1  -1   8  227.98    9.90
  -1  -1   8  226.78    9.10
  -1  -1   8  211.48    8.90
  -1  -1   8  206.58    9.30
  -1  -1   8  211.08   10.30
  -1  -1   8  225.68    9.10
   0   1  -8  134.89    8.60
   0   1  -8  145.49    7.00
   0   1  -8  151.08    8.00
   0   1  -8  147.99    7.30
   0   1  -8  144.39    7.00
   0   1  -8  155.38    8.70
   0   1  -8  147.89    7.80
   0   1  -8  112.99    7.70
   0   1  -8  144.89    5.60
   0   1  -8  146.19    6.20
   0  -1   8  143.89    7.20
   0  -1   8  143.49    7.60
   0  -1   8  147.59    6.70
   0  -1   8  147.49    6.20
   0  -1   8  148.69    6.60
   0  -1   8  139.19    7.40
   0  -1   8  123.59    8.30
   0  -1   8  147.69    7.10
  -1   1  -8  474.65   17.60
  -1   1  -8  491.05   15.70
  -1   1  -8  462.35   15.80
  -1   1  -8  472.15   16.90
  -1   1  -8  474.45   17.00
  -1   1  -8  493.25   13.70
  -1   1  -8  486.55   18.00
  -1   1  -8  478.85   15.00
   1  -1   8  453.35   15.80
   1  -1   8  474.55   15.40
   1  -1   8  463.45   16.50
   1  -1   8  466.25   15.10
   1  -1   8  474.65   15.40
   1  -1   8  488.15   16.40
   1  -1   8  483.45   16.20
   1  -1   8  459.75   16.40
  -2   1  -8  548.35   18.20
  -2   1  -8  554.94   20.40
  -2   1  -8  572.14   20.80
  -2   1  -8  560.94   19.60
  -2   1  -8  555.94   19.10
  -2   1  -8  587.54   20.20
  -2   1  -8  551.54   18.00
  -2   1  -8  583.54   21.30
   2  -1   8  576.04   18.90
   2  -1   8  570.14   18.70
   2  -1   8  568.54   19.10
   2  -1   8  556.24   18.30
   2  -1   8  576.44   17.50
   2  -1   8  547.85   19.10
   2  -1   8  528.45   18.80
   2  -1   8  559.44   17.30
   2  -1   8  558.54   19.10
   2  -1   8  544.15   18.10
  -3   1  -8   40.30    5.30
  -3   1  -8   51.69    6.80
  -3   1  -8   33.50    6.70
  -3   1  -8   52.79    6.70
  -3   1  -8   49.70    6.40
  -3   1  -8   43.70    6.80
  -3   1  -8   56.99    7.00
  -3   1  -8   48.40    6.80
  -3   1  -8   35.10    5.80
   3  -1   8   50.99    6.20
   3  -1   8   44.70    5.20
   3  -1   8   44.80    4.40
   3  -1   8   43.90    6.20
   3  -1   8   54.39    6.50
   3  -1   8   57.89    6.40
   3  -1   8   42.20    5.60
   3  -1   8   46.70    5.80
   3  -1   8   49.50    6.20
  -4   1  -8  237.78   16.10
  -4   1  -8  239.08   13.90
  -4   1  -8  242.38   15.70
  -4   1  -8  212.78   11.00
  -4   1  -8  210.88   13.50
  -4   1  -8  222.98   14.50
  -4   1  -8  232.38   14.00
  -4   1  -8  216.78   11.90
  -4   1  -8  241.28   13.50
   4  -1   8  217.28   12.50
   4  -1   8  226.88   12.10
   4  -1   8  234.78   12.30
   4  -1   8  234.58   11.20
   4  -1   8  245.38   13.10
   4  -1   8  250.07   12.80
   4  -1   8  231.98    9.30
   4  -1   8  212.58   12.40
   4  -1   8  252.57   12.50
  -5   1  -8  170.28   14.80
  -5   1  -8  183.78   18.70
  -5   1  -8  164.48   14.50
  -5   1  -8  155.18   14.00
  -5   1  -8  185.18   15.60
  -5   1  -8  175.88   16.10
  -5   1  -8  185.58   13.30
  -5   1  -8  162.18   16.40
   5  -1   8  154.58   13.20
   5  -1   8  149.49   12.30
   5  -1   8  161.58   11.70
   5  -1   8  152.58   12.60
   5  -1   8  186.28   13.50
   5  -1   8  153.38   11.90
   5  -1   8  186.78   13.00
   6   0  -8  167.48   12.00
   6   0  -8  205.38   10.80
   6   0  -8  180.78   13.50
   6   0  -8  208.98   12.90
   6   0  -8  195.58   15.90
   6   0  -8  187.08   11.30
   6   0  -8  185.28   11.90
  -6   0   8  200.98   14.30
  -6   0   8  176.58   16.30
  -6   0   8  198.78   14.70
  -6   0   8  174.78   14.50
  -6   0   8  197.48   13.80
  -6   0   8  184.18   15.00
   5   0  -8 1440.76   42.20
   5   0  -8 1502.05   43.80
   5   0  -8 1553.74   44.00
   5   0  -8 1495.45   47.50
   5   0  -8 1444.86   43.70
   5   0  -8 1491.25   43.90
   5   0  -8 1448.46   45.10
   5   0  -8 1477.35   43.70
  -5   0   8 1517.85   48.00
  -5   0   8 1501.35   44.80
  -5   0   8 1459.75   46.30
  -5   0   8 1546.15   46.20
  -5   0   8 1513.15   46.40
  -5   0   8 1551.04   46.90
   4   0  -8   13.80    3.60
   4   0  -8    9.60    4.10
   4   0  -8   23.90    4.90
   4   0  -8   16.90    3.40
   4   0  -8   19.10    4.20
   4   0  -8   22.60    4.70
   4   0  -8   28.00    6.00
   4   0  -8   13.80    5.20
  -4   0   8   14.30    4.60
  -4   0   8   23.20    5.50
  -4   0   8   23.50    3.70
  -4   0   8   22.50    4.40
  -4   0   8   16.80    4.20
  -4   0   8   14.40    3.70
  -4   0   8   19.10    4.50
   3   0  -8 1662.73   49.20
   3   0  -8 1657.43   47.30
   3   0  -8 1530.85   44.10
   3   0  -8 1667.23   45.10
   3   0  -8 1710.83   46.20
   3   0  -8 1585.54   46.90
   3   0  -8 1644.34   46.70
   3   0  -8 1612.84   46.70
  -3   0   8 1649.33   44.10
  -3   0   8 1660.53   46.30
  -3   0   8 1631.24   45.90
  -3   0   8 1651.33   47.10
  -3   0   8 1679.43   48.70
  -3   0   8 1625.24   46.80
  -3   0   8 1659.13   47.70
   2   0  -8 1938.81   53.49
   2   0  -8 1968.00   53.99
   2   0  -8 1937.11   52.09
   2   0  -8 1956.40   54.19
   2   0  -8 1927.41   54.09
  -2   0   8 1893.01   54.69
  -2   0   8 1972.40   53.79
  -2   0   8 1923.21   52.89
  -2   0   8 1902.01   54.09
  -2   0   8 1891.71   53.39
   1   0  -8   38.90    4.80
   1   0  -8   40.10    5.30
   1   0  -8   23.60    4.30
   1   0  -8   37.40    4.00
   1   0  -8   47.10    5.30
   1   0  -8   45.10    5.50
   1   0  -8   33.00    4.00
   1   0  -8   46.60    5.60
   1   0  -8   36.60    4.90
  -1   0   8   38.00    4.00
  -1   0   8   37.40    4.70
  -1   0   8   39.10    4.70
  -1   0   8   43.40    5.00
  -1   0   8   38.60    4.10
  -1   0   8   37.80    4.50
   0   0  -8 3165.08   84.69
   0   0  -8 3277.87   84.79
   0   0  -8 3022.60   85.19
   0   0  -8 3182.48   81.99
   0   0  -8 3162.78   84.99
   0   0  -8 3224.68   84.09
   0   0  -8 3076.29   82.59
   0   0   8 3087.99   82.99
   0   0   8 3180.78   83.39
   0   0   8 3157.08   84.59
   0   0   8 3118.29   83.99
   0   0   8 3095.99   82.89
   0   0   8 3243.28   84.99
   0   0   8 3080.09   83.09
  -1   0  -8  206.68    7.80
  -1   0  -8  216.18   10.60
  -1   0  -8  199.08   10.40
  -1   0  -8  207.78    9.10
  -1   0  -8  214.08    9.10
  -1   0  -8  214.58    9.90
  -1   0  -8  215.88   10.30
  -1   0  -8  217.98   10.30
   1   0   8  203.78    9.50
   1   0   8  214.38   10.00
   1   0   8  210.58    8.00
   1   0   8  212.38    9.60
   1   0   8  205.88    8.40
   1   0   8  217.78    9.10
   1   0   8  217.98    9.80
   1   0   8  164.38    9.30
   1   0   8  202.58    9.40
  -2   0  -8   84.39    6.30
  -2   0  -8   87.79    6.20
  -2   0  -8   81.99    8.00
  -2   0  -8   74.79    7.70
  -2   0  -8   78.79    7.30
  -2   0  -8   87.09    7.10
  -2   0  -8   84.69    7.10
   2   0   8   86.69    6.70
   2   0   8   82.29    6.20
   2   0   8   87.29    6.80
   2   0   8   91.99    6.60
   2   0   8   79.59    7.00
   2   0   8   83.99    7.00
   2   0   8   88.49    5.30
   2   0   8   88.69    7.20
   2   0   8   92.79    7.00
   2   0   8   76.49    4.80
   2   0   8   81.89    8.30
   2   0   8   93.59    6.90
  -3   0  -8  239.98   12.80
  -3   0  -8  220.68   11.90
  -3   0  -8  245.58   13.60
  -3   0  -8  252.67   12.50
  -3   0  -8  235.28   11.90
  -3   0  -8  244.78   11.50
  -3   0  -8  236.78   13.60
  -3   0  -8  221.48   12.70
   3   0   8  249.38   11.00
   3   0   8  253.57   12.40
   3   0   8  226.98   11.60
   3   0   8  223.38   11.80
   3   0   8  247.18   11.60
   3   0   8  258.87    9.50
   3   0   8  253.27   11.40
   3   0   8  228.08   11.40
   3   0   8  247.28   12.10
   3   0   8  247.18    8.90
  -4   0  -8  305.17   15.60
  -4   0  -8  290.57   17.10
  -4   0  -8  290.17   15.00
  -4   0  -8  300.97   15.40
  -4   0  -8  310.27   16.40
  -4   0  -8  268.77   16.80
  -4   0  -8  312.47   16.60
  -4   0  -8  306.97   14.80
   4   0   8  300.37   14.30
   4   0   8  313.67   14.40
   4   0   8  295.17   14.90
   4   0   8  317.77   14.10
   4   0   8  304.37   15.20
   4   0   8  318.07   11.40
   4   0   8  328.57   13.90
   4   0   8  305.47   15.10
   4   0   8  328.57   15.60
  -5   0  -8   88.49   12.60
  -5   0  -8  115.09   12.90
  -5   0  -8  107.39   12.50
  -5   0  -8  103.69   10.60
  -5   0  -8   59.39   10.20
  -5   0  -8  105.29   12.80
  -5   0  -8   90.59   12.80
  -5   0  -8   81.59   11.60
   5   0   8   97.69   10.20
   5   0   8  114.29   12.40
   5   0   8   77.09    9.90
   5   0   8   99.99   12.20
   5   0   8   82.69   11.50
   5   0   8   79.99    9.00
   5   0   8   88.39    9.10
   5   0   8   82.89   11.40
   5   0   8  102.29    9.70
   6  -1  -8  178.58   12.40
   6  -1  -8  186.38   15.00
   6  -1  -8  177.58   15.80
   6  -1  -8  178.98   12.60
   6  -1  -8  198.58   11.90
   6  -1  -8  170.98   11.90
   6  -1  -8  217.88   12.80
  -6   1   8  180.18   14.00
  -6   1   8  211.68   15.80
  -6   1   8  187.18   15.00
  -6   1   8  207.58   16.40
  -6   1   8  164.98   17.00
  -6   1   8  199.58   18.80
  -6   1   8  240.28   16.40
   5  -1  -8  107.69   11.20
   5  -1  -8   75.99    9.60
   5  -1  -8   78.19    8.40
   5  -1  -8   64.99    7.90
   5  -1  -8   81.39    8.10
   5  -1  -8   69.49    7.40
   5  -1  -8   77.79    6.60
   5  -1  -8   73.89    8.50
  -5   1   8   78.69   10.20
  -5   1   8  108.09   12.30
  -5   1   8   85.49    9.90
  -5   1   8   96.89   11.30
  -5   1   8   85.19    9.00
  -5   1   8   87.09   10.60
   4  -1  -8  527.85   20.90
   4  -1  -8  548.65   18.60
   4  -1  -8  538.15   21.50
   4  -1  -8  540.65   20.10
   4  -1  -8  528.85   20.40
   4  -1  -8  534.95   19.90
   4  -1  -8  559.54   18.40
  -4   1   8  561.34   22.60
  -4   1   8  550.04   17.90
  -4   1   8  578.04   19.90
  -4   1   8  567.24   21.20
  -4   1   8  550.94   20.50
  -4   1   8  541.35   21.10
  -4   1   8  575.44   19.30
  -4   1   8  545.85   22.00
   3  -1  -8 1492.45   41.30
   3  -1  -8 1482.05   43.70
   3  -1  -8 1476.15   43.50
   3  -1  -8 1452.35   43.60
   3  -1  -8 1448.66   43.10
   3  -1  -8 1479.95   42.00
  -3   1   8 1533.75   41.80
  -3   1   8 1522.15   42.90
  -3   1   8 1498.75   40.80
  -3   1   8 1477.15   43.70
  -3   1   8 1453.45   44.00
  -3   1   8 1492.85   43.60
  -3   1   8 1440.36   41.80
  -3   1   8 1502.35   45.20
   2  -1  -8  439.66   13.80
   2  -1  -8  474.55   17.30
   2  -1  -8  481.55   16.60
   2  -1  -8  469.15   15.80
   2  -1  -8  466.25   15.50
   2  -1  -8  467.05   17.00
   2  -1  -8  483.65   17.30
  -2   1   8  468.75   16.40
  -2   1   8  437.26   15.60
  -2   1   8  469.35   16.20
  -2   1   8  455.45   17.60
  -2   1   8  461.75   15.60
  -2   1   8  478.25   15.90
  -2   1   8  469.25   17.10
   1  -1  -8 1108.79   32.60
   1  -1  -8 1146.79   32.70
   1  -1  -8 1141.89   33.90
   1  -1  -8 1143.09   33.30
   1  -1  -8 1096.59   34.00
   1  -1  -8 1135.19   34.20
   1  -1  -8 1210.18   34.00
  -1   1   8 1129.89   31.10
  -1   1   8 1115.69   32.90
  -1   1   8 1126.59   34.20
  -1   1   8 1101.89   33.60
  -1   1   8 1120.79   32.20
  -1   1   8 1114.69   33.10
  -1   1   8 1126.49   32.80
  -1   1   8 1107.39   32.50
   0  -1  -8   79.79    6.10
   0  -1  -8   75.39    5.90
   0  -1  -8   77.69    6.70
   0  -1  -8   71.19    6.00
   0  -1  -8   73.79    5.80
   0  -1  -8   77.69    6.40
   0   1   8   88.79    6.40
   0   1   8   84.19    6.50
   0   1   8   68.69    5.90
   0   1   8   76.89    5.10
   0   1   8   74.69    6.00
   0   1   8   73.09    6.00
   0   1   8   64.19    8.30
   0   1   8   80.69    5.60
  -1  -1  -8  223.08   10.40
  -1  -1  -8  233.28   10.70
  -1  -1  -8  224.78    9.80
  -1  -1  -8  212.98   11.10
  -1  -1  -8  225.78   11.10
  -1  -1  -8  238.58   10.30
   1   1   8  231.28   10.20
   1   1   8  208.18    9.60
   1   1   8  244.18   11.20
   1   1   8  222.18   10.30
   1   1   8  234.78    9.60
   1   1   8  238.88   10.70
   1   1   8  237.78   10.40
   1   1   8  217.98    8.10
  -2  -1  -8  897.51   28.70
  -2  -1  -8  894.81   28.90
  -2  -1  -8  881.61   29.80
  -2  -1  -8  902.71   30.20
  -2  -1  -8  897.81   28.50
  -2  -1  -8  916.21   28.40
   2   1   8  888.31   26.80
   2   1   8  932.31   28.30
   2   1   8  944.41   29.70
   2   1   8  925.21   28.30
   2   1   8  922.41   29.30
   2   1   8  906.21   27.80
   2   1   8  909.41   28.90
   2   1   8  924.91   29.10
   2   1   8  888.61   26.30
  -3  -1  -8    8.10    5.60
  -3  -1  -8    9.90    4.20
  -3  -1  -8   13.90    5.10
  -3  -1  -8   11.00    4.20
  -3  -1  -8   11.00    4.70
  -3  -1  -8    5.00    4.30
  -3  -1  -8    2.60    5.20
  -3  -1  -8    9.30    4.30
   3   1   8    7.20    4.30
   3   1   8    5.50    4.00
   3   1   8    6.60    4.90
   3   1   8    8.90    4.60
   3   1   8   11.40    3.60
   3   1   8    7.80    4.10
   3   1   8    4.20    4.40
   3   1   8   11.10    4.00
   3   1   8   10.60    4.40
   3   1   8   14.10    4.10
   3   1   8    6.80    4.80
  -4  -1  -8   79.09   10.50
  -4  -1  -8   61.09    9.30
  -4  -1  -8   69.79    8.50
  -4  -1  -8   64.49    8.40
  -4  -1  -8   72.19    8.40
  -4  -1  -8   72.59    8.40
  -4  -1  -8   63.49    8.90
  -4  -1  -8   59.69    7.90
   4   1   8   54.99    8.10
   4   1   8   66.69    8.20
   4   1   8   87.89   10.30
   4   1   8   49.80    5.40
   4   1   8   68.79    9.50
   4   1   8   61.69    7.50
   4   1   8   61.99    8.10
   4   1   8   55.19    7.30
   4   1   8   58.39    7.80
   5  -2  -8  564.94   21.50
   5  -2  -8  594.74   23.80
   5  -2  -8  577.24   21.20
   5  -2  -8  573.74   23.00
   5  -2  -8  575.84   20.00
   5  -2  -8  579.44   23.80
   5  -2  -8  586.44   22.40
  -5   2   8  557.14   23.70
  -5   2   8  580.14   25.20
  -5   2   8  606.54   22.00
  -5   2   8  577.94   24.50
  -5   2   8  536.15   25.20
  -5   2   8  607.94   27.90
  -5   2   8  621.34   25.00
  -5   2   8  617.64   24.40
   4  -2  -8  387.86   16.60
   4  -2  -8  413.86   17.70
   4  -2  -8  388.96   16.40
   4  -2  -8  389.96   17.70
   4  -2  -8  399.56   15.70
   4  -2  -8  387.16   16.80
  -4   2   8  404.46   19.20
  -4   2   8  383.16   17.70
  -4   2   8  387.56   17.10
  -4   2   8  403.66   15.00
  -4   2   8  377.96   17.70
  -4   2   8  391.46   13.70
  -4   2   8  417.66   19.40
  -4   2   8  399.96   15.40
   3  -2  -8   24.20    4.50
   3  -2  -8   24.60    3.80
   3  -2  -8   14.00    4.50
   3  -2  -8   14.90    3.80
   3  -2  -8   19.70    4.70
   3  -2  -8   13.20    4.20
  -3   2   8    9.90    4.50
  -3   2   8   23.50    4.30
  -3   2   8   22.50    6.10
  -3   2   8   16.80    4.10
  -3   2   8   22.20    4.50
  -3   2   8   26.50    3.70
  -3   2   8   14.40    4.30
   2  -2  -8 1325.47   38.70
   2  -2  -8 1326.27   39.70
   2  -2  -8 1333.87   39.10
   2  -2  -8 1325.37   39.60
   2  -2  -8 1328.77   39.50
   2  -2  -8 1290.97   36.10
  -2   2   8 1348.97   38.20
  -2   2   8 1326.87   39.40
  -2   2   8 1303.67   38.50
  -2   2   8 1323.67   41.50
  -2   2   8 1302.37   40.50
  -2   2   8 1322.17   39.20
  -2   2   8 1256.97   36.60
  -2   2   8 1368.36   39.40
  -2   2   8 1311.07   39.70
  -2   2   8 1333.47   36.60
   1  -2  -8  884.31   27.60
   1  -2  -8  860.91   27.50
   1  -2  -8  877.21   28.10
   1  -2  -8  864.41   27.10
   1  -2  -8  881.21   25.60
   1  -2  -8  847.32   27.40
   1  -2  -8  881.91   27.00
  -1   2   8  871.31   27.40
  -1   2   8  846.62   29.00
  -1   2   8  890.21   27.60
  -1   2   8  838.02   26.10
  -1   2   8  862.91   27.40
  -1   2   8  855.41   26.50
  -1   2   8  868.91   27.00
  -1   2   8  848.92   25.70
  -1   2   8  889.91   28.30
  -1   2   8  892.61   27.10
   0  -2  -8  899.11   28.20
   0  -2  -8  900.81   27.70
   0  -2  -8  896.81   27.60
   0  -2  -8  891.71   28.40
   0  -2  -8  875.21   27.80
   0   2   8  875.21   25.50
   0   2   8  856.01   27.80
   0   2   8  893.31   27.60
   0   2   8  843.12   26.90
   0   2   8  872.81   26.10
   0   2   8  866.71   27.40
   0   2   8  866.91   25.90
   0   2   8  900.31   28.10
   0   2   8  901.91   28.10
   0   2   8  907.51   27.80
   0   2   8  874.61   28.80
  -1  -2  -8  560.64   20.10
  -1  -2  -8  466.55   18.90
  -1  -2  -8  538.15   15.80
  -1  -2  -8  536.25   19.60
  -1  -2  -8  551.34   19.00
  -1  -2  -8  567.44   19.20
  -1  -2  -8  544.35   18.80
   1   2   8  516.75   19.20
   1   2   8  535.65   18.80
   1   2   8  541.75   18.40
   1   2   8  516.95   18.50
   1   2   8  495.75   19.20
   1   2   8  558.74   19.50
   1   2   8  494.95   17.00
   1   2   8  527.75   16.10
   1   2   8  532.75   19.00
   1   2   8  567.54   19.40
   1   2   8  521.55   18.10
  -2  -2  -8   -1.20    3.60
  -2  -2  -8    3.00    3.80
  -2  -2  -8    2.00    4.30
  -2  -2  -8    1.80    3.50
  -2  -2  -8    2.90    4.00
  -2  -2  -8    8.10    3.80
   2   2   8    0.20    3.50
   2   2   8    7.20    4.60
   2   2   8    2.10    4.10
   2   2   8   -5.50    3.80
   2   2   8    0.00    4.70
   2   2   8    2.30    4.00
   2   2   8    3.20    3.50
   2   2   8   -1.20    3.50
   2   2   8    1.50    4.30
   2   2   8   -1.20    4.20
   2   2   8   -1.10    3.60
  -3  -2  -8   10.10    5.90
  -3  -2  -8    1.50    5.20
  -3  -2  -8    9.80    4.80
  -3  -2  -8    8.00    5.40
  -3  -2  -8    5.00    4.70
  -3  -2  -8    4.20    6.30
  -3  -2  -8   16.00    5.00
   3   2   8    6.80    4.80
   3   2   8   21.20    4.90
   3   2   8   10.70    5.70
   3   2   8    9.90    5.40
   3   2   8   13.90    5.50
   3   2   8    6.90    5.50
   3   2   8   10.20    5.70
   3   2   8    9.60    4.60
   3   2   8   15.40    5.60
  -4  -2  -8  170.78   13.20
  -4  -2  -8  184.48   15.30
  -4  -2  -8  150.98   12.70
  -4  -2  -8  144.49   12.50
  -4  -2  -8  165.28   13.70
  -4  -2  -8  183.48   13.60
  -4  -2  -8  152.68   12.00
   4   2   8  173.78   12.30
   4   2   8  176.78   13.80
   4   2   8  160.58   13.70
   4   2   8  179.18   11.20
   4   2   8  113.99   13.10
   4   2   8  166.28   13.30
   4   2   8  153.88   13.60
   4   2   8  147.69   12.10
   5  -3  -8  360.36   19.20
   5  -3  -8  375.76   18.60
   5  -3  -8  358.76   18.10
   5  -3  -8  384.86   16.60
   5  -3  -8  365.06   17.20
   5  -3  -8  366.66   17.30
   5  -3  -8  357.36   18.00
   5  -3  -8  391.16   19.20
  -5   3   8  418.86   21.50
  -5   3   8  387.06   16.00
  -5   3   8  381.26   19.80
  -5   3   8  375.66   21.90
  -5   3   8  409.06   23.90
  -5   3   8  420.56   17.70
  -5   3   8  400.36   22.00
  -5   3   8  361.76   20.30
   4  -3  -8   47.80    6.80
   4  -3  -8   25.30    5.50
   4  -3  -8   31.90    6.70
   4  -3  -8   35.00    6.60
   4  -3  -8   42.80    7.30
   4  -3  -8   28.00    6.20
  -4   3   8   42.20    6.40
  -4   3   8   37.00    5.60
  -4   3   8   38.30    8.30
  -4   3   8   31.00    7.60
  -4   3   8   37.90    8.20
  -4   3   8   50.99    7.70
  -4   3   8   32.50    9.00
  -4   3   8   33.20    6.10
  -4   3   8   21.50    6.20
   3  -3  -8 1434.76   44.00
   3  -3  -8 1497.45   44.30
   3  -3  -8 1443.66   44.20
   3  -3  -8 1443.86   43.30
   3  -3  -8 1468.15   43.40
  -3   3   8 1197.78   43.20
  -3   3   8 1503.15   42.20
  -3   3   8 1488.75   45.10
  -3   3   8 1509.05   47.60
  -3   3   8 1476.45   47.10
  -3   3   8 1483.65   45.90
  -3   3   8 1412.76   44.40
  -3   3   8 1448.26   42.70
   2  -3  -8  405.56   17.00
   2  -3  -8  455.55   17.20
   2  -3  -8  437.66   16.90
   2  -3  -8  444.56   17.30
   2  -3  -8  422.06   17.30
  -2   3   8  432.16   17.30
  -2   3   8  471.65   17.40
  -2   3   8  428.06   18.40
  -2   3   8  418.16   17.10
  -2   3   8  421.16   19.50
  -2   3   8  406.06   13.70
  -2   3   8  444.36   19.30
  -2   3   8  449.76   17.80
  -2   3   8  433.86   16.50
   1  -3  -8  175.88    9.70
   1  -3  -8  171.88    9.90
   1  -3  -8  180.48    9.90
   1  -3  -8  184.78    9.90
   1  -3  -8  172.78    9.80
   1  -3  -8  163.48   10.00
   1  -3  -8  163.48    7.90
  -1   3   8  164.98    7.40
  -1   3   8  169.48    9.40
  -1   3   8  183.18   10.30
  -1   3   8  161.78   10.40
  -1   3   8  180.48   11.90
  -1   3   8  174.88   10.20
  -1   3   8  182.28   11.00
  -1   3   8  182.88   10.90
  -1   3   8  173.48   10.50
  -1   3   8  171.18   10.00
   0  -3  -8  742.03   25.10
   0  -3  -8  717.03   24.30
   0  -3  -8  730.03   24.50
   0  -3  -8  732.13   24.40
   0  -3  -8  717.63   24.10
   0  -3  -8  735.83   24.60
   0   3   8  732.93   25.80
   0   3   8  752.52   24.70
   0   3   8  716.33   22.60
   0   3   8  737.73   23.80
   0   3   8  682.83   24.10
   0   3   8  740.53   25.30
   0   3   8  692.13   23.60
   0   3   8  778.02   25.70
   0   3   8  733.13   25.80
   0   3   8  746.13   25.20
  -1  -3  -8  229.18   11.80
  -1  -3  -8  237.48   12.00
  -1  -3  -8  228.68   11.40
  -1  -3  -8  234.78   12.30
  -1  -3  -8  216.08   11.10
   1   3   8  223.68   11.30
   1   3   8  238.68   12.70
   1   3   8  228.78   11.90
   1   3   8  241.78   12.20
   1   3   8  214.78   12.30
   1   3   8  231.78   12.60
   1   3   8  211.38   12.00
  -2  -3  -8  408.36   16.50
  -2  -3  -8  448.26   18.40
  -2  -3  -8  408.66   16.60
  -2  -3  -8  410.36   17.40
  -2  -3  -8  428.16   18.20
   2   3   8  420.66   16.30
   2   3   8  397.56   17.90
   2   3   8  402.86   15.90
   2   3   8  413.76   18.10
   2   3   8  406.86   17.50
   2   3   8  411.66   19.10
   2   3   8  384.06   15.50
   2   3   8  422.76   18.80
  -3  -3  -8  172.38   13.50
  -3  -3  -8  163.78   12.80
  -3  -3  -8  166.98   12.30
  -3  -3  -8  180.28   11.50
  -3  -3  -8  182.78   11.80
   3   3   8  180.08   14.30
   3   3   8  190.58   14.30
   3   3   8  189.98   13.20
   3   3   8  177.38   14.00
   3   3   8  168.28   10.30
   3   3   8  176.68   13.00
   4   3   8   -2.90    7.60
   4   3   8   -7.40    7.60
   4   3   8    0.70    7.70
   4  -4  -8  259.27   15.20
   4  -4  -8  263.17   16.00
   4  -4  -8  256.97   15.70
   4  -4  -8  276.17   16.20
   4  -4  -8  258.37   15.60
   4  -4  -8  260.37   14.60
   4  -4  -8  268.27   15.00
  -4   4   8  293.17   18.30
  -4   4   8  244.88   17.10
  -4   4   8  255.07   13.60
  -4   4   8  272.07   17.90
  -4   4   8  276.77   20.10
  -4   4   8  256.97   14.20
  -4   4   8  287.57   20.50
  -4   4   8  270.67   13.30
  -4   4   8  271.37   19.00
   3  -4  -8  405.46   17.70
   3  -4  -8  390.86   17.80
   3  -4  -8  393.56   17.90
   3  -4  -8  364.46   16.90
   3  -4  -8  357.46   16.60
  -3   4   8  350.46   20.80
  -3   4   8  376.56   16.20
  -3   4   8  388.76   17.10
  -3   4   8  372.76   18.10
  -3   4   8  354.76   18.90
  -3   4   8  369.56   19.10
  -3   4   8  380.16   20.80
  -3   4   8  364.36   20.40
  -3   4   8  375.26   18.90
   2  -4  -8   36.00    6.50
   2  -4  -8   48.30    7.20
   2  -4  -8   48.80    6.50
   2  -4  -8   46.00    6.60
   2  -4  -8   41.80    6.80
  -2   4   8   46.20    6.70
  -2   4   8   44.10    7.00
  -2   4   8   42.00    7.00
  -2   4   8   34.50    7.10
  -2   4   8   43.80    8.20
  -2   4   8   47.50    7.10
  -2   4   8   42.70    8.60
  -2   4   8   29.90    6.90
  -2   4   8   40.10    7.60
  -2   4   8   37.40    4.90
   1  -4  -8 1465.45   43.90
   1  -4  -8 1431.56   44.30
   1  -4  -8 1442.56   44.00
   1  -4  -8 1479.45   44.80
   1  -4  -8 1444.66   42.90
   1  -4  -8 1434.26   43.90
  -1   4   8 1337.87   44.00
  -1   4   8 1452.15   44.10
  -1   4   8 1512.85   44.40
  -1   4   8 1468.85   47.30
  -1   4   8 1489.75   44.90
  -1   4   8 1500.75   47.30
  -1   4   8 1424.36   43.30
  -1   4   8 1559.34   45.70
  -1   4   8 1522.45   45.70
   0  -4  -8    1.00    4.30
   0  -4  -8    5.50    4.40
   0  -4  -8    3.60    4.40
   0  -4  -8   10.90    5.50
   0  -4  -8    8.60    4.50
   0  -4  -8    5.30    4.20
   0   4   8    3.40    4.90
   0   4   8    8.70    7.00
   0   4   8    6.40    4.80
   0   4   8    4.00    5.60
   0   4   8    1.80    6.10
   0   4   8    0.30    5.30
   0   4   8    4.80    5.10
   0   4   8   12.50    6.00
  -1  -4  -8  450.95   19.10
  -1  -4  -8  470.45   18.50
  -1  -4  -8  460.45   18.80
  -1  -4  -8  489.25   19.10
  -1  -4  -8  472.75   18.30
   1   4   8  480.05   20.80
   1   4   8  481.85   17.30
   1   4   8  467.15   19.00
   1   4   8  466.45   19.10
   1   4   8  466.05   20.90
   1   4   8  495.15   21.00
   1   4   8  465.65   19.40
  -2  -4  -8  164.98   11.90
  -2  -4  -8  161.48   11.40
  -2  -4  -8  151.98   11.90
  -2  -4  -8  157.78   10.80
  -2  -4  -8  157.98   12.60
   2   4   8  152.48   13.90
   2   4   8  146.09   10.60
   2   4   8  167.78   11.40
   2   4   8  160.68   13.50
   2   4   8  168.48   13.20
  -3  -4  -8   17.60    6.80
  -3  -4  -8   10.00    7.80
  -3  -4  -8   11.30    5.70
  -3  -4  -8   10.40    6.30
  -3  -4  -8   27.60    8.70
   3   4   8   15.30    8.80
   3   4   8    4.60    7.50
   3   4   8    6.40    8.50
   3   4   8    2.70    7.60
   3  -5  -8  179.78   13.90
   3  -5  -8  169.28   13.20
   3  -5  -8  165.98   13.90
   3  -5  -8  178.58   14.00
   3  -5  -8  173.68   13.80
  -3   5   8  223.88   17.10
  -3   5   8  172.48   13.20
  -3   5   8  168.58   16.00
  -3   5   8  185.78   17.20
  -3   5   8  197.98   18.90
  -3   5   8  202.48   19.10
  -3   5   8  191.78   18.10
  -3   5   8  196.38   14.80
   2  -5  -8  847.52   28.90
   2  -5  -8  834.82   29.80
   2  -5  -8  788.82   28.80
   2  -5  -8  839.12   29.60
   2  -5  -8  758.02   28.60
  -2   5   8  874.41   33.50
  -2   5   8  856.41   29.60
  -2   5   8  786.22   29.90
  -2   5   8  839.62   30.00
  -2   5   8  725.13   32.50
  -2   5   8  822.32   30.10
  -2   5   8  807.72   30.80
  -2   5   8  861.71   29.80
   1  -5  -8  193.08   12.40
   1  -5  -8  179.08   12.10
   1  -5  -8  194.68   13.20
   1  -5  -8  176.08   13.10
   1  -5  -8  188.68   12.40
  -1   5   8  193.18   13.90
  -1   5   8  186.88   15.80
  -1   5   8  198.68   13.90
  -1   5   8  173.78   13.80
  -1   5   8  178.58   15.50
  -1   5   8  181.18   12.60
  -1   5   8  185.98   13.60
   0  -5  -8  206.88   12.80
   0  -5  -8  200.88   12.30
   0  -5  -8  215.18   13.30
   0  -5  -8  186.88   13.40
   0  -5  -8  200.48   12.40
   0  -5  -8  206.48   13.30
   0   5   8  229.58   15.00
   0   5   8  200.68   15.80
   0   5   8  202.78   14.90
   0   5   8  189.98   15.00
   0   5   8  199.58   14.90
  -1  -5  -8  781.92   27.30
  -1  -5  -8  780.22   27.30
  -1  -5  -8  817.52   29.60
  -1  -5  -8  777.12   27.40
  -1  -5  -8  779.72   28.40
  -1  -5  -8  769.92   28.60
   1   5   8  831.02   31.40
   1   5   8  776.32   31.40
   1   5   8  833.42   31.00
   1   5   8  792.42   28.80
   1   5   8  762.92   28.50
   1   7  -9   90.59   10.30
   1   7  -9   64.29   10.50
   1   7  -9   99.49   13.90
   1   7  -9   92.69   11.80
  -1  -7   9   92.79   10.40
  -1  -7   9   86.89    9.10
  -1  -7   9   84.39    7.30
  -1  -7   9   64.09    8.80
   0   7  -9  377.46   19.40
   0   7  -9  380.66   19.70
   0   7  -9  367.86   22.10
   0   7  -9  362.26   21.00
   0  -7   9  339.87   15.60
   0  -7   9  363.96   16.10
   0  -7   9  361.36   15.80
   0  -7   9  362.06   14.80
   0  -7   9  382.96   14.80
  -1   7  -9   84.89   12.30
  -1   7  -9   97.79   12.90
  -1   7  -9  105.99   12.20
  -1   7  -9   92.99   11.40
   1  -7   9  104.39    9.70
   1  -7   9   91.89    9.30
   1  -7   9   94.79    8.90
   1  -7   9   94.59   10.40
   1  -7   9   91.39   10.40
   3   6  -9  455.75   22.30
   3   6  -9  359.06   20.30
   3   6  -9  433.86   22.20
   3   6  -9  468.85   21.30
  -3  -6   9  452.05   18.40
  -3  -6   9  438.26   16.10
  -3  -6   9  439.06   15.00
   2   6  -9   14.60    7.10
   2   6  -9   19.00    7.60
   2   6  -9   21.50    7.40
   2   6  -9   15.90    7.80
  -2  -6   9   12.50    4.10
  -2  -6   9   -0.10    4.80
  -2  -6   9   10.00    3.30
  -2  -6   9   12.70    5.00
  -2  -6   9   11.80    4.40
  -2  -6   9    8.90    3.50
   1   6  -9  689.03   27.80
   1   6  -9  708.63   25.40
   1   6  -9  722.73   26.80
   1   6  -9  680.33   26.70
  -1  -6   9  716.33   24.80
  -1  -6   9  658.53   22.50
  -1  -6   9  732.83   23.40
  -1  -6   9  674.83   22.40
  -1  -6   9  694.03   21.90
  -1  -6   9  671.83   21.80
   0   6  -9  560.94   24.50
   0   6  -9  541.45   22.20
   0   6  -9  514.65   21.70
   0   6  -9  547.65   23.40
   0   6  -9  503.35   19.30
   0  -6   9  519.65   19.10
   0  -6   9  521.35   18.20
   0  -6   9  519.55   18.60
   0  -6   9  516.95   18.90
   0  -6   9  509.85   18.10
  -1   6  -9  218.78   15.70
  -1   6  -9  221.58   14.40
  -1   6  -9  217.18   17.30
  -1   6  -9  209.98   15.10
   1  -6   9  216.48   12.20
   1  -6   9  240.88   11.80
   1  -6   9  212.28   11.50
   1  -6   9  212.48   11.30
   1  -6   9  224.68   11.30
  -2   6  -9  290.07   18.80
  -2   6  -9  270.17   19.70
  -2   6  -9  296.87   17.70
  -2   6  -9  274.67   13.00
  -2   6  -9  280.57   16.90
   2  -6   9  280.77   14.40
   2  -6   9  266.97   14.10
   2  -6   9  263.77   13.50
   2  -6   9  260.67   13.20
   2  -6   9  293.47   14.20
   4   5  -9  394.36   16.80
   4   5  -9  384.26   19.90
   4   5  -9  366.56   20.90
  -4  -5   9  369.16   14.50
  -4  -5   9  378.76   17.40
  -4  -5   9  376.16   13.90
  -4  -5   9  364.36   14.70
  -4  -5   9  392.76   16.80
   3   5  -9   57.89    8.00
   3   5  -9   54.69    8.90
   3   5  -9   44.50    8.40
   3   5  -9   50.49    6.10
  -3  -5   9   48.00    6.30
  -3  -5   9   46.80    6.40
  -3  -5   9   57.39    6.00
  -3  -5   9   47.20    5.30
  -3  -5   9   48.80    5.60
   2   5  -9  933.91   33.30
   2   5  -9  994.70   32.60
   2   5  -9  977.60   32.50
   2   5  -9  981.00   32.40
  -2  -5   9  913.51   28.10
  -2  -5   9  917.61   28.00
  -2  -5   9  977.80   30.60
  -2  -5   9  948.91   27.40
  -2  -5   9  977.30   28.80
  -2  -5   9  920.41   28.80
   1   5  -9  204.58   11.80
   1   5  -9  169.88   13.00
   1   5  -9  183.98   12.50
   1   5  -9  182.78   12.50
  -1  -5   9  207.98    9.70
  -1  -5   9  193.18    9.10
  -1  -5   9  194.48    8.90
  -1  -5   9  191.48   10.70
  -1  -5   9  186.78    8.90
  -1  -5   9  189.98    9.70
   0   5  -9  164.78   12.80
   0   5  -9  161.18   11.70
   0   5  -9  154.28   10.10
   0   5  -9  144.79   10.60
   0   5  -9  156.38   11.90
   0   5  -9  141.89   10.00
   0  -5   9  154.88    8.50
   0  -5   9  144.39    8.60
   0  -5   9  166.28    8.60
   0  -5   9  153.48    8.80
   0  -5   9  153.68    8.40
  -1   5  -9  462.45   20.30
  -1   5  -9  462.55   19.50
  -1   5  -9  440.86   16.20
  -1   5  -9  442.66   18.50
  -1   5  -9  495.15   20.70
  -1   5  -9  489.35   22.20
  -1   5  -9  474.95   17.00
   1  -5   9  487.45   17.60
   1  -5   9  471.85   17.40
   1  -5   9  494.45   17.20
   1  -5   9  473.85   17.10
   1  -5   9  467.25   17.40
  -2   5  -9  131.09   13.60
  -2   5  -9  111.49   12.10
  -2   5  -9  136.69   11.40
  -2   5  -9  118.49   10.30
  -2   5  -9  115.09    9.50
  -2   5  -9  112.49   11.00
  -2   5  -9  118.09   11.80
   2  -5   9  120.09    9.20
   2  -5   9  113.49    9.00
   2  -5   9  124.49    9.50
   2  -5   9  121.39    9.20
   2  -5   9  124.09    8.40
  -3   5  -9  133.29   14.10
  -3   5  -9  132.29   11.40
  -3   5  -9  125.39   12.60
  -3   5  -9  134.39   16.20
  -3   5  -9  149.29   15.50
  -3   5  -9  140.49   12.90
  -3   5  -9  128.69   12.90
   3  -5   9  124.89   10.60
   3  -5   9  134.79   10.60
   3  -5   9  121.59    9.20
   3  -5   9  136.79   11.00
   3  -5   9  137.59   11.20
   5   4  -9  563.84   27.10
   5   4  -9  583.94   22.40
   5   4  -9  593.44   24.90
  -5  -4   9  572.14   21.00
  -5  -4   9  518.05   21.00
  -5  -4   9  586.14   23.20
  -5  -4   9  602.84   22.90
   4   4  -9    5.20    4.90
   4   4  -9    0.70    6.40
   4   4  -9    7.80    6.20
   4   4  -9   -5.60    4.70
  -4  -4   9    0.80    3.20
  -4  -4   9    9.00    4.60
  -4  -4   9    2.60    3.40
  -4  -4   9   -2.10    4.10
  -4  -4   9    1.80    5.30
  -4  -4   9   -4.00    3.80
   3   4  -9  592.44   22.70
   3   4  -9  577.54   23.60
   3   4  -9  583.44   19.10
   3   4  -9  593.44   23.70
  -3  -4   9  555.74   19.30
  -3  -4   9  564.64   18.60
  -3  -4   9  608.74   19.20
  -3  -4   9  571.84   20.30
  -3  -4   9  597.74   20.70
   2   4  -9 1340.67   40.80
   2   4  -9 1322.47   35.90
   2   4  -9 1369.66   40.90
   2   4  -9 1244.88   37.00
   2   4  -9 1354.16   41.60
   2   4  -9 1352.66   42.00
  -2  -4   9 1294.27   38.20
  -2  -4   9 1376.26   39.60
  -2  -4   9 1272.37   37.20
  -2  -4   9 1322.77   37.50
  -2  -4   9 1248.38   36.10
  -2  -4   9 1299.77   37.80
  -2  -4   9 1310.87   39.70
   1   4  -9    2.90    4.10
   1   4  -9    0.70    4.00
   1   4  -9    0.00    2.80
   1   4  -9   -0.10    4.40
   1   4  -9    1.80    3.70
   1   4  -9    4.20    4.70
   1   4  -9    0.90    2.70
  -1  -4   9   -0.80    2.80
  -1  -4   9    0.10    2.70
  -1  -4   9   -0.70    2.40
  -1  -4   9   -0.10    2.30
  -1  -4   9    0.30    2.80
  -1  -4   9    4.60    4.40
   0   4  -9 1991.70   58.49
   0   4  -9 2185.08   57.99
   0   4  -9 2103.99   60.39
   0   4  -9 2104.49   62.59
   0   4  -9 2064.49   57.69
   0   4  -9 2263.27   61.69
   0   4  -9 2161.98   61.49
   0   4  -9 2151.88   59.69
   0  -4   9 2167.68   58.39
   0  -4   9 2143.09   58.49
   0  -4   9 2168.78   58.49
   0  -4   9 2003.30   60.19
   0  -4   9 2120.49   58.79
   0  -4   9 2067.09   58.59
  -1   4  -9  174.38   11.20
  -1   4  -9  173.48   12.70
  -1   4  -9  131.19   10.20
  -1   4  -9  186.38   10.30
  -1   4  -9  175.98   11.60
  -1   4  -9  182.78    9.60
  -1   4  -9  178.08   10.30
  -1   4  -9  172.78   10.40
  -1   4  -9  183.08   10.60
   1  -4   9  171.88    9.40
   1  -4   9  163.38    9.20
   1  -4   9  178.08    9.20
   1  -4   9  166.98    9.10
   1  -4   9  191.98    9.20
  -2   4  -9  181.98   11.20
  -2   4  -9  181.28   11.80
  -2   4  -9  171.88   11.10
  -2   4  -9  178.28   10.80
  -2   4  -9  183.28   11.40
  -2   4  -9  188.58    9.80
  -2   4  -9  196.18   13.00
  -2   4  -9  207.68   13.50
  -2   4  -9  188.58   14.10
   2  -4   9  193.38    9.60
   2  -4   9  179.48   10.20
   2  -4   9  184.38   10.60
   2  -4   9  179.48   10.10
   2  -4   9  203.58   10.60
  -3   4  -9  207.08   12.30
  -3   4  -9  223.68   14.10
  -3   4  -9  179.68   14.70
  -3   4  -9  192.18   13.10
  -3   4  -9  232.28   16.90
  -3   4  -9  236.48   15.40
  -3   4  -9  213.18   13.10
   3  -4   9  211.18   12.30
   3  -4   9  204.28   10.50
   3  -4   9  206.68   12.00
   3  -4   9  240.58   11.10
   3  -4   9  167.18   10.40
   3  -4   9  221.48   12.20
   3  -4   9  194.98   11.70
  -4   4  -9   69.89   12.10
  -4   4  -9   82.79   10.80
  -4   4  -9   81.59   11.90
  -4   4  -9   58.89    9.10
  -4   4  -9   85.89   10.00
  -4   4  -9   62.49   11.10
   4  -4   9   58.39    8.60
   4  -4   9   77.29    9.00
   4  -4   9   95.09   10.30
   4  -4   9   74.09    8.70
   4  -4   9   79.29    9.10
   4  -4   9   79.99   10.00
   4  -4   9   82.29    9.90
   5   3  -9   69.59    9.40
   5   3  -9   57.29    7.50
   5   3  -9   59.19    7.00
   5   3  -9   59.49    9.90
   5   3  -9   70.09    8.80
  -5  -3   9   69.89    9.10
  -5  -3   9   48.40    6.70
  -5  -3   9   58.99    6.20
  -5  -3   9   42.20    7.10
  -5  -3   9   62.69    7.60
   4   3  -9  229.28   11.50
   4   3  -9  227.18   10.90
   4   3  -9  276.27   14.50
   4   3  -9  296.27   16.70
   4   3  -9  267.87   11.30
  -4  -3   9  264.57   13.50
  -4  -3   9  265.47   12.70
  -4  -3   9  274.27   13.20
  -4  -3   9  257.37   10.50
  -4  -3   9  263.97   12.40
  -4  -3   9  265.57   11.90
   3   3  -9 1210.38   39.20
   3   3  -9 1131.59   34.10
   3   3  -9 1241.08   37.40
   3   3  -9 1162.48   34.90
   3   3  -9 1162.98   32.30
  -3  -3   9 1222.88   36.40
  -3  -3   9 1200.18   35.00
  -3  -3   9 1212.98   36.10
  -3  -3   9 1216.98   34.20
  -3  -3   9 1221.68   35.70
   2   3  -9  158.78    6.80
   2   3  -9  156.48    8.40
   2   3  -9  143.99    7.40
   2   3  -9  162.78    9.90
   2   3  -9  141.19    8.70
   2   3  -9  119.99    6.90
   2   3  -9  145.39   10.20
   2   3  -9  168.58    9.60
   2   3  -9  159.68   10.60
   2   3  -9  137.79    8.10
  -2  -3   9  156.38    8.70
  -2  -3   9  146.59    6.80
  -2  -3   9  150.08    7.20
  -2  -3   9  161.08    8.50
  -2  -3   9  155.18    7.70
  -2  -3   9  151.28    8.00
  -2  -3   9  148.29    9.60
   1   3  -9 1214.48   37.30
   1   3  -9 1052.09   33.20
   1   3  -9 1193.18   32.90
   1   3  -9 1191.68   36.30
   1   3  -9 1203.18   33.60
   1   3  -9 1179.38   34.40
   1   3  -9 1190.08   36.30
   1   3  -9 1230.28   35.80
  -1  -3   9 1174.78   35.10
  -1  -3   9 1155.28   34.60
  -1  -3   9 1146.89   33.60
  -1  -3   9 1153.48   33.80
  -1  -3   9 1168.18   34.30
  -1  -3   9 1130.09   32.70
  -1  -3   9 1181.78   33.20
  -1  -3   9 1197.58   34.60
   0   3  -9  319.07   12.80
   0   3  -9  324.07   13.90
   0   3  -9  318.67   13.70
   0   3  -9  303.07   10.80
   0   3  -9  302.37   13.20
   0   3  -9  321.77   15.00
   0   3  -9  322.67   12.80
   0   3  -9  343.57   14.40
   0   3  -9  326.47   14.40
   0  -3   9  331.57   12.70
   0  -3   9  319.97   12.10
   0  -3   9  317.27   12.20
   0  -3   9  325.87   11.90
   0  -3   9  335.57   12.80
  -1   3  -9  402.66   15.80
  -1   3  -9  386.06   15.20
  -1   3  -9  367.36   15.00
  -1   3  -9  379.96   14.90
  -1   3  -9  390.06   16.80
  -1   3  -9  343.27   12.10
  -1   3  -9  380.66   17.50
  -1   3  -9  377.06   15.60
  -1   3  -9  391.66   15.30
   1  -3   9  382.66   14.20
   1  -3   9  382.66   14.30
   1  -3   9  383.76   14.50
   1  -3   9  377.36   14.70
   1  -3   9  378.16   13.50
  -2   3  -9 1400.66   40.80
  -2   3  -9 1317.47   41.20
  -2   3  -9 1365.26   41.10
  -2   3  -9 1374.66   40.90
  -2   3  -9 1440.26   42.40
  -2   3  -9 1358.96   37.30
  -2   3  -9 1371.96   44.20
  -2   3  -9 1328.47   41.70
   2  -3   9 1368.46   40.20
   2  -3   9 1377.06   40.40
   2  -3   9 1354.36   38.70
   2  -3   9 1337.77   40.60
   2  -3   9 1274.77   37.70
   2  -3   9 1372.66   40.00
   2  -3   9 1321.67   37.20
  -3   3  -9   -3.30    5.70
  -3   3  -9   -5.10    4.60
  -3   3  -9   -5.80    6.00
  -3   3  -9    4.90    5.40
  -3   3  -9    3.70    5.40
  -3   3  -9   -3.20    3.60
  -3   3  -9   -3.30    4.80
  -3   3  -9    4.30    4.60
   3  -3   9    0.80    3.70
   3  -3   9   -1.80    4.00
   3  -3   9   -0.60    4.00
   3  -3   9   -2.60    3.10
   3  -3   9   -2.90    4.10
   3  -3   9   -4.50    3.90
   3  -3   9    9.30    4.70
  -4   3  -9  182.48   14.30
  -4   3  -9  178.38   13.40
  -4   3  -9  177.98   15.40
  -4   3  -9  174.18   10.40
  -4   3  -9  206.68   17.60
  -4   3  -9  186.48   12.60
  -4   3  -9  179.28   15.70
  -4   3  -9  179.38   14.00
   4  -3   9  194.08   11.60
   4  -3   9  195.18   12.50
   4  -3   9  193.28   11.70
   4  -3   9  169.38   12.00
   4  -3   9  173.08   12.50
   4  -3   9  200.08   12.40
   4  -3   9  171.38    9.90
   5   2  -9  553.24   19.80
   5   2  -9  514.95   19.80
   5   2  -9  557.94   22.20
   5   2  -9  546.85   19.50
   5   2  -9  561.64   25.00
   5   2  -9  555.54   17.30
  -5  -2   9  576.84   21.80
  -5  -2   9  557.34   21.80
  -5  -2   9  548.35   21.10
  -5  -2   9  553.34   21.40
  -5  -2   9  548.05   18.70
   4   2  -9  201.08   12.30
   4   2  -9  200.08    9.90
   4   2  -9  218.08   12.40
   4   2  -9  209.48   10.10
   4   2  -9  196.48    8.80
   4   2  -9  208.88    9.70
   4   2  -9  227.68   14.00
  -4  -2   9  218.28   11.40
  -4  -2   9  220.98    9.50
  -4  -2   9  222.88   10.90
  -4  -2   9  208.38   11.30
  -4  -2   9  224.38   12.60
  -4  -2   9  219.28   11.60
   3   2  -9    5.90    3.00
   3   2  -9    7.60    3.10
   3   2  -9    4.80    4.20
   3   2  -9    6.50    3.20
   3   2  -9    7.00    4.00
   3   2  -9    4.30    3.80
   3   2  -9    2.50    2.80
  -3  -2   9    2.60    5.80
  -3  -2   9    5.90    3.60
  -3  -2   9    4.10    2.50
  -3  -2   9    1.00    2.60
  -3  -2   9   10.70    3.50
  -3  -2   9   10.80    3.30
   2   2  -9 1261.77   36.70
   2   2  -9 1291.47   36.30
   2   2  -9 1371.06   38.50
   2   2  -9 1376.66   41.40
   2   2  -9 1270.67   37.60
   2   2  -9 1295.87   37.00
   2   2  -9 1407.66   40.40
   2   2  -9 1363.06   39.30
   2   2  -9 1401.06   38.60
   2   2  -9 1322.37   38.70
   2   2  -9 1372.16   41.70
  -2  -2   9 1403.36   38.90
  -2  -2   9 1395.86   39.80
  -2  -2   9 1353.76   39.20
  -2  -2   9 1387.36   38.10
  -2  -2   9 1386.66   39.90
  -2  -2   9 1347.57   39.10
   1   2  -9 1355.36   40.10
   1   2  -9 1368.96   37.70
   1   2  -9 1309.07   40.40
   1   2  -9 1267.57   38.40
   1   2  -9 1299.27   38.80
   1   2  -9 1353.86   38.90
   1   2  -9 1346.57   38.70
  -1  -2   9 1336.77   38.20
  -1  -2   9 1326.97   39.30
  -1  -2   9 1347.77   39.00
  -1  -2   9 1354.96   38.70
  -1  -2   9 1396.76   37.80
  -1  -2   9 1360.46   39.10
  -1  -2   9 1335.97   37.70
   0   2  -9 1131.29   34.20
   0   2  -9 1080.29   32.30
   0   2  -9 1103.59   32.00
   0   2  -9 1060.39   33.30
   0   2  -9 1081.49   33.40
   0   2  -9 1079.79   31.80
   0   2  -9 1061.59   28.90
   0   2  -9 1091.89   32.50
   0   2  -9 1060.89   30.40
   0   2  -9  951.20   29.20
   0  -2   9 1044.80   30.80
   0  -2   9 1071.29   32.10
   0  -2   9 1033.90   31.80
   0  -2   9 1055.79   31.30
   0  -2   9 1089.19   31.30
   0  -2   9 1088.09   31.50
  -1   2  -9 1270.67   36.90
  -1   2  -9 1258.27   35.40
  -1   2  -9 1276.07   38.40
  -1   2  -9 1275.77   38.60
  -1   2  -9 1177.98   34.70
  -1   2  -9 1288.27   37.90
  -1   2  -9 1208.18   37.10
  -1   2  -9 1270.57   37.30
  -1   2  -9 1319.37   39.80
   1  -2   9 1253.47   36.80
   1  -2   9 1249.88   37.30
   1  -2   9 1285.87   35.90
   1  -2   9 1252.47   36.70
   1  -2   9 1300.27   37.30
  -2   2  -9    6.90    3.80
  -2   2  -9    2.40    2.90
  -2   2  -9    0.80    4.20
  -2   2  -9    0.70    3.80
  -2   2  -9    0.80    4.20
  -2   2  -9    0.90    4.40
  -2   2  -9   -0.60    4.20
  -2   2  -9    5.50    3.80
   2  -2   9   -2.30    3.30
   2  -2   9    3.60    3.10
   2  -2   9    9.00    4.10
   2  -2   9    1.00    2.50
   2  -2   9   -1.00    2.70
   2  -2   9   -1.80    2.90
   2  -2   9    3.10    3.10
  -3   2  -9  245.78   14.40
  -3   2  -9  216.18   12.80
  -3   2  -9  231.18   12.60
  -3   2  -9  211.88   10.20
  -3   2  -9  219.78   15.10
  -3   2  -9  220.98   11.20
  -3   2  -9  225.08   12.90
  -3   2  -9  234.88   13.10
   3  -2   9  218.48   12.00
   3  -2   9  236.08   11.60
   3  -2   9  236.08    9.80
   3  -2   9  238.78   11.20
   3  -2   9  213.98   10.70
   3  -2   9  227.38   11.80
   3  -2   9  215.18   11.50
   3  -2   9  218.18    9.90
  -4   2  -9  213.78   15.80
  -4   2  -9  224.48   17.60
  -4   2  -9  219.38   14.40
  -4   2  -9  211.28   14.50
  -4   2  -9  248.38   16.20
  -4   2  -9  245.88   12.90
  -4   2  -9  217.98   15.00
  -4   2  -9  226.28   11.80
  -4   2  -9  252.97   14.90
   4  -2   9  203.68   13.50
   4  -2   9  226.88   13.10
   4  -2   9  243.98   11.40
   4  -2   9  238.68   13.00
   4  -2   9  227.68   13.10
   4  -2   9  236.48   12.90
   4  -2   9  229.28   10.20
   4  -2   9  211.98   12.40
   4  -2   9  226.68   12.60
   5   1  -9  193.98   10.10
   5   1  -9  198.78    9.10
   5   1  -9  218.78   15.20
   5   1  -9  219.18   13.10
   5   1  -9  206.18   12.80
   5   1  -9  186.18   11.00
   5   1  -9  186.48   10.70
   5   1  -9  197.38   10.90
  -5  -1   9  201.48   10.60
  -5  -1   9  176.88   14.30
  -5  -1   9  194.18   12.20
  -5  -1   9  191.28   12.20
  -5  -1   9  195.28   12.80
  -5  -1   9  184.68   12.10
   4   1  -9   16.40    3.40
   4   1  -9   15.00    3.90
   4   1  -9   18.40    3.50
   4   1  -9    7.00    3.40
   4   1  -9   18.80    3.70
   4   1  -9   13.60    5.00
   4   1  -9   15.10    5.30
   4   1  -9   14.10    5.00
   4   1  -9   11.80    4.90
  -4  -1   9   11.50    4.30
  -4  -1   9   12.10    3.80
  -4  -1   9   12.80    4.10
  -4  -1   9   12.20    4.80
  -4  -1   9    8.40    4.00
  -4  -1   9   16.50    4.80
   3   1  -9 1296.57   38.20
   3   1  -9 1380.86   40.50
   3   1  -9 1377.46   43.00
   3   1  -9 1251.17   37.10
   3   1  -9 1459.95   40.50
   3   1  -9 1343.37   40.20
   3   1  -9 1390.56   39.90
   3   1  -9 1432.56   40.50
   3   1  -9 1388.76   38.50
   3   1  -9 1342.47   37.10
  -3  -1   9 1359.66   40.20
  -3  -1   9 1383.96   41.00
  -3  -1   9 1420.36   40.80
  -3  -1   9 1477.25   39.40
  -3  -1   9 1360.16   41.70
   2   1  -9  460.35   18.40
   2   1  -9  453.75   16.30
   2   1  -9  488.35   17.00
   2   1  -9  499.55   18.10
   2   1  -9  425.06   16.30
   2   1  -9  429.86   13.70
   2   1  -9  432.56   16.10
   2   1  -9  457.25   16.80
   2   1  -9  483.05   16.20
  -2  -1   9  450.35   15.30
  -2  -1   9  461.45   17.30
  -2  -1   9  464.05   16.60
  -2  -1   9  442.26   15.90
  -2  -1   9  469.25   16.20
   1   1  -9  148.99    8.50
   1   1  -9  134.49    8.20
   1   1  -9  144.89    7.30
   1   1  -9  153.78    9.20
   1   1  -9  145.79    9.20
   1   1  -9  148.49    7.60
   1   1  -9  140.79    8.60
   1   1  -9  143.69    7.60
   1   1  -9  150.68    7.80
   1   1  -9  144.49    8.10
   1   1  -9  145.29    8.10
   1   1  -9  150.28    6.50
  -1  -1   9  154.18    7.10
  -1  -1   9  146.29    8.50
  -1  -1   9  155.88    7.50
  -1  -1   9  156.18    7.70
  -1  -1   9  156.48    8.10
   0   1  -9 1370.16   39.90
   0   1  -9 1388.56   40.60
   0   1  -9 1384.96   38.30
   0   1  -9 1382.36   39.60
   0   1  -9 1358.06   40.70
   0   1  -9 1306.67   40.70
   0   1  -9 1348.07   38.40
   0   1  -9 1335.57   40.20
   0   1  -9 1327.27   36.90
   0   1  -9 1292.17   36.10
   0  -1   9 1375.96   37.70
   0  -1   9 1386.76   39.30
   0  -1   9 1367.16   38.30
   0  -1   9 1390.36   38.50
   0  -1   9 1390.56   39.20
   0  -1   9 1397.76   39.90
   0  -1   9 1361.06   39.70
  -1   1  -9  371.66   13.60
  -1   1  -9  375.36   11.50
  -1   1  -9  370.96   15.50
  -1   1  -9  390.96   15.10
  -1   1  -9  398.16   16.00
  -1   1  -9  373.06   13.50
  -1   1  -9  372.06   14.90
   1  -1   9  370.86   14.60
   1  -1   9  381.36   13.00
   1  -1   9  378.16   14.60
   1  -1   9  378.66   14.40
   1  -1   9  379.66   13.50
   1  -1   9  376.16   13.60
   1  -1   9  382.46   13.10
   1  -1   9  389.66   14.20
  -2   1  -9 1081.99   32.00
  -2   1  -9 1067.29   31.40
  -2   1  -9 1027.70   33.20
  -2   1  -9 1049.40   34.40
  -2   1  -9 1049.30   34.40
  -2   1  -9 1062.99   33.00
  -2   1  -9 1003.60   33.70
   2  -1   9 1046.50   31.90
   2  -1   9 1069.29   31.40
   2  -1   9 1058.79   30.40
   2  -1   9 1070.49   31.90
   2  -1   9 1066.89   31.90
   2  -1   9 1085.79   32.60
   2  -1   9 1026.40   32.50
   2  -1   9 1065.69   32.70
  -3   1  -9  406.96   16.60
  -3   1  -9  397.66   19.10
  -3   1  -9  389.76   17.30
  -3   1  -9  402.06   18.10
  -3   1  -9  405.76   15.50
  -3   1  -9  425.46   17.30
  -3   1  -9  403.96   18.50
   3  -1   9  397.56   13.90
   3  -1   9  417.96   16.50
   3  -1   9  389.06   15.90
   3  -1   9  410.96   14.90
   3  -1   9  400.56   16.20
   3  -1   9  401.66   16.00
   3  -1   9  408.46   15.90
   3  -1   9  393.66   16.50
   3  -1   9  419.26   16.80
  -4   1  -9   11.30    7.10
  -4   1  -9   21.30    5.20
  -4   1  -9   15.70    7.20
  -4   1  -9    8.80    5.70
  -4   1  -9   15.70    6.50
  -4   1  -9   12.30    5.50
  -4   1  -9    9.00    6.80
  -4   1  -9   13.50    6.80
  -4   1  -9    9.20    7.90
   4  -1   9   19.90    5.70
   4  -1   9   27.70    5.60
   4  -1   9   13.30    5.20
   4  -1   9   16.00    5.60
   4  -1   9    9.70    3.80
   4  -1   9    6.50    5.50
   4  -1   9   10.70    5.50
   4  -1   9    7.80    5.20
   4  -1   9   14.40    5.80
   6   0  -9  241.38   18.10
  -6   0   9  251.47   16.40
   5   0  -9  101.79    8.80
   5   0  -9   88.09    8.40
   5   0  -9   64.09    7.70
   5   0  -9   98.49   10.60
   5   0  -9   79.79    8.20
   5   0  -9   92.19    7.30
   5   0  -9   99.29   11.90
   5   0  -9   83.79    9.60
  -5   0   9  105.09   11.40
  -5   0   9   99.59   10.50
  -5   0   9  102.29    9.60
  -5   0   9   92.79   10.00
  -5   0   9   99.19   12.50
  -5   0   9   73.99   10.00
   4   0  -9  180.48   12.20
   4   0  -9  162.68    8.70
   4   0  -9  158.38   11.50
   4   0  -9  176.88   10.20
   4   0  -9  167.88    8.30
   4   0  -9  172.68   10.60
   4   0  -9  175.58   10.00
   4   0  -9  163.58   10.60
  -4   0   9  139.19    8.40
  -4   0   9  185.78    9.90
  -4   0   9  185.08   10.70
  -4   0   9  157.38   12.30
  -4   0   9  191.78   10.00
  -4   0   9  165.88   11.00
  -4   0   9  179.88   10.60
   3   0  -9  354.76   14.10
   3   0  -9  334.77   15.00
   3   0  -9  345.97   14.60
   3   0  -9  334.27   12.60
   3   0  -9  347.37   16.20
   3   0  -9  374.86   14.50
   3   0  -9  361.46   13.80
  -3   0   9  341.27   12.10
  -3   0   9  360.86   15.10
  -3   0   9  343.87   13.30
  -3   0   9  354.26   14.40
  -3   0   9  363.46   14.40
  -3   0   9  371.06   16.00
  -3   0   9  352.76   13.60
   2   0  -9    8.20    3.70
   2   0  -9    5.40    3.00
   2   0  -9   12.10    3.30
   2   0  -9   13.60    4.40
   2   0  -9    3.60    3.30
   2   0  -9    4.90    3.10
  -2   0   9   12.70    3.40
  -2   0   9   10.20    2.90
  -2   0   9    7.10    3.40
  -2   0   9    2.80    2.60
  -2   0   9   14.20    3.50
   1   0  -9 2454.65   65.09
   1   0  -9 2401.46   64.89
   1   0  -9 2354.96   66.29
   1   0  -9 2387.76   65.29
   1   0  -9 2331.97   65.59
   1   0  -9 2330.57   63.09
   1   0  -9 2353.76   64.39
  -1   0   9 2431.16   63.99
  -1   0   9 2409.46   64.59
  -1   0   9 2355.86   63.89
  -1   0   9 2220.08   63.39
  -1   0   9 2351.56   65.09
  -1   0   9 2141.69   62.19
  -1   0   9 2416.66   65.69
   0   0  -9   60.79    6.60
   0   0  -9   70.29    7.30
   0   0  -9   63.29    6.50
   0   0  -9   69.89    6.40
   0   0  -9   68.59    6.10
   0   0  -9   54.19    6.30
   0   0  -9   68.89    5.80
   0   0   9   69.89    5.20
   0   0   9   74.79    6.40
   0   0   9   66.79    4.80
   0   0   9   66.39    5.40
   0   0   9   66.19    6.00
   0   0   9   65.49    6.20
  -1   0  -9  870.81   24.70
  -1   0  -9  820.62   27.80
  -1   0  -9  875.61   26.90
  -1   0  -9  864.01   28.90
  -1   0  -9  874.91   27.70
  -1   0  -9  874.01   28.20
   1   0   9  887.31   27.70
   1   0   9  891.11   25.50
   1   0   9  883.81   28.20
   1   0   9  914.51   27.00
   1   0   9  917.51   26.20
   1   0   9  881.31   27.70
   1   0   9  891.41   27.30
  -2   0  -9  603.44   18.70
  -2   0  -9  567.74   22.40
  -2   0  -9  611.94   21.90
  -2   0  -9  576.04   21.40
  -2   0  -9  584.44   20.30
  -2   0  -9  609.84   21.30
  -2   0  -9  556.84   21.90
   2   0   9  637.24   21.10
   2   0   9  607.94   21.00
   2   0   9  635.54   21.00
   2   0   9  612.44   21.30
   2   0   9  599.34   20.70
   2   0   9  569.64   20.30
   2   0   9  570.84   18.00
   2   0   9  618.64   21.80
   2   0   9  624.44   19.00
  -3   0  -9   18.70    4.70
  -3   0  -9   14.20    5.70
  -3   0  -9   11.70    5.00
  -3   0  -9   10.30    5.80
  -3   0  -9    7.60    5.20
  -3   0  -9    6.70    5.50
  -3   0  -9    8.60    4.50
   3   0   9    3.60    4.30
   3   0   9   11.60    5.50
   3   0   9   16.50    3.50
   3   0   9   11.40    3.30
   3   0   9   14.70    4.80
   3   0   9    0.60    4.00
   3   0   9    4.00    4.40
   3   0   9   14.00    5.00
   3   0   9    8.60    4.50
   3   0   9   23.60    5.30
  -4   0  -9  416.36   19.10
  -4   0  -9  418.56   19.00
  -4   0  -9  373.66   19.30
  -4   0  -9  400.66   20.80
  -4   0  -9  387.56   19.50
  -4   0  -9  386.26   17.60
  -4   0  -9  375.26   20.10
  -4   0  -9  402.26   17.80
   4   0   9  396.46   17.50
   4   0   9  400.16   16.80
   4   0   9  395.16   14.30
   4   0   9  424.46   18.80
   4   0   9  430.16   18.70
   4   0   9  388.66   18.20
   4   0   9  407.46   17.50
   4   0   9  421.56   18.30
   5  -1  -9  278.77   15.70
   5  -1  -9  271.77   14.50
   5  -1  -9  269.97   15.10
   5  -1  -9  309.07   14.30
   5  -1  -9  284.97   17.10
   5  -1  -9  291.47   12.90
  -5   1   9  302.57   15.00
  -5   1   9  308.17   17.60
  -5   1   9  308.57   16.50
  -5   1   9  291.37   17.90
  -5   1   9  295.17   16.50
  -5   1   9  270.07   16.30
   4  -1  -9  492.55   19.40
   4  -1  -9  509.05   20.20
   4  -1  -9  520.75   20.50
   4  -1  -9  520.95   17.90
   4  -1  -9  521.35   19.90
   4  -1  -9  522.35   21.70
   4  -1  -9  550.54   18.00
  -4   1   9  491.35   20.60
  -4   1   9  528.75   18.80
  -4   1   9  479.45   19.80
  -4   1   9  523.65   22.10
  -4   1   9  538.55   19.80
  -4   1   9  511.85   17.20
  -4   1   9  486.15   20.70
   3  -1  -9  293.37   12.00
   3  -1  -9  292.27   11.80
   3  -1  -9  271.37   13.60
   3  -1  -9  290.67   13.40
   3  -1  -9  295.57   13.10
   3  -1  -9  273.57   13.20
  -3   1   9  301.57   13.40
  -3   1   9  289.27   13.10
  -3   1   9  294.07   11.60
  -3   1   9  294.77   12.90
  -3   1   9  311.47   12.20
  -3   1   9  286.47   13.50
  -3   1   9  296.47   14.90
  -3   1   9  289.97   11.70
   2  -1  -9 1148.89   35.70
   2  -1  -9 1130.19   33.70
   2  -1  -9 1173.78   35.10
   2  -1  -9 1163.88   34.00
   2  -1  -9 1173.88   35.80
   2  -1  -9 1156.48   35.50
  -2   1   9 1179.68   34.90
  -2   1   9 1188.68   34.00
  -2   1   9 1151.78   35.80
  -2   1   9 1178.38   34.40
  -2   1   9 1174.98   34.90
  -2   1   9 1172.58   35.10
  -2   1   9 1180.68   36.70
   1  -1  -9  632.24   21.70
   1  -1  -9  583.54   21.60
   1  -1  -9  636.34   20.40
   1  -1  -9  645.34   21.10
   1  -1  -9  624.04   22.10
   1  -1  -9  636.64   21.60
   1  -1  -9  635.94   20.70
  -1   1   9  644.04   20.40
  -1   1   9  638.44   20.80
  -1   1   9  605.04   18.60
  -1   1   9  615.14   22.00
  -1   1   9  658.43   20.80
  -1   1   9  641.24   21.60
  -1   1   9  652.53   20.10
  -1   1   9  623.44   21.20
   0  -1  -9  214.98   10.90
   0  -1  -9  214.18    9.70
   0  -1  -9  210.68   10.40
   0  -1  -9  202.18   10.80
   0  -1  -9  202.38   10.30
   0  -1  -9  197.38    9.90
   0   1   9  218.78   10.60
   0   1   9  210.78    9.70
   0   1   9  202.88    9.10
   0   1   9  207.78    9.60
   0   1   9  208.58   10.30
   0   1   9  203.48   10.20
   0   1   9  209.08   10.30
  -1  -1  -9 2276.47   63.29
  -1  -1  -9 2245.88   62.79
  -1  -1  -9 2360.06   61.49
  -1  -1  -9 2288.27   64.29
  -1  -1  -9 2283.27   64.29
  -1  -1  -9 2207.88   62.39
   1   1   9 2290.27   61.59
   1   1   9 2280.57   62.99
   1   1   9 1907.31   60.19
   1   1   9 2327.27   62.79
   1   1   9 2217.28   59.69
   1   1   9 2242.78   62.59
   1   1   9 2146.59   61.69
   1   1   9 2317.37   63.39
  -2  -1  -9    7.20    5.10
  -2  -1  -9    0.80    3.60
  -2  -1  -9    1.40    4.10
  -2  -1  -9   -0.70    4.10
  -2  -1  -9    3.10    4.20
  -2  -1  -9    3.90    3.70
   2   1   9    3.50    4.20
   2   1   9   -4.00    3.40
   2   1   9   -2.20    3.60
   2   1   9    0.30    3.60
   2   1   9    1.40    3.70
   2   1   9    1.80    3.20
   2   1   9    0.10    3.70
   2   1   9    3.60    4.40
   2   1   9    0.10    4.30
  -3  -1  -9  578.94   23.80
  -3  -1  -9  585.14   22.30
  -3  -1  -9  600.64   22.20
  -3  -1  -9  557.54   23.10
  -3  -1  -9  588.24   21.70
  -3  -1  -9  587.74   21.80
   3   1   9  565.54   21.10
   3   1   9  611.94   21.10
   3   1   9  583.24   21.10
   3   1   9  583.84   22.20
   3   1   9  574.34   22.40
   3   1   9  564.24   21.10
   3   1   9  586.84   21.70
   3   1   9  553.84   18.90
   3   1   9  580.04   22.60
   3   1   9  568.84   19.00
  -4  -1  -9  110.09   12.80
  -4  -1  -9  122.89   11.70
  -4  -1  -9  118.69   12.20
  -4  -1  -9  105.49   12.20
  -4  -1  -9  116.29   13.80
  -4  -1  -9  109.79   11.40
  -4  -1  -9  123.29   14.30
   4   1   9  133.69   11.00
   4   1   9  117.09   12.40
   4   1   9  108.59    8.20
   4   1   9  114.39   11.90
   4   1   9  105.79   11.50
   4   1   9  134.39   12.10
   4   1   9  118.59   10.90
   4   1   9  123.49   11.10
   4   1   9  125.69   12.60
   5  -2  -9    3.20    5.20
   5  -2  -9    4.00    5.00
   5  -2  -9    5.50    6.80
   5  -2  -9   -4.40    4.80
   5  -2  -9    3.00    5.40
   5  -2  -9   -3.30    6.20
   5  -2  -9   -4.30    6.10
   5  -2  -9  -13.80    6.60
  -5   2   9   10.20    8.30
  -5   2   9    8.00    7.00
  -5   2   9    6.90    7.10
  -5   2   9    5.50    5.80
  -5   2   9    6.60    8.30
  -5   2   9    3.10    8.40
  -5   2   9    5.60    7.10
   4  -2  -9   56.29    7.70
   4  -2  -9   55.49    7.80
   4  -2  -9   59.79    7.40
   4  -2  -9   61.59    6.90
   4  -2  -9   60.99    7.50
   4  -2  -9   64.89    8.60
  -4   2   9   68.79    9.00
  -4   2   9   76.79   10.10
  -4   2   9   66.99    9.10
  -4   2   9   63.99    8.30
  -4   2   9   68.79    7.90
  -4   2   9   66.09    7.70
  -4   2   9   74.79   10.50
  -4   2   9   77.39    8.20
   3  -2  -9  229.18   12.20
   3  -2  -9  255.07   13.30
   3  -2  -9  247.38   11.80
   3  -2  -9  253.67   13.00
   3  -2  -9  264.07   13.20
   3  -2  -9  238.48   10.10
  -3   2   9  246.78   11.70
  -3   2   9  275.97   15.40
  -3   2   9  245.48   13.10
  -3   2   9  252.67   13.40
  -3   2   9  257.17   11.30
  -3   2   9  265.57   13.30
  -3   2   9  260.07   13.40
  -3   2   9  261.27   11.00
   2  -2  -9  392.76   14.60
   2  -2  -9  367.36   15.00
   2  -2  -9  357.66   12.70
   2  -2  -9  346.17   15.30
   2  -2  -9  352.46   15.10
   2  -2  -9  353.66   15.40
  -2   2   9  349.77   14.20
  -2   2   9  361.96   14.90
  -2   2   9  368.06   14.20
  -2   2   9  372.86   17.30
  -2   2   9  357.06   15.30
  -2   2   9  347.97   12.80
  -2   2   9  360.46   16.50
  -2   2   9  302.27   14.90
  -2   2   9  355.36   15.10
   1  -2  -9  610.74   22.70
   1  -2  -9  652.03   22.20
   1  -2  -9  672.83   22.60
   1  -2  -9  668.93   21.00
   1  -2  -9  647.34   21.80
   1  -2  -9  662.43   22.80
   1  -2  -9  649.83   22.60
  -1   2   9  655.43   22.30
  -1   2   9  662.13   23.30
  -1   2   9  666.63   22.00
  -1   2   9  641.94   22.40
  -1   2   9  663.63   22.50
  -1   2   9  622.74   24.00
  -1   2   9  605.64   21.10
  -1   2   9  654.23   22.00
  -1   2   9  656.23   22.40
   0  -2  -9  740.13   24.80
   0  -2  -9  749.33   24.70
   0  -2  -9  701.93   24.10
   0  -2  -9  710.43   23.80
   0  -2  -9  743.53   24.10
   0   2   9  700.83   23.60
   0   2   9  736.03   24.40
   0   2   9  723.93   23.90
   0   2   9  669.93   23.40
   0   2   9  737.33   24.50
   0   2   9  678.83   24.00
   0   2   9  645.74   21.80
   0   2   9  731.83   23.60
   0   2   9  675.83   24.90
  -1  -2  -9    7.00    3.90
  -1  -2  -9   -0.80    3.70
  -1  -2  -9    6.90    3.50
  -1  -2  -9   12.50    3.90
  -1  -2  -9   11.20    3.90
  -1  -2  -9    4.20    4.20
   1   2   9   16.80    4.70
   1   2   9   17.60    4.40
   1   2   9   11.00    4.80
   1   2   9   13.80    4.30
   1   2   9    5.70    4.00
   1   2   9    2.70    4.30
   1   2   9    3.90    4.10
   1   2   9   12.10    4.50
   1   2   9    3.20    3.70
  -2  -2  -9  537.85   20.20
  -2  -2  -9  501.75   21.10
  -2  -2  -9  544.35   21.70
  -2  -2  -9  527.35   20.00
  -2  -2  -9  549.65   17.40
  -2  -2  -9  525.95   20.20
   2   2   9  540.95   19.20
   2   2   9  528.05   21.30
   2   2   9  486.25   20.40
   2   2   9  537.75   21.00
   2   2   9  547.15   19.80
   2   2   9  518.05   18.50
   2   2   9  544.85   20.10
   2   2   9  507.85   20.30
   2   2   9  508.15   18.00
  -3  -2  -9  536.95   23.10
  -3  -2  -9  494.55   22.00
  -3  -2  -9  550.74   21.40
  -3  -2  -9  546.05   21.30
  -3  -2  -9  537.55   21.40
  -3  -2  -9  509.75   19.60
   3   2   9  537.15   21.50
   3   2   9  551.04   22.80
   3   2   9  490.25   20.00
   3   2   9  532.65   22.70
   3   2   9  494.75   18.70
   3   2   9  585.54   23.00
   3   2   9  520.85   19.70
   3   2   9  507.05   21.70
  -4  -2  -9   85.09   11.30
  -4  -2  -9   81.99   10.30
  -4  -2  -9   79.29   10.10
  -4  -2  -9   69.99    9.60
  -4  -2  -9  107.29   13.30
   4   2   9  100.89   12.10
   4   2   9   85.79   11.10
   4   2   9  108.89   12.10
   4   2   9   86.99   10.50
   4   2   9   91.19   11.60
   4   2   9  105.49   11.40
   4   2   9   80.79   11.40
   5  -3  -9   61.89    9.50
   5  -3  -9   63.79   10.10
   5  -3  -9   59.99    9.30
   5  -3  -9   82.19   10.50
   5  -3  -9   65.89   10.20
   5  -3  -9   37.10    8.90
   5  -3  -9   69.79    8.40
   5  -3  -9   63.59    8.60
  -5   3   9   69.59   12.20
  -5   3   9   85.09   11.70
  -5   3   9   88.29    9.80
  -5   3   9   71.09   12.00
  -5   3   9   93.19   14.20
  -5   3   9   87.89   13.70
  -5   3   9   88.89   12.00
   4  -3  -9  467.95   22.30
   4  -3  -9  539.35   21.30
   4  -3  -9  544.25   22.10
   4  -3  -9  533.75   21.60
   4  -3  -9  560.14   23.50
   4  -3  -9  526.85   22.20
  -4   3   9  559.14   19.60
  -4   3   9  582.64   21.10
  -4   3   9  555.54   20.00
  -4   3   9  545.55   24.90
  -4   3   9  546.85   23.60
  -4   3   9  592.14   26.10
  -4   3   9  548.35   23.10
  -4   3   9  568.04   24.60
  -4   3   9  612.64   27.70
   3  -3  -9   14.50    5.50
   3  -3  -9   -7.10    4.10
   3  -3  -9   -3.80    4.30
   3  -3  -9   -4.30    4.80
   3  -3  -9   -0.40    5.10
  -3   3   9   -4.60    6.80
  -3   3   9    6.00    4.40
  -3   3   9    2.10    6.00
  -3   3   9    2.90    5.30
  -3   3   9    5.40    7.00
  -3   3   9   14.90    6.00
  -3   3   9    5.50    5.10
  -3   3   9   -3.40    6.20
  -3   3   9    2.50    4.40
   2  -3  -9  211.68   11.80
   2  -3  -9  228.38   12.50
   2  -3  -9  209.18   11.80
   2  -3  -9  221.28   12.30
   2  -3  -9  218.58   12.40
  -2   3   9  211.28   11.40
  -2   3   9  227.78   12.60
  -2   3   9  206.38   13.50
  -2   3   9  209.08   12.00
  -2   3   9  214.28   14.60
  -2   3   9  207.28    9.10
  -2   3   9  217.78   14.20
  -2   3   9  200.18    9.20
  -2   3   9  222.98   12.10
   1  -3  -9  559.24   20.50
   1  -3  -9  540.55   21.00
   1  -3  -9  557.44   20.50
   1  -3  -9  543.45   20.80
   1  -3  -9  560.54   20.90
   1  -3  -9  577.54   20.80
   1  -3  -9  545.45   17.90
  -1   3   9  567.94   20.80
  -1   3   9  601.34   22.10
  -1   3   9  516.85   19.60
  -1   3   9  548.35   21.20
  -1   3   9  539.35   22.80
  -1   3   9  571.94   21.10
  -1   3   9  570.74   21.00
  -1   3   9  504.35   21.20
  -1   3   9  601.04   21.30
   0  -3  -9  271.57   12.80
   0  -3  -9  247.78   12.80
   0  -3  -9  267.27   13.20
   0  -3  -9  271.87   13.70
   0  -3  -9  264.97   13.30
   0  -3  -9  266.67   13.10
   0   3   9  266.37   13.30
   0   3   9  280.47   13.70
   0   3   9  243.28   13.60
   0   3   9  246.38   11.80
   0   3   9  255.37   13.40
   0   3   9  264.07   13.50
   0   3   9  261.87   14.00
   0   3   9  267.47   13.20
   0   3   9  269.27   13.50
   0   3   9  236.58   13.90
  -1  -3  -9  797.32   27.20
  -1  -3  -9  796.22   27.10
  -1  -3  -9  784.52   27.90
  -1  -3  -9  796.92   27.80
  -1  -3  -9  790.82   26.90
   1   3   9  774.52   28.10
   1   3   9  817.32   27.50
   1   3   9  806.12   28.50
   1   3   9  827.22   26.90
   1   3   9  790.42   27.10
   1   3   9  799.22   28.30
   1   3   9  826.72   27.10
  -2  -3  -9  404.26   17.30
  -2  -3  -9  415.56   17.50
  -2  -3  -9  418.76   19.10
  -2  -3  -9  401.26   18.00
  -2  -3  -9  407.36   18.60
   2   3   9  431.46   19.80
   2   3   9  396.56   18.80
   2   3   9  378.26   18.40
   2   3   9  404.46   16.70
   2   3   9  389.16   16.50
   2   3   9  413.86   17.60
  -3  -3  -9   72.19    9.10
  -3  -3  -9   60.99    9.50
  -3  -3  -9   62.39    8.20
  -3  -3  -9   86.19   10.60
  -3  -3  -9   74.39   11.10
   3   3   9   82.59   10.50
   3   3   9   76.09   10.40
   3   3   9   76.69    9.80
   3   3   9   72.79   10.40
   3   3   9   71.69    9.80
   3   3   9   81.89   11.70
   4  -4  -9  -10.40    6.30
   4  -4  -9   -8.90    7.20
   4  -4  -9    5.70    7.30
   4  -4  -9   13.20    6.80
   4  -4  -9    2.30    6.90
   4  -4  -9    8.20    6.90
  -4   4   9    3.50    8.60
  -4   4   9    4.60    8.70
  -4   4   9   10.30    9.60
  -4   4   9   -6.30    6.90
  -4   4   9   -3.90    6.50
  -4   4   9  -17.20    9.40
  -4   4   9    0.40    9.70
  -4   4   9    9.00    9.20
   3  -4  -9   23.00    6.70
   3  -4  -9   30.80    7.10
   3  -4  -9   22.50    6.80
   3  -4  -9   43.50    7.70
   3  -4  -9   32.70    7.50
  -3   4   9   26.30    7.90
  -3   4   9   23.60    8.40
  -3   4   9   24.40    8.40
  -3   4   9   21.90    9.10
  -3   4   9   28.30    7.00
  -3   4   9   42.80   10.50
  -3   4   9   15.50    9.00
  -3   4   9   33.70    7.50
   2  -4  -9  474.35   20.00
   2  -4  -9  456.85   20.00
   2  -4  -9  511.15   20.10
   2  -4  -9  469.35   20.00
   2  -4  -9  477.65   20.30
  -2   4   9  466.95   20.50
  -2   4   9  546.35   20.60
  -2   4   9  436.36   21.70
  -2   4   9  468.25   23.70
  -2   4   9  451.45   20.40
  -2   4   9  525.05   22.00
  -2   4   9  496.55   23.70
  -2   4   9  482.35   20.60
   1  -4  -9   16.10    5.60
   1  -4  -9   14.20    5.30
   1  -4  -9   14.20    5.80
   1  -4  -9    9.90    5.50
   1  -4  -9    3.60    5.30
   1  -4  -9    6.30    5.10
  -1   4   9    5.00    5.90
  -1   4   9   13.60    6.30
  -1   4   9    9.90    5.60
  -1   4   9    3.70    6.70
  -1   4   9   22.80    6.80
  -1   4   9   10.30    6.30
  -1   4   9   17.10    7.90
  -1   4   9    9.40    6.30
  -1   4   9   12.80    7.00
   0  -4  -9  189.98   12.50
   0  -4  -9  203.98   12.10
   0  -4  -9  185.78   12.30
   0  -4  -9  178.28   13.00
   0  -4  -9  184.18   12.70
   0  -4  -9  192.88   12.30
   0   4   9  196.98   12.60
   0   4   9  173.88   12.30
   0   4   9  199.38   13.20
   0   4   9  209.68   13.80
   0   4   9  202.88   14.10
   0   4   9  207.68   14.40
   0   4   9  192.08   14.00
   0   4   9  191.28   13.50
  -1  -4  -9  216.28   13.00
  -1  -4  -9  219.88   13.90
  -1  -4  -9  224.88   13.50
  -1  -4  -9  219.28   13.20
  -1  -4  -9  243.68   14.20
  -1  -4  -9  226.08   13.50
   1   4   9  230.88   15.90
   1   4   9  257.57   15.90
   1   4   9  251.47   15.40
   1   4   9  238.98   13.10
   1   4   9  236.78   14.60
   1   4   9  239.08   14.10
  -2  -4  -9   14.30    6.80
  -2  -4  -9   13.10    7.80
  -2  -4  -9   12.70    7.10
  -2  -4  -9   18.00    6.40
  -2  -4  -9   13.40    5.90
   2   4   9   19.00    9.00
   2   4   9   27.30    8.30
   2   4   9    9.30    7.80
   2   4   9    5.30    7.50
   2  -5  -9    0.30    6.80
   2  -5  -9  -10.70    6.30
   2  -5  -9    2.90    6.30
   2  -5  -9  -14.50    5.90
   2  -5  -9   -3.50    6.40
  -2   5   9   -0.10    8.40
  -2   5   9   -2.60    8.00
  -2   5   9    0.60    7.30
  -2   5   9    7.80    9.10
  -2   5   9   -2.30    8.90
  -2   5   9  -10.60    8.80
  -2   5   9  -12.30    9.80
  -2   5   9   -0.40    8.80
   1  -5  -9   43.60    8.00
   1  -5  -9   57.59    8.50
   1  -5  -9   58.69    8.40
   1  -5  -9   64.09    9.20
   1  -5  -9   73.99    9.70
  -1   5   9   86.19   12.90
  -1   5   9   70.19   10.00
  -1   5   9   72.39   11.50
  -1   5   9   46.20    9.80
  -1   5   9   59.89    9.30
  -1   5   9   70.19   10.80
   0  -5  -9  482.25   20.90
   0  -5  -9  446.46   21.30
   0  -5  -9  504.25   20.80
   0  -5  -9  441.76   20.40
   0  -5  -9  461.85   19.70
   0  -5  -9  490.85   21.70
   0   5   9  459.15   23.60
   0   5   9  548.95   23.90
   0   5   9  493.25   23.90
   0   5   9  481.85   23.40
   0   5   9  408.86   22.90
   2   6 -10  390.26   20.30
   2   6 -10  394.46   20.60
   2   6 -10  401.66   20.10
   2   6 -10  364.36   21.10
  -2  -6  10  441.56   18.00
  -2  -6  10  383.76   14.50
  -2  -6  10  429.86   16.10
  -2  -6  10  393.26   14.90
  -2  -6  10  398.96   16.20
  -2  -6  10  403.16   14.70
   1   6 -10  575.14   25.30
   1   6 -10  574.24   24.40
   1   6 -10  516.95   23.40
   1   6 -10  595.84   23.10
  -1  -6  10  556.14   19.50
  -1  -6  10  538.95   18.80
  -1  -6  10  559.64   19.30
  -1  -6  10  574.34   21.90
  -1  -6  10  559.94   19.90
  -1  -6  10  555.04   20.10
   0   6 -10  261.27   15.00
   0   6 -10  229.18   15.80
   0   6 -10  227.38   17.80
   0   6 -10  237.58   13.70
   0   6 -10  240.18   16.60
   0  -6  10  246.18   12.20
   0  -6  10  244.78   12.40
   0  -6  10  238.48   11.90
   0  -6  10  237.88   12.60
   0  -6  10  238.28   11.60
  -1   6 -10  723.73   29.50
  -1   6 -10  746.43   28.40
  -1   6 -10  779.22   29.30
  -1   6 -10  764.32   31.40
   1  -6  10  693.93   24.80
   1  -6  10  796.22   25.70
   1  -6  10  740.83   25.60
   1  -6  10  722.63   25.40
   1  -6  10  736.53   25.30
  -2   6 -10   47.00    9.40
  -2   6 -10   29.30    9.40
  -2   6 -10   40.40    7.30
  -2   6 -10   23.60    9.90
  -2   6 -10   44.30   10.10
   2  -6  10   29.90    6.40
   2  -6  10   40.90    7.20
   2  -6  10   34.60    6.90
   2  -6  10   44.10    7.10
   2  -6  10   31.70    6.50
   3   5 -10  583.64   24.10
   3   5 -10  583.34   25.20
   3   5 -10  593.24   25.30
  -3  -5  10  550.14   19.20
  -3  -5  10  584.94   21.30
  -3  -5  10  593.34   21.70
  -3  -5  10  533.55   19.40
  -3  -5  10  576.04   19.40
   2   5 -10  132.39   11.80
   2   5 -10  125.99   12.10
   2   5 -10  125.09   12.10
   2   5 -10  116.79   12.80
  -2  -5  10  118.89    7.40
  -2  -5  10  133.99    8.30
  -2  -5  10  130.09    9.80
  -2  -5  10  120.19    8.10
  -2  -5  10  110.39    7.20
  -2  -5  10  124.29    9.00
   1   5 -10   45.00    7.00
   1   5 -10   39.60    8.20
   1   5 -10   44.70    8.00
   1   5 -10   64.79    9.00
  -1  -5  10   53.09    6.40
  -1  -5  10   36.90    5.50
  -1  -5  10   43.40    6.00
  -1  -5  10   50.79    5.80
  -1  -5  10   37.40    6.10
  -1  -5  10   54.09    5.70
   0   5 -10  708.03   26.80
   0   5 -10  688.13   24.40
   0   5 -10  740.33   28.70
   0   5 -10  748.33   27.20
   0   5 -10  707.03   25.80
   0   5 -10  668.83   23.80
   0  -5  10  698.43   23.60
   0  -5  10  716.53   23.60
   0  -5  10  713.53   23.30
   0  -5  10  717.03   23.30
   0  -5  10  707.43   23.10
  -1   5 -10  305.97   14.90
  -1   5 -10  285.07   16.40
  -1   5 -10  278.77   16.70
  -1   5 -10  316.97   15.80
  -1   5 -10  295.07   12.80
  -1   5 -10  271.67   13.60
  -1   5 -10  316.77   18.60
   1  -5  10  291.07   13.60
   1  -5  10  296.27   13.40
   1  -5  10  302.67   13.70
   1  -5  10  320.97   13.60
   1  -5  10  292.87   13.30
  -2   5 -10  658.33   28.90
  -2   5 -10  629.34   26.30
  -2   5 -10  686.23   27.20
  -2   5 -10  648.74   24.40
  -2   5 -10  674.93   25.70
  -2   5 -10  652.63   24.40
  -2   5 -10  637.04   23.60
   2  -5  10  686.13   23.90
   2  -5  10  713.33   23.00
   2  -5  10  637.44   23.60
   2  -5  10  667.53   23.90
   2  -5  10  574.34   22.70
  -3   5 -10  566.94   26.20
  -3   5 -10  470.15   21.20
  -3   5 -10  512.85   22.20
  -3   5 -10  485.65   24.20
  -3   5 -10  493.15   26.80
  -3   5 -10  523.05   22.70
  -3   5 -10  504.45   22.60
   3  -5  10  516.25   21.10
   3  -5  10  531.75   21.20
   3  -5  10  526.45   21.50
   3  -5  10  515.65   19.50
   4   4 -10   96.69   12.30
   4   4 -10  104.99    9.40
   4   4 -10  103.99   13.70
  -4  -4  10   85.29    7.70
  -4  -4  10   88.59   10.40
  -4  -4  10   81.49    7.00
  -4  -4  10   97.89    9.40
  -4  -4  10   84.49    8.80
  -4  -4  10  104.59   10.00
   3   4 -10   24.70    7.20
   3   4 -10   33.60    5.00
   3   4 -10   23.00    6.80
   3   4 -10   22.90    6.60
  -3  -4  10   30.50    5.70
  -3  -4  10   27.60    4.60
  -3  -4  10   24.30    4.50
  -3  -4  10   25.90    5.70
  -3  -4  10   25.10    4.80
   2   4 -10   26.80    6.70
   2   4 -10   29.50    6.40
   2   4 -10   35.50    6.40
   2   4 -10   31.20    6.50
   2   4 -10   31.00    5.60
  -2  -4  10   31.10    4.10
  -2  -4  10   23.30    4.00
  -2  -4  10   31.50    5.10
  -2  -4  10   21.00    4.50
  -2  -4  10   36.40    4.60
  -2  -4  10   18.60    4.70
   1   4 -10  771.82   24.10
   1   4 -10  871.91   28.70
   1   4 -10  782.52   26.20
   1   4 -10  808.02   28.70
   1   4 -10  879.71   28.70
   1   4 -10  821.32   29.90
  -1  -4  10  868.01   25.50
  -1  -4  10  831.02   26.30
  -1  -4  10  889.51   26.20
  -1  -4  10  856.11   27.20
  -1  -4  10  830.42   25.80
  -1  -4  10  828.02   26.50
   0   4 -10   39.00    6.70
   0   4 -10   29.40    6.30
   0   4 -10   35.00    4.70
   0   4 -10   33.10    5.50
   0   4 -10   29.10    6.70
   0   4 -10   30.20    6.40
   0  -4  10   33.10    4.50
   0  -4  10   26.90    4.20
   0  -4  10   23.30    3.70
   0  -4  10   33.70    5.00
   0  -4  10   29.10    4.70
  -1   4 -10  390.66   15.90
  -1   4 -10  398.76   16.70
  -1   4 -10  397.66   18.40
  -1   4 -10  395.96   17.80
  -1   4 -10  406.86   17.40
  -1   4 -10  419.46   17.20
  -1   4 -10  405.46   19.80
  -1   4 -10  370.36   15.80
   1  -4  10  405.76   15.70
   1  -4  10  390.76   16.00
   1  -4  10  414.46   15.10
   1  -4  10  409.26   15.70
   1  -4  10  420.16   16.20
  -2   4 -10  507.15   23.70
  -2   4 -10  529.65   21.90
  -2   4 -10  501.05   20.20
  -2   4 -10  473.55   19.70
  -2   4 -10  513.75   20.30
  -2   4 -10  416.76   18.10
  -2   4 -10  489.65   22.10
  -2   4 -10  513.95   20.40
   2  -4  10  500.75   19.40
   2  -4  10  528.65   18.00
   2  -4  10  506.95   19.00
   2  -4  10  520.75   19.40
   2  -4  10  519.95   19.20
  -3   4 -10   -1.60    8.00
  -3   4 -10   15.60    6.80
  -3   4 -10   16.20    6.30
  -3   4 -10   16.60    8.60
  -3   4 -10    2.40    8.60
  -3   4 -10   13.40    6.60
  -3   4 -10   -9.40    6.60
   3  -4  10    3.50    4.70
   3  -4  10   12.20    5.40
   3  -4  10    8.50    5.20
   3  -4  10    6.50    5.20
   3  -4  10    0.20    4.60
   3  -4  10    0.70    5.30
   5   3 -10  296.77   19.70
   5   3 -10  285.07   14.80
   5   3 -10  237.08   13.00
   5   3 -10  218.88   12.80
   5   3 -10  296.27   17.30
  -5  -3  10  271.57   14.10
  -5  -3  10  278.87   12.40
  -5  -3  10  279.27   15.50
  -5  -3  10  266.27   14.90
  -5  -3  10  269.07   14.90
  -5  -3  10  299.47   17.50
   4   3 -10  188.38   14.70
   4   3 -10  175.88    9.80
   4   3 -10  191.58   10.30
   4   3 -10  198.48   13.30
   4   3 -10  160.58    9.80
  -4  -3  10  173.98    9.00
  -4  -3  10  167.98   12.00
  -4  -3  10  173.28   10.00
  -4  -3  10  171.48   10.80
  -4  -3  10  184.48   11.50
  -4  -3  10  183.88   11.00
   3   3 -10  341.87   15.00
   3   3 -10  371.46   18.10
   3   3 -10  372.76   13.30
   3   3 -10  347.57   16.20
   3   3 -10  357.86   12.10
  -3  -3  10  350.46   13.10
  -3  -3  10  377.06   15.00
  -3  -3  10  354.66   15.40
  -3  -3  10  350.46   14.00
  -3  -3  10  338.37   14.60
   2   3 -10  483.95   19.00
   2   3 -10  487.85   19.90
   2   3 -10  469.45   19.70
   2   3 -10  461.75   18.10
   2   3 -10  497.35   15.80
   2   3 -10  465.95   17.40
  -2  -3  10  475.55   15.80
  -2  -3  10  478.45   17.70
  -2  -3  10  442.96   17.00
  -2  -3  10  435.56   16.30
  -2  -3  10  495.85   17.70
  -2  -3  10  466.55   16.00
   1   3 -10  302.77   11.80
   1   3 -10  309.27   15.20
   1   3 -10  272.07   12.60
   1   3 -10  306.87   12.10
   1   3 -10  302.27   14.40
   1   3 -10  319.77   13.90
   1   3 -10  297.07   13.40
   1   3 -10  304.27   14.40
  -1  -3  10  313.17   11.70
  -1  -3  10  308.27   12.00
  -1  -3  10  317.17   12.30
  -1  -3  10  330.87   13.00
  -1  -3  10  312.57   13.10
  -1  -3  10  306.37   12.80
   0   3 -10   53.89    6.50
   0   3 -10   44.60    7.00
   0   3 -10   54.19    6.30
   0   3 -10   47.10    5.80
   0   3 -10   36.00    5.80
   0   3 -10   43.50    5.50
   0   3 -10   47.60    6.30
   0   3 -10   41.80    6.30
   0   3 -10   48.30    5.60
   0  -3  10   49.80    5.60
   0  -3  10   47.60    5.80
   0  -3  10   47.50    5.70
   0  -3  10   46.20    4.90
   0  -3  10   38.10    4.60
   0  -3  10   39.00    5.00
  -1   3 -10 1597.64   46.10
  -1   3 -10 1553.54   46.20
  -1   3 -10 1507.75   42.50
  -1   3 -10 1518.45   45.40
  -1   3 -10 1557.94   45.70
  -1   3 -10 1572.04   48.00
  -1   3 -10 1600.04   46.40
  -1   3 -10 1557.84   48.80
  -1   3 -10 1570.14   47.00
   1  -3  10 1514.35   44.90
   1  -3  10 1640.54   44.50
   1  -3  10 1578.24   45.20
   1  -3  10 1523.25   45.40
   1  -3  10 1567.44   45.70
  -2   3 -10   33.10    5.60
  -2   3 -10   29.30    6.20
  -2   3 -10   34.70    6.40
  -2   3 -10   35.10    8.00
  -2   3 -10   43.90    7.30
  -2   3 -10   40.00    7.20
  -2   3 -10   28.10    5.90
  -2   3 -10   37.50    5.10
   2  -3  10   29.80    4.80
   2  -3  10   35.60    5.50
   2  -3  10   33.60    5.60
   2  -3  10   45.50    5.80
   2  -3  10   36.50    4.90
   2  -3  10   43.60    6.10
   2  -3  10   31.70    5.50
  -3   3 -10  505.05   24.60
  -3   3 -10  523.05   21.60
  -3   3 -10  537.35   20.20
  -3   3 -10  483.05   17.20
  -3   3 -10  526.85   21.60
  -3   3 -10  511.35   21.80
  -3   3 -10  527.55   22.70
  -3   3 -10  539.85   21.80
   3  -3  10  502.95   18.40
   3  -3  10  515.05   20.60
   3  -3  10  534.95   20.40
   3  -3  10  461.85   19.10
   3  -3  10  520.05   18.10
   3  -3  10  532.15   18.40
   3  -3  10  508.95   20.20
  -4   3 -10  237.48   17.20
  -4   3 -10  244.68   16.00
  -4   3 -10  249.28   16.90
  -4   3 -10  199.98   13.80
  -4   3 -10  198.78   15.20
  -4   3 -10  186.78   11.40
  -4   3 -10  184.58   16.40
  -4   3 -10  237.08   19.50
   4  -3  10  212.68   13.80
   4  -3  10  206.98   11.40
   4  -3  10  199.78   13.50
   4  -3  10  185.88   13.70
   4  -3  10  192.98   14.50
   4  -3  10  194.68   13.10
   4  -3  10  210.18   13.30
   5   2 -10    3.00    4.00
   5   2 -10    3.40    6.70
   5   2 -10   -3.20    5.00
   5   2 -10  -10.30    4.90
   5   2 -10   -5.90    6.90
   5   2 -10    7.20    5.30
  -5  -2  10    4.60    5.60
  -5  -2  10    3.50    5.30
  -5  -2  10    4.20    4.60
  -5  -2  10    4.80    4.60
  -5  -2  10   -4.70    4.50
   4   2 -10  157.88   11.30
   4   2 -10  150.78    9.00
   4   2 -10  141.79    8.30
   4   2 -10  177.18   12.20
   4   2 -10  162.68   13.80
   4   2 -10  164.68    9.00
   4   2 -10  156.88    8.90
  -4  -2  10  170.98   10.80
  -4  -2  10  178.38   11.00
  -4  -2  10  161.48   10.60
  -4  -2  10  167.38   10.20
  -4  -2  10  153.68    8.80
  -4  -2  10  174.18   11.90
   3   2 -10  187.18    8.70
   3   2 -10  175.18    8.30
   3   2 -10  197.88   11.30
   3   2 -10  190.38    8.90
   3   2 -10  200.78    9.30
   3   2 -10  202.18   13.00
   3   2 -10  188.38   11.40
  -3  -2  10  197.38    9.10
  -3  -2  10  184.58   11.10
  -3  -2  10  186.58    9.70
  -3  -2  10  189.98   10.60
  -3  -2  10  191.38   10.20
   2   2 -10  141.29    6.50
   2   2 -10  139.29    8.10
   2   2 -10  134.59    9.30
   2   2 -10  149.09   10.60
   2   2 -10  137.19    7.90
   2   2 -10  151.88    9.70
   2   2 -10  157.38   10.40
   2   2 -10  144.59    6.80
  -2  -2  10  134.79    8.40
  -2  -2  10  166.08    8.40
  -2  -2  10  144.99    9.10
  -2  -2  10  142.19    7.40
  -2  -2  10  148.49    8.30
   1   2 -10  522.25   17.30
   1   2 -10  520.15   20.10
   1   2 -10  518.15   18.80
   1   2 -10  498.15   15.60
   1   2 -10  536.45   18.50
   1   2 -10  533.35   19.80
   1   2 -10  523.25   18.80
   1   2 -10  529.75   18.40
  -1  -2  10  536.85   17.50
  -1  -2  10  523.85   17.70
  -1  -2  10  537.05   18.10
  -1  -2  10  541.05   19.00
  -1  -2  10  530.15   18.60
  -1  -2  10  544.45   18.20
   0   2 -10  492.15   15.30
   0   2 -10  535.35   20.20
   0   2 -10  514.95   18.60
   0   2 -10  529.35   16.80
   0   2 -10  482.25   18.30
   0   2 -10  476.85   15.70
   0   2 -10  491.25   19.40
   0   2 -10  500.95   18.50
   0   2 -10  523.85   19.70
   0   2 -10  497.35   17.80
   0  -2  10  516.05   17.00
   0  -2  10  521.75   16.20
   0  -2  10  518.85   18.30
   0  -2  10  500.45   18.20
   0  -2  10  508.45   17.60
   0  -2  10  531.85   17.50
   0  -2  10  517.95   17.60
  -1   2 -10    8.20    3.10
  -1   2 -10   13.80    4.90
  -1   2 -10    7.30    4.20
  -1   2 -10    9.80    4.90
  -1   2 -10    7.30    4.80
  -1   2 -10   10.10    4.50
  -1   2 -10    8.80    3.90
  -1   2 -10   11.60    4.20
   1  -2  10    8.60    3.20
   1  -2  10    6.50    3.20
   1  -2  10    9.30    3.50
   1  -2  10   12.00    3.10
   1  -2  10   10.70    3.20
   1  -2  10   12.90    3.10
   1  -2  10    5.50    3.40
  -2   2 -10  445.36   15.50
  -2   2 -10  451.45   16.40
  -2   2 -10  438.86   18.50
  -2   2 -10  432.66   17.80
  -2   2 -10  417.46   17.80
  -2   2 -10  459.25   19.00
  -2   2 -10  449.46   17.50
  -2   2 -10  423.76   19.70
   2  -2  10  438.86   15.40
   2  -2  10  432.86   16.90
   2  -2  10  438.56   16.40
   2  -2  10  436.56   17.40
   2  -2  10  440.16   16.20
   2  -2  10  417.66   16.40
   2  -2  10  426.16   17.00
   2  -2  10  435.46   15.70
  -3   2 -10  894.61   32.30
  -3   2 -10  815.32   29.20
  -3   2 -10  865.81   30.00
  -3   2 -10  807.32   26.40
  -3   2 -10  855.41   27.10
  -3   2 -10  835.52   31.10
  -3   2 -10  806.32   28.70
  -3   2 -10  888.41   30.60
   3  -2  10  846.22   27.50
   3  -2  10  836.62   28.60
   3  -2  10  821.42   25.80
   3  -2  10  889.11   28.60
   3  -2  10  866.11   29.10
   3  -2  10  855.41   28.10
   3  -2  10  840.82   26.80
   3  -2  10  856.51   28.70
  -4   2 -10   39.40    8.60
  -4   2 -10   45.00    8.50
  -4   2 -10   49.99    8.80
  -4   2 -10   48.90   11.20
  -4   2 -10   46.50    6.90
  -4   2 -10   38.30    7.10
  -4   2 -10   47.90    9.50
  -4   2 -10   42.90    9.90
   4  -2  10   61.19    8.60
   4  -2  10   41.70    7.60
   4  -2  10   52.79    8.50
   4  -2  10   47.10    7.80
   4  -2  10   34.10    6.80
   4  -2  10   49.50    7.80
   4  -2  10   43.10    7.50
   4  -2  10   51.79    5.70
   5   1 -10  204.58   16.30
   5   1 -10  185.78   10.90
   5   1 -10  210.88   14.10
   5   1 -10  208.98   11.80
   5   1 -10  215.48   11.70
   5   1 -10  227.78   12.00
   5   1 -10  218.08   14.00
  -5  -1  10  229.98   12.00
  -5  -1  10  201.68   12.90
  -5  -1  10  214.78   13.80
  -5  -1  10  240.08   14.40
  -5  -1  10  228.58   13.30
   4   1 -10  970.50   34.20
   4   1 -10  932.31   28.50
   4   1 -10  975.10   31.20
   4   1 -10  897.21   26.70
   4   1 -10  928.81   29.50
   4   1 -10  931.01   28.80
   4   1 -10  988.90   30.90
   4   1 -10  908.71   28.50
  -4  -1  10  957.30   31.10
  -4  -1  10  947.51   31.30
  -4  -1  10  911.71   31.40
  -4  -1  10  987.30   30.90
  -4  -1  10  992.20   33.30
  -4  -1  10  966.00   29.40
   3   1 -10   29.40    6.40
   3   1 -10   19.30    5.60
   3   1 -10   38.30    5.30
   3   1 -10   30.90    3.40
   3   1 -10   37.40    5.50
   3   1 -10   35.90    5.50
   3   1 -10   29.70    4.50
   3   1 -10   30.20    3.90
   3   1 -10   22.90    4.30
  -3  -1  10   38.00    4.90
  -3  -1  10   40.50    6.00
  -3  -1  10   32.60    4.80
  -3  -1  10   37.80    5.70
  -3  -1  10   38.50    5.70
   2   1 -10  459.45   14.40
   2   1 -10  488.95   18.70
   2   1 -10  471.55   17.30
   2   1 -10  450.05   17.60
   2   1 -10  474.75   17.70
   2   1 -10  475.85   16.90
   2   1 -10  460.75   17.60
  -2  -1  10  471.95   18.20
  -2  -1  10  473.75   17.70
  -2  -1  10  478.35   16.30
  -2  -1  10  465.65   16.90
  -2  -1  10  485.75   17.00
   1   1 -10  542.25   19.20
   1   1 -10  529.15   19.40
   1   1 -10  542.85   18.00
   1   1 -10  507.45   16.50
   1   1 -10  512.35   16.80
   1   1 -10  548.45   19.90
   1   1 -10  548.55   19.30
   1   1 -10  506.75   16.30
   1   1 -10  530.05   19.10
  -1  -1  10  536.75   17.90
  -1  -1  10  534.75   18.80
  -1  -1  10  538.65   19.40
  -1  -1  10  538.15   18.40
  -1  -1  10  554.34   17.70
   0   1 -10  270.87   13.00
   0   1 -10  275.27   12.60
   0   1 -10  264.97   12.20
   0   1 -10  239.28   10.10
   0   1 -10  285.57   13.40
   0   1 -10  266.67   13.00
   0   1 -10  272.97   11.10
   0   1 -10  268.57   12.50
   0   1 -10  273.47   11.00
   0  -1  10  257.47   11.90
   0  -1  10  275.47   10.70
   0  -1  10  250.57   11.10
   0  -1  10  255.07   11.60
   0  -1  10  259.07   11.60
   0  -1  10  265.17   10.20
   0  -1  10  272.87   10.60
  -1   1 -10  873.31   28.70
  -1   1 -10  857.61   29.50
  -1   1 -10  898.01   29.60
  -1   1 -10  900.21   26.70
  -1   1 -10  856.41   26.80
  -1   1 -10  863.71   29.40
  -1   1 -10  862.71   28.20
   1  -1  10  849.32   28.00
   1  -1  10  917.01   26.60
   1  -1  10  870.21   28.20
   1  -1  10  878.61   28.20
   1  -1  10  894.01   26.30
   1  -1  10  892.01   27.50
   1  -1  10  919.61   27.10
  -2   1 -10  675.03   24.30
  -2   1 -10  673.73   25.20
  -2   1 -10  648.64   25.00
  -2   1 -10  703.83   22.30
  -2   1 -10  655.23   23.60
  -2   1 -10  680.53   22.20
  -2   1 -10  664.43   25.00
   2  -1  10  682.73   21.10
   2  -1  10  693.83   23.10
   2  -1  10  710.53   22.70
   2  -1  10  726.63   23.20
   2  -1  10  662.73   23.30
   2  -1  10  678.23   23.60
   2  -1  10  655.83   23.50
   2  -1  10  670.63   22.90
   2  -1  10  677.63   21.30
  -3   1 -10   25.30    6.20
  -3   1 -10   26.30    6.60
  -3   1 -10   38.30    8.00
  -3   1 -10   32.80    7.00
  -3   1 -10   36.20    8.00
  -3   1 -10   37.70    6.40
  -3   1 -10   33.90    5.60
   3  -1  10   24.50    4.10
   3  -1  10   26.90    6.20
   3  -1  10   39.50    5.00
   3  -1  10   21.60    5.40
   3  -1  10   40.50    6.40
   3  -1  10   21.10    5.80
   3  -1  10   36.60    6.30
   3  -1  10   35.20    6.30
   3  -1  10   37.50    6.60
  -4   1 -10  333.27   17.70
  -4   1 -10  342.97   20.40
  -4   1 -10  348.37   19.10
  -4   1 -10  294.27   17.90
  -4   1 -10  316.77   16.00
  -4   1 -10  305.87   17.90
  -4   1 -10  356.96   21.10
   4  -1  10  375.66   17.40
   4  -1  10  305.87   15.30
   4  -1  10  354.76   17.70
   4  -1  10  331.07   17.10
   4  -1  10  353.46   17.50
   4  -1  10  337.17   13.10
   4  -1  10  331.67   16.60
   4  -1  10  353.06   16.70
   5   0 -10  327.37   15.90
   5   0 -10  305.17   12.80
   5   0 -10  331.37   14.60
   5   0 -10  298.57   14.10
   5   0 -10  336.77   15.20
   5   0 -10  301.07   16.80
   5   0 -10  306.47   18.80
   5   0 -10  307.87   14.60
  -5   0  10  325.27   19.10
  -5   0  10  312.07   17.20
  -5   0  10  340.97   16.00
  -5   0  10  320.37   16.80
  -5   0  10  298.17   17.10
  -5   0  10  327.87   18.80
  -5   0  10  330.27   15.70
   4   0 -10   20.70    6.80
   4   0 -10   20.40    6.00
   4   0 -10   31.30    5.50
   4   0 -10   29.30    4.70
   4   0 -10   26.30    5.80
   4   0 -10   25.10    6.10
   4   0 -10   16.90    4.90
   4   0 -10   21.40    4.30
  -4   0  10   19.40    6.40
  -4   0  10   27.30    5.60
  -4   0  10   20.60    5.50
  -4   0  10   14.80    5.30
  -4   0  10   30.50    5.00
  -4   0  10   14.90    5.10
  -4   0  10   18.40    5.20
   3   0 -10  305.47   13.90
   3   0 -10  304.97   14.90
   3   0 -10  291.27   12.80
   3   0 -10  305.37   13.40
   3   0 -10  302.17   15.60
   3   0 -10  284.77   11.50
   3   0 -10  305.37   13.60
  -3   0  10  311.57   15.30
  -3   0  10  245.78   11.10
  -3   0  10  298.47   12.70
  -3   0  10  306.07   12.60
  -3   0  10  302.27   14.10
  -3   0  10  303.77   13.40
  -3   0  10  313.67   13.80
   2   0 -10  712.33   23.90
   2   0 -10  694.23   22.90
   2   0 -10  668.03   23.80
   2   0 -10  679.13   21.50
   2   0 -10  701.33   23.00
   2   0 -10  714.13   23.90
  -2   0  10  704.13   22.60
  -2   0  10  699.93   23.00
  -2   0  10  720.23   23.20
  -2   0  10  694.73   24.60
  -2   0  10  667.03   23.50
   1   0 -10   52.79    5.70
   1   0 -10   56.89    6.50
   1   0 -10   45.30    6.30
   1   0 -10   53.59    6.90
   1   0 -10   41.90    5.30
   1   0 -10   63.19    6.70
   1   0 -10   53.99    6.60
   1   0 -10   55.49    6.90
  -1   0  10   50.69    6.00
  -1   0  10   49.10    5.10
  -1   0  10   67.19    7.00
  -1   0  10   55.19    6.20
  -1   0  10   61.69    7.50
  -1   0  10   58.29    5.60
  -1   0  10   64.29    5.50
   0   0 -10  356.76   14.50
   0   0 -10  325.87   15.00
   0   0 -10  363.46   15.20
   0   0 -10  327.87   14.50
   0   0 -10  352.36   14.40
   0   0 -10  316.57   14.80
   0   0 -10  354.06   13.60
   0   0  10  367.56   14.90
   0   0  10  359.16   13.30
   0   0  10  329.67   13.60
   0   0  10  343.37   13.10
   0   0  10  369.66   14.60
   0   0  10  373.16   12.80
  -1   0 -10  243.08   13.00
  -1   0 -10  250.17   13.00
  -1   0 -10  253.17   12.40
  -1   0 -10  262.17    9.20
  -1   0 -10  260.07   11.40
  -1   0 -10  250.87   12.40
  -1   0 -10  254.57   12.10
   1   0  10  264.37   12.40
   1   0  10  230.38   11.40
   1   0  10  240.38    9.70
   1   0  10  249.38   11.20
   1   0  10  268.67   12.10
   1   0  10  269.57   10.80
  -2   0 -10   23.00    4.50
  -2   0 -10   27.30    5.30
  -2   0 -10   24.10    5.40
  -2   0 -10   20.70    5.70
  -2   0 -10   29.50    6.00
  -2   0 -10   23.60    4.70
  -2   0 -10   23.00    5.50
   2   0  10   27.30    5.40
   2   0  10   27.90    5.60
   2   0  10   29.50    5.40
   2   0  10   27.90    4.10
   2   0  10   32.50    6.10
   2   0  10   29.30    5.30
   2   0  10   32.90    5.70
   2   0  10   23.90    4.00
  -3   0 -10  787.52   28.60
  -3   0 -10  784.42   29.00
  -3   0 -10  791.92   25.50
  -3   0 -10  806.02   30.40
  -3   0 -10  773.02   29.50
  -3   0 -10  822.62   28.40
  -3   0 -10  807.12   27.20
   3   0  10  774.92   27.30
   3   0  10  838.82   24.90
   3   0  10  822.22   28.30
   3   0  10  775.62   23.40
   3   0  10  828.02   29.00
   3   0  10  839.12   28.10
   3   0  10  823.32   27.90
   3   0  10  795.82   27.30
  -4   0 -10  195.98   13.50
  -4   0 -10  179.58   16.30
  -4   0 -10  199.68   15.00
  -4   0 -10  159.18   14.80
  -4   0 -10  194.08   14.90
  -4   0 -10  238.18   17.70
   4   0  10  218.78   13.70
   4   0  10  189.28   15.10
   4   0  10  230.78   14.00
   4   0  10  212.88   13.00
   4   0  10  197.18   14.50
   4   0  10  206.78   14.20
   4   0  10  209.78   11.00
   4   0  10  215.48   14.10
   4   0  10  225.18   14.70
   5  -1 -10   36.10    6.80
   5  -1 -10   44.80    6.00
   5  -1 -10   34.00    6.50
   5  -1 -10   34.00    8.20
   5  -1 -10   16.80    7.80
  -5   1  10   62.59   10.60
  -5   1  10   49.10   10.20
  -5   1  10   37.00    7.50
  -5   1  10   34.10    8.10
  -5   1  10   40.10    8.80
  -5   1  10   41.10    8.20
   4  -1 -10  783.12   25.70
   4  -1 -10  831.12   28.20
   4  -1 -10  798.92   28.60
   4  -1 -10  802.12   30.30
   4  -1 -10  762.22   28.10
   4  -1 -10  834.42   25.80
   4  -1 -10  841.52   28.30
  -4   1  10  820.12   28.70
  -4   1  10  816.22   25.60
  -4   1  10  855.91   28.30
  -4   1  10  804.12   29.40
  -4   1  10  800.82   26.70
  -4   1  10  856.61   29.60
  -4   1  10  789.02   24.20
  -4   1  10  840.22   31.20
   3  -1 -10  120.39    8.30
   3  -1 -10  122.59    9.50
   3  -1 -10   97.09    9.80
   3  -1 -10  125.29    9.70
   3  -1 -10  120.59    9.40
   3  -1 -10  115.89    7.90
  -3   1  10  128.09    8.40
  -3   1  10  108.09    9.20
  -3   1  10  124.19    7.80
  -3   1  10  132.79    9.40
  -3   1  10  127.09   10.80
  -3   1  10  119.89    9.70
  -3   1  10  110.69    9.10
  -3   1  10  133.49    8.00
   2  -1 -10  117.89    9.40
   2  -1 -10  120.99    9.20
   2  -1 -10  125.39    8.20
   2  -1 -10  116.19    9.10
   2  -1 -10  129.69    8.80
   2  -1 -10  118.49    7.80
  -2   1  10  141.19   10.30
  -2   1  10  120.69    8.50
  -2   1  10  126.19    8.30
  -2   1  10  127.49    9.20
  -2   1  10  127.39    8.90
  -2   1  10  131.79    8.00
  -2   1  10  115.09    7.90
   1  -1 -10  171.68   10.10
   1  -1 -10  155.58    9.80
   1  -1 -10  156.68    9.20
   1  -1 -10  158.88    8.40
   1  -1 -10  163.08    9.40
   1  -1 -10  174.58   10.60
   1  -1 -10  147.69    9.60
  -1   1  10  160.48    9.10
  -1   1  10  160.18    9.40
  -1   1  10  157.18    9.30
  -1   1  10  152.38    9.00
  -1   1  10  164.38    8.60
  -1   1  10  155.98   10.30
  -1   1  10  151.98    9.50
  -1   1  10  148.69    9.00
   0  -1 -10  480.75   19.10
   0  -1 -10  459.55   18.80
   0  -1 -10  486.75   18.10
   0  -1 -10  498.45   18.00
   0  -1 -10  498.55   17.30
   0  -1 -10  492.75   18.60
   0   1  10  487.25   17.30
   0   1  10  482.45   16.20
   0   1  10  467.95   18.20
   0   1  10  493.05   17.50
   0   1  10  480.85   18.90
   0   1  10  462.55   17.90
   0   1  10  485.55   18.00
  -1  -1 -10   36.80    6.20
  -1  -1 -10   40.20    6.00
  -1  -1 -10   42.10    6.70
  -1  -1 -10   49.10    6.20
  -1  -1 -10   38.80    5.90
  -1  -1 -10   45.90    6.00
   1   1  10   52.39    5.80
   1   1  10   45.80    5.70
   1   1  10   42.30    6.30
   1   1  10   56.69    7.10
   1   1  10   42.30    6.30
   1   1  10   50.09    6.30
   1   1  10   42.90    5.60
  -2  -1 -10  413.26   18.60
  -2  -1 -10  405.16   16.90
  -2  -1 -10  416.76   17.80
  -2  -1 -10  439.86   16.90
  -2  -1 -10  426.46   19.10
  -2  -1 -10  417.86   17.40
   2   1  10  412.26   15.60
   2   1  10  424.96   17.40
   2   1  10  416.06   17.30
   2   1  10  407.26   18.00
   2   1  10  438.66   17.90
   2   1  10  427.06   17.20
   2   1  10  381.76   15.50
   2   1  10  418.06   17.50
   2   1  10  407.46   16.90
  -3  -1 -10  110.49   11.60
  -3  -1 -10  114.69   10.70
  -3  -1 -10  116.49   11.20
  -3  -1 -10  135.09   11.70
  -3  -1 -10  132.69   12.10
  -3  -1 -10  106.79   12.90
   3   1  10  114.29   11.90
   3   1  10  128.59   11.50
   3   1  10  117.59   10.80
   3   1  10  113.89   10.50
   3   1  10   96.79   10.20
   3   1  10  112.39   12.00
   3   1  10   96.79   10.50
   3   1  10  107.59    8.60
   5  -2 -10  379.96   17.50
   5  -2 -10  378.86   20.60
   5  -2 -10  370.16   17.10
   5  -2 -10  373.96   19.50
   5  -2 -10  336.47   17.80
   5  -2 -10  377.36   19.00
   5  -2 -10  362.66   19.70
  -5   2  10  404.96   18.30
  -5   2  10  384.76   20.70
  -5   2  10  353.96   20.50
  -5   2  10  375.56   22.80
  -5   2  10  346.77   24.00
  -5   2  10  333.27   20.00
  -5   2  10  380.96   22.70
   4  -2 -10  271.57   16.90
   4  -2 -10  277.47   15.60
   4  -2 -10  258.97   13.40
   4  -2 -10  269.47   14.70
   4  -2 -10  275.57   16.40
   4  -2 -10  277.77   15.20
  -4   2  10  292.97   15.80
  -4   2  10  321.97   18.90
  -4   2  10  285.97   13.60
  -4   2  10  268.17   13.40
  -4   2  10  268.67   16.20
  -4   2  10  299.67   12.60
  -4   2  10  275.37   17.80
  -4   2  10  274.07   16.50
   3  -2 -10    5.50    5.20
   3  -2 -10   -0.70    4.60
   3  -2 -10   -4.90    3.90
   3  -2 -10   -0.60    4.60
   3  -2 -10   -0.50    4.30
   3  -2 -10   -1.60    4.90
  -3   2  10    5.30    4.70
  -3   2  10   -1.10    4.70
  -3   2  10    4.10    5.00
  -3   2  10   -6.80    4.90
  -3   2  10    2.10    5.90
  -3   2  10   -6.00    4.50
  -3   2  10    1.90    3.90
  -3   2  10    6.50    4.40
  -3   2  10    6.20    6.60
   2  -2 -10  849.91   25.70
   2  -2 -10  856.11   28.90
   2  -2 -10  862.71   27.50
   2  -2 -10  837.92   28.50
   2  -2 -10  803.52   28.60
   2  -2 -10  831.02   28.00
  -2   2  10  837.32   28.10
  -2   2  10  849.91   28.50
  -2   2  10  860.21   30.20
  -2   2  10  810.22   25.10
  -2   2  10  858.11   28.30
  -2   2  10  847.82   27.30
  -2   2  10  862.11   28.00
  -2   2  10  877.21   31.30
  -2   2  10  827.62   28.60
   1  -2 -10  178.08   10.60
   1  -2 -10  202.38   11.90
   1  -2 -10  206.68   11.60
   1  -2 -10  218.78   11.60
   1  -2 -10  201.28   12.00
   1  -2 -10  207.58   10.50
   1  -2 -10  217.28   10.90
  -1   2  10  182.18   11.10
  -1   2  10  194.38   11.50
  -1   2  10  189.58   10.30
  -1   2  10  200.58   12.40
  -1   2  10  187.98   12.30
  -1   2  10  180.58   12.70
  -1   2  10  204.18   11.50
  -1   2  10  211.88   11.10
  -1   2  10  191.98   10.70
   0  -2 -10    1.00    3.70
   0  -2 -10    4.00    4.40
   0  -2 -10    3.60    4.00
   0  -2 -10    7.30    4.70
   0  -2 -10    2.60    4.00
   0  -2 -10    5.70    4.20
   0   2  10    1.20    4.10
   0   2  10    7.70    4.70
   0   2  10    1.80    4.20
   0   2  10    6.80    5.20
   0   2  10    2.20    4.10
   0   2  10    8.80    4.60
   0   2  10    4.50    4.00
   0   2  10    1.70    5.30
   0   2  10    4.50    4.70
  -1  -2 -10   72.69    8.50
  -1  -2 -10   87.89    9.70
  -1  -2 -10   67.69    7.10
  -1  -2 -10   63.79    8.70
  -1  -2 -10   94.39    8.70
  -1  -2 -10   80.69    8.40
   1   2  10   65.89    8.60
   1   2  10   71.79    9.10
   1   2  10   88.79    8.90
   1   2  10   69.49    8.00
   1   2  10   63.39    8.00
   1   2  10   73.49    9.70
   1   2  10   52.19    7.10
   1   2  10   79.99    8.50
   1   2  10   74.69    8.40
   1   2  10   80.99    8.90
  -2  -2 -10  534.25   22.20
  -2  -2 -10  527.75   21.80
  -2  -2 -10  503.95   20.30
  -2  -2 -10  499.85   20.20
  -2  -2 -10  506.15   20.50
   2   2  10  497.65   18.40
   2   2  10  455.75   18.60
   2   2  10  522.85   19.70
   2   2  10  502.55   21.40
   2   2  10  547.75   20.40
   2   2  10  500.85   21.00
   2   2  10  513.55   21.30
   2   2  10  515.45   20.20
  -3  -2 -10    4.20    6.20
  -3  -2 -10   11.10    6.00
  -3  -2 -10   16.50    6.80
  -3  -2 -10   10.40    8.00
  -3  -2 -10    6.80    7.00
   3   2  10   22.30    7.10
   3   2  10    5.30    6.90
   3   2  10   -0.10    6.90
   3   2  10   15.20    7.20
   3   2  10   18.50    6.50
   3   2  10   18.60    7.60
   3   2  10    5.70    6.90
   3   2  10   12.90    7.00
   4  -3 -10  114.79   11.50
   4  -3 -10   97.79   13.10
   4  -3 -10   87.19   10.50
   4  -3 -10  113.49   13.20
   4  -3 -10  113.39   11.70
   4  -3 -10  123.49   12.30
  -4   3  10  114.99   11.70
  -4   3  10   88.39   12.30
  -4   3  10  114.49   14.60
  -4   3  10  113.89   14.90
  -4   3  10  104.69   14.10
  -4   3  10  110.39   10.70
  -4   3  10  122.09   14.40
  -4   3  10  115.39   10.40
  -4   3  10  132.69   14.20
   3  -3 -10  537.05   21.30
   3  -3 -10  553.74   21.10
   3  -3 -10  513.95   21.70
   3  -3 -10  547.95   22.30
   3  -3 -10  528.85   22.30
  -3   3  10  526.75   24.10
  -3   3  10  504.55   22.40
  -3   3  10  528.65   18.10
  -3   3  10  534.65   22.80
  -3   3  10  556.54   25.80
  -3   3  10  518.35   21.10
  -3   3  10  530.05   20.20
  -3   3  10  528.35   22.30
  -3   3  10  521.15   25.70
   2  -3 -10    9.70    5.70
   2  -3 -10   12.00    5.80
   2  -3 -10   20.20    5.70
   2  -3 -10   15.60    5.30
   2  -3 -10   16.80    5.80
  -2   3  10   16.00    7.00
  -2   3  10   23.00    8.20
  -2   3  10   15.00    5.80
  -2   3  10   17.10    6.20
  -2   3  10    8.10    7.70
  -2   3  10   15.70    6.20
  -2   3  10   11.50    5.70
  -2   3  10   10.60    4.40
   1  -3 -10   45.00    7.30
   1  -3 -10   38.20    6.80
   1  -3 -10   37.00    6.10
   1  -3 -10   39.30    6.60
   1  -3 -10   41.70    6.90
   1  -3 -10   58.39    7.50
   1  -3 -10   45.70    7.10
  -1   3  10   51.59    7.10
  -1   3  10   43.60    7.80
  -1   3  10   41.50    7.00
  -1   3  10   62.39    8.00
  -1   3  10   52.09    9.30
  -1   3  10   33.10    6.20
  -1   3  10   46.00    8.10
  -1   3  10   34.80    7.10
  -1   3  10   39.60    7.00
   0  -3 -10  503.35   19.90
   0  -3 -10  496.75   19.70
   0  -3 -10  471.05   19.40
   0  -3 -10  450.85   19.40
   0  -3 -10  531.35   20.90
   0  -3 -10  476.55   19.50
   0   3  10  484.55   20.80
   0   3  10  506.95   20.40
   0   3  10  464.25   19.40
   0   3  10  472.15   21.10
   0   3  10  492.55   19.80
   0   3  10  464.95   17.90
   0   3  10  507.25   20.50
   0   3  10  450.25   19.90
   0   3  10  464.55   20.40
  -1  -3 -10   28.60    6.20
  -1  -3 -10   28.50    6.60
  -1  -3 -10   25.80    6.10
  -1  -3 -10   52.69    7.90
  -1  -3 -10   33.30    7.00
   1   3  10   50.19    8.60
   1   3  10   52.59    7.40
   1   3  10   48.60    7.90
   1   3  10   35.30    7.30
   1   3  10   28.40    6.70
   1   3  10   26.90    6.90
   1   3  10   24.00    7.10
  -2  -3 -10  121.19   11.50
  -2  -3 -10  111.09   13.00
  -2  -3 -10  127.69   12.00
  -2  -3 -10  122.19   11.60
  -2  -3 -10  107.69   11.10
   2   3  10  110.89   12.30
   2   3  10   94.99   11.40
   2   3  10  125.29   11.30
   2   3  10  103.19   12.60
   2   3  10   96.39   11.60
   2   3  10  114.19   13.10
   3  -4 -10  323.07   17.40
   3  -4 -10  267.37   17.40
   3  -4 -10  344.57   17.50
   3  -4 -10  334.37   18.20
   3  -4 -10  340.37   18.60
  -3   4  10  366.06   22.90
  -3   4  10  327.47   16.80
  -3   4  10  347.87   19.60
  -3   4  10  334.87   18.10
  -3   4  10  340.67   20.70
  -3   4  10  257.07   21.50
  -3   4  10  298.97   22.60
  -3   4  10  316.97   20.00
   2  -4 -10  254.37   15.60
   2  -4 -10  271.67   16.10
   2  -4 -10  267.17   15.70
   2  -4 -10  273.97   15.70
   2  -4 -10  281.67   16.00
  -2   4  10  296.27   17.00
  -2   4  10  250.27   16.00
  -2   4  10  299.17   18.40
  -2   4  10  269.97   19.50
  -2   4  10  243.68   19.30
  -2   4  10  292.47   18.30
  -2   4  10  275.37   15.80
  -2   4  10  278.67   16.70
   1  -4 -10  405.06   19.30
   1  -4 -10  413.56   18.90
   1  -4 -10  406.66   19.00
   1  -4 -10  417.16   19.80
   1  -4 -10  423.86   19.40
  -1   4  10  413.96   20.10
  -1   4  10  448.46   22.80
  -1   4  10  408.36   18.60
  -1   4  10  422.76   20.80
  -1   4  10  401.16   19.70
  -1   4  10  426.36   20.30
  -1   4  10  422.26   20.00
  -1   4  10  448.46   20.60
  -1   4  10  477.65   23.40
   0  -4 -10   12.40    6.50
   0  -4 -10   14.90    7.20
   0  -4 -10    6.90    5.70
   0  -4 -10   23.90    7.20
   0  -4 -10   10.70    6.50
   0  -4 -10   10.60    8.50
   0  -4 -10   11.30    5.70
   0   4  10   11.90    8.10
   0   4  10   12.70    6.70
   0   4  10   16.20    7.70
   0   4  10   19.40    7.90
   0   4  10   23.70    7.30
   0   4  10   35.60    9.60
   0   4  10   23.90    8.50
  -1  -4 -10    7.30    6.60
  -1  -4 -10    0.70    5.60
  -1  -4 -10    7.50    6.40
  -1  -4 -10    4.20    7.10
  -1  -4 -10   -3.90    5.80
  -1  -4 -10    9.70    7.10
   1   4  10    5.00    7.60
   1   4  10   -0.80    7.60
   1   4  10   -6.20    7.10
   1   4  10   12.20    7.50
   1   4  10    6.50    7.80
   1   4  10    5.70    7.80
   1   6 -11  306.27   17.10
   1   6 -11  245.48   17.70
   1   6 -11  304.57   19.40
   1   6 -11  267.57   18.20
  -1  -6  11  281.47   12.80
  -1  -6  11  279.57   13.20
  -1  -6  11  263.57   13.10
  -1  -6  11  273.57   14.60
  -1  -6  11  263.57   12.30
  -1  -6  11  282.47   14.40
   0   6 -11   79.19   12.10
   0   6 -11   88.09   11.90
   0   6 -11   63.09    9.40
   0   6 -11   79.59   11.10
   0  -6  11   69.89    8.20
   0  -6  11   70.99    7.70
   0  -6  11   81.19    9.00
   0  -6  11   64.09    7.60
   0  -6  11   66.79    7.80
  -1   6 -11    5.30    9.00
  -1   6 -11   -1.40    7.90
  -1   6 -11   10.30    9.20
  -1   6 -11  -12.40    6.20
   1  -6  11   -4.20    5.90
   1  -6  11   10.20    6.00
   1  -6  11   -1.90    4.70
   1  -6  11   10.40    5.40
   1  -6  11    2.10    5.50
   3   5 -11   37.30    9.60
   3   5 -11   12.40    8.70
   3   5 -11   13.60    8.20
  -3  -5  11   20.20    4.70
  -3  -5  11   23.60    5.30
  -3  -5  11   28.30    6.60
  -3  -5  11   11.50    6.90
  -3  -5  11   19.10    4.90
   2   5 -11  383.56   20.50
   2   5 -11  402.96   20.00
   2   5 -11  401.16   19.60
   2   5 -11  384.86   18.90
  -2  -5  11  396.26   15.30
  -2  -5  11  367.96   14.00
  -2  -5  11  375.86   14.80
  -2  -5  11  359.86   16.40
  -2  -5  11  379.86   15.40
  -2  -5  11  406.26   17.10
   1   5 -11  213.68   15.90
   1   5 -11  212.08   15.00
   1   5 -11  258.17   15.40
   1   5 -11  213.18   14.10
  -1  -5  11  225.88   11.30
  -1  -5  11  226.68   11.70
  -1  -5  11  210.08   10.70
  -1  -5  11  218.58   10.80
  -1  -5  11  200.78   11.70
  -1  -5  11  230.48   12.30
   0   5 -11   41.20    8.10
   0   5 -11   43.90    8.60
   0   5 -11   32.60    7.00
   0   5 -11   32.50    8.40
   0   5 -11   44.50    5.20
   0  -5  11   41.10    5.20
   0  -5  11   40.90    6.40
   0  -5  11   38.90    5.40
   0  -5  11   51.69    6.70
   0  -5  11   42.20    6.30
   0  -5  11   40.60    6.20
  -1   5 -11  337.67   14.30
  -1   5 -11  300.17   19.30
  -1   5 -11  315.67   14.90
  -1   5 -11  299.77   15.80
  -1   5 -11  298.17   18.10
  -1   5 -11  323.07   16.70
  -1   5 -11  333.37   18.00
   1  -5  11  317.77   13.90
   1  -5  11  317.27   14.70
   1  -5  11  317.37   14.90
   1  -5  11  319.17   15.20
   1  -5  11  297.27   14.10
  -2   5 -11  242.98   16.20
  -2   5 -11  236.58   16.20
  -2   5 -11  249.28   15.00
  -2   5 -11  264.37   17.90
  -2   5 -11  277.27   17.80
  -2   5 -11  270.27   16.10
  -2   5 -11  272.27   20.10
   2  -5  11  233.38   14.20
   2  -5  11  241.08   12.80
   2  -5  11  264.67   14.10
   2  -5  11  245.68   14.30
   2  -5  11  257.07   14.20
   4   4 -11    9.80    8.20
   4   4 -11    5.00    7.70
   4   4 -11   -6.70    5.30
  -4  -4  11    8.70    4.70
  -4  -4  11    9.70    5.60
  -4  -4  11   -2.90    5.30
  -4  -4  11    7.80    5.60
  -4  -4  11   -1.40    6.80
  -4  -4  11   -1.80    4.20
   3   4 -11  417.86   19.40
   3   4 -11  382.86   20.20
   3   4 -11  401.26   20.50
  -3  -4  11  424.86   16.80
  -3  -4  11  375.46   17.00
  -3  -4  11  395.16   15.60
  -3  -4  11  409.46   15.30
  -3  -4  11  411.76   17.10
   2   4 -11  536.35   23.10
   2   4 -11  512.85   21.90
   2   4 -11  536.55   21.30
   2   4 -11  542.45   22.80
  -2  -4  11  531.85   17.40
  -2  -4  11  538.55   20.10
  -2  -4  11  537.15   20.00
  -2  -4  11  526.35   18.60
  -2  -4  11  519.05   19.10
  -2  -4  11  490.85   18.10
   1   4 -11  144.09   13.00
   1   4 -11  160.28   11.70
   1   4 -11  139.19   11.80
   1   4 -11  154.18    8.30
   1   4 -11  157.48   11.90
   1   4 -11  167.88   11.80
  -1  -4  11  153.38   10.00
  -1  -4  11  157.88    9.20
  -1  -4  11  166.68    9.80
  -1  -4  11  159.48    9.90
  -1  -4  11  160.18    8.80
  -1  -4  11  163.78    8.90
   0   4 -11  349.47   17.30
   0   4 -11  346.67   18.10
   0   4 -11  348.47   13.90
   0   4 -11  310.87   15.20
   0   4 -11  325.57   15.40
   0   4 -11  361.86   16.30
   0  -4  11  331.57   14.40
   0  -4  11  335.27   14.80
   0  -4  11  307.77   13.80
   0  -4  11  329.07   13.60
   0  -4  11  345.67   14.90
   0  -4  11  337.77   13.90
  -1   4 -11   91.29   10.60
  -1   4 -11   78.79    8.90
  -1   4 -11   74.09   10.10
  -1   4 -11   97.79   11.40
  -1   4 -11   76.99   10.10
  -1   4 -11   64.79    9.00
  -1   4 -11   66.49    9.00
  -1   4 -11   79.19    9.70
   1  -4  11   85.39    7.80
   1  -4  11   75.79    8.10
   1  -4  11   82.29    7.30
   1  -4  11   69.59    8.50
   1  -4  11   74.09    8.20
  -2   4 -11    4.50    7.80
  -2   4 -11   -1.80    7.10
  -2   4 -11    6.00    5.40
  -2   4 -11   -5.90    5.70
  -2   4 -11   -5.30    6.70
  -2   4 -11    8.20    6.70
  -2   4 -11   -1.80    5.90
  -2   4 -11   13.30    6.50
   2  -4  11    6.80    5.00
   2  -4  11   -1.00    4.10
   2  -4  11   -2.40    4.30
   2  -4  11   -6.30    4.70
   2  -4  11   -1.20    4.50
  -3   4 -11  407.96   22.40
  -3   4 -11  402.76   20.40
  -3   4 -11  408.86   24.50
  -3   4 -11  453.85   22.20
  -3   4 -11  383.46   20.20
  -3   4 -11  410.36   19.40
  -3   4 -11  401.66   20.60
   3  -4  11  377.56   18.20
   3  -4  11  432.06   16.90
   3  -4  11  382.56   18.60
   3  -4  11  431.96   18.50
   3  -4  11  321.57   17.70
   4   3 -11  866.11   34.20
   4   3 -11  940.81   28.20
   4   3 -11  985.30   32.40
  -4  -3  11  876.01   30.30
  -4  -3  11  882.91   31.30
  -4  -3  11  881.41   30.60
  -4  -3  11  867.21   29.80
  -4  -3  11  893.61   27.80
  -4  -3  11  876.31   29.40
   3   3 -11  202.88    9.30
   3   3 -11  189.98   12.80
   3   3 -11  208.88    9.90
   3   3 -11  200.58   14.90
   3   3 -11  234.18   13.70
  -3  -3  11  230.78   12.00
  -3  -3  11  210.28   10.90
  -3  -3  11  215.68   10.10
  -3  -3  11  211.98   11.80
  -3  -3  11  208.18   12.40
   2   3 -11  250.37   13.80
   2   3 -11  287.27   15.50
   2   3 -11  267.87   13.60
   2   3 -11  296.17   14.90
   2   3 -11  271.97   15.50
   2   3 -11  279.27   11.50
  -2  -3  11  283.57   12.90
  -2  -3  11  294.77   12.50
  -2  -3  11  268.97   13.20
  -2  -3  11  275.77   11.70
  -2  -3  11  291.17   12.90
   1   3 -11  447.96   19.30
   1   3 -11  463.65   19.50
   1   3 -11  474.25   18.30
   1   3 -11  444.26   17.80
   1   3 -11  474.65   20.20
   1   3 -11  447.46   15.80
   1   3 -11  462.15   16.60
  -1  -3  11  447.46   17.60
  -1  -3  11  443.96   16.10
  -1  -3  11  456.55   16.80
  -1  -3  11  469.65   17.60
  -1  -3  11  502.15   17.90
  -1  -3  11  445.56   16.20
   0   3 -11  194.88   11.60
   0   3 -11  197.78   12.80
   0   3 -11  221.58   11.30
   0   3 -11  193.88    9.70
   0   3 -11  209.98   11.70
   0   3 -11  196.38   12.90
   0   3 -11  208.08   11.90
   0   3 -11  207.48   12.20
   0   3 -11  244.38   14.50
   0  -3  11  222.38   10.20
   0  -3  11  207.38   10.40
   0  -3  11  216.58   11.10
   0  -3  11  214.18   10.40
   0  -3  11  223.68   10.70
   0  -3  11  206.78   11.20
  -1   3 -11  213.08   14.80
  -1   3 -11  212.68   12.30
  -1   3 -11  181.38    9.60
  -1   3 -11  223.48   14.00
  -1   3 -11  221.58   12.20
  -1   3 -11  223.98   12.40
  -1   3 -11  188.88   13.00
  -1   3 -11  193.28   12.60
   1  -3  11  207.98   10.70
   1  -3  11  217.08   10.20
   1  -3  11  203.88   10.80
   1  -3  11  220.28   11.80
   1  -3  11  193.68   11.20
   1  -3  11  210.88   11.20
  -2   3 -11  306.67   16.30
  -2   3 -11  273.87   11.40
  -2   3 -11  302.57   18.30
  -2   3 -11  294.27   15.20
  -2   3 -11  271.37   15.00
  -2   3 -11  306.57   15.40
  -2   3 -11  327.27   18.20
  -2   3 -11  310.07   14.30
  -2   3 -11  328.07   16.40
   2  -3  11  289.37   14.60
   2  -3  11  300.17   14.30
   2  -3  11  301.47   14.60
   2  -3  11  271.27   13.60
   2  -3  11  295.87   12.70
  -3   3 -11   39.10    8.00
  -3   3 -11   42.00    5.60
  -3   3 -11   47.00    9.10
  -3   3 -11   21.80    7.50
  -3   3 -11   23.00    9.10
  -3   3 -11   41.20    8.00
  -3   3 -11   23.90    6.60
  -3   3 -11   50.49    9.60
   3  -3  11   39.80    6.10
   3  -3  11   32.50    7.00
   3  -3  11   34.40    6.60
   3  -3  11   37.70    7.10
   3  -3  11   44.10    7.30
   3  -3  11   42.10    7.00
   5   2 -11  335.27   14.90
   5   2 -11  310.67   14.20
   5   2 -11  331.37   20.70
   5   2 -11  322.77   13.10
   5   2 -11  346.27   18.70
   5   2 -11  299.07   15.10
  -5  -2  11  314.37   16.40
  -5  -2  11  323.77   16.90
  -5  -2  11  313.07   16.90
  -5  -2  11  343.97   15.10
  -5  -2  11  341.47   17.50
  -5  -2  11  338.57   20.10
   4   2 -11  378.66   20.20
   4   2 -11  368.06   17.10
   4   2 -11  396.76   18.40
   4   2 -11  345.67   14.10
   4   2 -11  370.06   14.50
   4   2 -11  380.16   14.90
   4   2 -11  374.96   14.00
  -4  -2  11  388.66   17.30
  -4  -2  11  403.36   18.90
  -4  -2  11  384.86   17.20
  -4  -2  11  380.96   16.90
  -4  -2  11  393.06   15.20
  -4  -2  11  374.86   16.30
   3   2 -11   -2.00    3.60
   3   2 -11    1.00    3.80
   3   2 -11   -5.30    4.20
   3   2 -11    1.40    5.00
   3   2 -11    1.60    3.50
   3   2 -11   -3.20    5.10
   3   2 -11    1.60    5.10
   3   2 -11   -2.80    3.90
  -3  -2  11   -0.30    3.60
  -3  -2  11   -6.20    3.70
  -3  -2  11    2.60    4.60
  -3  -2  11    0.70    3.70
  -3  -2  11    6.30    3.50
   2   2 -11 1250.37   39.20
   2   2 -11 1332.07   38.90
   2   2 -11 1297.07   42.20
   2   2 -11 1321.47   36.00
   2   2 -11 1247.78   35.80
   2   2 -11 1384.16   41.10
   2   2 -11 1320.67   38.50
   2   2 -11 1376.66   42.00
   2   2 -11 1315.37   39.80
  -2  -2  11 1378.76   39.50
  -2  -2  11 1323.37   38.20
  -2  -2  11 1291.97   39.80
  -2  -2  11 1314.57   40.40
  -2  -2  11 1347.47   39.40
   1   2 -11  143.89   10.70
   1   2 -11  144.29    9.00
   1   2 -11  127.19    9.30
   1   2 -11  117.49    7.70
   1   2 -11  142.79   10.60
   1   2 -11  139.69    9.00
   1   2 -11  135.09   10.40
  -1  -2  11  139.09    8.40
  -1  -2  11  120.39    8.50
  -1  -2  11  140.49    7.80
  -1  -2  11  139.29    9.40
  -1  -2  11  130.19    8.00
  -1  -2  11  143.19    8.50
   0   2 -11  141.59   11.30
   0   2 -11  136.49   10.40
   0   2 -11  148.59    8.10
   0   2 -11  143.59   10.80
   0   2 -11  143.19   10.80
   0   2 -11  137.09    9.60
   0   2 -11  156.98    9.40
   0   2 -11  128.19    9.30
   0  -2  11  142.39    9.00
   0  -2  11  152.28    8.80
   0  -2  11  151.88    8.60
   0  -2  11  138.99    7.90
   0  -2  11  154.68    9.00
   0  -2  11  149.29    8.00
   0  -2  11  149.09    9.60
  -1   2 -11   89.19    9.10
  -1   2 -11   91.79    9.40
  -1   2 -11  110.19   10.90
  -1   2 -11  100.49   10.50
  -1   2 -11   68.39    7.90
  -1   2 -11   94.19    9.00
  -1   2 -11   95.89    8.30
  -1   2 -11   84.99    6.80
   1  -2  11  107.19    7.80
   1  -2  11   91.09    8.50
   1  -2  11   84.49    6.70
   1  -2  11   83.09    6.60
   1  -2  11  102.09    8.30
   1  -2  11   96.49    6.90
   1  -2  11   83.69    7.90
  -2   2 -11  190.68   12.40
  -2   2 -11  191.68    9.90
  -2   2 -11  194.38   11.70
  -2   2 -11  211.18   14.70
  -2   2 -11  193.78   13.00
  -2   2 -11  219.48   13.90
  -2   2 -11  191.88   12.40
   2  -2  11  208.38   10.00
   2  -2  11  194.98   11.80
   2  -2  11  178.58   11.00
   2  -2  11  204.28   11.60
   2  -2  11  203.58   11.90
   2  -2  11  189.88   10.80
   2  -2  11  198.88   11.70
   2  -2  11  178.68    9.60
   2  -2  11  204.08   11.20
  -3   2 -11   22.00    8.50
  -3   2 -11   25.30    7.40
  -3   2 -11   12.80    7.60
  -3   2 -11   26.10    7.60
  -3   2 -11   20.60    7.60
  -3   2 -11   14.70    6.70
  -3   2 -11   24.60    5.70
   3  -2  11   28.50    6.40
   3  -2  11   19.80    5.90
   3  -2  11   30.90    7.00
   3  -2  11   22.90    6.70
   3  -2  11   35.90    5.50
   3  -2  11   18.80    6.00
   3  -2  11   21.00    6.40
   3  -2  11   18.70    6.00
   5   1 -11  678.13   23.50
   5   1 -11  692.83   23.50
   5   1 -11  743.33   30.20
   5   1 -11  663.93   23.50
   5   1 -11  671.93   25.70
   5   1 -11  665.53   26.20
   5   1 -11  685.13   24.00
  -5  -1  11  683.53   24.40
  -5  -1  11  676.13   26.10
  -5  -1  11  673.53   25.90
  -5  -1  11  685.93   26.70
  -5  -1  11  672.03   26.60
   4   1 -11   70.69    7.40
   4   1 -11  112.89   10.70
   4   1 -11   83.99   12.00
   4   1 -11   77.69    7.50
   4   1 -11   82.79    8.40
   4   1 -11   97.99    7.80
   4   1 -11   76.99    8.70
  -4  -1  11  108.69   11.80
  -4  -1  11   85.99    9.40
  -4  -1  11   94.09    9.20
  -4  -1  11   97.19    9.80
  -4  -1  11   88.39    8.50
  -4  -1  11   80.29    9.40
   3   1 -11  727.13   23.10
   3   1 -11  721.13   21.40
   3   1 -11  791.22   25.70
   3   1 -11  739.43   23.10
   3   1 -11  770.92   26.30
   3   1 -11  742.13   25.20
   3   1 -11  763.72   28.90
   3   1 -11  719.43   25.70
   3   1 -11  799.52   26.00
  -3  -1  11  733.83   27.30
  -3  -1  11  790.62   24.80
  -3  -1  11  785.22   25.90
  -3  -1  11  798.32   26.20
  -3  -1  11  741.43   26.40
   2   1 -11   68.09    7.60
   2   1 -11   57.99    7.00
   2   1 -11   61.89    7.10
   2   1 -11   53.09    7.10
   2   1 -11   77.19    7.30
   2   1 -11   75.79    8.90
   2   1 -11   61.19    5.50
  -2  -1  11   64.09    6.20
  -2  -1  11   71.29    8.20
  -2  -1  11   60.99    7.20
  -2  -1  11   62.69    6.60
  -2  -1  11   63.69    6.70
   1   1 -11  191.78   11.20
   1   1 -11  196.48   12.00
   1   1 -11  190.28    9.60
   1   1 -11  189.98   11.30
   1   1 -11  173.18   10.50
   1   1 -11  184.48   10.80
   1   1 -11  190.28    8.60
  -1  -1  11  181.48   10.50
  -1  -1  11  185.68    9.60
  -1  -1  11  176.98    9.10
  -1  -1  11  190.28    9.20
  -1  -1  11  199.38   11.30
   0   1 -11  901.11   26.50
   0   1 -11  887.71   28.90
   0   1 -11  887.31   29.70
   0   1 -11  905.51   27.30
   0   1 -11  912.81   29.50
   0   1 -11  800.02   28.10
   0   1 -11  836.42   29.00
   0   1 -11  866.31   30.00
   0  -1  11  887.31   26.80
   0  -1  11  864.51   26.80
   0  -1  11  882.01   27.80
   0  -1  11  877.61   28.60
   0  -1  11  888.81   29.00
  -1   1 -11   -2.10    3.40
  -1   1 -11    2.40    4.40
  -1   1 -11    9.40    4.70
  -1   1 -11    7.90    4.70
  -1   1 -11    6.70    4.70
  -1   1 -11    2.40    4.80
  -1   1 -11    3.10    4.60
   1  -1  11   -0.10    3.20
   1  -1  11    1.70    3.60
   1  -1  11    6.70    3.90
   1  -1  11    0.40    4.10
   1  -1  11    4.10    3.00
   1  -1  11    0.40    3.40
   1  -1  11   -1.80    3.70
  -2   1 -11  218.88   13.90
  -2   1 -11  216.68   10.90
  -2   1 -11  232.48   11.40
  -2   1 -11  210.88   14.00
  -2   1 -11  218.18   14.20
  -2   1 -11  246.18   13.80
  -2   1 -11  194.28   12.30
   2  -1  11  236.78   10.10
   2  -1  11  195.48   12.30
   2  -1  11  240.28   10.50
   2  -1  11  227.58   12.40
   2  -1  11  243.48   13.20
   2  -1  11  218.78   12.50
   2  -1  11  211.48   11.80
   2  -1  11  257.77   12.40
  -3   1 -11  109.89   14.20
  -3   1 -11  106.89   10.80
  -3   1 -11   83.99    9.40
  -3   1 -11   94.19   11.30
  -3   1 -11  112.09   12.90
  -3   1 -11  110.49   11.70
  -3   1 -11  114.19   12.40
   3  -1  11   83.49   10.60
   3  -1  11  113.89   11.00
   3  -1  11   93.39   10.30
   3  -1  11   94.99   11.10
   3  -1  11   88.89   11.10
   3  -1  11   98.59    7.80
   3  -1  11  106.99   11.10
   3  -1  11  107.89   10.50
   3  -1  11  103.29    7.60
   5   0 -11    0.10    6.80
   5   0 -11    2.00    5.10
   5   0 -11   -9.20    7.60
   5   0 -11    2.40    5.50
   5   0 -11   -2.30    7.20
   5   0 -11    0.10    5.60
   5   0 -11    8.30    5.80
  -5   0  11    7.70    7.10
  -5   0  11   -4.10    6.70
  -5   0  11    7.20    8.50
  -5   0  11   -5.40    6.10
  -5   0  11  -10.70    5.40
  -5   0  11   -3.20    6.60
  -5   0  11   -4.90    8.10
   4   0 -11  587.64   22.80
   4   0 -11  570.24   19.80
   4   0 -11  550.34   18.70
   4   0 -11  567.14   22.30
   4   0 -11  546.05   21.00
   4   0 -11  594.74   25.00
   4   0 -11  561.54   21.50
  -4   0  11  564.24   22.30
  -4   0  11  548.35   22.80
  -4   0  11  583.04   25.10
  -4   0  11  591.04   19.70
  -4   0  11  570.64   21.10
  -4   0  11  577.34   21.50
  -4   0  11  551.74   22.40
   3   0 -11 1014.10   32.00
   3   0 -11  996.30   35.20
   3   0 -11 1020.90   31.10
   3   0 -11  963.80   32.30
   3   0 -11  968.90   33.10
   3   0 -11 1020.20   32.40
   3   0 -11  975.40   29.10
  -3   0  11  969.40   31.20
  -3   0  11 1016.40   34.30
  -3   0  11  996.90   32.10
  -3   0  11  989.50   30.30
  -3   0  11  947.91   32.70
  -3   0  11 1010.70   29.50
  -3   0  11  985.10   32.10
  -3   0  11  992.90   30.80
   2   0 -11  492.65   19.40
   2   0 -11  486.65   19.40
   2   0 -11  520.45   18.80
   2   0 -11  486.85   19.60
   2   0 -11  499.45   18.70
   2   0 -11  461.15   16.80
  -2   0  11  532.35   18.90
  -2   0  11  522.35   18.50
  -2   0  11  508.95   20.40
  -2   0  11  504.05   19.60
  -2   0  11  533.95   18.00
  -2   0  11  505.35   18.70
   1   0 -11 1289.67   39.70
   1   0 -11 1332.17   39.40
   1   0 -11 1308.47   38.80
   1   0 -11 1302.77   39.90
   1   0 -11 1302.57   39.40
   1   0 -11 1316.37   41.30
   1   0 -11 1282.57   37.30
   1   0 -11 1298.27   40.40
  -1   0  11 1302.07   40.60
  -1   0  11 1340.07   38.60
  -1   0  11 1256.97   36.40
  -1   0  11 1290.17   38.10
  -1   0  11 1289.57   39.80
  -1   0  11 1320.47   39.10
   0   0 -11   43.00    6.60
   0   0 -11   40.30    6.20
   0   0 -11   33.60    6.00
   0   0 -11   38.40    6.60
   0   0 -11   20.60    4.50
   0   0 -11   34.70    5.10
   0   0 -11   33.00    5.60
   0   0  11   38.30    5.40
   0   0  11   38.60    5.30
   0   0  11   29.00    5.30
   0   0  11   35.90    4.60
   0   0  11   29.10    5.60
   0   0  11   27.60    4.50
  -1   0 -11   49.30    7.20
  -1   0 -11   64.89    8.30
  -1   0 -11   69.89    7.30
  -1   0 -11   63.79    7.50
  -1   0 -11   66.99    7.90
  -1   0 -11   55.19    6.50
   1   0  11   71.09    7.90
   1   0  11   49.10    5.70
   1   0  11   69.49    7.10
   1   0  11   48.60    6.20
   1   0  11   53.79    7.00
   1   0  11   63.69    6.50
  -2   0 -11  459.05   19.40
  -2   0 -11  421.36   17.20
  -2   0 -11  447.16   19.00
  -2   0 -11  432.66   18.50
  -2   0 -11  419.76   20.00
  -2   0 -11  426.36   19.80
   2   0  11  438.66   16.00
   2   0  11  423.46   17.40
   2   0  11  420.06   14.30
   2   0  11  430.36   18.20
   2   0  11  455.55   18.40
   2   0  11  404.16   17.90
   2   0  11  454.55   17.90
  -3   0 -11   32.20    7.60
  -3   0 -11   33.20    8.30
  -3   0 -11   30.00    8.60
  -3   0 -11   29.80    8.30
  -3   0 -11   30.80    7.50
  -3   0 -11   25.00    6.80
   3   0  11   31.40    8.10
   3   0  11   29.60    6.80
   3   0  11   36.50    5.70
   3   0  11   35.70    7.20
   3   0  11   36.10    7.30
   3   0  11   24.50    6.60
   4  -1 -11  217.08   14.60
   4  -1 -11  208.78   11.20
   4  -1 -11  207.88   13.50
   4  -1 -11  207.68   15.40
   4  -1 -11  217.98   12.40
   4  -1 -11  211.28   14.30
   4  -1 -11  229.78   13.60
  -4   1  11  215.08   13.70
  -4   1  11  239.18   16.90
  -4   1  11  202.28   12.30
  -4   1  11  196.38   14.30
  -4   1  11  209.18   11.90
  -4   1  11  220.58   14.60
  -4   1  11  193.88   13.80
   3  -1 -11  263.17   12.40
   3  -1 -11  285.17   14.60
   3  -1 -11  297.77   12.80
   3  -1 -11  269.47   14.80
   3  -1 -11  271.57   14.90
   3  -1 -11  290.17   15.00
  -3   1  11  297.87   12.50
  -3   1  11  298.67   13.40
  -3   1  11  276.67   15.10
  -3   1  11  284.67   14.40
  -3   1  11  288.47   16.50
  -3   1  11  277.47   14.30
  -3   1  11  269.97   12.40
  -3   1  11  294.57   14.90
   2  -1 -11  624.34   21.10
   2  -1 -11  584.44   22.60
   2  -1 -11  653.33   23.50
   2  -1 -11  620.34   21.20
   2  -1 -11  635.14   23.40
   2  -1 -11  634.44   22.60
  -2   1  11  610.44   24.30
  -2   1  11  645.54   21.50
  -2   1  11  624.64   22.50
  -2   1  11  638.74   22.20
  -2   1  11  607.74   23.30
  -2   1  11  624.54   22.50
  -2   1  11  627.44   22.10
   1  -1 -11  120.99   10.00
   1  -1 -11  134.19    9.50
   1  -1 -11  117.59    9.60
   1  -1 -11  116.79   10.50
   1  -1 -11  120.19    9.80
   1  -1 -11  129.69    8.40
   1  -1 -11  126.89    9.40
  -1   1  11  126.39    8.20
  -1   1  11  115.09    9.40
  -1   1  11  122.99   10.30
  -1   1  11  134.39    9.20
  -1   1  11  106.29    9.10
  -1   1  11  145.29    9.60
  -1   1  11  135.69    9.30
  -1   1  11  135.49    8.80
   0  -1 -11  785.22   27.40
   0  -1 -11  802.32   25.30
   0  -1 -11  814.92   27.10
   0  -1 -11  780.52   26.80
   0  -1 -11  777.12   25.50
   0  -1 -11  800.22   28.10
   0  -1 -11  765.12   27.70
   0  -1 -11  751.62   26.10
   0   1  11  828.62   26.80
   0   1  11  776.62   25.80
   0   1  11  843.52   27.20
   0   1  11  797.42   25.70
   0   1  11  766.92   26.80
   0   1  11  787.12   26.40
   0   1  11  760.52   24.40
   0   1  11  800.22   27.70
  -1  -1 -11  305.87   16.30
  -1  -1 -11  344.27   15.10
  -1  -1 -11  314.17   16.20
  -1  -1 -11  338.77   14.30
  -1  -1 -11  337.77   15.50
  -1  -1 -11  321.77   15.60
   1   1  11  319.07   15.00
   1   1  11  323.97   15.50
   1   1  11  328.27   12.60
   1   1  11  340.67   16.10
   1   1  11  350.56   14.50
   1   1  11  361.06   16.20
   1   1  11  324.97   14.90
   1   1  11  342.97   15.50
  -2  -1 -11   70.39    8.10
  -2  -1 -11   72.09    9.90
  -2  -1 -11   62.39    8.00
  -2  -1 -11   75.49    9.90
  -2  -1 -11   59.89    7.90
  -2  -1 -11   70.99    9.70
   2   1  11   56.89    7.80
   2   1  11   75.39    9.60
   2   1  11   71.29    9.30
   2   1  11   81.99   10.10
   2   1  11   54.29    7.90
   2   1  11   75.79    9.10
   2   1  11   66.89    7.10
  -3  -1 -11   67.29    8.30
  -3  -1 -11   47.80    8.70
  -3  -1 -11   56.39    8.40
  -3  -1 -11   52.39    8.80
  -3  -1 -11   46.00    9.70
  -3  -1 -11   40.10    8.40
   3   1  11   52.29    8.30
   3   1  11   66.09    8.90
   3   1  11   73.79    9.80
   3   1  11   45.10    9.00
   3   1  11   59.79    9.50
   3   1  11   56.39    8.60
   3   1  11   57.69    7.20
   3   1  11   53.89    8.20
   4  -2 -11    6.70    6.90
   4  -2 -11    0.90    6.00
   4  -2 -11    0.20    5.60
   4  -2 -11    3.00    7.20
   4  -2 -11   -4.10    6.00
   4  -2 -11   -0.40    7.00
  -4   2  11    1.10    9.10
  -4   2  11   -3.80    6.20
  -4   2  11   -0.60    6.20
  -4   2  11   -0.40    5.60
  -4   2  11    2.60    8.00
  -4   2  11    9.20    7.50
  -4   2  11   12.80    7.20
   3  -2 -11  948.81   31.90
   3  -2 -11 1014.90   34.30
   3  -2 -11  928.01   29.40
   3  -2 -11  997.90   33.50
   3  -2 -11  973.80   33.90
   3  -2 -11 1002.90   34.50
  -3   2  11 1049.09   34.30
  -3   2  11 1053.39   36.90
  -3   2  11 1024.30   34.70
  -3   2  11 1005.00   32.50
  -3   2  11 1012.90   34.90
  -3   2  11 1055.69   34.80
  -3   2  11 1008.70   30.70
  -3   2  11 1021.90   31.70
  -3   2  11 1052.99   37.80
   2  -2 -11   50.19    6.30
   2  -2 -11   37.40    6.80
   2  -2 -11   32.00    6.40
   2  -2 -11   44.10    7.50
   2  -2 -11   48.60    6.50
   2  -2 -11   42.40    7.10
  -2   2  11   58.79    7.60
  -2   2  11   47.30    7.10
  -2   2  11   53.89    6.70
  -2   2  11   52.29    8.50
  -2   2  11   47.80    7.70
  -2   2  11   45.40    6.40
  -2   2  11   48.60    8.10
  -2   2  11   45.70    7.00
  -2   2  11   50.29    9.60
   1  -2 -11  694.43   25.80
   1  -2 -11  711.63   24.30
   1  -2 -11  681.23   23.20
   1  -2 -11  700.33   24.90
   1  -2 -11  696.53   25.20
   1  -2 -11  688.03   25.70
   1  -2 -11  704.23   25.60
  -1   2  11  653.23   23.40
  -1   2  11  676.53   27.20
  -1   2  11  715.33   24.60
  -1   2  11  675.43   25.10
  -1   2  11  694.93   26.40
  -1   2  11  687.83   24.00
  -1   2  11  675.43   24.50
  -1   2  11  717.43   25.60
  -1   2  11  709.23   25.40
   0  -2 -11  284.87   14.30
   0  -2 -11  269.57   15.10
   0  -2 -11  263.27   13.30
   0  -2 -11  266.07   14.40
   0  -2 -11  262.87   13.80
   0  -2 -11  268.17   14.30
   0  -2 -11  294.87   15.10
   0   2  11  269.87   15.60
   0   2  11  260.07   15.00
   0   2  11  285.27   14.60
   0   2  11  254.87   14.90
   0   2  11  271.57   14.30
   0   2  11  261.37   14.20
   0   2  11  273.27   13.90
   0   2  11  270.07   12.10
   0   2  11  279.37   14.60
  -1  -2 -11   20.80    6.60
  -1  -2 -11    8.90    5.60
  -1  -2 -11    9.70    5.40
  -1  -2 -11    9.90    5.50
  -1  -2 -11    0.70    6.00
   1   2  11    8.50    5.90
   1   2  11    9.90    6.00
   1   2  11   12.80    6.40
   1   2  11    2.70    5.40
   1   2  11    5.70    6.10
   1   2  11    3.90    5.80
   1   2  11   10.60    6.20
   1   2  11    9.40    5.80
  -2  -2 -11  312.07   17.90
  -2  -2 -11  297.37   17.30
  -2  -2 -11  257.77   15.20
  -2  -2 -11  285.57   16.00
  -2  -2 -11  295.37   15.90
   2   2  11  316.07   17.10
   2   2  11  294.27   16.60
   2   2  11  263.87   15.30
   2   2  11  271.87   14.90
   2   2  11  268.97   15.40
   2   2  11  267.87   16.10
   2   2  11  328.87   16.90
   3  -3 -11   71.89    9.60
   3  -3 -11   73.09    9.20
   3  -3 -11   59.59    9.20
   3  -3 -11   56.09    9.20
   3  -3 -11   66.59    9.80
  -3   3  11   67.09   11.20
  -3   3  11   78.19   11.30
  -3   3  11   83.29    8.80
  -3   3  11   66.09   10.40
  -3   3  11   66.29   12.80
  -3   3  11   93.99   13.20
  -3   3  11   48.00    8.80
  -3   3  11   66.69    9.90
   2  -3 -11   76.59    9.20
   2  -3 -11   82.39   10.00
   2  -3 -11   78.79    9.80
   2  -3 -11   81.39    9.30
   2  -3 -11   89.09   10.80
  -2   3  11  104.09   10.90
  -2   3  11   75.09   11.10
  -2   3  11   84.99   12.70
  -2   3  11   89.59   10.00
  -2   3  11   87.09   11.20
  -2   3  11   90.09   10.60
   1  -3 -11  782.42   28.90
   1  -3 -11  806.52   28.10
   1  -3 -11  829.42   28.30
   1  -3 -11  792.92   24.90
   1  -3 -11  827.62   28.60
   1  -3 -11  751.32   28.20
   1  -3 -11  777.52   28.50
  -1   3  11  744.83   28.20
  -1   3  11  811.32   30.20
  -1   3  11  830.92   29.00
  -1   3  11  759.92   28.60
  -1   3  11  760.62   31.20
  -1   3  11  713.83   26.40
  -1   3  11  776.12   27.90
  -1   3  11  767.62   28.90
   0  -3 -11    1.10    5.40
   0  -3 -11    4.60    6.40
   0  -3 -11  -12.40    5.40
   0  -3 -11   -6.40    5.30
   0  -3 -11    1.80    6.50
   0  -3 -11   -1.60    5.40
   0  -3 -11   16.50    6.80
   0   3  11   -4.70    6.90
   0   3  11   -9.10    6.20
   0   3  11   -5.20    5.90
   0   3  11   -5.90    6.60
   0   3  11    0.60    7.60
   0   3  11   10.00    6.90
   0   3  11   -4.80    6.60
   0   3  11   -8.40    6.20
  -1  -3 -11  301.97   16.30
  -1  -3 -11  295.57   16.80
  -1  -3 -11  289.47   16.30
  -1  -3 -11  289.17   17.40
  -1  -3 -11  285.17   15.90
   1   3  11  263.17   16.90
   1   3  11  321.17   17.80
   1   3  11  321.37   17.20
   1   3  11  314.67   16.80
   1   3  11  291.47   16.40
   1   3  11  333.87   18.10
   1   3  11  278.17   17.60
   2  -4 -11  478.05   21.50
   2  -4 -11  489.75   21.30
   2  -4 -11  458.25   21.60
  -2   4  11  459.65   22.80
  -2   4  11  389.66   25.40
  -2   4  11  462.15   22.40
  -2   4  11  454.55   21.80
  -2   4  11  458.65   22.70
  -2   4  11  477.35   26.60
  -2   4  11  490.45   24.80
   1  -4 -11    8.90    7.60
   1  -4 -11   -9.60    6.30
   1  -4 -11   22.90    7.80
   1  -4 -11    9.00    7.00
   1  -4 -11   19.60    7.80
  -1   4  11   15.60    9.30
  -1   4  11    7.40    8.80
  -1   4  11   15.80    9.40
  -1   4  11   13.90    8.20
  -1   4  11   18.70    9.00
  -1   4  11   13.70    9.00
  -1   4  11   29.60    9.00
  -1   4  11   12.10   10.50
   0  -4 -11  236.88   15.90
   0  -4 -11  253.77   16.10
   0  -4 -11  239.78   15.60
   0   4  11  280.67   19.20
   0   4  11  263.57   18.60
   0   4  11  266.27   18.40
   0   4  11  240.48   17.60
   2   5 -12   77.59   11.40
   2   5 -12   65.69   10.60
   2   5 -12   59.59   10.60
   2   5 -12   57.79    9.70
  -2  -5  12   81.09    9.00
  -2  -5  12   80.69    9.80
  -2  -5  12   73.89    8.20
  -2  -5  12   68.59    7.70
  -2  -5  12   53.79    7.80
   1   5 -12  183.08   16.60
   1   5 -12  178.38   15.30
   1   5 -12  174.48   15.10
   1   5 -12  161.98   15.40
  -1  -5  12  166.28   11.80
  -1  -5  12  163.18   10.20
  -1  -5  12  167.58   12.00
  -1  -5  12  177.08   11.10
  -1  -5  12  179.38   10.40
  -1  -5  12  170.08   10.60
   0   5 -12  688.93   27.40
   0   5 -12  678.63   26.20
   0   5 -12  700.63   22.40
   0   5 -12  765.62   30.90
   0   5 -12  722.23   28.90
   0  -5  12  678.63   24.80
   0  -5  12  666.13   23.90
   0  -5  12  718.53   25.40
   0  -5  12  706.23   25.50
   0  -5  12  717.13   24.40
   0  -5  12  731.63   24.40
  -1   5 -12    7.50    6.10
  -1   5 -12   23.50    8.50
  -1   5 -12   -1.60    7.70
  -1   5 -12   -6.40    8.40
   1  -5  12    6.00    6.10
   1  -5  12    5.10    4.70
   1  -5  12   -5.70    4.80
   1  -5  12   11.80    5.30
   1  -5  12   13.00    6.00
   3   4 -12  576.44   24.90
   3   4 -12  638.94   26.90
   3   4 -12  581.94   26.50
  -3  -4  12  587.44   21.30
  -3  -4  12  543.05   22.80
  -3  -4  12  589.24   22.40
  -3  -4  12  578.94   21.80
  -3  -4  12  593.64   20.40
   2   4 -12  168.88   14.50
   2   4 -12  171.58   13.10
   2   4 -12  172.38   14.80
   2   4 -12  144.59   13.80
  -2  -4  12  179.38   11.30
  -2  -4  12  167.68   10.10
  -2  -4  12  170.88   10.00
  -2  -4  12  163.08    9.80
  -2  -4  12  163.78   11.50
  -2  -4  12  164.48   10.60
   1   4 -12  881.51   28.80
   1   4 -12  840.62   26.60
   1   4 -12  792.22   30.60
   1   4 -12  889.01   32.70
   1   4 -12  858.71   31.30
   1   4 -12  917.81   30.60
  -1  -4  12  876.61   28.10
  -1  -4  12  863.01   28.80
  -1  -4  12  912.41   29.50
  -1  -4  12  892.11   27.80
  -1  -4  12  865.41   27.30
  -1  -4  12  881.01   29.20
   0   4 -12   58.79    8.10
   0   4 -12   53.29    8.20
   0   4 -12   63.09    9.70
   0   4 -12   67.59    9.50
   0   4 -12   57.79    7.00
   0   4 -12   51.09    8.00
   0  -4  12   53.89    7.30
   0  -4  12   57.69    7.00
   0  -4  12   59.39    7.50
   0  -4  12   49.60    6.30
   0  -4  12   54.39    7.10
   0  -4  12   69.29    7.30
  -1   4 -12  125.29   14.20
  -1   4 -12  133.19   13.20
  -1   4 -12  129.29   11.10
  -1   4 -12  117.39   12.70
  -1   4 -12  149.88   12.20
  -1   4 -12  146.29   14.10
  -1   4 -12  121.29   11.80
   1  -4  12  125.39   10.50
   1  -4  12  131.39    9.20
   1  -4  12  130.09   10.40
   1  -4  12  131.59   10.20
   1  -4  12  115.59   10.10
   1  -4  12  122.69   11.20
  -2   4 -12  324.47   21.30
  -2   4 -12  331.07   17.80
  -2   4 -12  332.57   18.20
  -2   4 -12  309.07   17.30
  -2   4 -12  296.67   16.40
  -2   4 -12  322.07   18.20
  -2   4 -12  257.37   15.50
  -2   4 -12  319.67   19.70
   2  -4  12  316.27   15.40
   2  -4  12  272.67   15.70
   2  -4  12  334.57   16.70
   2  -4  12  340.37   16.20
   2  -4  12  327.17   14.30
   4   3 -12  135.59   15.50
   4   3 -12  162.48   15.00
   4   3 -12  118.29   11.70
  -4  -3  12  166.48   12.40
  -4  -3  12  145.49   10.90
  -4  -3  12  144.39   11.80
  -4  -3  12  129.19   11.70
  -4  -3  12  135.09    9.80
  -4  -3  12  109.79   13.40
   3   3 -12   94.99   13.00
   3   3 -12  124.49   12.20
   3   3 -12  113.29    8.20
  -3  -3  12  115.39   11.10
  -3  -3  12   96.69    9.70
  -3  -3  12   97.29    8.60
  -3  -3  12  108.19    8.40
  -3  -3  12  104.79    9.50
   2   3 -12  528.25   18.70
   2   3 -12  505.75   20.30
   2   3 -12  510.55   23.00
   2   3 -12  566.74   23.50
   2   3 -12  550.84   22.50
  -2  -3  12  533.55   18.80
  -2  -3  12  526.75   21.00
  -2  -3  12  524.65   20.20
  -2  -3  12  577.24   20.50
  -2  -3  12  549.35   19.90
   1   3 -12  258.27   12.50
   1   3 -12  260.47   11.50
   1   3 -12  246.98   13.50
   1   3 -12  253.17   15.20
   1   3 -12  268.57   15.20
   1   3 -12  272.87   15.90
   1   3 -12  248.48   13.50
  -1  -3  12  268.87   13.70
  -1  -3  12  273.07   13.00
  -1  -3  12  260.57   12.30
  -1  -3  12  263.67   11.70
  -1  -3  12  233.18   12.60
  -1  -3  12  258.07   12.00
   0   3 -12  797.82   29.10
   0   3 -12  752.42   27.90
   0   3 -12  692.03   25.50
   0   3 -12  703.33   22.70
   0   3 -12  715.23   26.80
   0   3 -12  758.52   25.60
   0   3 -12  761.12   25.60
   0  -3  12  707.53   22.20
   0  -3  12  724.83   23.90
   0  -3  12  727.03   24.70
   0  -3  12  717.93   25.70
   0  -3  12  762.82   24.90
   0  -3  12  744.63   24.60
   0  -3  12  696.93   25.20
  -1   3 -12  578.14   22.50
  -1   3 -12  592.74   22.20
  -1   3 -12  568.64   19.00
  -1   3 -12  555.94   23.70
  -1   3 -12  592.44   24.60
  -1   3 -12  606.54   25.20
  -1   3 -12  596.14   22.80
   1  -3  12  608.84   22.70
   1  -3  12  585.04   20.20
   1  -3  12  599.14   21.60
   1  -3  12  577.94   20.40
   1  -3  12  603.34   22.40
   1  -3  12  580.84   21.40
   1  -3  12  594.24   21.10
  -2   3 -12   49.30    8.90
  -2   3 -12   56.19    6.10
  -2   3 -12   55.99    8.90
  -2   3 -12   61.89   10.40
  -2   3 -12   50.89    9.00
  -2   3 -12   53.79    8.20
  -2   3 -12   51.79   10.00
   2  -3  12   52.69    7.40
   2  -3  12   53.99    7.60
   2  -3  12   55.09    7.40
   2  -3  12   71.49    8.40
   2  -3  12   58.09    8.20
   2  -3  12   59.99    6.70
   2  -3  12   65.29    8.40
  -3   3 -12  164.78   15.60
  -3   3 -12  143.59   15.10
   3  -3  12  182.08   13.80
   4   2 -12    3.10    5.20
   4   2 -12    4.00    7.30
   4   2 -12   -4.00    4.60
   4   2 -12   12.10    7.00
   4   2 -12    6.70    7.60
  -4  -2  12   10.50    5.90
  -4  -2  12    2.10    7.20
  -4  -2  12    4.70    5.40
  -4  -2  12    6.00    5.20
  -4  -2  12    5.80    4.80
  -4  -2  12   12.20    6.00
   3   2 -12  934.91   27.30
   3   2 -12  909.41   29.90
   3   2 -12  946.01   34.50
   3   2 -12  886.31   30.50
   3   2 -12  867.21   29.00
   3   2 -12 1000.40   32.20
   3   2 -12  877.11   27.00
  -3  -2  12  908.21   31.20
  -3  -2  12  967.30   29.40
  -3  -2  12  972.20   32.70
  -3  -2  12  975.90   31.00
  -3  -2  12  941.61   30.60
   2   2 -12  117.69   10.10
   2   2 -12  111.39   10.80
   2   2 -12  135.19   12.00
   2   2 -12  103.59    8.70
   2   2 -12   95.79   11.20
   2   2 -12  110.49    8.50
  -2  -2  12   99.59    8.60
  -2  -2  12  112.49    7.90
  -2  -2  12  113.39    9.40
  -2  -2  12   94.39    9.80
  -2  -2  12  109.89    8.80
   1   2 -12  651.63   21.90
   1   2 -12  675.33   22.50
   1   2 -12  627.24   23.50
   1   2 -12  686.53   25.10
   1   2 -12  640.14   24.00
   1   2 -12  693.83   23.80
   1   2 -12  689.83   25.60
  -1  -2  12  693.23   24.60
  -1  -2  12  639.44   23.50
  -1  -2  12  675.53   22.70
  -1  -2  12  663.53   22.90
  -1  -2  12  691.33   22.20
   0   2 -12  664.53   25.20
   0   2 -12  649.64   23.90
   0   2 -12  653.13   25.60
   0   2 -12  611.24   23.90
   0   2 -12  705.33   22.60
   0   2 -12  623.04   19.90
   0   2 -12  655.23   23.90
   0   2 -12  648.04   21.40
   0   2 -12  685.33   25.50
   0  -2  12  642.64   21.70
   0  -2  12  657.23   23.80
   0  -2  12  626.74   23.30
   0  -2  12  666.33   20.60
   0  -2  12  690.23   22.30
   0  -2  12  667.73   23.20
   0  -2  12  661.23   22.70
  -1   2 -12   12.90    6.30
  -1   2 -12   11.00    7.00
  -1   2 -12   10.80    4.50
  -1   2 -12    4.30    5.30
  -1   2 -12   21.90    6.40
  -1   2 -12    6.10    6.50
  -1   2 -12    9.30    5.90
  -1   2 -12   13.10    5.90
   1  -2  12    9.60    5.00
   1  -2  12    6.00    3.80
   1  -2  12   10.70    4.20
   1  -2  12   15.80    4.80
   1  -2  12   13.70    5.00
   1  -2  12   15.00    4.70
   1  -2  12   20.90    5.80
  -2   2 -12  604.34   26.00
  -2   2 -12  662.93   22.40
  -2   2 -12  649.64   26.30
  -2   2 -12  738.63   28.40
  -2   2 -12  709.73   25.80
  -2   2 -12  694.03   26.40
  -2   2 -12  666.53   23.60
   2  -2  12  682.33   23.80
   2  -2  12  675.73   25.20
   2  -2  12  668.53   24.80
   2  -2  12  683.93   22.40
   2  -2  12  670.03   25.10
   2  -2  12  660.83   23.90
   2  -2  12  675.83   22.60
  -3   2 -12  174.98   16.10
  -3   2 -12  157.38   17.60
  -3   2 -12  140.69   14.20
  -3   2 -12  149.49   11.00
  -3   2 -12  179.08   14.90
  -3   2 -12  140.19   13.50
  -3   2 -12  154.18   14.80
   3  -2  12  150.88   10.30
   3  -2  12  164.28   16.30
   3  -2  12  168.98   10.30
   3  -2  12  150.98   13.10
   3  -2  12  164.48   13.60
   3  -2  12  150.58   13.70
   3  -2  12  134.89   12.40
   3  -2  12  170.38   13.50
   3  -2  12  163.08   13.30
   4   1 -12  331.87   17.20
   4   1 -12  321.17   15.60
   4   1 -12  321.07   19.90
   4   1 -12  310.37   13.60
   4   1 -12  330.47   16.70
   4   1 -12  349.27   14.10
   4   1 -12  330.47   17.30
   4   1 -12  318.67   13.30
  -4  -1  12  324.07   14.10
  -4  -1  12  345.47   15.50
  -4  -1  12  340.97   16.70
  -4  -1  12  330.37   17.20
  -4  -1  12  373.56   19.80
  -4  -1  12  353.76   16.30
  -4  -1  12  310.77   16.40
   3   1 -12   51.29    6.20
   3   1 -12   33.80    7.00
   3   1 -12   40.60    4.90
   3   1 -12   44.70    8.10
   3   1 -12   57.69    7.20
   3   1 -12   39.20    5.10
   3   1 -12   42.90    6.80
   3   1 -12   56.69    8.10
  -3  -1  12   50.39    7.30
  -3  -1  12   49.80    7.80
  -3  -1  12   52.69    6.90
  -3  -1  12   48.20    8.20
  -3  -1  12   50.49    7.60
   2   1 -12   70.19    8.90
   2   1 -12   82.29    8.30
   2   1 -12   93.59   10.40
   2   1 -12   79.89    6.50
   2   1 -12   68.69    8.20
   2   1 -12   76.69    9.10
   2   1 -12   65.39    8.60
  -2  -1  12   77.69    8.00
  -2  -1  12   65.89    8.30
  -2  -1  12   80.59    7.50
  -2  -1  12   80.49    7.70
  -2  -1  12   71.09    8.40
   1   1 -12 1117.29   35.70
   1   1 -12 1102.59   35.50
   1   1 -12 1095.19   33.80
   1   1 -12  995.90   35.10
   1   1 -12 1094.59   31.90
   1   1 -12 1185.98   36.30
   1   1 -12 1147.79   36.10
  -1  -1  12 1156.08   34.10
  -1  -1  12 1081.39   36.00
  -1  -1  12 1102.59   35.50
  -1  -1  12 1153.88   34.90
  -1  -1  12 1152.48   33.90
   0   1 -12   14.90    5.90
   0   1 -12   -2.90    5.10
   0   1 -12    3.00    5.10
   0   1 -12   20.60    6.30
   0   1 -12   14.60    4.70
   0   1 -12    5.80    4.70
   0   1 -12    6.50    4.40
   0   1 -12    4.20    5.50
   0  -1  12    3.00    3.40
   0  -1  12    7.60    5.00
   0  -1  12    7.30    4.70
   0  -1  12    5.30    3.30
   0  -1  12   10.20    3.90
   0  -1  12    9.20    4.50
  -1   1 -12  653.93   24.20
  -1   1 -12  650.33   25.10
  -1   1 -12  677.63   22.30
  -1   1 -12  651.63   26.00
  -1   1 -12  675.53   25.90
  -1   1 -12  644.64   21.20
  -1   1 -12  698.83   25.20
  -1   1 -12  632.24   24.40
   1  -1  12  619.34   22.60
   1  -1  12  662.73   22.20
   1  -1  12  643.74   24.20
   1  -1  12  645.34   21.70
   1  -1  12  642.24   21.10
   1  -1  12  663.63   24.10
  -2   1 -12   66.09    8.80
  -2   1 -12   72.29   10.20
  -2   1 -12   71.39    9.80
  -2   1 -12   87.89   10.50
  -2   1 -12   88.59   10.40
  -2   1 -12   79.29    8.60
  -2   1 -12   99.19   11.10
   2  -1  12   99.19    7.70
   2  -1  12   82.49    9.80
   2  -1  12   99.49    9.40
   2  -1  12  102.39   10.60
   2  -1  12   95.49   10.70
   2  -1  12   73.49    7.80
   2  -1  12  102.69   11.00
  -3   1 -12   21.70    8.20
  -3   1 -12   20.40    7.20
  -3   1 -12   19.40    8.10
  -3   1 -12    7.40    9.00
  -3   1 -12   27.10    8.00
  -3   1 -12    6.70    8.00
   3  -1  12   20.50    7.80
   3  -1  12   22.50    7.10
   3  -1  12   17.00    7.30
   3  -1  12   37.30    7.40
   3  -1  12   19.30    7.40
   3  -1  12   26.00    5.80
   3  -1  12   34.50    7.70
   3  -1  12    9.20    8.00
   4   0 -12  178.98   12.70
   4   0 -12  168.18   13.40
   4   0 -12  177.08   12.60
   4   0 -12  172.58   10.70
   4   0 -12  194.48   15.70
   4   0 -12  140.79   13.80
  -4   0  12  186.78   12.60
  -4   0  12  179.78   12.40
  -4   0  12  183.68   16.30
  -4   0  12  207.08   14.30
  -4   0  12  171.78   13.60
  -4   0  12  178.78   13.60
  -4   0  12  161.18   11.30
   3   0 -12  238.98   14.20
   3   0 -12  250.17   13.20
   3   0 -12  225.48   13.70
   3   0 -12  215.68   14.50
   3   0 -12  242.58   13.50
   3   0 -12  216.58   10.70
   3   0 -12  251.47   16.50
  -3   0  12  258.37   13.30
  -3   0  12  242.88   11.60
  -3   0  12  239.58   13.70
  -3   0  12  251.47   14.50
  -3   0  12  238.48   12.40
  -3   0  12  264.37   15.90
  -3   0  12  247.68   12.20
  -3   0  12  246.28   13.70
   2   0 -12  536.25   21.30
   2   0 -12  533.55   21.40
   2   0 -12  523.95   21.20
   2   0 -12  557.54   20.50
   2   0 -12  529.15   20.20
   2   0 -12  525.05   18.20
  -2   0  12  525.35   20.30
  -2   0  12  572.44   20.50
  -2   0  12  503.35   21.20
  -2   0  12  526.65   22.20
  -2   0  12  588.44   19.60
  -2   0  12  564.24   20.20
   1   0 -12    5.70    5.20
   1   0 -12    6.70    5.70
   1   0 -12   -4.80    4.80
   1   0 -12    7.70    5.60
   1   0 -12   14.50    5.50
   1   0 -12    8.00    4.70
   1   0 -12    2.40    4.10
   1   0 -12    4.80    5.00
  -1   0  12    6.20    5.20
  -1   0  12    2.30    3.90
  -1   0  12    7.50    4.90
  -1   0  12    4.30    4.70
  -1   0  12    7.40    4.50
  -1   0  12    4.50    4.30
   0   0 -12  401.16   18.50
   0   0 -12  430.76   18.80
   0   0 -12  431.46   18.50
   0   0 -12  425.16   16.90
   0   0 -12  407.46   15.60
   0   0 -12  383.66   17.40
   0   0 -12  419.26   19.10
   0   0 -12  443.16   17.90
   0   0  12  396.26   15.30
   0   0  12  433.66   18.80
   0   0  12  434.46   18.00
   0   0  12  446.86   16.30
   0   0  12  453.25   16.80
   0   0  12  416.46   17.00
  -1   0 -12  649.04   26.00
  -1   0 -12  661.93   25.40
  -1   0 -12  704.03   24.80
  -1   0 -12  649.83   24.80
  -1   0 -12  688.33   24.00
  -1   0 -12  646.54   26.50
   1   0  12  695.33   25.30
   1   0  12  738.33   25.90
   1   0  12  678.73   21.60
   1   0  12  704.33   24.10
   1   0  12  683.33   23.10
   1   0  12  727.13   24.10
  -2   0 -12  100.89   11.90
  -2   0 -12   75.49   10.50
  -2   0 -12  113.29   12.40
  -2   0 -12  119.19   11.40
  -2   0 -12   95.39   12.30
  -2   0 -12   89.69   10.00
   2   0  12  101.59   10.90
   2   0  12   88.29    7.40
   2   0  12  115.79   11.50
   2   0  12  119.29    9.40
   2   0  12   97.29   11.10
   2   0  12  101.99   10.60
   4  -1 -12  154.18   15.50
   4  -1 -12  153.18   10.80
   4  -1 -12  104.49   12.30
   4  -1 -12  116.09   12.50
   4  -1 -12  157.88   12.00
   4  -1 -12  121.49   14.00
  -4   1  12  143.19   13.70
  -4   1  12  156.28   14.30
  -4   1  12  143.59   12.20
  -4   1  12  145.99   14.00
  -4   1  12  138.69   16.60
  -4   1  12  129.89   11.30
  -4   1  12  164.18   13.80
   3  -1 -12  188.98   13.20
   3  -1 -12  193.08   13.80
   3  -1 -12  201.68   11.10
   3  -1 -12  186.68   12.90
   3  -1 -12  178.38   11.70
   3  -1 -12  199.88   14.30
  -3   1  12  190.88   13.10
  -3   1  12  161.18   14.90
  -3   1  12  182.58   13.60
  -3   1  12  193.68   12.20
  -3   1  12  180.38   11.30
  -3   1  12  177.38   10.90
  -3   1  12  171.78   13.10
  -3   1  12  181.68   12.70
   2  -1 -12  237.38   13.10
   2  -1 -12  249.38   13.90
   2  -1 -12  246.58   14.70
   2  -1 -12  259.57   12.40
   2  -1 -12  242.38   14.40
   2  -1 -12  232.88   14.20
  -2   1  12  262.07   13.60
  -2   1  12  256.87   13.80
  -2   1  12  253.47   13.30
  -2   1  12  229.78   14.40
  -2   1  12  252.27   13.90
  -2   1  12  253.27   12.80
  -2   1  12  265.97   15.70
   1  -1 -12  399.56   18.20
   1  -1 -12  413.46   19.40
   1  -1 -12  413.36   18.10
   1  -1 -12  396.86   18.40
   1  -1 -12  437.26   17.70
   1  -1 -12  389.06   16.00
   1  -1 -12  401.46   17.30
  -1   1  12  373.06   17.00
  -1   1  12  414.16   16.20
  -1   1  12  410.86   16.30
  -1   1  12  440.96   17.40
  -1   1  12  397.36   17.30
  -1   1  12  421.36   19.10
  -1   1  12  406.96   17.60
  -1   1  12  401.66   17.90
   0  -1 -12  699.73   24.30
   0  -1 -12  747.23   27.50
   0  -1 -12  698.73   25.90
   0  -1 -12  764.92   24.60
   0  -1 -12  727.83   27.60
   0  -1 -12  707.73   26.60
   0  -1 -12  725.53   25.50
   0  -1 -12  748.93   26.30
   0   1  12  745.93   25.50
   0   1  12  738.33   23.40
   0   1  12  732.43   24.90
   0   1  12  738.53   27.40
   0   1  12  713.03   25.50
   0   1  12  741.93   26.30
   0   1  12  720.23   25.80
   0   1  12  693.13   26.10
  -1  -1 -12    5.10    6.40
  -1  -1 -12    5.00    5.90
  -1  -1 -12    9.30    6.10
  -1  -1 -12   14.50    6.20
  -1  -1 -12   10.10    6.20
  -1  -1 -12    7.70    5.90
   1   1  12   11.10    5.80
   1   1  12   18.80    6.10
   1   1  12   13.40    4.60
   1   1  12   20.20    6.80
   1   1  12   18.00    5.80
   1   1  12   14.50    6.10
   1   1  12    4.50    6.20
   1   1  12   17.60    6.00
  -2  -1 -12  203.28   14.40
  -2  -1 -12  178.18   14.10
  -2  -1 -12  234.18   16.90
  -2  -1 -12  162.68   14.50
  -2  -1 -12  170.38   18.20
  -2  -1 -12  190.08   13.30
   2   1  12  199.58   13.70
   2   1  12  209.08   14.60
   2   1  12  211.38   14.10
   2   1  12  203.28   12.70
   2   1  12  213.28   14.20
   2   1  12  209.08   14.50
   2   1  12  193.58   13.80
   3  -2 -12    3.10    6.40
   3  -2 -12   -1.70    6.70
   3  -2 -12  -11.00    6.70
   3  -2 -12    8.70    6.00
   3  -2 -12   -3.00    6.20
  -3   2  12  -14.60    7.00
  -3   2  12   -6.90    5.80
  -3   2  12    0.20    7.20
  -3   2  12   -2.00    7.10
  -3   2  12   -0.30    8.70
  -3   2  12   -7.80    8.40
  -3   2  12   -2.40    6.30
  -3   2  12    7.00    6.60
  -3   2  12    3.40    6.60
   2  -2 -12  341.37   17.90
   2  -2 -12  346.47   17.00
   2  -2 -12  333.57   15.90
   2  -2 -12  362.56   15.30
   2  -2 -12  332.87   17.60
   2  -2 -12  314.27   17.60
  -2   2  12  335.87   17.90
  -2   2  12  358.16   16.50
  -2   2  12  351.26   18.20
  -2   2  12  342.57   13.60
  -2   2  12  349.87   17.70
  -2   2  12  380.66   20.90
  -2   2  12  346.07   16.90
  -2   2  12  358.86   19.60
  -2   2  12  325.87   16.70
   1  -2 -12  182.38   12.70
   1  -2 -12  189.38   13.60
   1  -2 -12  180.38   12.20
   1  -2 -12  224.58   14.80
   1  -2 -12  201.28   13.60
   1  -2 -12  159.98   13.00
   1  -2 -12  176.08   11.90
  -1   2  12  166.08   14.60
  -1   2  12  177.48   13.00
  -1   2  12  152.48   12.80
  -1   2  12  190.58   13.50
  -1   2  12  176.18   15.60
  -1   2  12  175.68   11.90
  -1   2  12  178.98   13.20
  -1   2  12  163.48   12.30
  -1   2  12  182.78   12.60
   0  -2 -12   -4.30    5.50
   0  -2 -12  -10.60    5.10
   0  -2 -12    5.30    6.40
   0  -2 -12   -9.10    5.40
   0  -2 -12    9.60    6.00
   0  -2 -12   -2.20    6.30
   0  -2 -12   -4.00    7.10
   0   2  12   10.40    5.70
   0   2  12    9.80    6.00
   0   2  12    2.40    7.40
   0   2  12    9.40    6.40
   0   2  12    7.80    7.00
   0   2  12    3.20    6.40
   0   2  12   10.30    6.70
   0   2  12    7.20    6.30
  -1  -2 -12  640.04   26.80
  -1  -2 -12  684.23   26.90
  -1  -2 -12  631.84   26.00
  -1  -2 -12  650.83   25.50
  -1  -2 -12  652.73   25.50
   1   2  12  665.63   25.60
   1   2  12  670.43   26.80
   1   2  12  716.53   26.50
   1   2  12  702.93   27.00
   1   2  12  693.63   26.40
   1   2  12  654.13   25.40
   1   2  12  679.43   25.50
   1   2  12  664.53   26.30
   2  -3 -12  286.87   16.10
   2  -3 -12  289.87   17.70
   2  -3 -12  299.47   17.10
   2  -3 -12  256.97   17.20
   2  -3 -12  278.87   17.90
  -2   3  12  350.76   18.30
  -2   3  12  312.57   19.10
  -2   3  12  294.97   17.20
  -2   3  12  321.67   22.20
  -2   3  12  309.37   18.00
  -2   3  12  280.87   21.20
   1  -3 -12   -0.90    6.20
   1  -3 -12   10.70    7.30
   1  -3 -12    4.60    7.30
   1  -3 -12   10.10    7.60
   1  -3 -12   -0.30    6.80
  -1   3  12   14.10    7.60
  -1   3  12   12.70    8.00
  -1   3  12   22.70    8.60
  -1   3  12   -1.10    8.30
  -1   3  12   13.50   10.00
  -1   3  12    6.10    8.90
  -1   3  12    4.60    7.90
  -1   3  12    6.70    8.90
  -1   3  12  -11.30    7.50
   0  -3 -12  434.76   21.90
   0  -3 -12  452.65   21.00
   0  -3 -12  465.85   20.70
   0  -3 -12  452.65   20.50
   0  -3 -12  447.66   21.40
   0  -3 -12  453.95   20.30
   0  -3 -12  440.56   21.60
   0   3  12  435.46   21.50
   0   3  12  453.25   22.00
   0   3  12  500.35   23.00
   0   3  12  482.55   23.50
   0   3  12  414.26   20.90
   0   3  12  494.55   23.10
   0   3  12  449.16   23.90
   2   4 -13  201.78   16.60
   2   4 -13  177.78   15.80
   2   4 -13  215.58   17.20
   2   4 -13  193.78   14.20
   2   4 -13  174.98   14.30
  -2  -4  13  172.58   11.30
  -2  -4  13  149.29   11.50
  -2  -4  13  189.78   13.50
  -2  -4  13  174.38   10.70
  -2  -4  13  182.48   12.20
   1   4 -13   10.20    7.70
   1   4 -13    8.20    7.80
   1   4 -13   15.10    5.30
   1   4 -13    1.80    8.40
   1   4 -13   11.20    7.70
  -1  -4  13   17.60    5.20
  -1  -4  13    7.20    5.90
  -1  -4  13   11.90    5.80
  -1  -4  13   12.90    5.70
  -1  -4  13   12.10    5.10
  -1  -4  13    9.60    4.70
   0   4 -13  232.18   16.10
   0   4 -13  265.87   15.90
   0   4 -13  234.18   13.50
   0   4 -13  251.17   15.40
   0   4 -13  268.07   18.70
   0   4 -13  247.58   17.30
   0  -4  13  250.57   13.40
   0  -4  13  215.98   14.40
   0  -4  13  259.57   13.80
   0  -4  13  250.57   12.60
   0  -4  13  228.68   13.60
   0  -4  13  225.48   13.00
  -1   4 -13  458.75   21.40
  -1   4 -13  467.25   24.70
  -1   4 -13  474.45   24.00
  -1   4 -13  477.05   20.30
  -1   4 -13  423.66   20.50
  -1   4 -13  468.95   22.70
  -1   4 -13  462.35   20.70
   1  -4  13  450.15   19.80
   1  -4  13  459.15   19.40
   1  -4  13  471.95   19.60
   1  -4  13  468.75   18.50
   1  -4  13  487.05   18.20
   1  -4  13  469.35   19.30
   1  -4  13  497.55   21.20
   3   3 -13   61.69    9.90
   3   3 -13   60.89   10.70
   3   3 -13   75.49    8.40
  -3  -3  13   53.69    7.40
  -3  -3  13   38.00    7.90
  -3  -3  13   74.29    7.70
  -3  -3  13   70.19    8.40
  -3  -3  13   72.59    8.70
   2   3 -13   84.59    8.90
   2   3 -13   95.79    9.70
   2   3 -13   94.59   11.10
   2   3 -13   70.39   10.00
   2   3 -13   63.09    8.50
   2   3 -13   68.59    9.50
  -2  -3  13   83.69   10.80
  -2  -3  13   70.29    8.90
  -2  -3  13   62.39    8.10
  -2  -3  13   77.69    8.00
  -2  -3  13   72.59    8.40
   1   3 -13  223.28   12.50
   1   3 -13  233.28   11.50
   1   3 -13  217.58   13.10
   1   3 -13  214.38   16.30
   1   3 -13  214.48   15.40
   1   3 -13  194.98   15.20
   1   3 -13  194.28   13.50
  -1  -3  13  224.18   12.20
  -1  -3  13  212.98   11.90
  -1  -3  13  217.08   14.00
  -1  -3  13  197.58   12.00
  -1  -3  13  218.58   12.70
  -1  -3  13  216.28   11.20
   0   3 -13  408.86   21.00
   0   3 -13  384.26   20.00
   0   3 -13  417.06   18.40
   0   3 -13  362.16   19.10
   0   3 -13  426.26   17.60
   0   3 -13  368.06   15.00
   0   3 -13  415.46   18.10
   0  -3  13  399.06   17.00
   0  -3  13  413.56   17.10
   0  -3  13  373.96   17.10
   0  -3  13  373.96   15.60
   0  -3  13  390.46   14.50
   0  -3  13  372.36   17.90
   0  -3  13  353.86   16.40
  -1   3 -13    2.40    6.80
  -1   3 -13    8.00    6.50
  -1   3 -13    9.50    8.00
  -1   3 -13    2.50    5.00
  -1   3 -13    2.70    6.80
  -1   3 -13    7.70    8.10
  -1   3 -13   -4.80    6.40
   1  -3  13    0.10    4.80
   1  -3  13    5.60    5.40
   1  -3  13    5.20    6.00
   1  -3  13    2.30    5.00
   1  -3  13    5.20    5.10
   1  -3  13    0.20    5.30
   1  -3  13    1.60    4.60
  -2   3 -13  163.28   18.30
  -2   3 -13  172.28   15.00
  -2   3 -13  127.19   14.80
  -2   3 -13  194.08   17.90
  -2   3 -13  192.98   14.80
  -2   3 -13  182.78   15.40
   2  -3  13  164.18   13.30
   2  -3  13  155.28   12.80
   2  -3  13  142.49   10.60
   2  -3  13  153.28   13.20
   2  -3  13  185.88   12.40
   2  -3  13  144.09   13.90
   2  -3  13  174.98   12.10
   3   2 -13   35.10    8.30
   3   2 -13   23.00    6.10
   3   2 -13   20.80    7.90
   3   2 -13   20.70    7.50
   3   2 -13   41.40    7.60
  -3  -2  13   27.20    5.50
  -3  -2  13   29.70    7.50
  -3  -2  13   32.70    6.70
  -3  -2  13   38.60    7.20
  -3  -2  13   25.40    7.20
   2   2 -13  334.17   17.80
   2   2 -13  311.47   14.60
   2   2 -13  288.37   13.80
   2   2 -13  260.07   17.00
   2   2 -13  314.27   16.10
   2   2 -13  304.67   16.80
  -2  -2  13  301.67   15.30
  -2  -2  13  304.07   14.70
  -2  -2  13  274.87   14.10
  -2  -2  13  281.37   13.30
  -2  -2  13  315.77   16.70
   1   2 -13   92.09   11.90
   1   2 -13   59.09    7.90
   1   2 -13   71.69    8.30
   1   2 -13   65.69    8.00
   1   2 -13   72.99    9.90
  -1  -2  13   58.59    8.20
  -1  -2  13   64.29    7.50
  -1  -2  13   73.29    9.10
  -1  -2  13   71.79    8.10
  -1  -2  13   63.29    8.30
   0   2 -13    7.40    6.00
   0   2 -13    0.80    6.50
   0   2 -13    2.70    6.40
   0   2 -13    7.30    5.60
   0   2 -13   10.00    6.80
   0   2 -13   17.70    7.60
   0   2 -13    3.30    5.60
   0   2 -13    6.90    4.90
   0  -2  13   10.80    5.60
   0  -2  13    0.40    4.10
   0  -2  13    5.40    5.70
   0  -2  13    3.40    4.80
   0  -2  13    6.20    4.60
   0  -2  13    6.30    4.40
  -1   2 -13  479.05   22.40
  -1   2 -13  465.05   21.30
  -1   2 -13  548.95   23.70
  -1   2 -13  515.65   18.60
  -1   2 -13  485.65   18.90
  -1   2 -13  514.75   23.70
  -1   2 -13  517.65   21.80
  -1   2 -13  507.25   21.00
   1  -2  13  485.35   20.00
   1  -2  13  500.55   18.50
   1  -2  13  477.65   18.30
   1  -2  13  509.85   18.70
   1  -2  13  543.65   21.40
   1  -2  13  456.05   20.60
   1  -2  13  503.65   21.00
  -2   2 -13  256.97   17.50
  -2   2 -13  284.97   17.00
  -2   2 -13  305.17   19.40
  -2   2 -13  244.58   13.00
  -2   2 -13  237.28   17.20
  -2   2 -13  241.18   14.40
  -2   2 -13  262.17   17.20
   2  -2  13  254.67   15.60
   2  -2  13  262.07   15.00
   2  -2  13  277.87   14.80
   2  -2  13  268.67   13.10
   2  -2  13  204.68   15.50
   2  -2  13  272.27   16.50
   2  -2  13  297.57   13.50
   3   1 -13  117.89   12.40
   3   1 -13   87.79   11.20
   3   1 -13  137.79   11.70
   3   1 -13  122.59    8.40
   3   1 -13  161.88    9.00
   3   1 -13  102.49   12.20
   3   1 -13  137.79   11.50
  -3  -1  13  126.39   11.80
  -3  -1  13  141.19   10.70
  -3  -1  13  112.29   13.10
  -3  -1  13  132.69   11.40
  -3  -1  13  104.89    9.80
  -3  -1  13  119.89   11.00
   2   1 -13  296.47   14.50
   2   1 -13  263.67   15.00
   2   1 -13  314.07   16.20
   2   1 -13  274.17   17.60
   2   1 -13  289.27   15.30
  -2  -1  13  293.97   14.30
  -2  -1  13  300.87   13.90
  -2  -1  13  282.57   14.60
  -2  -1  13  288.67   16.30
  -2  -1  13  273.77   14.60
   1   1 -13   13.50    4.30
   1   1 -13   18.20    5.50
   1   1 -13   15.20    6.20
   1   1 -13   10.00    6.60
   1   1 -13   19.80    6.30
   1   1 -13    9.50    6.40
   1   1 -13   14.60    7.00
  -1  -1  13   23.80    6.40
  -1  -1  13   13.30    4.90
  -1  -1  13   26.80    6.90
  -1  -1  13   15.70    4.90
  -1  -1  13   18.70    5.00
   0   1 -13  455.75   20.00
   0   1 -13  427.66   19.30
   0   1 -13  489.45   20.10
   0   1 -13  427.16   17.20
   0   1 -13  444.06   20.40
   0   1 -13  432.66   19.70
   0   1 -13  438.76   16.00
   0   1 -13  449.46   21.00
   0  -1  13  461.95   17.40
   0  -1  13  446.46   19.60
   0  -1  13  400.86   16.30
   0  -1  13  428.06   18.90
   0  -1  13  434.76   18.10
   0  -1  13  463.45   16.90
  -1   1 -13  137.99   13.10
  -1   1 -13  132.59   12.90
  -1   1 -13  129.79   10.50
  -1   1 -13  130.69   13.40
  -1   1 -13  141.19   12.60
  -1   1 -13  140.79   15.00
  -1   1 -13  121.39   13.40
   1  -1  13  144.79    9.70
   1  -1  13  155.08   12.20
   1  -1  13  144.09    9.20
   1  -1  13  135.59   11.20
   1  -1  13  147.49   12.70
   1  -1  13  168.38   10.90
  -2   1 -13    5.30    7.30
  -2   1 -13    3.60    7.30
  -2   1 -13   -1.30    6.70
  -2   1 -13    9.00    8.00
  -2   1 -13   10.10    7.00
  -2   1 -13   12.70    8.80
   2  -1  13    6.30    6.70
   2  -1  13   -8.60    6.00
   2  -1  13    4.30    5.00
   2  -1  13   -2.10    6.40
   2  -1  13    3.90    6.70
   2  -1  13    8.70    5.20
   3   0 -13  117.99   11.60
   3   0 -13  107.49   11.20
   3   0 -13  117.59   14.50
   3   0 -13   89.99   11.70
   3   0 -13  112.79   11.80
  -3   0  13  119.99   12.60
  -3   0  13  124.89   11.10
  -3   0  13  103.59   10.40
  -3   0  13  113.19   10.00
  -3   0  13   99.89   11.20
  -3   0  13  117.99   14.00
  -3   0  13   87.19   11.20
  -3   0  13  110.19   10.40
   2   0 -13  252.77   14.10
   2   0 -13  198.58   11.00
   2   0 -13  242.88   13.80
   2   0 -13  178.68   13.60
   2   0 -13  211.48   14.70
   2   0 -13  196.68   14.30
  -2   0  13  226.08   15.10
  -2   0  13  211.78   13.80
  -2   0  13  258.97   12.60
  -2   0  13  244.38   12.90
  -2   0  13  251.37   13.50
  -2   0  13  219.98   13.50
   1   0 -13  113.09   11.50
   1   0 -13  127.99   11.60
   1   0 -13  112.09   10.80
   1   0 -13   92.69   10.10
   1   0 -13   96.49   11.50
   1   0 -13  115.59   11.00
   1   0 -13  103.99    8.90
  -1   0  13  115.39    9.80
  -1   0  13   89.49   10.10
  -1   0  13  108.79    9.20
  -1   0  13  114.69   10.20
  -1   0  13   89.59   10.70
  -1   0  13   95.29   11.30
   0   0 -13  173.48   13.70
   0   0 -13  154.18   12.70
   0   0 -13  183.08   12.20
   0   0 -13  166.58   12.90
   0   0 -13  175.18   10.70
   0   0 -13  166.38   13.10
   0   0 -13  166.88   13.20
   0   0 -13  182.88   14.00
   0   0  13  185.48   11.40
   0   0  13  164.48   11.20
   0   0  13  167.88   10.30
   0   0  13  173.98   13.30
   0   0  13  177.38   13.10
   0   0  13  181.98   12.20
  -1   0 -13   37.10    8.60
  -1   0 -13   42.90    9.30
  -1   0 -13   31.70    8.10
  -1   0 -13   20.10    7.70
  -1   0 -13   41.10    8.30
  -1   0 -13   46.80    7.40
  -1   0 -13   47.20    8.10
   1   0  13   49.80    7.80
   1   0  13   42.20    8.00
   1   0  13   47.50    7.70
   1   0  13   46.00    6.00
   1   0  13   28.10    7.40
   1   0  13   59.19    7.70
  -2   0 -13  392.76   18.40
  -2   0 -13  352.76   20.40
  -2   0 -13  417.56   20.60
  -2   0 -13  388.46   20.20
  -2   0 -13  407.66   20.80
  -2   0 -13  372.96   21.10
   2   0  13  405.86   17.20
   2   0  13  419.66   19.80
   2   0  13  405.66   19.50
   2   0  13  402.36   20.10
   2   0  13  372.36   19.50
   3  -1 -13   47.50    7.40
   3  -1 -13   40.90    8.30
   3  -1 -13   36.50    8.50
   3  -1 -13   25.10    7.70
   3  -1 -13   35.90    7.90
   3  -1 -13   26.80    9.10
  -3   1  13   22.00    9.20
  -3   1  13   31.40    8.20
  -3   1  13   28.10    8.10
  -3   1  13   37.30    7.70
  -3   1  13   28.80    8.10
  -3   1  13   37.80    7.30
  -3   1  13   36.70    6.50
  -3   1  13   34.70    8.50
   2  -1 -13  320.57   16.20
   2  -1 -13  287.87   16.00
   2  -1 -13  299.87   17.40
   2  -1 -13  289.17   17.50
   2  -1 -13  333.97   14.90
   2  -1 -13  316.67   17.50
  -2   1  13  335.87   16.10
  -2   1  13  314.87   17.60
  -2   1  13  329.87   19.10
  -2   1  13  310.17   16.10
  -2   1  13  311.17   16.60
  -2   1  13  328.27   16.50
  -2   1  13  328.57   17.10
   1  -1 -13   20.50    6.40
   1  -1 -13   17.10    5.60
   1  -1 -13   21.90    7.20
   1  -1 -13   35.20    7.10
   1  -1 -13   17.00    7.10
   1  -1 -13   34.80    8.10
  -1   1  13   24.30    6.80
  -1   1  13   22.70    7.80
  -1   1  13   18.80    6.50
  -1   1  13   22.50    7.40
  -1   1  13   18.70    6.70
  -1   1  13   18.60    6.80
  -1   1  13   27.00    5.90
  -1   1  13   26.50    6.90
   0  -1 -13  184.88   12.90
   0  -1 -13  178.18   14.90
   0  -1 -13  200.38   12.50
   0  -1 -13  168.18   13.60
   0  -1 -13  157.58   13.40
   0  -1 -13  150.48   14.50
   0  -1 -13  181.48   14.40
   0   1  13  175.38   13.70
   0   1  13  189.58   11.30
   0   1  13  186.78   14.70
   0   1  13  194.08   13.10
   0   1  13  178.98   13.40
   0   1  13  185.48   13.30
   0   1  13  199.38   13.60
   0   1  13  193.98   12.70
  -1  -1 -13   76.89   10.10
  -1  -1 -13   78.89   10.20
  -1  -1 -13   98.89   13.30
  -1  -1 -13  134.99   12.40
  -1  -1 -13  113.39   12.70
  -1  -1 -13   99.79   12.90
   1   1  13  129.49   13.00
   1   1  13  111.89   12.40
   1   1  13  103.49   12.90
   1   1  13  109.69   12.40
   1   1  13  123.49   11.70
   1   1  13  133.89   13.80
   2  -2 -13    4.70    6.90
   2  -2 -13   10.30    8.50
   2  -2 -13   -8.80    7.20
   2  -2 -13   -0.40    7.10
   2  -2 -13   16.10    7.80
  -2   2  13   -7.60    7.20
  -2   2  13   -1.30    7.30
  -2   2  13    2.60    7.60
  -2   2  13   -7.10    8.40
  -2   2  13  -11.60    7.40
  -2   2  13    4.60   10.00
  -2   2  13   -9.40    6.90
   1  -2 -13   19.00    8.00
   1  -2 -13   17.20    7.90
   1  -2 -13    4.30    7.30
   1  -2 -13    5.60    7.80
   1  -2 -13    6.30    6.90
   1  -2 -13    5.30    6.90
  -1   2  13   -1.70    6.70
  -1   2  13    6.60    8.00
  -1   2  13    6.90    8.20
  -1   2  13    9.80    7.80
  -1   2  13    0.90    9.40
  -1   2  13   -8.20    7.90
  -1   2  13   -2.00    7.30
  -1   2  13   16.60    7.10
   0  -2 -13  138.99   13.30
   0  -2 -13  125.49   14.20
   0  -2 -13  126.09   13.90
   0  -2 -13  137.99   14.50
   0  -2 -13  132.79   13.20
   0  -2 -13  130.99   12.50
   0  -2 -13  140.49   14.80
   0   2  13  140.09   13.80
   0   2  13  136.99   14.20
   0   2  13  130.79   14.00
   0   2  13  123.39   16.10
   0   2  13  138.39   14.40
   0   2  13  128.79   13.40
   0   2  13  126.89   15.50
   2   3 -14  545.15   24.80
   2   3 -14  480.25   25.20
   2   3 -14  569.94   26.30
   2   3 -14  531.75   20.60
   2   3 -14  554.54   21.00
  -2  -3  14  573.14   21.70
  -2  -3  14  523.85   21.50
  -2  -3  14  527.75   22.00
  -2  -3  14  514.85   23.30
  -2  -3  14  513.35   20.20
   1   3 -14    9.60    6.60
   1   3 -14   16.10    6.40
   1   3 -14   13.80    8.90
   1   3 -14    1.10    8.60
   1   3 -14   -1.80    7.00
   1   3 -14   10.00    7.70
   1   3 -14   25.20    8.60
  -1  -3  14    6.80    6.80
  -1  -3  14    8.50    5.60
  -1  -3  14    4.00    5.90
  -1  -3  14    2.70    5.10
  -1  -3  14    4.20    5.00
   0   3 -14  334.67   15.50
   0   3 -14  359.26   19.30
   0   3 -14  347.37   20.50
   0   3 -14  385.06   21.30
   0   3 -14  374.86   18.20
   0   3 -14  367.56   17.70
   0   3 -14  413.26   21.90
   0  -3  14  332.67   18.50
   0  -3  14  353.86   17.80
   0  -3  14  368.56   18.10
   0  -3  14  386.56   16.90
   0  -3  14  369.26   17.20
   0  -3  14  374.16   16.10
   2   2 -14   -7.60    7.40
   2   2 -14   11.60    8.50
   2   2 -14   -6.60    7.50
   2   2 -14   11.50    6.30
   2   2 -14   -0.30    6.50
   2   2 -14    0.10    8.20
  -2  -2  14   10.10    6.90
  -2  -2  14    2.30    5.10
  -2  -2  14   -3.10    5.50
  -2  -2  14   -2.00    5.70
  -2  -2  14   11.40    6.20
   1   2 -14   93.19   11.60
   1   2 -14   96.69   10.60
   1   2 -14  148.59   13.10
   1   2 -14  130.59   14.70
   1   2 -14  117.89   14.40
   1   2 -14  112.39   11.60
  -1  -2  14   93.69    9.40
  -1  -2  14  112.49   12.60
  -1  -2  14  115.89   10.10
  -1  -2  14  105.49   11.30
  -1  -2  14  114.49   11.00
   0   2 -14  158.58   15.60
   0   2 -14  159.08   16.00
   0   2 -14  179.18   15.90
   0   2 -14  189.88   14.80
   0   2 -14  184.28   14.10
   0   2 -14  152.18   11.20
   0   2 -14  159.18   11.80
   0  -2  14  186.08   14.30
   0  -2  14  172.38   11.40
   0  -2  14  186.58   12.60
   0  -2  14  166.48   10.80
   0  -2  14  174.78   13.30
  -1   2 -14   -8.20    9.10
  -1   2 -14   -1.90    7.70
  -1   2 -14    3.00    7.50
  -1   2 -14   -5.80    7.80
  -1   2 -14   -5.20    9.00
  -1   2 -14    7.20    6.30
   1  -2  14    3.60    7.00
   1  -2  14   -1.30    6.30
   1  -2  14    1.70    5.70
   1  -2  14   -6.60    6.00
   1  -2  14    1.60    5.50
   1  -2  14    1.80    6.90
   2   1 -14  340.17   17.30
   2   1 -14  349.37   18.60
   2   1 -14  332.97   18.40
   2   1 -14  293.47   19.60
   2   1 -14  363.46   16.80
  -2  -1  14  346.37   16.60
  -2  -1  14  282.87   15.30
  -2  -1  14  305.67   16.80
  -2  -1  14  273.37   17.90
  -2  -1  14  332.07   16.60
   1   1 -14  387.76   19.80
   1   1 -14  470.85   20.90
   1   1 -14  405.86   17.80
   1   1 -14  460.45   20.90
   1   1 -14  418.26   19.60
  -1  -1  14  391.56   18.80
  -1  -1  14  433.76   17.60
  -1  -1  14  359.46   19.00
  -1  -1  14  424.96   17.70
  -1  -1  14  398.36   20.90
   0   1 -14   65.49    9.60
   0   1 -14   71.29    9.70
   0   1 -14   70.39   10.90
   0   1 -14   78.69   10.10
   0   1 -14   47.70    9.60
   0   1 -14   54.39    6.40
   0   1 -14   59.69    9.10
   0   1 -14   73.49    8.70
   0  -1  14   69.19    9.50
   0  -1  14   81.29   10.70
   0  -1  14   44.50    8.80
   0  -1  14   77.89    8.60
   0  -1  14   63.19    7.80
  -1   1 -14  130.59   14.50
  -1   1 -14  114.79   14.10
  -1   1 -14  125.79   13.90
  -1   1 -14  142.69   12.70
   1  -1  14  136.09   13.80
   1  -1  14  129.79   12.60
   1  -1  14  131.29   12.80
   1  -1  14  135.99   11.10
   2   0 -14  267.17   15.40
   2   0 -14  265.47   17.20
   2   0 -14  277.67   16.80
   2   0 -14  247.98   16.40
  -2   0  14  277.57   15.00
  -2   0  14  240.58   15.90
  -2   0  14  257.47   16.40
  -2   0  14  245.58   18.00
  -2   0  14  266.77   14.90
  -2   0  14  253.37   15.10
  -2   0  14  256.67   15.30
   1   0 -14   19.20    8.10
   1   0 -14   26.90    6.10
   1   0 -14   13.50    7.70
   1   0 -14    4.00    7.00
   1   0 -14   20.50    8.40
   1   0 -14   19.00    6.80
  -1   0  14   15.30    6.80
  -1   0  14   11.10    6.40
  -1   0  14   20.60    6.60
  -1   0  14   15.40    7.70
  -1   0  14   17.70    7.40
  -1   0  14   19.80    6.80
   0   0 -14  254.17   13.30
   0   0 -14  270.07   18.40
   0   0 -14  258.67   15.20
   0   0 -14  249.18   17.50
   0   0 -14  238.38   16.50
   0   0 -14  274.17   16.10
   0   0 -14  254.87   17.30
   0   0 -14  217.38   16.00
   0   0  14  262.87   15.90
   0   0  14  244.58   15.30
   0   0  14  268.27   17.20
   0   0  14  236.48   14.40
   0   0  14  268.47   14.50
   0   0  14  262.97   15.30
   0   0  14  248.88   13.30
   0   0   0    0.00    0.00

_computing_structure_solution     'SHELXT 2014/5 (Sheldrick, 2014)'
;
_shelx_hkl_checksum              14708
_olex2_submission_special_instructions 'No special instructions were received'
loop_
_space_group_symop_operation_xyz
'x, y, z'
'-x, -y, -z'
loop_
_atom_site_label
_atom_site_type_symbol
_atom_site_fract_x
_atom_site_fract_y
_atom_site_fract_z
_atom_site_U_iso_or_equiv
_atom_site_adp_type
_atom_site_occupancy
_atom_site_site_symmetry_order
_atom_site_calc_flag
Sn1 Sn 0.67838(2) 0.18264(2) 0.24364(2) 0.01385(6) Uani 1 1 d
S1 S 0.23741(9) 0.86145(7) 0.09592(4) 0.01448(9) Uani 1 1 d
S2 S 0.12090(9) 0.28320(8) 0.62518(4) 0.01739(9) Uani 1 1 d
N1 N 0.3627(4) 0.4093(3) 0.15043(17) 0.0192(3) Uani 1 1 d
N2 N 0.4208(3) 0.2229(3) 0.40715(17) 0.0186(3) Uani 1 1 d
C1 C 0.3161(3) 0.5980(3) 0.12839(16) 0.0130(3) Uani 1 1 d
C2 C 0.3003(3) 0.2494(3) 0.49937(17) 0.0137(3) Uani 1 1 d
loop_
_atom_site_aniso_label
_atom_site_aniso_U_11
_atom_site_aniso_U_22
_atom_site_aniso_U_33
_atom_site_aniso_U_23
_atom_site_aniso_U_13
_atom_site_aniso_U_12
Sn1 0.01524(8) 0.01247(7) 0.01539(8) 0.00420(4) 0.00491(4) 0.00290(4)
S1 0.01828(19) 0.00994(17) 0.01567(18) 0.00371(14) 0.00117(14) 0.00357(14)
S2 0.0185(2) 0.01723(19) 0.01631(19) 0.00038(15) 0.00754(15) -0.00247(15)
N1 0.0224(7) 0.0139(7) 0.0213(7) 0.0049(6) -0.0003(6) 0.0023(5)
N2 0.0221(7) 0.0160(7) 0.0178(7) 0.0018(5) 0.0063(6) -0.0004(6)
C1 0.0142(7) 0.0121(7) 0.0123(7) 0.0011(5) 0.0024(5) 0.0006(5)
C2 0.0149(7) 0.0112(7) 0.0142(7) 0.0023(5) 0.0003(5) -0.0011(5)
loop_
_atom_type_symbol
_atom_type_description
_atom_type_scat_dispersion_real
_atom_type_scat_dispersion_imag
_atom_type_scat_source
C C 0.0033 0.0016 'International Tables Vol C Tables 4.2.6.8 and 6.1.1.4'
N N 0.0061 0.0033 'International Tables Vol C Tables 4.2.6.8 and 6.1.1.4'
S S 0.1246 0.1234 'International Tables Vol C Tables 4.2.6.8 and 6.1.1.4'
Sn Sn -0.6537 1.4246 'International Tables Vol C Tables 4.2.6.8 and 6.1.1.4'
loop_
_geom_angle_atom_site_label_1
_geom_angle_atom_site_label_2
_geom_angle_atom_site_label_3
_geom_angle
_geom_angle_site_symmetry_3
N1 Sn1 S1 73.01(4) 1_545
N2 Sn1 S1 85.33(4) 1_545
N2 Sn1 N1 83.28(6) .
C1 S1 Sn1 104.02(6) 1_565
C1 N1 Sn1 146.48(15) .
C2 N2 Sn1 175.54(15) .
N1 C1 S1 177.77(17) .
N2 C2 S2 177.94(16) .
loop_
_geom_bond_atom_site_label_1
_geom_bond_atom_site_label_2
_geom_bond_distance
_geom_bond_site_symmetry_2
Sn1 S1 2.8209(5) 1_545
Sn1 N1 2.2836(16) .
Sn1 N2 2.1984(17) .
S1 Sn1 2.8209(5) 1_565
S1 C1 1.6422(17) .
S2 C2 1.6312(18) .
N1 C1 1.161(2) .
N2 C2 1.162(2) .
