#------------------------------------------------------------------------------
#$Date: 2019-11-24 11:22:03 +0200 (Sun, 24 Nov 2019) $
#$Revision: 237781 $
#$URL: file:///home/coder/svn-repositories/cod/cif/7/23/75/7237569.cif $
#------------------------------------------------------------------------------
#
# This file is available in the Crystallography Open Database (COD),
# http://www.crystallography.net/
#
# All data on this site have been placed in the public domain by the
# contributors.
#
data_7237569
loop_
_publ_author_name
'Sun, Tiancheng'
'Wang, Ping'
'Fan, Ruiqing'
'Chen, Wei'
'Hao, Sue'
'Yang, Yulin'
_publ_section_title
;
 Functional microscale single-phase white emission lanthanide MOF for
 tunable fluorescent sensing and water quality monitoring
;
_journal_issue                   12
_journal_name_full               'Journal of Materials Chemistry C'
_journal_page_first              3598
_journal_paper_doi               10.1039/C8TC05968C
_journal_volume                  7
_journal_year                    2019
_chemical_formula_sum            'C14 H12 N Nd O10'
_chemical_formula_weight         498.49
_space_group_crystal_system      triclinic
_space_group_IT_number           2
_space_group_name_Hall           '-P 1'
_space_group_name_H-M_alt        'P -1'
_atom_sites_solution_hydrogens   mixed
_audit_creation_method           SHELXL-2014/7
_audit_update_record
;
2018-10-12 deposited with the CCDC.	2019-02-19 downloaded from the CCDC.
;
_cell_angle_alpha                110.247(5)
_cell_angle_beta                 94.315(6)
_cell_angle_gamma                103.043(5)
_cell_formula_units_Z            2
_cell_length_a                   6.043(3)
_cell_length_b                   11.817(6)
_cell_length_c                   12.667(7)
_cell_measurement_reflns_used    2855
_cell_measurement_temperature    293(2)
_cell_measurement_theta_max      24.997
_cell_measurement_theta_min      2.983
_cell_volume                     815.0(7)
_computing_structure_refinement  'SHELXL-2014/7 (Sheldrick, 2014)'
_diffrn_ambient_temperature      293(2)
_diffrn_measured_fraction_theta_full 0.994
_diffrn_measured_fraction_theta_max 0.994
_diffrn_measurement_device_type  'Bruker Smart APEX CCD area detector'
_diffrn_measurement_method       'phi and omega scans'
_diffrn_radiation_type           MoK\a
_diffrn_radiation_wavelength     0.71073
_diffrn_reflns_av_R_equivalents  0.0257
_diffrn_reflns_av_unetI/netI     0.0378
_diffrn_reflns_Laue_measured_fraction_full 0.994
_diffrn_reflns_Laue_measured_fraction_max 0.994
_diffrn_reflns_limit_h_max       7
_diffrn_reflns_limit_h_min       -7
_diffrn_reflns_limit_k_max       14
_diffrn_reflns_limit_k_min       -14
_diffrn_reflns_limit_l_max       15
_diffrn_reflns_limit_l_min       -15
_diffrn_reflns_number            5573
_diffrn_reflns_point_group_measured_fraction_full 0.994
_diffrn_reflns_point_group_measured_fraction_max 0.994
_diffrn_reflns_theta_full        24.999
_diffrn_reflns_theta_max         24.999
_diffrn_reflns_theta_min         1.738
_diffrn_source                   'fine-focus sealed tube'
_exptl_absorpt_coefficient_mu    3.242
_exptl_absorpt_correction_T_max  0.423
_exptl_absorpt_correction_T_min  0.402
_exptl_absorpt_correction_type   multi-scan
_exptl_absorpt_process_details   '(SADABS; Sheldrick, 2003)'
_exptl_crystal_colour            purple
_exptl_crystal_density_diffrn    2.031
_exptl_crystal_description       flake
_exptl_crystal_F_000             486
_exptl_crystal_size_max          0.360
_exptl_crystal_size_mid          0.320
_exptl_crystal_size_min          0.300
_refine_diff_density_max         1.495
_refine_diff_density_min         -1.291
_refine_diff_density_rms         0.244
_refine_ls_extinction_method     none
_refine_ls_goodness_of_fit_ref   1.167
_refine_ls_hydrogen_treatment    constr
_refine_ls_matrix_type           full
_refine_ls_number_parameters     277
_refine_ls_number_reflns         2855
_refine_ls_number_restraints     6
_refine_ls_restrained_S_all      1.182
_refine_ls_R_factor_all          0.0376
_refine_ls_R_factor_gt           0.0342
_refine_ls_shift/su_max          0.051
_refine_ls_shift/su_mean         0.001
_refine_ls_structure_factor_coef Fsqd
_refine_ls_weighting_details
'w=1/[\s^2^(Fo^2^)+(0.0639P)^2^+1.5249P] where P=(Fo^2^+2Fc^2^)/3'
_refine_ls_weighting_scheme      calc
_refine_ls_wR_factor_gt          0.0961
_refine_ls_wR_factor_ref         0.1059
_reflns_Friedel_coverage         0.000
_reflns_number_gt                2717
_reflns_number_total             2855
_reflns_threshold_expression     'I > 2\s(I)'
_cod_data_source_file            c8tc05968c2.cif
_cod_data_source_block           1
_cod_database_code               7237569
_shelx_shelxl_version_number     2014/7
_shelx_space_group_comment
;
The symmetry employed for this shelxl refinement is uniquely defined
by the following loop, which should always be used as a source of
symmetry information in preference to the above space-group names.
They are only intended as comments.
;
_shelx_estimated_absorpt_t_min   0.388
_shelx_estimated_absorpt_t_max   0.443
_shelx_res_file
;

    1.res created by SHELXL-2014/7


TITL 1 in P-1
CELL 0.71073 6.043 11.817 12.667 110.247 94.315 103.043
ZERR 2 0.003 0.006 0.007 0.005 0.006 0.005
LATT 1
SFAC C H N Nd O
UNIT 28 24 2 2 20

L.S. 5
PLAN  -20
SIZE 0.36 0.32 0.3
BOND $H
CONF
fmap 2
acta 50
OMIT 0 50
isor 0.01 N1

WGHT    0.063900    1.524900
FVAR       0.14343   0.61943
ND    4    0.622549    0.614032    0.404003    11.00000    0.02291    0.02614 =
         0.02437    0.01230    0.00788    0.00259
PART 1
O1    5    0.270356   -0.053190    0.058577    21.00000    0.04921    0.03776 =
         0.02048    0.01185   -0.01047   -0.02095
PART 0
PART 2
O1A   5    0.519289   -0.154828    0.093027   -21.00000    0.04969    0.01856 =
         0.03942   -0.00424    0.01337   -0.01350
PART 0
O1W   5    0.240104    0.489226    0.306330    11.00000    0.03120    0.05379 =
         0.03179    0.01541    0.00880   -0.00454
AFIX   7
H1WA  2    0.174222    0.452044    0.347081    11.00000   -1.50000
H1WB  2    0.248654    0.434828    0.242676    11.00000   -1.50000
AFIX   0
O2    5   -0.388937   -0.404650    0.196816    11.00000    0.02974    0.06204 =
         0.03895    0.02725    0.00361   -0.00571
O2W   5    0.409201    0.768197    0.400293    11.00000    0.04198    0.04111 =
         0.07393    0.01735   -0.00203    0.01201
AFIX   7
H2WA  2    0.396916    0.816266    0.470741    11.00000   -1.50000
H2WB  2    0.265968    0.730076    0.361264    11.00000   -1.50000
AFIX   0
O3    5   -0.065104   -0.292772    0.315789    11.00000    0.03259    0.05795 =
         0.03500    0.02224    0.00474   -0.00578
O4    5    0.566476    0.396313    0.434786    11.00000    0.02860    0.03367 =
         0.02622    0.00721    0.01290    0.00686
O5    5    0.749840    0.424241    0.299663    11.00000    0.03902    0.03399 =
         0.03268    0.01539    0.01917    0.00599
O6    5    1.035191    0.351049    0.456632    11.00000    0.03069    0.02490 =
         0.04179    0.00716   -0.00468    0.00414
O7    5    1.139538    0.182455    0.443464    11.00000    0.04481    0.03081 =
         0.06229    0.01161   -0.00100    0.01243
N1    3   -0.085369   -0.366947   -0.077702    11.00000    0.10473    0.06694 =
         0.03747    0.00013    0.02715   -0.03979
PART 1
C1    1    0.040758   -0.250281   -0.060079    21.00000    0.03521    0.05352 =
         0.01014    0.00495    0.00658   -0.01536
AFIX  43
H1    2    0.065541   -0.226120   -0.121662    21.00000   -1.20000
AFIX   0
PART 0
PART 2
C1A   1    0.194482   -0.305376   -0.039927   -21.00000    0.03818    0.03562 =
         0.02803    0.00012    0.01203   -0.00593
AFIX  43
H1A   2    0.290132   -0.321256   -0.094407   -21.00000   -1.20000
AFIX   0
PART 0
PART 1
C2    1    0.133029   -0.166779    0.049998    21.00000    0.02521    0.02789 =
         0.02267    0.00555   -0.00202   -0.00717
PART 0
PART 2
C2A   1    0.287867   -0.230730    0.071420   -21.00000    0.03544    0.02594 =
         0.02936    0.00930    0.00891   -0.00088
PART 0
PART 1
C3    1    0.068654   -0.197322    0.141350    21.00000    0.02587    0.03146 =
         0.01949    0.00664   -0.00058   -0.00157
AFIX  43
H3    2    0.125767   -0.140449    0.215633    21.00000   -1.20000
AFIX   0
PART 0
PART 2
C3A   1    0.173333   -0.236266    0.158849   -21.00000    0.04229    0.03059 =
         0.02661    0.00539    0.00115   -0.01012
AFIX  43
H3A   2    0.243201   -0.196524    0.234997   -21.00000   -1.20000
AFIX   0
PART 0
C4    1   -0.082478   -0.313906    0.121707    11.00000    0.05154    0.03613 =
         0.03197    0.00752    0.01975   -0.00754
C5    1   -0.171151   -0.386647    0.008557    11.00000    0.06090    0.04090 =
         0.03324    0.00630    0.01733   -0.01647
AFIX  43
H5    2   -0.300016   -0.453981   -0.007647    11.00000   -1.20000
AFIX   0
C6    1    0.428510    0.018245    0.150993    11.00000    0.06853    0.04685 =
         0.02258   -0.00714    0.01441   -0.03819
PART 2
AFIX  43
H6    2    0.302275   -0.029369    0.093752   -21.00000   -1.20000
AFIX   0
PART 0
C7    1    0.450656    0.145291    0.206764    11.00000    0.04111    0.04728 =
         0.02702    0.01076    0.00585   -0.00837
AFIX  43
H7    2    0.342150    0.181761    0.186001    11.00000   -1.20000
AFIX   0
C8    1    0.636237    0.217403    0.293810    11.00000    0.02722    0.02900 =
         0.02126    0.00587    0.01059   -0.00433
C9    1    0.798537    0.159749    0.321775    11.00000    0.03019    0.02340 =
         0.03643    0.00167    0.01218    0.00020
C10   1    0.765063    0.031394    0.263777    11.00000    0.04823    0.02506 =
         0.06819   -0.00054    0.02063   -0.00226
AFIX  43
H10   2    0.868652   -0.007678    0.284641    11.00000   -1.20000
AFIX   0
C11   1    0.583045   -0.038639    0.176695    11.00000    0.06699    0.02604 =
         0.05697   -0.01187    0.02692   -0.01070
PART 1
AFIX  43
H11   2    0.566742   -0.123264    0.136412    21.00000   -1.20000
AFIX   0
PART 0
C12   1   -0.186332   -0.339684    0.216225    11.00000    0.03188    0.03870 =
         0.02916    0.02031    0.01291    0.00436
C13   1    0.658014    0.354530    0.348557    11.00000    0.02157    0.02971 =
         0.02160    0.00746    0.00514    0.00214
C14   1    1.003364    0.235071    0.412984    11.00000    0.02571    0.02549 =
         0.03416    0.01089    0.01264    0.00337

AFIX   6
O3W   5    0.249510    0.982122    0.460117    11.00000    0.19037    0.08956 =
         0.23630    0.06843    0.01006    0.04663
H3WA  2    0.334824    0.994351    0.412667    11.00000   -1.50000
H3WB  2    0.199954    1.045863    0.489987    11.00000   -1.50000
AFIX   0
HKLF 4

REM  1 in P-1
REM R1 =  0.0342 for    2717 Fo > 4sig(Fo)  and  0.0376 for all    2855 data
REM    277 parameters refined using      6 restraints

END

WGHT      0.0637      1.5644

REM Highest difference peak  1.495,  deepest hole -1.291,  1-sigma level  0.244
Q1    1   0.5278  0.6633  0.3965  11.00000  0.05    1.49
Q2    1   0.7570  0.5865  0.4141  11.00000  0.05    1.30
Q3    1   0.5079  0.6341  0.2988  11.00000  0.05    0.94
Q4    1   0.0362 -0.3863 -0.0637  11.00000  0.05    0.80
Q5    1  -0.1516 -0.3370 -0.0844  11.00000  0.05    0.76
Q6    1   0.7100  0.5955  0.4998  11.00000  0.05    0.67
Q7    1   0.1789 -0.2335 -0.0181  11.00000  0.05    0.59
Q8    1   0.1783 -0.1026  0.0633  11.00000  0.05    0.57
Q9    1  -0.0844 -0.2395  0.1379  11.00000  0.05    0.56
Q10   1   0.7152  0.6854  0.4413  11.00000  0.05    0.56
Q11   1   0.0413 -0.1615  0.0588  11.00000  0.05    0.54
Q12   1   0.0794 -0.1761  0.0022  11.00000  0.05    0.54
Q13   1   0.5360  0.5292  0.3559  11.00000  0.05    0.52
Q14   1  -0.0529 -0.0614  0.0033  11.00000  0.05    0.51
Q15   1  -0.1769 -0.3196  0.1586  11.00000  0.05    0.51
Q16   1  -0.1170 -0.3579  0.0818  11.00000  0.05    0.51
Q17   1   0.0388 -0.2842  0.1539  11.00000  0.05    0.50
Q18   1   0.2950 -0.4036 -0.0015  11.00000  0.05    0.49
Q19   1  -0.1830 -0.0967 -0.0082  11.00000  0.05    0.49
Q20   1   0.0006 -0.2625 -0.0218  11.00000  0.05    0.48
;
_shelx_res_checksum              39960
_shelx_hkl_file
;
  -1   0   0   80.04    3.11
  -1   0   0   81.24    3.08
  -1   0   0   85.55    3.07
  -2   0   0    0.11    0.07
  -2   0   0    0.18    0.07
  -3   0   0   52.04    2.21
  -3   0   0   53.26    2.08
  -3   0   0   53.69    2.12
  -4   0   0   81.24    3.18
  -4   0   0   79.04    3.12
  -5   0   0   56.04    2.27
  -5   0   0   59.03    2.36
   5   0   0   51.37    2.40
  -6   0   0    2.19    0.37
   6   0   0    2.31    0.55
  -7   0   0    7.98    0.72
   6  -1   0   15.06    1.21
  -6   1   0   19.92    1.02
  -5   1   0   57.56    2.38
  -5   1   0   54.85    2.55
  -5   1   0   58.68    2.35
  -4   1   0   49.33    2.23
  -4   1   0   51.88    2.11
  -4   1   0   53.70    2.10
  -3   1   0    0.73    0.14
  -3   1   0    1.25    0.24
  -3   1   0    0.38    0.12
  -2   1   0   12.40    0.56
  -2   1   0   11.40    0.53
  -2   1   0   12.06    0.53
  -1   1   0   98.19    3.64
  -1   1   0  100.30    3.65
  -1   1   0   95.30    3.66
  -1  -1   0   -0.12    0.05
  -1  -1   0   -0.06    0.04
   1   1   0    0.01    0.06
  -2  -1   0   11.47    0.54
  -2  -1   0   11.42    0.49
   2   1   0   11.03    0.56
  -3  -1   0  224.74    8.24
  -3  -1   0  219.43    8.17
   3   1   0  212.31    8.28
  -4  -1   0   42.53    1.77
  -4  -1   0   40.05    1.68
   4   1   0   41.37    1.82
  -5  -1   0    3.46    0.43
   5   1   0    3.10    0.44
  -6  -1   0    8.39    0.69
   6   1   0    7.09    0.84
  -7  -1   0   17.24    1.10
  -6   2   0   74.23    2.98
  -6   2   0   70.52    2.97
  -5   2   0   28.48    1.51
  -5   2   0   31.27    1.37
  -5   2   0   30.16    1.35
  -4   2   0    0.42    0.19
  -4   2   0    0.33    0.12
  -3   2   0   81.70    3.30
  -3   2   0   85.92    3.28
  -3   2   0   89.43    3.35
  -2   2   0    1.85    0.16
  -2   2   0    1.64    0.15
  -2   2   0    1.90    0.17
  -1   2   0  575.35   21.14
  -1   2   0  562.90   21.11
   0  -2   0    3.16    0.16
   0   2   0    3.21    0.18
  -1  -2   0   39.31    1.56
   1   2   0   40.57    1.56
  -2  -2   0  177.23    6.67
  -2  -2   0  169.25    6.58
   2   2   0  185.19    6.68
  -3  -2   0   68.37    2.67
  -3  -2   0   69.73    2.77
   3   2   0   71.32    2.79
  -4  -2   0    1.80    0.28
   4   2   0    2.55    0.31
  -5  -2   0   14.40    0.86
   5   2   0   13.67    0.84
  -6  -2   0   30.67    1.54
   6   2   0   30.14    1.81
  -7  -2   0   12.60    0.96
  -7   3   0   22.44    1.21
  -6   3   0   27.08    1.32
  -5   3   0    2.20    0.38
  -5   3   0    2.17    0.31
  -5   3   0    2.40    0.30
  -4   3   0   38.81    1.65
  -4   3   0   36.21    1.55
  -4   3   0   37.80    1.60
  -3   3   0  275.59   10.33
  -3   3   0  268.31   10.28
  -3   3   0  284.97   10.34
  -2   3   0  126.20    4.74
  -2   3   0  125.76    4.76
   1  -3   0   34.42    1.34
  -1   3   0   35.08    1.35
  -1   3   0   33.79    1.35
   0  -3   0  144.36    5.36
   0   3   0  144.60    5.39
  -1  -3   0  154.47    5.87
   1   3   0  158.23    5.87
  -2  -3   0  181.37    6.94
   2   3   0  186.38    6.93
  -3  -3   0   11.62    0.53
  -3  -3   0   11.33    0.64
   3   3   0   12.58    0.65
  -4  -3   0   11.73    0.72
   4   3   0   12.41    0.71
  -5  -3   0   54.06    2.38
   5   3   0   55.20    2.37
  -6  -3   0   31.09    1.59
  -7   4   0   13.54    0.91
  -6   4   0    0.75    0.29
  -5   4   0    5.18    0.50
  -5   4   0    5.02    0.42
  -5   4   0    5.06    0.47
  -4   4   0  102.54    3.99
  -4   4   0  100.65    3.96
  -3   4   0   19.45    0.89
  -3   4   0   19.94    0.90
  -2   4   0    6.10    0.36
  -2   4   0    6.60    0.36
   1  -4   0   64.83    2.55
   1  -4   0   68.66    2.53
  -1   4   0   65.39    2.56
  -1   4   0   67.82    2.55
   0  -4   0  157.35    6.03
   0  -4   0  166.85    6.08
   0   4   0  163.15    6.09
  -1  -4   0   95.70    3.77
   1   4   0  101.93    3.78
  -2  -4   0   33.05    1.43
   2   4   0   34.70    1.43
  -3  -4   0   25.54    1.22
   3   4   0   27.72    1.21
  -4  -4   0   59.33    2.54
   4   4   0   60.89    2.52
  -5  -4   0   40.47    1.86
   5   4   0   38.42    1.81
  -6  -4   0    0.14    0.27
   7  -5   0    0.64    0.33
  -7   5   0   -0.18    0.28
  -6   5   0    8.80    0.68
  -5   5   0   41.90    1.92
  -5   5   0   44.41    1.89
  -4   5   0   70.24    2.86
  -4   5   0   72.26    2.87
  -3   5   0    5.98    0.40
  -3   5   0    6.38    0.40
   2  -5   0   13.85    0.64
  -2   5   0   14.66    0.67
  -2   5   0   14.19    0.67
   1  -5   0  325.84   12.20
   1  -5   0  333.62   12.18
  -1   5   0  328.60   12.19
  -1   5   0  325.82   12.21
   0  -5   0  345.07   12.49
   0  -5   0  323.33   12.44
   0   5   0  340.34   12.51
  -1  -5   0   13.15    0.64
   1   5   0   13.07    0.64
  -2  -5   0    5.26    0.38
   2   5   0    5.17    0.36
  -3  -5   0   60.85    2.56
   3   5   0   62.96    2.54
  -4  -5   0   53.78    2.33
   4   5   0   53.15    2.28
  -5  -5   0   18.87    1.12
   5   5   0   18.20    1.05
  -6  -5   0    1.40    0.39
   7  -6   0    6.45    0.66
  -7   6   0    5.53    0.66
  -6   6   0   30.93    1.51
  -5   6   0   56.48    2.35
  -5   6   0   54.38    2.38
  -4   6   0    3.83    0.36
  -4   6   0    3.49    0.37
  -3   6   0    1.64    0.23
  -3   6   0    2.13    0.24
   2  -6   0   70.73    2.66
   2  -6   0   67.93    2.71
  -2   6   0   69.81    2.72
  -2   6   0   68.37    2.71
   1  -6   0  107.32    4.06
   1  -6   0  105.94    4.07
  -1   6   0  107.68    4.07
  -1   6   0  108.30    4.11
   0  -6   0    2.71    0.18
   0  -6   0    2.74    0.23
   0   6   0    2.95    0.24
  -1  -6   0    1.12    0.13
  -1  -6   0    0.84    0.16
   1   6   0    1.43    0.19
  -2  -6   0   39.41    1.69
   2   6   0   39.31    1.68
  -3  -6   0   85.91    3.48
   3   6   0   86.47    3.46
  -4  -6   0   15.37    0.93
   4   6   0   15.40    0.89
  -5  -6   0    2.88    0.48
   5   6   0    3.03    0.45
   7  -7   0   15.38    1.01
  -7   7   0   14.18    0.99
   6  -7   0   34.18    1.65
  -6   7   0   33.35    1.62
   5  -7   0    4.80    0.54
  -5   7   0    4.95    0.52
  -5   7   0    6.18    0.53
   4  -7   0    5.77    0.50
  -4   7   0    6.72    0.50
  -4   7   0    6.55    0.49
   3  -7   0   44.79    1.90
   3  -7   0   42.99    1.85
  -3   7   0   47.16    1.92
  -3   7   0   47.66    1.91
   2  -7   0   56.33    2.26
   2  -7   0   57.83    2.21
  -2   7   0   55.85    2.26
  -2   7   0   56.41    2.28
   1  -7   0   22.74    0.99
   1  -7   0   23.51    1.00
  -1   7   0   23.80    1.04
   0  -7   0   13.62    0.60
   0  -7   0   14.15    0.67
   0   7   0   13.55    0.69
  -1  -7   0   36.28    1.56
   1   7   0   36.86    1.57
  -2  -7   0   46.34    1.99
   2   7   0   47.23    1.98
  -3  -7   0    0.37    0.20
   3   7   0    0.15    0.15
  -4  -7   0    4.09    0.53
   4   7   0    3.91    0.46
  -5  -7   0   21.79    1.30
   5   7   0   22.42    1.24
   7  -8   0   12.15    0.91
  -7   8   0   10.20    0.84
   6  -8   0    3.90    0.55
  -6   8   0    3.72    0.52
   5  -8   0    2.25    0.38
  -5   8   0    2.06    0.36
  -5   8   0    2.26    0.38
   4  -8   0   21.88    1.10
  -4   8   0   21.59    1.08
  -4   8   0   21.35    1.09
   3  -8   0  104.62    4.10
  -3   8   0  104.31    4.10
  -3   8   0  105.80    4.12
   2  -8   0   25.85    1.08
   2  -8   0   25.28    1.13
  -2   8   0   26.44    1.13
  -2   8   0   24.68    1.15
   1  -8   0   15.68    0.73
   1  -8   0   15.26    0.71
  -1   8   0   15.01    0.77
   0  -8   0   59.52    2.38
   0   8   0   58.95    2.41
  -1  -8   0   61.67    2.50
   1   8   0   60.81    2.51
  -2  -8   0   47.91    2.10
   2   8   0   49.62    2.09
  -3  -8   0    0.50    0.24
   3   8   0    0.64    0.22
  -4  -8   0   14.50    0.97
   4   8   0   14.72    0.91
   5   8   0   28.76    1.52
   6  -9   0    1.72    0.43
  -6   9   0    1.71    0.38
   5  -9   0    9.05    0.70
  -5   9   0    9.53    0.71
  -5   9   0    9.40    0.68
   4  -9   0   31.02    1.45
  -4   9   0   30.96    1.44
  -4   9   0   31.13    1.47
   3  -9   0    3.73    0.39
  -3   9   0    3.87    0.37
  -3   9   0    4.27    0.41
   2  -9   0    3.12    0.31
  -2   9   0    3.07    0.33
   1  -9   0   34.50    1.43
   1  -9   0   32.70    1.40
  -1   9   0   34.12    1.49
   0  -9   0   58.12    2.38
   0   9   0   59.07    2.43
  -1  -9   0   18.74    0.96
   1   9   0   18.43    0.96
  -2  -9   0    2.39    0.38
   2   9   0    2.55    0.35
  -3  -9   0   11.68    0.81
   3   9   0   10.98    0.75
  -4  -9   0   24.87    1.40
   4   9   0   25.42    1.35
   6 -10   0   15.72    1.02
  -6  10   0   14.82    0.97
   5 -10   0   14.36    0.90
  -5  10   0   14.10    0.92
  -5  10   0   14.20    0.88
   4 -10   0   13.36    0.82
  -4  10   0   12.82    0.79
  -4  10   0   13.49    0.83
   3 -10   0    0.80    0.23
  -3  10   0    1.07    0.25
  -3  10   0    0.73    0.19
   2 -10   0   19.97    0.96
  -2  10   0   20.26    1.03
   1 -10   0   55.36    2.31
  -1  10   0   58.46    2.39
   0 -10   0    9.00    0.59
   0  10   0   10.10    0.64
  -1 -10   0    2.67    0.38
   1  10   0    2.54    0.37
  -2 -10   0   15.22    0.92
   2  10   0   14.65    0.88
  -3 -10   0   13.74    0.92
   3  10   0   13.55    0.88
  -6  11   0   15.39    1.28
   5 -11   0   11.01    0.83
  -5  11   0   11.91    0.86
  -5  11   0   12.16    0.82
   4 -11   0    0.68    0.27
  -4  11   0    1.09    0.27
  -4  11   0    1.14    0.30
   3 -11   0   11.57    0.71
  -3  11   0   11.32    0.75
  -2  11   0   23.88    1.20
  -1  11   0   27.70    1.35
   0 -11   0    1.23    0.24
   0  11   0    1.45    0.30
  -1 -11   0   10.61    0.70
   1  11   0    9.61    0.69
  -2 -11   0   20.99    1.16
   2  11   0   19.93    1.13
  -3 -11   0    8.24    0.87
   5 -12   0   -0.26    0.25
  -5  12   0    0.24    0.25
   4 -12   0    7.02    0.61
  -4  12   0    6.67    0.63
   3 -12   0   15.45    0.87
  -3  12   0   15.08    0.93
  -2  12   0    8.73    0.66
  -1  12   0    0.30    0.21
   0  12   0    6.49    0.58
  -1 -12   0   19.94    1.10
   1  12   0   20.02    1.13
  -2 -12   0    9.60    0.77
  -5  13   0    3.43    0.55
   4 -13   0   12.13    0.84
  -4  13   0   11.39    0.86
  -3  13   0    6.99    0.64
  -2  13   0    0.37    0.22
  -1  13   0    6.54    0.61
   0  13   0   14.89    0.95
  -2  14  -1    9.63    0.77
  -3  14  -1    4.64    0.56
   4 -14   1    0.65    0.27
   1  13  -1    4.28    0.75
   0  13  -1   10.07    0.74
  -1  13  -1   19.16    1.09
  -2  13  -1    4.60    0.51
  -3  13  -1    1.68    0.35
  -4  13  -1   11.67    0.87
   4 -13   1   12.58    0.83
  -5  13  -1    9.27    0.82
   5 -13   1   10.34    1.09
   2  12  -1    1.13    0.31
  -2 -12   1    0.93    0.30
   1  12  -1   16.86    0.96
  -1 -12   1   14.67    0.92
   0  12  -1   21.24    1.13
  -1  12  -1    8.81    0.64
  -2  12  -1    0.80    0.24
  -3  12  -1    4.80    0.51
   3 -12   1    5.42    0.48
  -4  12  -1   16.59    1.03
   4 -12   1   18.00    1.00
  -5  12  -1    3.22    0.49
   5 -12   1    2.59    0.44
   3  11  -1    0.43    0.23
  -3 -11   1    0.28    0.26
   2  11  -1   15.87    0.94
  -2 -11   1   16.11    0.96
   1  11  -1   20.32    1.08
  -1 -11   1   20.46    1.06
   0  11  -1   15.24    0.87
   0 -11   1   15.22    0.85
  -1  11  -1    4.16    0.42
  -2  11  -1   18.78    1.01
   2 -11   1   19.06    0.93
  -3  11  -1   26.65    1.35
   3 -11   1   28.77    1.31
  -4  11  -1    8.82    0.67
   4 -11   1    8.24    0.63
  -5  11  -1    1.81    0.38
  -5  11  -1    1.54    0.33
   5 -11   1    0.98    0.32
  -6  11  -1    9.59    0.82
   6 -11   1    9.55    0.96
   4  10  -1    0.52    0.26
   3  10  -1   17.56    1.02
  -3 -10   1   19.21    1.10
   2  10  -1   38.56    1.75
  -2 -10   1   38.13    1.76
   1  10  -1   12.22    0.73
  -1 -10   1   11.66    0.71
   0  10  -1    0.88    0.22
   0 -10   1    0.62    0.18
  -1  10  -1   39.40    1.74
   1 -10   1   40.33    1.65
  -2  10  -1   37.57    1.68
   2 -10   1   38.14    1.61
  -3  10  -1   45.24    1.97
   3 -10   1   44.52    1.92
  -4  10  -1    1.61    0.32
  -4  10  -1    1.38    0.27
   4 -10   1    0.96    0.28
  -5  10  -1    7.68    0.67
  -5  10  -1    8.16    0.63
   5 -10   1    7.57    0.63
  -6  10  -1   15.95    0.99
   6 -10   1   15.68    1.02
   4   9  -1   12.66    0.83
  -4  -9   1   13.00    0.92
   3   9  -1   33.38    1.60
  -3  -9   1   35.91    1.68
   2   9  -1   17.48    0.93
  -2  -9   1   17.68    0.97
   1   9  -1    0.73    0.20
  -1  -9   1    0.65    0.19
   0   9  -1   30.41    1.37
   0  -9   1   30.62    1.33
  -1   9  -1   33.97    1.50
   1  -9   1   34.29    1.43
   1  -9   1   34.65    1.43
  -2   9  -1   33.63    1.48
   2  -9   1   33.34    1.43
  -3   9  -1    1.77    0.30
  -3   9  -1    1.71    0.25
   3  -9   1    1.27    0.25
  -4   9  -1   18.38    0.96
  -4   9  -1   18.85    1.00
   4  -9   1   17.58    0.96
  -5   9  -1   14.39    0.86
  -5   9  -1   14.49    0.92
   5  -9   1   14.24    0.88
  -6   9  -1   13.48    0.87
  -6   9  -1   12.97    1.08
   6  -9   1   12.71    0.90
   5   8  -1    9.16    0.72
   4   8  -1   36.25    1.67
  -4  -8   1   34.93    1.74
   3   8  -1   48.80    2.11
  -3  -8   1   48.94    2.16
   2   8  -1    0.65    0.18
  -2  -8   1    0.29    0.18
   1   8  -1   44.76    1.88
  -1  -8   1   44.38    1.87
   0   8  -1   83.96    3.32
   0  -8   1   83.59    3.23
   0  -8   1   85.82    3.29
  -1   8  -1   36.98    1.58
   1  -8   1   37.90    1.52
   1  -8   1   37.21    1.51
  -2   8  -1    7.34    0.48
   2  -8   1    7.82    0.43
   2  -8   1    7.44    0.46
  -3   8  -1   52.44    2.10
  -3   8  -1   50.78    2.12
   3  -8   1   48.63    2.09
  -4   8  -1   44.09    1.91
  -4   8  -1   43.59    1.86
   4  -8   1   42.07    1.87
  -5   8  -1   16.35    0.99
  -5   8  -1   16.95    0.94
   5  -8   1   17.01    0.97
  -6   8  -1    0.63    0.31
  -6   8  -1    0.07    0.25
   6  -8   1   -0.37    0.27
  -7   8  -1    8.13    0.75
   7  -8   1    8.78    0.80
   5   7  -1   21.12    1.17
  -5  -7   1   22.23    1.28
   4   7  -1   31.00    1.49
  -4  -7   1   32.84    1.58
   3   7  -1    4.55    0.41
  -3  -7   1    4.38    0.47
   2   7  -1   20.05    0.96
  -2  -7   1   19.98    0.99
   1   7  -1  112.99    4.38
  -1  -7   1  113.76    4.38
   0   7  -1   78.01    3.11
   0  -7   1   80.81    3.08
   0  -7   1   79.81    3.03
  -1   7  -1    6.02    0.38
   1  -7   1    6.06    0.33
   1  -7   1    6.15    0.35
  -2   7  -1   16.22    0.74
  -2   7  -1   15.29    0.76
   2  -7   1   14.71    0.65
   2  -7   1   15.84    0.74
  -3   7  -1   45.17    1.85
  -3   7  -1   46.17    1.88
   3  -7   1   42.36    1.85
  -4   7  -1   27.51    1.28
  -4   7  -1   28.84    1.32
   4  -7   1   27.38    1.29
  -5   7  -1   13.31    0.81
  -5   7  -1   11.46    0.75
   5  -7   1   10.45    0.76
  -6   7  -1   12.60    0.90
  -6   7  -1   12.27    0.83
   6  -7   1   12.79    0.87
  -7   7  -1   17.52    1.09
   7  -7   1   18.66    1.14
   5   6  -1   13.20    0.82
  -5  -6   1   12.75    0.90
   4   6  -1    1.38    0.27
  -4  -6   1    1.12    0.29
   3   6  -1   22.39    1.05
  -3  -6   1   21.42    1.10
   2   6  -1   45.23    1.87
  -2  -6   1   45.25    1.90
   1   6  -1   63.51    2.43
  -1  -6   1   56.77    2.36
  -1  -6   1   63.31    2.43
   0   6  -1    2.85    0.23
   0  -6   1    2.52    0.18
   0  -6   1    3.12    0.23
  -1   6  -1   43.53    1.77
   1  -6   1   44.01    1.71
   1  -6   1   44.56    1.74
  -2   6  -1  146.59    5.59
  -2   6  -1  151.44    5.61
   2  -6   1  146.51    5.59
   2  -6   1  145.86    5.50
  -3   6  -1   44.29    1.80
  -3   6  -1   43.01    1.77
   3  -6   1   41.32    1.77
  -4   6  -1    0.23    0.16
  -4   6  -1    0.16    0.15
   4  -6   1    0.21    0.16
  -5   6  -1    4.72    0.49
  -5   6  -1    5.28    0.50
   5  -6   1    4.32    0.49
  -6   6  -1   22.68    1.17
  -6   6  -1   20.25    1.26
   6  -6   1   23.17    1.19
  -7   6  -1   17.53    1.08
   7  -6   1   18.76    1.13
  -6  -5   1   17.66    1.13
   5   5  -1    0.70    0.24
  -5  -5   1    0.93    0.30
   4   5  -1   39.89    1.70
  -4  -5   1   37.19    1.76
   3   5  -1   65.54    2.62
  -3  -5   1   64.38    2.66
   2   5  -1  113.84    4.28
  -2  -5   1  111.35    4.31
  -2  -5   1  109.09    4.19
   1   5  -1    3.73    0.26
  -1  -5   1    3.51    0.27
  -1  -5   1    3.34    0.23
   0   5  -1   78.65    2.94
   0  -5   1   73.25    2.88
   0  -5   1   77.28    2.92
  -1   5  -1  266.06    9.77
   1  -5   1  258.07    9.74
   1  -5   1  261.77    9.70
  -2   5  -1  220.21    8.03
  -2   5  -1  216.56    8.02
   2  -5   1  207.97    7.94
   2  -5   1  211.24    8.02
  -3   5  -1    7.24    0.44
  -3   5  -1    7.17    0.44
   3  -5   1    6.49    0.43
  -4   5  -1   13.16    0.74
  -4   5  -1   14.49    0.77
   4  -5   1   14.82    0.75
  -5   5  -1   42.53    1.94
  -5   5  -1   42.47    1.86
   5  -5   1   43.58    1.86
  -6   5  -1   30.02    1.42
  -6   5  -1   25.63    1.53
   6  -5   1   31.23    1.44
  -7   5  -1    6.36    0.67
   7  -5   1    7.55    0.72
  -6  -4   1    3.40    0.51
   5   4  -1   14.71    0.85
  -5  -4   1   14.96    0.93
   4   4  -1   89.00    3.49
  -4  -4   1   86.21    3.54
   3   4  -1   64.72    2.58
  -3  -4   1   64.33    2.62
   2   4  -1   30.66    1.25
  -2  -4   1   28.83    1.18
  -2  -4   1   30.00    1.28
   1   4  -1   22.41    0.92
  -1  -4   1   21.03    0.92
   0   4  -1   46.91    1.79
   0  -4   1   47.03    1.78
   0  -4   1   44.00    1.75
  -1   4  -1  340.81   12.28
  -1   4  -1  335.39   12.29
   1  -4   1  331.56   12.28
   1  -4   1  316.77   12.22
  -2   4  -1  127.05    4.85
  -2   4  -1  133.31    4.85
   2  -4   1  124.33    4.84
  -3   4  -1   52.96    2.17
  -3   4  -1   54.81    2.16
  -4   4  -1   43.07    1.81
  -4   4  -1   46.41    1.89
  -4   4  -1   47.04    1.95
  -5   4  -1   25.22    1.17
  -5   4  -1   23.61    1.27
  -6   4  -1    7.71    0.77
  -6   4  -1    8.26    0.65
   6  -4   1    7.63    0.65
  -7   4  -1    1.22    0.35
   7  -4   1    2.02    0.42
  -6  -3   1    2.40    0.43
   5   3  -1   55.88    2.33
  -5  -3   1   53.47    2.37
   4   3  -1   76.65    3.03
  -4  -3   1   74.42    3.07
   3   3  -1   70.81    2.69
  -3  -3   1   65.73    2.61
  -3  -3   1   67.36    2.72
   2   3  -1  109.53    3.99
  -2  -3   1  104.71    4.01
  -2  -3   1   99.54    3.93
   1   3  -1   61.73    2.34
  -1  -3   1   60.37    2.35
   0   3  -1   71.63    2.67
   0  -3   1   71.21    2.65
   0  -3   1   68.64    2.64
  -1   3  -1  268.30    9.81
  -1   3  -1  262.84    9.82
   1  -3   1  262.15    9.81
  -2   3  -1   14.26    0.65
  -3   3  -1  113.59    4.39
  -3   3  -1  120.71    4.43
  -3   3  -1  110.62    4.33
  -4   3  -1   63.09    2.52
  -4   3  -1   65.16    2.62
  -4   3  -1   60.33    2.47
  -5   3  -1    5.88    0.48
  -5   3  -1    5.78    0.44
  -5   3  -1    6.17    0.59
  -6   3  -1    4.64    0.70
  -6   3  -1    5.40    0.57
  -7  -2   1    2.84    0.48
  -6  -2   1   27.03    1.41
   5   2  -1   57.18    2.41
  -5  -2   1   57.40    2.45
   4   2  -1   22.15    0.99
  -4  -2   1   19.12    0.99
  -4  -2   1   19.77    0.91
   3   2  -1    8.93    0.49
  -3  -2   1    8.48    0.50
  -3  -2   1    8.64    0.44
   2   2  -1  310.65   11.10
  -2  -2   1  286.25   11.06
  -2  -2   1  298.39   11.12
   1   2  -1  109.82    3.98
  -1  -2   1  106.28    4.00
  -1  -2   1  102.22    3.98
   0   2  -1  115.44    4.25
   0  -2   1  112.49    4.23
   0  -2   1  114.29    4.23
  -1   2  -1    4.87    0.26
  -1   2  -1    5.02    0.26
   1  -2   1    4.80    0.26
  -2   2  -1  150.73    5.61
  -2   2  -1  151.44    5.55
  -2   2  -1  144.78    5.58
  -3   2  -1  116.43    4.32
  -3   2  -1  108.90    4.23
  -3   2  -1  107.93    4.21
  -4   2  -1   44.24    1.84
  -4   2  -1   45.42    1.99
  -4   2  -1   44.83    1.83
  -5   2  -1    0.02    0.19
  -5   2  -1    0.46    0.18
  -5   2  -1    0.46    0.30
  -6   2  -1   25.65    1.63
  -6   2  -1   32.74    1.62
  -6   2  -1   30.48    1.41
  -7  -1   1   10.76    0.85
  -6  -1   1   30.50    1.51
   5   1  -1    8.61    0.62
  -5  -1   1    9.33    0.57
  -5  -1   1    9.36    0.64
   4   1  -1    1.75    0.26
  -4  -1   1    1.13    0.20
  -4  -1   1    1.15    0.18
   3   1  -1  176.61    6.61
  -3  -1   1  173.06    6.55
  -3  -1   1  173.69    6.60
   2   1  -1  108.64    3.99
  -2  -1   1  102.95    3.97
  -2  -1   1  104.53    4.00
   1   1  -1   10.12    0.41
  -1  -1   1    9.66    0.43
  -1  -1   1   10.07    0.43
  -1   1  -1  361.83   13.68
  -1   1  -1  378.44   13.73
  -1   1  -1  385.68   13.85
   1  -1   1  356.38   13.72
  -2   1  -1  112.52    4.42
  -2   1  -1  113.85    4.42
  -2   1  -1  127.21    4.51
  -3   1  -1   33.88    1.40
  -3   1  -1   34.37    1.41
  -3   1  -1   35.49    1.54
  -4   1  -1    2.02    0.25
  -4   1  -1    2.22    0.38
  -4   1  -1    2.49    0.28
  -5   1  -1   34.27    1.82
  -5   1  -1   37.30    1.58
  -5   1  -1   37.77    1.63
  -6   1  -1   26.50    1.26
   6  -1   1   21.82    1.33
  -7   0   1   18.00    1.09
  -6   0   1   17.94    1.01
   5   0  -1    6.98    0.55
  -5   0   1    7.40    0.56
  -5   0   1    6.66    0.49
  -4   0   1   47.26    1.96
  -4   0   1   49.50    2.01
  -3   0   1  190.08    7.10
  -3   0   1  188.93    7.07
  -3   0   1  185.83    7.16
  -2   0   1   65.08    2.45
  -2   0   1   64.04    2.43
  -2   0   1   60.80    2.46
  -1   0   1    0.97    0.09
  -1   0   1    1.09    0.10
   0   0  -1   -0.03    0.01
   0   0   1    0.00    0.01
  -1   0  -1  412.86   15.55
  -1   0  -1  421.77   15.54
  -1   0  -1  432.07   15.50
   1   0   1  409.93   15.51
  -2   0  -1  100.22    3.74
  -2   0  -1   97.98    3.87
  -2   0  -1  100.55    3.77
  -3   0  -1    5.96    0.36
  -3   0  -1    5.08    0.32
  -3   0  -1    5.94    0.47
  -4   0  -1   42.65    1.77
  -4   0  -1   45.12    1.85
  -5   0  -1   76.74    2.99
   5   0   1   68.65    3.08
  -6   0  -1   24.43    1.23
   6   0   1   20.76    1.28
  -7   0  -1   -0.03    0.24
  -7   1   1    6.63    0.63
  -6   1   1    7.50    0.59
  -6   1   1    5.90    0.57
  -5   1   1   27.03    1.30
  -5   1   1   28.56    1.28
  -5   1   1   27.99    1.43
  -4   1   1  120.81    4.56
  -4   1   1  111.19    4.64
  -4   1   1  121.76    4.55
  -3   1   1  103.21    4.06
  -3   1   1  106.59    4.07
  -3   1   1  109.13    4.11
  -2   1   1    4.24    0.25
  -2   1   1    3.89    0.25
  -2   1   1    4.21    0.26
  -1   1   1  147.18    5.42
  -1   1   1  144.11    5.39
   0  -1  -1  316.36   11.67
   0   1   1  302.50   11.60
   0   1   1  321.09   11.67
  -1  -1  -1  191.57    6.96
   1   1   1  182.18    6.99
  -2  -1  -1   76.23    2.81
  -2  -1  -1   73.62    2.74
   2   1   1   68.08    2.85
  -3  -1  -1   27.98    1.18
  -3  -1  -1   31.51    1.28
   3   1   1   29.02    1.33
  -4  -1  -1   42.97    1.75
  -4  -1  -1   44.11    1.86
   4   1   1   43.35    1.93
  -5  -1  -1   20.95    1.09
   5   1   1   20.09    1.14
  -6  -1  -1    0.19    0.22
   6   1   1    0.39    0.29
  -7  -1  -1    7.34    0.74
  -7   2   1   -0.25    0.33
  -6   2   1   38.68    1.72
  -6   2   1   37.02    1.71
  -5   2   1   43.12    1.79
  -5   2   1   38.91    1.89
  -5   2   1   41.81    1.78
  -4   2   1   59.15    2.43
  -4   2   1   58.79    2.37
  -4   2   1   58.31    2.35
  -3   2   1    3.34    0.28
  -3   2   1    3.81    0.28
  -3   2   1    4.03    0.28
  -2   2   1   68.19    2.56
  -2   2   1   66.38    2.59
  -1   2   1   87.72    3.29
  -1   2   1   86.86    3.27
   0  -2  -1  100.79    3.77
   0   2   1  100.93    3.77
   0   2   1   99.63    3.73
  -1  -2  -1    2.16    0.18
   1   2   1    2.36    0.19
  -2  -2  -1  105.57    3.99
   2   2   1  102.86    4.02
  -3  -2  -1   49.98    2.02
  -3  -2  -1   47.92    1.89
   3   2   1   49.16    2.06
  -4  -2  -1   23.25    1.14
   4   2   1   24.21    1.19
  -5  -2  -1    1.57    0.32
   5   2   1    1.54    0.35
  -6  -2  -1   18.92    1.10
   6   2   1   17.96    1.12
  -7  -2  -1   17.05    1.27
  -7   3   1   17.08    1.04
  -6   3   1   23.73    1.30
  -6   3   1   28.30    1.31
  -5   3   1   30.56    1.38
  -5   3   1   29.89    1.34
  -5   3   1   30.21    1.46
  -4   3   1    7.33    0.46
  -4   3   1    6.27    0.41
  -4   3   1    5.51    0.44
  -3   3   1   74.61    2.97
  -3   3   1   77.21    2.94
  -2   3   1  136.02    5.22
  -2   3   1  140.45    5.19
   1  -3  -1  141.96    5.57
  -1   3   1  154.00    5.55
  -1   3   1  149.51    5.54
   0  -3  -1    2.92    0.19
   0  -3  -1    2.85    0.16
   0   3   1    2.83    0.15
   0   3   1    2.89    0.19
  -1  -3  -1   90.06    3.52
   1   3   1   94.82    3.54
  -2  -3  -1  154.11    5.85
   2   3   1  153.90    5.86
  -3  -3  -1   37.36    1.65
   3   3   1   39.71    1.68
  -4  -3  -1    2.87    0.40
   4   3   1    3.10    0.38
  -5  -3  -1    6.21    0.62
   5   3   1    7.11    0.60
  -6  -3  -1   27.77    1.47
   6   3   1   27.17    1.47
  -7   4   1   25.23    1.34
  -6   4   1   12.53    0.80
  -5   4   1    1.16    0.25
  -5   4   1    1.64    0.30
  -4   4   1   34.05    1.52
  -4   4   1   36.03    1.52
  -3   4   1   88.62    3.49
  -3   4   1   91.02    3.46
  -2   4   1   70.22    2.73
  -2   4   1   70.27    2.71
   1  -4  -1   27.19    1.08
  -1   4   1   25.27    1.05
  -1   4   1   25.53    1.06
   0  -4  -1  126.05    4.81
   0  -4  -1  129.04    4.87
   0   4   1  132.57    4.88
  -1  -4  -1  175.55    6.84
   1   4   1  188.11    6.86
  -2  -4  -1   55.06    2.26
   2   4   1   56.96    2.28
  -3  -4  -1    0.17    0.16
   3   4   1    0.98    0.22
  -4  -4  -1    6.34    0.56
   4   4   1    6.77    0.54
  -5  -4  -1   43.00    1.99
   5   4   1   42.15    1.98
  -6  -4  -1   15.02    1.02
   6   4   1   14.44    0.99
  -7   5   1    8.65    0.74
  -6   5   1   -0.15    0.23
  -5   5   1   22.45    1.13
  -5   5   1   21.77    1.11
  -4   5   1   60.58    2.51
  -4   5   1   62.80    2.51
  -3   5   1   15.54    0.73
  -3   5   1   14.62    0.74
   2  -5  -1   26.35    1.17
  -2   5   1   28.01    1.17
  -2   5   1   28.14    1.16
   1  -5  -1   21.47    0.89
  -1   5   1   19.58    0.88
  -1   5   1   20.60    0.87
   0  -5  -1  141.36    5.46
   0  -5  -1  150.59    5.54
   0   5   1  147.83    5.55
  -1  -5  -1  103.38    4.12
   1   5   1  111.18    4.14
  -2  -5  -1    6.76    0.46
   2   5   1    7.48    0.47
  -3  -5  -1   40.51    1.81
   3   5   1   41.91    1.81
  -4  -5  -1   25.74    1.33
   4   5   1   27.18    1.33
  -5  -5  -1   23.21    1.30
   5   5   1   23.79    1.28
   6   5   1    1.20    0.38
  -7   6   1    0.08    0.28
  -6   6   1   16.03    0.97
  -5   6   1   54.69    2.36
  -5   6   1   55.39    2.35
  -4   6   1   47.47    2.01
  -4   6   1   47.19    1.99
  -3   6   1    1.82    0.23
  -3   6   1    1.56    0.22
   2  -6  -1   14.20    0.66
  -2   6   1   13.23    0.66
  -2   6   1   13.77    0.67
   1  -6  -1  129.94    5.00
   1  -6  -1  136.70    5.02
  -1   6   1  131.01    5.04
  -1   6   1  131.96    5.00
   0  -6  -1   52.49    2.09
   0  -6  -1   55.47    2.18
   0   6   1   55.81    2.19
  -1  -6  -1   41.39    1.75
   1   6   1   42.94    1.77
  -2  -6  -1    3.54    0.36
   2   6   1    3.73    0.35
  -3  -6  -1   17.11    0.95
   3   6   1   17.94    0.95
  -4  -6  -1   19.01    1.08
   4   6   1   18.85    1.06
  -5  -6  -1    1.77    0.41
   5   6   1    2.02    0.41
   7  -7  -1    1.79    0.44
  -7   7   1    1.43    0.39
  -6   7   1   28.40    1.43
  -5   7   1   34.49    1.66
  -5   7   1   37.20    1.66
  -4   7   1    5.09    0.43
  -4   7   1    4.97    0.45
   3  -7  -1   19.07    0.92
  -3   7   1   20.06    0.95
  -3   7   1   20.33    0.96
   2  -7  -1   44.39    1.88
   2  -7  -1   48.74    1.87
  -2   7   1   45.87    1.88
  -2   7   1   45.10    1.89
   1  -7  -1   31.69    1.28
   1  -7  -1   31.50    1.30
  -1   7   1   31.22    1.33
  -1   7   1   29.17    1.26
   0  -7  -1    3.88    0.32
   0  -7  -1    3.97    0.26
   0   7   1    4.07    0.33
  -1  -7  -1    1.72    0.25
   1   7   1    1.45    0.25
  -2  -7  -1  125.79    5.00
   2   7   1  130.39    5.02
  -3  -7  -1   26.62    1.35
   3   7   1   27.74    1.34
  -4  -7  -1    3.07    0.46
   4   7   1    3.69    0.46
  -5  -7  -1    4.61    0.90
   5   7   1    5.36    0.61
   7  -8  -1   11.20    1.17
  -7   8   1    9.90    1.19
   6  -8  -1    7.67    0.72
  -6   8   1    7.86    0.67
   5  -8  -1    7.14    0.60
  -5   8   1    6.40    0.58
  -5   8   1    6.79    0.59
   4  -8  -1    1.27    0.29
  -4   8   1    1.50    0.27
  -4   8   1    1.04    0.26
   3  -8  -1   39.41    1.74
  -3   8   1   41.05    1.74
  -3   8   1   41.26    1.75
   2  -8  -1   50.86    2.13
   2  -8  -1   54.52    2.12
  -2   8   1   53.56    2.13
  -2   8   1   50.44    2.15
   1  -8  -1    0.88    0.16
   1  -8  -1    0.78    0.14
  -1   8   1    0.86    0.19
   0  -8  -1   14.46    0.75
   0   8   1   14.35    0.77
  -1  -8  -1   34.10    1.53
   1   8   1   34.65    1.54
  -2  -8  -1   25.62    1.27
   2   8   1   26.31    1.28
  -3  -8  -1    6.35    0.61
   3   8   1    7.03    0.58
  -4  -8  -1    2.01    0.42
   4   8   1    2.36    0.44
   6  -9  -1    0.61    0.35
  -6   9   1    1.02    0.33
   5  -9  -1    2.33    0.42
  -5   9   1    2.32    0.40
  -5   9   1    2.92    0.53
   4  -9  -1   39.65    1.81
  -4   9   1   41.89    1.80
  -4   9   1   38.99    1.80
   3  -9  -1   26.46    1.25
  -3   9   1   26.23    1.26
  -3   9   1   26.65    1.23
   2  -9  -1   14.38    0.73
   2  -9  -1   14.51    0.75
  -2   9   1   15.06    0.74
  -2   9   1   14.09    0.78
   1  -9  -1    9.89    0.58
  -1   9   1    9.74    0.62
   0  -9  -1   18.06    0.91
   0   9   1   17.99    0.94
  -1  -9  -1   48.17    2.10
   1   9   1   49.79    2.13
  -2  -9  -1    3.96    0.49
   2   9   1    5.89    0.51
  -3  -9  -1   -0.04    0.21
   3   9   1    0.23    0.21
   4   9   1    9.26    0.77
   6 -10  -1    2.25    0.49
  -6  10   1    3.37    0.52
   5 -10  -1   13.02    0.89
  -5  10   1   13.41    0.87
   4 -10  -1   16.27    0.93
  -4  10   1   15.04    0.89
  -4  10   1   15.90    0.93
   3 -10  -1    6.05    0.50
  -3  10   1    6.15    0.48
  -3  10   1    5.74    0.51
   2 -10  -1    1.20    0.23
  -2  10   1    1.36    0.27
   1 -10  -1   50.65    2.12
  -1  10   1   51.38    2.19
   0 -10  -1   29.76    1.39
   0  10   1   30.37    1.44
  -1 -10  -1    7.35    0.59
   1  10   1    8.21    0.61
  -2 -10  -1    2.12    0.36
   2  10   1    2.22    0.40
  -3 -10  -1   11.28    0.86
   3  10   1   11.26    0.82
   5 -11  -1   18.45    1.11
  -5  11   1   18.59    1.08
   4 -11  -1    2.92    0.43
  -4  11   1    3.44    0.46
  -4  11   1    3.47    0.45
   3 -11  -1    0.18    0.20
  -3  11   1    0.33    0.21
  -2  11   1   25.80    1.29
  -1  11   1   18.09    1.01
   0 -11  -1    5.17    0.49
   0  11   1    6.12    0.55
  -1 -11  -1    0.36    0.22
   1  11   1    0.31    0.22
  -2 -11  -1    9.21    0.75
   2  11   1    9.80    0.75
   5 -12  -1    3.41    0.52
  -5  12   1    4.38    0.56
   4 -12  -1    0.26    0.25
  -4  12   1    0.40    0.25
  -3  12   1    6.72    0.60
  -2  12   1   20.52    1.14
  -1  12   1    6.11    0.58
   0  12   1    0.02    0.19
  -1 -12  -1   11.00    0.79
   1  12   1   10.61    0.80
  -2 -12  -1   22.65    1.72
  -4  13   1    4.16    0.56
  -3  13   1   13.02    0.91
  -2  13   1    2.34    0.42
  -1  13   1    0.66    0.29
  -1  14  -2    1.85    0.37
  -2  14  -2    9.97    0.76
  -3  14  -2    8.53    0.71
  -4  14  -2    1.40    0.48
   4 -14   2    1.70    0.35
   1  13  -2    0.94    0.29
   0  13  -2    5.19    0.53
  -1  13  -2   24.14    1.26
  -2  13  -2   11.42    0.77
  -3  13  -2    1.41    0.32
   3 -13   2    0.91    0.26
  -4  13  -2    1.29    0.33
   4 -13   2    1.06    0.30
  -5  13  -2    9.60    0.82
   5 -13   2    8.50    0.85
   2  12  -2    5.03    0.52
  -2 -12   2    5.58    0.58
   1  12  -2    1.89    0.34
   0  12  -2   17.25    0.96
  -1  12  -2   27.74    1.36
  -2  12  -2    1.81    0.32
   2 -12   2    2.24    0.30
  -3  12  -2    0.40    0.23
   3 -12   2    0.42    0.20
  -4  12  -2   17.98    1.07
   4 -12   2   18.69    1.02
  -5  12  -2   10.84    0.85
   5 -12   2    9.93    0.77
  -6  12  -2    2.06    0.49
   3  11  -2    4.59    0.50
  -3 -11   2    5.12    0.58
   2  11  -2    1.56    0.30
  -2 -11   2    1.03    0.29
   1  11  -2   17.29    0.97
  -1 -11   2   19.02    0.97
   0  11  -2   48.24    2.08
  -1  11  -2    4.02    0.40
  -2  11  -2    3.29    0.39
   2 -11   2    3.44    0.35
  -3  11  -2   15.17    0.90
   3 -11   2   15.85    0.85
  -4  11  -2   18.44    1.07
   4 -11   2   19.80    1.03
  -5  11  -2    2.33    0.44
   5 -11   2    2.72    0.42
  -6  11  -2    1.67    0.44
   6 -11   2    1.05    0.36
   4  10  -2    1.18    0.32
  -4 -10   2    1.04    0.34
   3  10  -2    1.83    0.32
  -3 -10   2    1.51    0.34
   2  10  -2   35.30    1.62
  -2 -10   2   36.06    1.66
   1  10  -2   16.34    0.87
  -1 -10   2   16.25    0.87
   0  10  -2   10.93    0.66
   0 -10   2   11.55    0.63
  -1  10  -2    7.20    0.50
   1 -10   2    6.72    0.43
  -2  10  -2   20.52    1.04
   2 -10   2   20.92    0.98
  -3  10  -2   85.67    3.45
   3 -10   2   84.09    3.38
  -4  10  -2    5.86    0.54
   4 -10   2    6.46    0.52
  -5  10  -2    0.59    0.24
  -5  10  -2    0.81    0.28
   5 -10   2    0.86    0.27
  -6  10  -2   10.75    0.78
  -6  10  -2    9.64    0.87
   6 -10   2   10.84    0.82
   4   9  -2    0.85    0.25
  -4  -9   2    0.69    0.30
   3   9  -2   26.56    1.30
  -3  -9   2   28.02    1.39
   2   9  -2   44.42    1.92
  -2  -9   2   44.94    1.96
   1   9  -2   15.26    0.80
  -1  -9   2   15.41    0.81
   0   9  -2    2.67    0.29
   0  -9   2    2.53    0.26
   0  -9   2    2.27    0.23
  -1   9  -2   33.53    1.47
   1  -9   2   34.00    1.41
   1  -9   2   33.67    1.41
  -2   9  -2   41.17    1.75
   2  -9   2   40.05    1.69
  -3   9  -2   30.66    1.40
   3  -9   2   29.93    1.35
  -4   9  -2    0.88    0.22
  -4   9  -2    1.10    0.27
   4  -9   2    0.97    0.24
  -5   9  -2   11.53    0.82
  -5   9  -2   11.83    0.75
   5  -9   2   11.19    0.75
  -6   9  -2   14.94    0.94
  -6   9  -2   13.79    1.03
   6  -9   2   16.32    0.97
  -5  -8   2    0.24    0.29
   4   8  -2   16.83    0.93
  -4  -8   2   16.94    1.04
   3   8  -2  126.56    5.05
  -3  -8   2  132.89    5.14
   2   8  -2   21.98    1.05
  -2  -8   2   22.35    1.09
   1   8  -2    0.78    0.17
  -1  -8   2    0.82    0.18
   0   8  -2   59.27    2.39
   0  -8   2   59.23    2.34
   0  -8   2   59.21    2.32
  -1   8  -2   35.97    1.52
   1  -8   2   36.34    1.47
   1  -8   2   35.32    1.43
  -2   8  -2   50.42    2.08
   2  -8   2   50.27    2.04
  -3   8  -2    0.51    0.17
   3  -8   2    0.43    0.15
  -4   8  -2   18.38    0.93
  -4   8  -2   17.74    0.97
   4  -8   2   17.63    0.93
  -5   8  -2   40.26    1.78
  -5   8  -2   38.56    1.85
   5  -8   2   39.69    1.79
  -6   8  -2    5.87    0.65
  -6   8  -2    4.78    0.56
   6  -8   2    5.17    0.60
  -7   8  -2    0.10    0.31
   7  -8   2    0.43    0.33
  -5  -7   2    8.05    0.73
   4   7  -2   20.42    1.04
  -4  -7   2   20.67    1.15
   3   7  -2   26.68    1.23
  -3  -7   2   26.58    1.30
   2   7  -2    0.06    0.10
  -2  -7   2   -0.04    0.12
   1   7  -2   30.90    1.30
  -1  -7   2   30.57    1.31
  -1  -7   2   29.49    1.27
   0   7  -2  180.44    6.88
   0  -7   2  182.01    6.82
   0  -7   2  184.24    6.85
  -1   7  -2   10.21    0.54
   1  -7   2    9.76    0.49
   1  -7   2    9.91    0.46
  -2   7  -2    4.96    0.36
   2  -7   2    4.44    0.32
  -3   7  -2   21.32    1.00
  -3   7  -2   22.26    1.04
   3  -7   2   21.51    1.00
  -4   7  -2   56.31    2.33
  -4   7  -2   58.07    2.40
   4  -7   2   55.45    2.34
  -5   7  -2   24.29    1.29
  -5   7  -2   25.29    1.22
   5  -7   2   24.52    1.23
  -6   7  -2   -0.17    0.23
  -6   7  -2    0.42    0.28
   6  -7   2   -0.15    0.24
  -7   7  -2    6.25    0.67
   7  -7   2    7.43    0.72
  -5  -6   2   20.68    1.19
   4   6  -2   35.56    1.57
  -4  -6   2   35.18    1.66
   3   6  -2    0.08    0.11
  -3  -6   2    0.02    0.13
   2   6  -2   11.01    0.58
  -2  -6   2   11.30    0.62
  -2  -6   2   11.20    0.56
   1   6  -2  134.11    5.08
  -1  -6   2  133.12    5.07
  -1  -6   2  134.00    5.09
   0   6  -2   26.28    1.10
   0  -6   2   25.51    1.05
   0  -6   2   25.79    1.06
  -1   6  -2    4.65    0.31
   1  -6   2    4.61    0.28
   1  -6   2    4.31    0.23
  -2   6  -2   15.79    0.74
   2  -6   2   14.78    0.71
  -3   6  -2   61.00    2.45
  -3   6  -2   60.54    2.41
   3  -6   2   59.09    2.41
  -4   6  -2   28.47    1.32
  -4   6  -2   27.42    1.26
   4  -6   2   28.18    1.27
  -5   6  -2   -0.21    0.16
  -5   6  -2    0.30    0.22
   5  -6   2   -0.12    0.18
  -6   6  -2    8.16    0.78
  -6   6  -2    9.74    0.71
   6  -6   2    9.81    0.73
  -7   6  -2   13.93    0.96
   7  -6   2   15.22    0.98
  -6  -5   2   30.51    1.62
   5   5  -2   12.00    0.97
  -5  -5   2   12.33    0.84
   4   5  -2    0.10    0.13
  -4  -5   2   -0.03    0.16
   3   5  -2   26.28    1.15
  -3  -5   2   25.68    1.21
   2   5  -2   64.53    2.51
  -2  -5   2   64.83    2.50
  -2  -5   2   62.39    2.55
   1   5  -2  198.46    7.35
  -1  -5   2  200.32    7.37
  -1  -5   2  190.11    7.36
   0   5  -2   10.79    0.51
   0  -5   2   10.62    0.48
   0  -5   2   10.37    0.48
  -1   5  -2   68.93    2.53
   1  -5   2   61.80    2.43
   1  -5   2   64.08    2.49
  -2   5  -2  150.40    5.61
  -2   5  -2  149.53    5.63
   2  -5   2  145.06    5.60
  -3   5  -2   95.73    3.66
  -3   5  -2   95.65    3.63
   3  -5   2   89.14    3.61
  -4   5  -2    0.52    0.16
  -4   5  -2    0.68    0.20
   4  -5   2    0.70    0.18
  -5   5  -2    8.82    0.59
  -5   5  -2    8.26    0.65
   5  -5   2    8.59    0.60
  -6   5  -2   27.96    1.60
  -6   5  -2   28.55    1.41
   6  -5   2   31.55    1.45
  -7   5  -2   10.87    0.83
   7  -5   2   12.19    0.86
  -6  -4   2   10.57    0.83
   5   4  -2    0.26    0.19
  -5  -4   2   -0.10    0.18
   4   4  -2   34.11    1.44
  -4  -4   2   31.85    1.52
   3   4  -2  120.17    4.45
  -3  -4   2  111.85    4.40
  -3  -4   2  116.33    4.52
   2   4  -2  115.27    4.34
  -2  -4   2  114.89    4.34
  -2  -4   2  112.65    4.38
   1   4  -2    2.19    0.17
  -1  -4   2    2.13    0.19
  -1  -4   2    2.47    0.20
   0   4  -2   43.61    1.66
   0  -4   2   42.66    1.64
   0  -4   2   41.31    1.63
  -1   4  -2  145.32    5.33
   1  -4   2  137.76    5.30
  -2   4  -2  233.08    8.53
  -2   4  -2  226.25    8.55
   2  -4   2  225.23    8.52
  -3   4  -2    6.76    0.43
  -3   4  -2    7.04    0.41
  -3   4  -2    6.62    0.33
   3  -4   2    6.22    0.40
  -4   4  -2   11.75    0.60
  -4   4  -2   12.98    0.68
  -4   4  -2   13.94    0.76
   4  -4   2   13.21    0.68
  -5   4  -2   34.33    1.50
  -5   4  -2   32.88    1.64
   5  -4   2   33.20    1.50
  -6   4  -2   19.72    1.05
  -6   4  -2   17.90    1.24
   6  -4   2   20.11    1.06
  -6  -3   2    0.41    0.27
   5   3  -2   13.84    0.97
  -5  -3   2   12.51    0.83
   4   3  -2   63.19    2.52
  -4  -3   2   62.09    2.50
  -4  -3   2   63.80    2.61
   3   3  -2  114.97    4.27
  -3  -3   2  109.97    4.25
  -3  -3   2  110.50    4.33
   2   3  -2   56.46    2.19
  -2  -3   2   54.84    2.23
  -2  -3   2   58.07    2.20
   1   3  -2   13.71    0.57
  -1  -3   2   13.19    0.59
   0   3  -2  139.48    5.17
   0  -3   2  136.23    5.14
   0  -3   2  139.00    5.16
  -1   3  -2   74.96    2.81
   1  -3   2   72.19    2.79
  -2   3  -2   59.03    2.31
  -2   3  -2   60.07    2.28
  -2   3  -2   60.19    2.21
   2  -3   2   55.58    2.27
  -3   3  -2   19.08    0.81
  -3   3  -2   20.10    0.92
  -3   3  -2   18.61    0.85
   3  -3   2   18.47    0.84
  -4   3  -2   28.03    1.21
  -4   3  -2   28.38    1.33
  -4   3  -2   26.15    1.16
   4  -3   2   27.06    1.20
  -5   3  -2   42.64    1.80
  -5   3  -2   38.90    1.84
  -5   3  -2   42.14    2.01
   5  -3   2   45.13    1.82
  -6   3  -2   -0.12    0.34
   6  -3   2   -0.09    0.23
  -7  -2   2    0.13    0.27
  -6  -2   2    5.76    0.61
   5   2  -2   39.98    1.89
  -5  -2   2   39.38    1.80
   4   2  -2   50.35    2.00
  -4  -2   2   47.93    1.98
  -4  -2   2   48.58    2.07
   3   2  -2    0.52    0.11
  -3  -2   2    0.48    0.11
  -3  -2   2    0.26    0.11
   2   2  -2   34.45    1.34
  -2  -2   2   33.97    1.40
  -2  -2   2   34.14    1.37
   1   2  -2   74.25    2.80
  -1  -2   2   74.95    2.84
   0   2  -2  257.17    9.71
   0  -2   2  259.69    9.81
   0  -2   2  270.39    9.75
  -1   2  -2    0.37    0.09
   1  -2   2    0.50    0.09
  -2   2  -2   47.86    1.86
  -2   2  -2   50.24    1.95
  -2   2  -2   49.12    1.89
   2  -2   2   47.19    1.89
  -3   2  -2   68.40    2.73
  -3   2  -2   69.76    2.74
  -3   2  -2   77.35    2.88
   3  -2   2   67.91    2.73
  -4   2  -2   41.22    1.72
  -4   2  -2   43.26    1.92
  -4   2  -2   42.13    1.73
   4  -2   2   41.51    1.72
  -5   2  -2    8.42    0.78
  -5   2  -2    9.59    0.58
  -5   2  -2    8.84    0.57
   5  -2   2    7.94    0.56
  -6   2  -2    1.55    0.50
  -7  -1   2    4.38    0.59
  -6  -1   2   44.76    2.04
  -5  -1   2   45.22    1.96
  -5  -1   2   48.43    2.05
   4   1  -2   10.32    0.56
  -4  -1   2    9.70    0.54
  -4  -1   2    9.62    0.59
   3   1  -2   16.78    0.73
  -3  -1   2   15.49    0.73
  -3  -1   2   15.62    0.77
   2   1  -2   73.93    2.73
  -2  -1   2   72.43    2.79
  -2  -1   2   69.93    2.76
   1   1  -2  217.32    8.28
  -1  -1   2  225.82    8.35
  -1  -1   2  229.38    8.33
   0   1  -2    1.15    0.09
   0  -1   2    1.19    0.10
  -1   1  -2   16.05    0.66
  -1   1  -2   17.46    0.73
   1  -1   2   17.01    0.67
  -2   1  -2  183.01    7.09
  -2   1  -2  202.54    7.21
  -2   1  -2  191.43    7.08
   2  -1   2  184.05    7.08
  -3   1  -2   95.78    3.69
  -3   1  -2   91.17    3.50
  -3   1  -2   93.63    3.53
   3  -1   2   86.93    3.49
  -4   1  -2    5.13    0.37
  -4   1  -2    4.71    0.52
  -4   1  -2    5.75    0.40
   4  -1   2    5.36    0.36
  -5   1  -2   15.12    0.80
  -5   1  -2   13.05    0.80
  -5   1  -2   11.98    0.99
   5  -1   2   14.68    0.75
  -6   1  -2   13.54    0.83
   6  -1   2   11.25    0.91
  -7   0   2    8.38    0.73
  -6   0   2   34.89    1.60
  -6   0   2   35.46    1.65
  -5   0   2    9.60    0.60
  -5   0   2    9.71    0.64
   4   0  -2   10.16    0.59
  -4   0   2   10.79    0.62
  -4   0   2   11.55    0.60
  -3   0   2  101.42    3.99
  -3   0   2  102.80    4.01
  -3   0   2  108.85    4.03
  -2   0   2   84.58    3.28
  -2   0   2   86.86    3.29
  -2   0   2   86.61    3.26
  -1   0   2  189.26    7.06
   0   0  -2   13.17    0.60
   0   0  -2   15.66    0.60
   0   0   2   13.53    0.59
  -1   0  -2  103.23    3.92
  -1   0  -2  101.11    3.84
   1   0   2  102.58    3.80
  -2   0  -2  248.15    9.59
  -2   0  -2  259.11    9.42
  -2   0  -2  253.56    9.46
   2   0   2  254.78    9.41
  -3   0  -2   16.87    0.74
  -3   0  -2   17.43    0.80
  -3   0  -2   16.67    0.95
   3   0   2   17.61    0.74
  -4   0  -2   10.80    0.60
  -4   0  -2    9.21    0.51
   4   0   2    9.57    0.51
  -5   0  -2   26.13    1.26
   5   0   2   24.57    1.36
  -6   0  -2   16.08    0.95
   6   0   2   14.81    1.05
  -7   1   2   14.58    0.95
  -6   1   2    0.94    0.26
  -6   1   2    0.90    0.26
  -5   1   2   12.07    0.71
  -5   1   2   11.77    0.69
  -4   1   2   97.61    3.74
  -4   1   2   97.47    3.74
  -4   1   2   91.86    3.78
  -3   1   2  163.67    6.09
  -3   1   2  157.10    6.09
  -3   1   2  162.23    6.09
  -2   1   2   10.20    0.49
  -2   1   2   10.87    0.45
  -2   1   2    9.95    0.49
  -1   1   2   74.77    2.80
  -1   1   2   75.30    2.85
   0  -1  -2   37.50    1.50
   0   1   2   38.11    1.48
   0   1   2   38.43    1.45
  -1  -1  -2  189.68    6.74
   1   1   2  171.23    6.78
  -2  -1  -2  176.12    6.38
   2   1   2  162.39    6.44
  -3  -1  -2    0.08    0.07
  -3  -1  -2    0.39    0.13
   3   1   2    0.31    0.08
   3   1   2    0.48    0.18
  -4  -1  -2   45.39    1.91
   4   1   2   44.33    2.02
  -5  -1  -2   39.53    1.73
   5   1   2   35.26    1.80
  -6  -1  -2    6.56    0.63
   6   1   2    5.70    0.65
  -7  -1  -2    0.02    0.26
  -7   2   2    6.59    0.65
  -6   2   2    0.91    0.26
  -6   2   2    1.01    0.28
  -5   2   2   25.64    1.23
  -5   2   2   27.26    1.25
  -4   2   2  137.29    5.34
  -4   2   2  136.15    5.32
  -4   2   2  142.21    5.31
  -3   2   2   36.34    1.52
  -3   2   2   36.76    1.48
  -2   2   2    4.90    0.25
  -2   2   2    4.79    0.30
  -1   2   2   90.35    3.34
  -1   2   2   86.45    3.31
   0  -2  -2   96.46    3.68
   0   2   2   96.72    3.67
   0   2   2   98.18    3.62
  -1  -2  -2   18.29    0.79
   1   2   2   18.22    0.82
  -2  -2  -2    2.29    0.23
   2   2   2    2.72    0.27
  -3  -2  -2   32.53    1.37
   3   2   2   29.89    1.42
  -4  -2  -2   42.10    1.81
   4   2   2   40.57    1.88
  -5  -2  -2    7.99    0.65
   5   2   2    7.79    0.67
  -6  -2  -2    0.64    0.28
   6   2   2    0.78    0.33
  -7   3   2    1.33    0.36
  -6   3   2    8.83    0.69
  -6   3   2   12.14    0.75
  -5   3   2   30.82    1.41
  -4   3   2   55.24    2.20
  -4   3   2   52.57    2.21
  -3   3   2    2.32    0.25
  -3   3   2    2.86    0.22
  -2   3   2   80.82    3.07
  -2   3   2   80.71    3.12
   1  -3  -2   95.26    3.93
  -1   3   2  109.19    3.90
  -1   3   2  104.31    3.88
   0  -3  -2    3.49    0.24
   0   3   2    3.23    0.17
   0   3   2    3.41    0.23
  -1  -3  -2   30.95    1.30
   1   3   2   32.03    1.33
  -2  -3  -2   32.60    1.38
   2   3   2   32.06    1.41
  -3  -3  -2   46.30    1.94
   3   3   2   45.64    1.98
  -4  -3  -2   23.36    1.18
   4   3   2   23.77    1.22
  -5  -3  -2    0.90    0.28
   5   3   2    0.63    0.28
  -6  -3  -2   19.01    1.15
   6   3   2   16.72    1.12
  -7   4   2   14.81    0.97
  -6   4   2   25.09    1.27
  -5   4   2   14.98    0.84
  -4   4   2    4.63    0.39
  -4   4   2    5.00    0.36
  -3   4   2   27.63    1.16
  -3   4   2   27.56    1.21
  -2   4   2  103.78    3.95
  -2   4   2  102.13    3.91
   1  -4  -2  215.14    8.08
  -1   4   2  216.45    8.03
  -1   4   2  214.48    8.04
   0  -4  -2   38.97    1.57
   0   4   2   39.20    1.57
   0   4   2   37.80    1.48
  -1  -4  -2   96.04    3.77
   1   4   2   99.50    3.79
  -2  -4  -2   83.89    3.30
   2   4   2   83.84    3.33
  -3  -4  -2   33.90    1.53
   3   4   2   34.37    1.56
  -4  -4  -2   -0.37    0.16
   4   4   2    0.02    0.17
  -5  -4  -2   13.60    0.91
   5   4   2   13.10    0.90
  -6  -4  -2   21.05    1.27
   6   4   2   19.80    1.25
  -7   5   2   12.68    0.90
  -6   5   2    6.85    0.62
  -5   5   2    0.69    0.24
  -4   5   2   32.88    1.47
  -4   5   2   32.86    1.43
  -3   5   2   44.84    1.91
  -3   5   2   47.50    1.88
   2  -5  -2   51.13    2.17
  -2   5   2   55.45    2.13
  -2   5   2   55.08    2.15
   1  -5  -2    4.37    0.32
  -1   5   2    4.43    0.30
  -1   5   2    4.18    0.27
   0  -5  -2   60.17    2.41
   0  -5  -2   59.86    2.32
   0   5   2   64.38    2.43
   0   5   2   59.43    2.31
  -1  -5  -2   76.02    3.08
   1   5   2   80.65    3.11
  -2  -5  -2   36.99    1.62
   2   5   2   37.89    1.65
  -3  -5  -2    0.03    0.14
   3   5   2    0.07    0.15
  -4  -5  -2    5.64    0.57
   4   5   2    6.20    0.58
  -5  -5  -2   19.01    1.15
   5   5   2   18.87    1.14
  -7   6   2    8.78    0.76
  -6   6   2    1.19    0.34
  -5   6   2   31.91    1.51
  -4   6   2   50.34    2.13
  -4   6   2   50.50    2.10
   3  -6  -2    9.43    0.63
  -3   6   2   11.24    0.62
  -3   6   2   11.73    0.60
   2  -6  -2    2.81    0.28
  -2   6   2    2.75    0.25
  -2   6   2    2.14    0.24
   1  -6  -2   63.88    2.48
  -1   6   2   61.07    2.42
  -1   6   2   61.57    2.47
   0  -6  -2   58.12    2.31
   0  -6  -2   60.65    2.43
   0   6   2   63.23    2.45
  -1  -6  -2   47.79    2.01
   1   6   2   49.43    2.04
  -2  -6  -2    0.78    0.20
   2   6   2    0.71    0.20
  -3  -6  -2   18.83    1.03
   3   6   2   19.81    1.06
  -4  -6  -2   21.06    1.18
   4   6   2   21.15    1.18
  -5  -6  -2   10.28    0.86
   5   6   2   10.91    0.85
  -7   7   2   -0.12    0.29
  -6   7   2    7.69    0.68
  -5   7   2   41.24    1.86
  -4   7   2   50.62    2.15
  -4   7   2   49.93    2.12
   3  -7  -2    0.74    0.19
  -3   7   2    0.86    0.18
  -3   7   2    0.71    0.19
   2  -7  -2   16.80    0.82
  -2   7   2   16.70    0.81
  -2   7   2   16.10    0.79
   1  -7  -2   66.34    2.56
   1  -7  -2   62.47    2.50
  -1   7   2   64.74    2.57
  -1   7   2   61.94    2.49
   0  -7  -2   40.90    1.74
   0   7   2   41.46    1.76
  -1  -7  -2    0.76    0.19
   1   7   2    1.16    0.24
  -2  -7  -2   24.19    1.20
   2   7   2   24.26    1.21
  -3  -7  -2   23.92    1.24
   3   7   2   23.93    1.25
  -4  -7  -2   16.91    1.06
   4   7   2   17.17    1.05
   5   7   2    0.63    0.48
  -6   8   2    8.83    0.72
  -5   8   2   17.52    1.00
  -4   8   2    0.05    0.15
  -4   8   2   -0.11    0.17
   3  -8  -2    3.83    0.38
  -3   8   2    3.21    0.37
  -3   8   2    4.21    0.38
   2  -8  -2   30.43    1.30
   2  -8  -2   28.51    1.27
  -2   8   2   27.41    1.29
  -2   8   2   28.55    1.26
   1  -8  -2   25.86    1.34
   1  -8  -2   26.91    1.20
  -1   8   2   25.87    1.21
   0  -8  -2    0.47    0.17
   0   8   2    0.78    0.20
  -1  -8  -2   20.76    1.05
   1   8   2   20.72    1.07
  -2  -8  -2   25.80    1.29
   2   8   2   25.63    1.30
  -3  -8  -2   14.80    0.94
   3   8   2   15.13    0.94
  -4  -8  -2    3.16    0.50
   4   8   2    3.14    0.50
   6  -9  -2    6.05    0.67
  -6   9   2    5.59    0.60
   5  -9  -2    0.88    0.30
  -5   9   2    0.41    0.26
   4  -9  -2   22.97    1.18
  -4   9   2   21.83    1.14
  -4   9   2   22.26    1.15
   3  -9  -2   22.81    1.11
  -3   9   2   22.42    1.09
  -3   9   2   21.87    1.11
   2  -9  -2   29.07    1.31
   2  -9  -2   28.36    1.29
  -2   9   2   28.57    1.34
  -2   9   2   29.15    1.28
   1  -9  -2    3.25    0.36
  -1   9   2    3.26    0.38
   0  -9  -2   16.37    0.89
   0   9   2   16.95    0.92
  -1  -9  -2   36.30    1.70
   1   9   2   38.78    1.74
  -2  -9  -2   20.25    1.12
   2   9   2   20.47    1.13
  -3  -9  -2    4.64    0.59
   3   9   2    4.85    0.56
   6 -10  -2    0.54    0.37
  -6  10   2    0.81    0.34
   5 -10  -2   11.13    0.84
  -5  10   2   11.37    0.81
   4 -10  -2   18.77    1.02
  -4  10   2   16.02    0.98
  -4  10   2   17.71    0.99
   3 -10  -2   18.78    1.03
  -3  10   2   21.05    1.03
  -3  10   2   19.50    1.05
  -2  10   2    6.05    0.52
   1 -10  -2   10.24    0.66
  -1  10   2   10.83    0.71
   0 -10  -2   27.47    1.33
   0  10   2   27.73    1.38
  -1 -10  -2   16.64    0.98
   1  10   2   18.37    1.03
  -2 -10  -2    2.51    0.42
   2  10   2    2.90    0.45
  -3 -10  -2    0.48    0.40
   5 -11  -2   16.86    1.07
  -5  11   2   16.79    1.04
   4 -11  -2   10.11    0.76
  -4  11   2   10.89    0.74
  -4  11   2    9.39    0.75
  -3  11   2    1.37    0.31
  -3  11   2    1.23    0.35
  -2  11   2    3.97    0.47
   1 -11  -2   17.78    1.03
  -1  11   2   18.93    1.05
   0 -11  -2   16.85    0.97
   0  11   2   16.97    1.01
  -1 -11  -2    1.39    0.31
   1  11   2    1.47    0.35
  -2 -11  -2    1.74    0.38
   5 -12  -2    9.91    0.84
  -5  12   2    9.96    0.80
   4 -12  -2    5.71    0.63
  -4  12   2    5.25    0.60
  -4  12   2    6.15    0.59
  -3  12   2    1.43    0.36
  -2  12   2   15.62    0.98
  -1  12   2   11.80    0.84
   0 -12  -2    2.41    0.38
   0  12   2    2.70    0.46
  -1 -12  -2    0.64    0.29
  -4  13   2    1.69    0.47
  -3  13   2    3.37    0.54
  -2  13   2    9.35    0.78
  -1  13   2    2.78    0.59
   0  14  -3    7.71    0.68
  -1  14  -3    0.24    0.20
  -2  14  -3    5.84    0.57
  -3  14  -3   11.01    0.84
   3 -14   3   12.93    0.80
  -4  14  -3    5.41    0.76
   4 -14   3    6.44    0.60
   1  13  -3   14.24    0.89
   0  13  -3    1.68    0.33
  -1  13  -3   11.33    0.76
  -2  13  -3   13.37    0.86
   2 -13   3   13.87    1.00
  -3  13  -3    7.19    0.63
   3 -13   3    7.71    0.58
  -4  13  -3    1.09    0.32
   4 -13   3    1.22    0.30
  -5  13  -3    1.14    0.36
   5 -13   3    1.20    0.39
   3  12  -3   11.79    0.84
  -3 -12   3   13.19    0.90
   2  12  -3   12.58    0.80
  -2 -12   3   12.47    0.83
   1  12  -3    1.23    0.28
   0  12  -3   12.72    0.78
  -1  12  -3   31.71    1.50
  -2  12  -3   11.95    0.78
   2 -12   3   13.39    0.73
  -3  12  -3    2.06    0.36
   3 -12   3    1.79    0.30
  -4  12  -3    5.42    0.56
   4 -12   3    5.21    0.52
  -5  12  -3   13.43    0.97
   5 -12   3   14.14    0.90
  -6  12  -3    6.95    0.80
   3  11  -3   11.64    0.76
  -3 -11   3   11.90    0.84
   2  11  -3    4.33    0.44
  -2 -11   3    4.79    0.49
   1  11  -3    0.20    0.16
  -1 -11   3   -0.05    0.15
   0  11  -3   35.51    1.60
  -1  11  -3   25.05    1.23
   1 -11   3   25.86    1.15
  -2  11  -3    2.32    0.34
   2 -11   3    2.86    0.33
  -3  11  -3   12.71    0.80
   3 -11   3   13.37    0.75
  -4  11  -3   16.49    0.98
   4 -11   3   16.05    0.90
  -5  11  -3   12.57    0.91
   5 -11   3   12.08    0.82
  -6  11  -3    2.45    0.50
   6 -11   3    2.15    0.43
   4  10  -3   11.15    0.76
  -4 -10   3   12.62    0.88
   3  10  -3    3.25    0.39
  -3 -10   3    3.43    0.48
   2  10  -3    6.66    0.51
  -2 -10   3    6.44    0.55
   1  10  -3   29.75    1.37
  -1 -10   3   29.84    1.35
   0  10  -3   23.06    1.14
   0 -10   3   24.06    1.09
   0 -10   3   25.82    1.14
  -1  10  -3    2.12    0.30
   1 -10   3    2.10    0.25
  -2  10  -3    1.38    0.26
   2 -10   3    1.43    0.22
  -3  10  -3   29.24    1.40
   3 -10   3   29.02    1.32
  -4  10  -3   19.71    1.11
   4 -10   3   21.15    1.05
  -5  10  -3    4.18    0.54
   5 -10   3    3.94    0.50
  -6  10  -3    3.04    0.54
   6 -10   3    4.53    0.57
   4   9  -3    0.44    0.20
  -4  -9   3    0.34    0.26
   3   9  -3   32.21    1.49
  -3  -9   3   33.53    1.59
   2   9  -3   41.21    1.80
  -2  -9   3   42.74    1.85
   1   9  -3   49.33    2.08
  -1  -9   3   50.41    2.07
   0   9  -3   17.03    0.86
   0  -9   3   17.84    0.81
   0  -9   3   17.65    0.82
  -1   9  -3    9.64    0.58
   1  -9   3   10.18    0.53
  -2   9  -3   94.82    3.73
   2  -9   3   93.52    3.66
  -3   9  -3   40.81    1.74
   3  -9   3   37.17    1.66
  -4   9  -3    5.77    0.54
   4  -9   3    6.13    0.49
  -5   9  -3    0.71    0.28
   5  -9   3    0.42    0.23
  -6   9  -3   14.17    1.06
   6  -9   3   16.54    0.97
  -5  -8   3    5.65    0.64
   4   8  -3    0.43    0.18
  -4  -8   3    0.22    0.22
   3   8  -3   31.99    1.42
  -3  -8   3   31.41    1.51
   2   8  -3   52.18    2.16
  -2  -8   3   52.73    2.20
   1   8  -3   27.93    1.21
  -1  -8   3   27.36    1.21
  -1  -8   3   26.49    1.20
   0   8  -3   11.66    0.62
   0  -8   3   12.32    0.58
   0  -8   3   11.51    0.58
  -1   8  -3   45.15    1.83
   1  -8   3   42.19    1.71
   1  -8   3   44.55    1.77
  -2   8  -3   43.89    1.81
   2  -8   3   41.20    1.74
  -3   8  -3   18.28    0.92
   3  -8   3   16.96    0.85
  -4   8  -3    0.15    0.18
   4  -8   3    0.53    0.19
  -5   8  -3   25.65    1.24
  -5   8  -3   24.27    1.31
   5  -8   3   23.67    1.21
  -6   8  -3   16.41    0.98
  -6   8  -3   15.74    1.10
   6  -8   3   17.07    1.00
  -7   8  -3    2.25    0.70
   7  -8   3    1.79    0.42
  -5  -7   3    1.54    0.37
   4   7  -3   49.92    2.15
  -4  -7   3   52.95    2.29
   3   7  -3   29.10    1.31
  -3  -7   3   30.09    1.40
   2   7  -3   14.50    0.70
  -2  -7   3   11.76    0.79
  -2  -7   3   14.50    0.74
   1   7  -3    2.40    0.23
  -1  -7   3    1.85    0.22
  -1  -7   3    1.89    0.23
   0   7  -3   41.39    1.70
   0  -7   3   42.69    1.66
   0  -7   3   40.70    1.65
  -1   7  -3   51.03    2.03
   1  -7   3   50.90    1.98
   1  -7   3   48.12    1.91
  -2   7  -3   11.17    0.60
   2  -7   3   10.46    0.55
  -3   7  -3    2.72    0.31
   3  -7   3    3.20    0.29
  -4   7  -3   30.35    1.37
  -4   7  -3   30.13    1.44
   4  -7   3   31.03    1.38
  -5   7  -3   39.37    1.87
  -5   7  -3   41.32    1.77
   5  -7   3   38.70    1.76
  -6   7  -3    5.95    0.57
  -6   7  -3    5.39    0.65
   6  -7   3    4.72    0.54
  -7   7  -3   -0.19    0.26
  -7   7  -3    0.56    0.46
   7  -7   3    0.14    0.30
  -5  -6   3   22.24    1.24
   4   6  -3   44.35    1.91
  -4  -6   3   46.62    2.04
   3   6  -3   10.09    0.56
  -3  -6   3   10.12    0.63
   2   6  -3    0.11    0.09
  -2  -6   3    0.03    0.08
  -2  -6   3    0.02    0.09
   1   6  -3  100.84    3.85
  -1  -6   3  104.03    3.88
  -1  -6   3   96.68    3.85
   0   6  -3  129.12    4.86
   0  -6   3  130.37    4.83
   0  -6   3  124.62    4.81
  -1   6  -3   25.45    1.06
   1  -6   3   23.19    1.01
  -2   6  -3    2.28    0.24
   2  -6   3    2.02    0.21
  -3   6  -3   86.53    3.36
   3  -6   3   82.69    3.30
  -4   6  -3   40.54    1.81
  -4   6  -3   41.00    1.73
   4  -6   3   40.47    1.73
  -5   6  -3    9.72    0.64
  -5   6  -3    9.60    0.73
   5  -6   3    9.73    0.65
  -6   6  -3    0.25    0.30
  -6   6  -3   -0.18    0.21
   6  -6   3    0.05    0.23
  -7   6  -3    6.12    0.85
  -7   6  -3    6.45    0.66
   7  -6   3    7.44    0.69
  -6  -5   3    7.85    0.76
  -5  -5   3   38.14    1.81
   4   5  -3   17.93    0.87
  -4  -5   3   18.36    0.99
   3   5  -3    3.90    0.29
  -3  -5   3    3.32    0.34
  -3  -5   3    3.84    0.28
   2   5  -3   77.62    2.93
  -2  -5   3   74.87    2.99
  -2  -5   3   75.03    2.98
   1   5  -3   82.36    3.12
  -1  -5   3   82.97    3.17
  -1  -5   3   78.40    3.12
   0   5  -3    1.22    0.14
   0  -5   3    1.01    0.12
   0  -5   3    1.31    0.12
  -1   5  -3    3.47    0.26
   1  -5   3    3.79    0.24
  -2   5  -3   22.45    1.01
   2  -5   3   23.05    0.98
  -3   5  -3   91.81    3.44
  -3   5  -3   88.94    3.49
   3  -5   3   84.54    3.42
  -4   5  -3   26.24    1.18
  -4   5  -3   26.53    1.27
   4  -5   3   25.45    1.17
  -5   5  -3    0.50    0.27
  -5   5  -3    0.53    0.21
   5  -5   3    0.79    0.23
  -6   5  -3   21.62    1.15
  -6   5  -3   20.55    1.35
   6  -5   3   24.86    1.20
  -7   5  -3    7.77    0.94
  -7   5  -3    9.24    0.92
   7  -5   3   10.15    0.90
  -6  -4   3   17.76    1.11
  -5  -4   3   11.33    0.78
   4   4  -3    1.65    0.21
  -4  -4   3    1.19    0.26
  -4  -4   3    1.40    0.20
   3   4  -3   83.83    3.23
  -3  -4   3   84.54    3.25
  -3  -4   3   82.82    3.32
   2   4  -3  181.65    6.65
  -2  -4   3  178.50    6.72
  -2  -4   3  172.42    6.70
   1   4  -3   71.36    2.64
  -1  -4   3   68.93    2.66
  -1  -4   3   66.98    2.71
   0   4  -3   14.82    0.64
   0  -4   3   14.76    0.63
   0  -4   3   14.56    0.62
  -1   4  -3  100.45    3.75
   1  -4   3   96.66    3.72
  -2   4  -3  318.23   11.96
   2  -4   3  322.32   11.91
  -3   4  -3   50.55    2.03
  -3   4  -3   50.60    1.96
  -3   4  -3   45.98    1.87
   3  -4   3   47.81    1.95
  -4   4  -3    3.62    0.39
  -4   4  -3    3.27    0.32
   4  -4   3    3.05    0.30
  -5   4  -3   20.95    1.23
  -5   4  -3   20.70    1.04
   5  -4   3   22.50    1.06
  -6   4  -3   29.00    1.37
  -6   4  -3   27.08    1.62
   6  -4   3   29.41    1.38
  -7   4  -3    4.36    0.74
  -6  -3   3    8.70    0.73
  -5  -3   3    0.64    0.25
   4   3  -3   11.02    0.55
  -4  -3   3   10.37    0.58
  -4  -3   3   10.71    0.66
   3   3  -3  112.86    4.22
  -3  -3   3  110.26    4.31
  -3  -3   3  110.59    4.26
   2   3  -3  139.51    5.18
  -2  -3   3  141.54    5.26
  -2  -3   3  134.18    5.25
   1   3  -3    0.09    0.06
  -1  -3   3    0.31    0.11
  -1  -3   3    0.19    0.07
   0   3  -3  162.32    6.12
   0  -3   3  167.79    6.10
   0  -3   3  162.34    6.12
  -1   3  -3   44.06    1.71
   1  -3   3   42.48    1.68
  -2   3  -3   22.03    0.96
  -2   3  -3   21.44    0.84
   2  -3   3   20.82    0.90
  -3   3  -3    6.36    0.45
  -3   3  -3    5.70    0.33
  -3   3  -3    6.37    0.37
   3  -3   3    5.98    0.36
  -4   3  -3    2.29    0.28
  -4   3  -3    2.43    0.25
  -4   3  -3    2.28    0.35
   4  -3   3    2.57    0.27
  -5   3  -3   80.87    3.44
  -5   3  -3   75.74    3.14
   5  -3   3   81.37    3.16
  -6   3  -3    9.07    0.92
  -7   3  -3    0.36    0.47
  -7  -2   3    8.50    0.79
  -6  -2   3    0.33    0.24
  -5  -2   3   21.96    1.06
  -5  -2   3   22.27    1.14
   4   2  -3   72.94    2.82
  -4  -2   3   73.21    2.94
  -4  -2   3   71.44    2.87
   3   2  -3   31.23    1.25
  -3  -2   3   31.19    1.35
  -3  -2   3   31.23    1.31
   2   2  -3   31.21    1.25
  -2  -2   3   33.18    1.34
  -2  -2   3   32.22    1.33
   1   2  -3   10.89    0.46
  -1  -2   3   11.93    0.52
   0   2  -3   24.75    1.03
   0  -2   3   27.06    1.05
  -1   2  -3   34.27    1.36
  -1   2  -3   34.53    1.29
   1  -2   3   32.68    1.31
  -2   2  -3   22.45    0.92
   2  -2   3   23.08    0.94
  -3   2  -3   40.15    1.69
  -3   2  -3   36.47    1.51
  -3   2  -3   37.08    1.52
   3  -2   3   36.95    1.51
  -4   2  -3   33.58    1.43
  -4   2  -3   34.86    1.66
  -4   2  -3   33.76    1.46
   4  -2   3   35.28    1.44
  -5   2  -3   14.46    0.76
  -5   2  -3   13.03    0.71
  -5   2  -3   11.66    0.98
   5  -2   3   13.50    0.72
  -6   2  -3   -0.36    0.37
   7  -2   3    2.83    0.60
  -7  -1   3    0.09    0.24
  -6  -1   3   23.96    1.26
  -6  -1   3   25.94    1.31
  -5  -1   3   41.97    1.86
  -5  -1   3   41.70    1.80
   4   1  -3   24.21    1.03
  -4  -1   3   23.30    1.12
  -4  -1   3   24.01    1.09
   3   1  -3    0.61    0.10
  -3  -1   3    0.51    0.13
  -3  -1   3    0.84    0.14
   2   1  -3   46.16    1.79
  -2  -1   3   48.89    1.89
  -2  -1   3   47.51    1.89
  -1  -1   3 1000.00   34.71
  -1  -1   3  864.54   34.66
   0   1  -3  281.72   10.77
   0  -1   3  299.99   10.81
  -1   1  -3    2.50    0.21
  -1   1  -3    2.22    0.15
   1  -1   3    2.12    0.14
  -2   1  -3  189.73    6.83
  -2   1  -3  175.69    6.68
   2  -1   3  171.64    6.66
  -3   1  -3   66.68    2.63
  -3   1  -3   68.79    2.60
  -3   1  -3   67.86    2.82
   3  -1   3   66.23    2.59
  -4   1  -3   55.61    2.51
  -4   1  -3   56.66    2.28
  -4   1  -3   56.59    2.22
   4  -1   3   55.23    2.21
  -5   1  -3    0.02    0.17
  -5   1  -3   -0.63    0.31
   6  -1   3    2.38    0.54
   7  -1   3   17.54    1.25
  -7   0   3    2.18    0.41
  -6   0   3   26.30    1.27
  -6   0   3   24.85    1.30
  -5   0   3   27.24    1.27
  -5   0   3   27.19    1.30
   4   0  -3    0.37    0.13
  -4   0   3    0.25    0.11
  -4   0   3    0.52    0.15
  -3   0   3   31.33    1.37
  -3   0   3   33.87    1.39
  -2   0   3   67.78    2.59
  -2   0   3   65.52    2.59
  -1   0   3    2.46    0.19
   0   0  -3   20.12    0.83
   0   0   3   18.83    0.82
  -1   0  -3    7.64    0.45
  -1   0  -3    7.60    0.37
   1   0   3    7.52    0.33
  -2   0  -3  324.94   12.26
  -2   0  -3  335.43   12.42
   2   0   3  329.27   12.20
  -3   0  -3   77.70    3.19
  -3   0  -3   75.36    2.98
   3   0   3   75.68    2.90
  -4   0  -3    2.96    0.34
   4   0   3    3.06    0.44
  -5   0  -3    6.68    0.57
   5   0   3    6.34    0.64
  -6   0  -3   17.90    1.04
   6   0   3   17.24    1.16
   7   0   3   13.03    1.05
  -7   1   3   28.87    1.45
  -7   1   3   28.64    1.47
  -6   1   3   16.96    0.96
  -6   1   3   15.75    0.92
  -5   1   3    1.66    0.28
  -5   1   3    1.59    0.27
  -4   1   3   36.05    1.56
  -4   1   3   34.75    1.55
  -4   1   3   37.47    1.70
  -3   1   3   97.61    3.74
  -3   1   3   98.91    3.80
  -3   1   3   98.31    3.80
  -2   1   3   99.44    3.80
  -1   1   3    1.74    0.11
  -1   1   3    1.83    0.16
   0  -1  -3    0.59    0.12
   0   1   3    0.37    0.09
   0   1   3    0.64    0.09
  -1  -1  -3  233.08    8.37
   1   1   3  214.86    8.41
  -2  -1  -3   63.56    2.45
   2   1   3   61.18    2.54
  -3  -1  -3    3.84    0.32
   3   1   3    3.76    0.39
   3   1   3    3.76    0.21
  -4  -1  -3   13.71    0.78
   4   1   3   13.98    0.88
  -5  -1  -3   19.13    1.06
   5   1   3   19.25    1.16
  -6  -1  -3   18.13    1.08
   6   1   3   16.77    1.14
  -7   2   3   16.09    0.99
  -7   2   3   14.95    0.96
  -6   2   3    1.22    0.30
  -6   2   3    1.48    0.30
  -5   2   3    6.91    0.53
  -5   2   3    7.66    0.54
  -4   2   3  156.18    5.97
  -4   2   3  145.98    5.79
  -3   2   3  177.30    6.66
  -3   2   3  173.83    6.57
  -2   2   3    9.09    0.40
  -2   2   3    9.18    0.48
  -1   2   3   34.00    1.35
  -1   2   3   33.48    1.31
   0  -2  -3   46.27    1.85
   0   2   3   45.19    1.83
   0   2   3   47.93    1.78
  -1  -2  -3  168.77    6.10
   1   2   3  154.53    6.13
  -2  -2  -3   13.26    0.66
   2   2   3   13.18    0.71
  -3  -2  -3    4.90    0.39
   3   2   3    4.54    0.42
  -4  -2  -3   35.67    1.61
   4   2   3   35.37    1.70
  -5  -2  -3   32.72    1.55
   5   2   3   30.62    1.62
  -6  -2  -3    2.10    0.42
   6   2   3    1.79    0.45
  -7   3   3    1.38    0.37
  -6   3   3    1.60    0.33
  -5   3   3   30.51    1.42
  -4   3   3   47.43    2.05
  -4   3   3   50.90    2.15
  -3   3   3    4.92    0.37
  -3   3   3    5.55    0.31
  -2   3   3   13.43    0.59
  -2   3   3   13.82    0.66
   1  -3  -3   51.73    2.17
  -1   3   3   54.72    2.09
  -1   3   3   55.82    2.11
   0  -3  -3   67.75    2.63
   0   3   3   66.12    2.53
   0   3   3   66.75    2.61
  -1  -3  -3    2.04    0.22
   1   3   3    1.94    0.22
  -2  -3  -3   18.84    0.88
   2   3   3   18.25    0.92
  -3  -3  -3   66.66    2.69
   3   3   3   65.21    2.75
  -4  -3  -3   23.93    1.20
   4   3   3   22.61    1.23
  -5  -3  -3    0.96    0.32
   5   3   3    1.03    0.35
  -6  -3  -3    1.97    0.43
   6   3   3    1.86    0.47
  -7   4   3    2.80    0.47
  -6   4   3   14.88    0.91
  -5   4   3   36.41    1.65
  -4   4   3    7.34    0.49
  -4   4   3    6.44    0.50
  -3   4   3   16.87    0.85
  -3   4   3   18.15    0.79
  -2   4   3  127.75    4.82
  -2   4   3  124.78    4.77
   1  -4  -3  159.19    6.40
  -1   4   3  171.04    6.35
  -1   4   3  176.37    6.35
   0  -4  -3   27.73    1.20
   0   4   3   26.85    1.09
   0   4   3   28.23    1.19
  -1  -4  -3    9.36    0.53
   1   4   3    9.45    0.55
  -2  -4  -3  110.47    4.24
   2   4   3  106.47    4.27
  -3  -4  -3   44.47    1.91
   3   4   3   43.08    1.95
  -4  -4  -3   22.61    1.20
   4   4   3   22.55    1.23
  -5  -4  -3    0.37    0.28
   5   4   3    0.71    0.33
   6   4   3   10.89    1.01
  -7   5   3   14.02    0.96
  -6   5   3   17.10    1.00
  -5   5   3    7.79    0.59
  -4   5   3    6.93    0.52
  -4   5   3    6.22    0.48
  -3   5   3   58.22    2.28
  -3   5   3   56.25    2.33
   2  -5  -3   65.22    2.67
  -2   5   3   67.72    2.63
  -2   5   3   65.82    2.59
   1  -5  -3    2.11    0.26
  -1   5   3    1.87    0.21
  -1   5   3    1.63    0.17
   0  -5  -3    2.04    0.25
   0   5   3    1.67    0.14
   0   5   3    1.85    0.23
  -1  -5  -3   27.38    1.23
   1   5   3   27.51    1.25
  -2  -5  -3  151.04    5.83
   2   5   3  150.80    5.86
  -3  -5  -3   15.03    0.87
   3   5   3   14.51    0.89
  -4  -5  -3   -0.20    0.20
   4   5   3    0.28    0.24
  -5  -5  -3   10.77    0.87
   5   5   3   10.22    0.85
  -7   6   3   16.05    1.05
  -6   6   3    3.31    0.47
  -5   6   3    1.54    0.32
  -4   6   3   52.19    2.23
  -4   6   3   53.08    2.29
   3  -6  -3   60.65    2.51
  -3   6   3   60.91    2.45
  -3   6   3   61.54    2.49
   2  -6  -3   19.21    0.98
  -2   6   3   21.17    0.94
  -2   6   3   21.05    0.95
   1  -6  -3   12.24    0.66
  -1   6   3   12.05    0.63
  -1   6   3   11.00    0.56
   0  -6  -3   21.84    1.04
   0   6   3   22.87    1.06
  -1  -6  -3   66.82    2.75
   1   6   3   68.57    2.78
  -2  -6  -3    0.87    0.24
   2   6   3    0.96    0.26
  -3  -6  -3    0.76    0.25
   3   6   3    0.83    0.30
  -4  -6  -3   11.46    0.84
   4   6   3   11.13    0.83
  -5  -6  -3   17.29    1.55
   5   6   3   17.83    1.16
  -7   7   3    1.38    0.56
  -6   7   3   -0.30    0.23
  -5   7   3   14.62    0.90
   4  -7  -3   76.70    3.28
  -4   7   3   81.96    3.42
  -4   7   3   83.36    3.29
   3  -7  -3   36.57    1.70
  -3   7   3   40.82    1.70
  -3   7   3   39.34    1.67
   2  -7  -3    0.83    0.21
  -2   7   3    1.07    0.21
  -2   7   3    0.86    0.19
   1  -7  -3   49.25    2.00
   1  -7  -3   45.76    1.89
  -1   7   3   47.45    1.98
  -1   7   3   46.59    1.89
   0  -7  -3   43.63    1.87
   0   7   3   43.54    1.88
  -1  -7  -3   73.38    3.05
   1   7   3   76.84    3.09
  -2  -7  -3    2.01    0.33
   2   7   3    2.16    0.36
  -3  -7  -3    6.26    0.60
   3   7   3    5.95    0.58
  -4  -7  -3   22.54    1.28
   4   7   3   20.87    1.26
  -6   8   3    3.50    0.52
  -5   8   3   18.24    1.05
  -4   8   3    3.31    0.43
   3  -8  -3    0.19    0.20
  -3   8   3    0.41    0.17
  -3   8   3   -0.05    0.15
   2  -8  -3   20.03    1.00
  -2   8   3   19.77    0.99
  -2   8   3   19.51    0.94
   1  -8  -3   40.06    1.74
  -1   8   3   39.73    1.75
   0  -8  -3   30.33    1.43
   0   8   3   31.88    1.46
  -1  -8  -3    7.57    0.58
   1   8   3    7.49    0.59
  -2  -8  -3   17.38    1.00
   2   8   3   16.97    1.00
  -3  -8  -3   15.34    0.99
   3   8   3   15.00    0.98
  -6   9   3   11.51    0.85
  -5   9   3    8.50    0.70
  -4   9   3    1.30    0.30
   3  -9  -3    7.65    0.78
   3  -9  -3    7.91    0.58
  -3   9   3    7.85    0.57
   2  -9  -3   43.51    1.86
  -2   9   3   41.32    1.86
   1  -9  -3    6.16    0.51
  -1   9   3    6.16    0.52
   0  -9  -3    1.31    0.28
   0   9   3    1.50    0.31
  -1  -9  -3   37.02    1.73
   1   9   3   36.83    1.75
  -2  -9  -3   22.63    1.24
   2   9   3   22.44    1.24
  -3  -9  -3    7.27    0.71
   3   9   3    7.14    0.69
  -6  10   3    9.02    1.18
   5 -10  -3    0.76    0.33
  -5  10   3    0.74    0.31
   4 -10  -3   12.33    0.81
  -4  10   3   11.16    0.78
   3 -10  -3   25.99    1.28
  -3  10   3   25.13    1.30
  -3  10   3   26.71    1.27
   2 -10  -3   17.28    0.95
  -2  10   3   16.53    0.97
   1 -10  -3    3.17    0.43
  -1  10   3    3.55    0.45
   0 -10  -3    5.11    0.51
   0  10   3    4.58    0.52
  -1 -10  -3   33.72    1.63
   1  10   3   33.00    1.66
  -2 -10  -3   13.28    0.92
   2  10   3   12.41    0.90
   5 -11  -3    7.14    0.75
  -5  11   3    7.53    0.71
   4 -11  -3   17.11    1.04
  -4  11   3   16.74    1.01
  -3  11   3   16.44    1.00
  -2  11   3    1.09    0.32
   1 -11  -3    1.97    0.35
  -1  11   3    2.31    0.42
   0 -11  -3   18.13    1.05
   0  11   3   18.07    1.10
  -1 -11  -3   13.40    0.91
   1  11   3   12.85    0.92
  -3  12   3    0.83    0.31
  -2  12   3    3.82    0.52
  -1  12   3   11.14    0.86
   0 -12  -3   12.92    0.91
   0  12   3   13.03    0.97
  -1 -12  -3    1.60    0.52
  -3  13   3    2.22    0.46
  -2  13   3    4.75    0.88
   0  14  -4   14.49    0.91
  -1  14  -4    5.67    0.55
  -2  14  -4    1.61    0.34
  -3  14  -4    8.98    0.74
   3 -14   4   10.05    0.70
  -4  14  -4    9.24    1.05
   4 -14   4   11.65    0.78
   2  13  -4   11.71    0.79
   1  13  -4   18.83    1.05
   0  13  -4   12.80    0.81
  -1  13  -4    0.39    0.21
  -2  13  -4    6.07    0.57
   2 -13   4    7.31    0.53
  -3  13  -4   15.03    0.97
   3 -13   4   17.17    0.92
  -4  13  -4    5.12    0.58
   4 -13   4    4.28    0.50
  -5  13  -4    0.51    0.31
   5 -13   4   -0.11    0.34
   3  12  -4    8.75    0.67
  -3 -12   4    9.03    0.74
   2  12  -4   20.93    1.11
  -2 -12   4   20.78    1.19
   1  12  -4   13.49    0.81
   0  12  -4    0.13    0.16
  -1  12  -4   11.76    0.74
   1 -12   4   11.72    0.67
  -2  12  -4   22.92    1.21
   2 -12   4   24.28    1.13
  -3  12  -4   13.57    0.85
   3 -12   4   13.03    0.77
  -4  12  -4    0.71    0.26
   4 -12   4    0.80    0.26
  -5  12  -4    8.42    0.77
   5 -12   4    8.65    0.70
   3  11  -4   27.76    1.39
  -3 -11   4   29.72    1.47
   2  11  -4   10.93    0.69
  -2 -11   4   10.90    0.72
   1  11  -4    0.47    0.19
  -1 -11   4    0.62    0.24
   0  11  -4   16.99    0.90
  -1  11  -4   28.74    1.36
   1 -11   4   29.38    1.29
  -2  11  -4   32.66    1.53
   2 -11   4   33.40    1.46
  -3  11  -4    0.66    0.24
   3 -11   4    0.49    0.20
  -4  11  -4    5.88    0.56
   4 -11   4    6.19    0.53
  -5  11  -4   17.27    1.14
   5 -11   4   18.64    1.03
  -6  11  -4    9.28    0.89
   6 -11   4    9.36    0.90
  -4 -10   4   12.21    0.87
   3  10  -4   20.44    1.05
  -3 -10   4   20.17    1.12
   2  10  -4    0.58    0.20
  -2 -10   4    0.58    0.21
   1  10  -4   14.46    0.79
  -1 -10   4   15.09    0.79
   0  10  -4   26.90    1.26
   0 -10   4   27.55    1.21
  -1  10  -4   16.08    0.84
   1 -10   4   15.18    0.77
  -2  10  -4    2.22    0.32
   2 -10   4    1.89    0.26
  -3  10  -4   14.31    0.85
   3 -10   4   14.80    0.79
  -4  10  -4   19.71    1.12
   4 -10   4   21.09    1.05
  -5  10  -4   18.64    1.16
   5 -10   4   19.87    1.07
  -6  10  -4    0.39    0.35
   6 -10   4    0.58    0.29
  -4  -9   4   23.93    1.30
   3   9  -4    0.09    0.15
  -3  -9   4   -0.23    0.16
   2   9  -4   23.95    1.13
  -2  -9   4   24.12    1.16
   1   9  -4   69.21    2.79
  -1  -9   4   69.82    2.78
  -1  -9   4   69.05    2.80
   0   9  -4   43.29    1.82
   0  -9   4   44.22    1.77
   0  -9   4   41.98    1.75
  -1   9  -4    0.65    0.17
   1  -9   4    0.52    0.14
  -2   9  -4   45.53    1.93
   2  -9   4   44.70    1.86
  -3   9  -4   41.53    1.82
   3  -9   4   40.01    1.73
  -4   9  -4   28.89    1.45
   4  -9   4   29.87    1.36
  -5   9  -4    3.26    0.49
   5  -9   4    2.59    0.38
  -6   9  -4    5.27    0.70
   6  -9   4    5.83    0.60
  -7   9  -4   13.05    1.17
  -5  -8   4   10.23    0.82
  -4  -8   4    5.51    0.57
   3   8  -4   13.01    0.71
  -3  -8   4   13.36    0.80
   2   8  -4   51.81    2.12
  -2  -8   4   51.45    2.16
   1   8  -4  129.34    4.92
  -1  -8   4  128.37    4.94
  -1  -8   4  126.28    4.90
   0   8  -4   15.25    0.74
   0  -8   4   14.95    0.70
   0  -8   4   14.31    0.68
  -1   8  -4   19.14    0.92
   1  -8   4   19.26    0.86
  -2   8  -4   45.45    1.89
   2  -8   4   43.35    1.81
  -3   8  -4   32.63    1.46
   3  -8   4   30.40    1.37
  -4   8  -4   12.80    0.80
   4  -8   4   11.99    0.70
  -5   8  -4    3.14    0.48
   5  -8   4    4.05    0.46
  -6   8  -4   16.26    1.16
   6  -8   4   18.64    1.02
  -7   8  -4    9.94    1.06
   7  -8   4   12.82    0.88
  -5  -7   4    0.47    0.26
  -4  -7   4   14.15    0.89
   3   7  -4   29.27    1.28
  -3  -7   4   29.19    1.37
   2   7  -4   30.64    1.29
  -2  -7   4   29.26    1.32
   1   7  -4   27.92    1.20
  -1  -7   4   28.87    1.24
  -1  -7   4   26.69    1.19
   0   7  -4   16.26    0.77
   0  -7   4   15.47    0.71
   0  -7   4   16.86    0.74
  -1   7  -4   73.24    2.83
   1  -7   4   71.57    2.78
   1  -7   4   69.81    2.70
  -2   7  -4   55.70    2.27
   2  -7   4   55.15    2.21
  -3   7  -4    0.96    0.23
   3  -7   4    0.93    0.17
  -4   7  -4   10.58    0.72
   4  -7   4   11.63    0.66
  -5   7  -4   14.32    0.95
   5  -7   4   15.15    0.83
  -6   7  -4   15.01    1.11
   6  -7   4   15.86    0.91
  -7   7  -4    1.80    0.55
   7  -7   4    2.32    0.42
  -6  -6   4    1.39    0.57
  -5  -6   4    9.59    0.75
  -4  -6   4   57.86    2.48
   3   6  -4   33.90    1.46
  -3  -6   4   34.46    1.55
  -3  -6   4   36.71    1.52
   2   6  -4    4.63    0.31
  -2  -6   4    4.20    0.34
   1   6  -4   22.34    0.97
  -1  -6   4   24.32    1.04
  -1  -6   4   20.98    0.97
   0   6  -4  123.42    4.65
   0  -6   4  118.28    4.60
   0  -6   4  125.03    4.63
  -1   6  -4   91.93    3.48
   1  -6   4   87.34    3.43
  -2   6  -4   28.47    1.24
   2  -6   4   27.32    1.18
  -3   6  -4   35.22    1.55
   3  -6   4   34.69    1.47
  -4   6  -4   45.66    2.05
   4  -6   4   47.78    1.95
  -5   6  -4   37.98    1.86
   5  -6   4   39.72    1.71
  -6   6  -4    5.48    0.71
   6  -6   4    6.36    0.57
  -7   6  -4    0.10    0.38
  -6  -5   4    2.13    0.43
  -5  -5   4   30.16    1.51
  -4  -5   4   48.86    2.12
   3   5  -4    5.47    0.34
  -3  -5   4    5.24    0.42
  -3  -5   4    6.11    0.41
   2   5  -4   16.74    0.69
  -2  -5   4   15.78    0.74
  -2  -5   4   12.28    0.75
   1   5  -4   90.34    3.48
  -1  -5   4   87.97    3.49
  -1  -5   4   95.57    3.57
   0   5  -4   67.30    2.59
   0  -5   4   66.17    2.58
   0  -5   4   66.56    2.55
  -1   5  -4   44.17    1.75
   1  -5   4   42.43    1.71
  -2   5  -4   15.81    0.78
   2  -5   4   16.65    0.74
  -3   5  -4  100.53    3.90
   3  -5   4   97.11    3.81
  -4   5  -4   43.27    1.93
   4  -5   4   42.94    1.79
  -5   5  -4   13.58    0.94
   5  -5   4   13.71    0.76
  -6   5  -4    3.08    0.60
   6  -5   4    3.79    0.48
  -7   5  -4    7.09    0.93
  -6  -4   4   17.79    1.10
  -5  -4   4   42.57    1.95
  -4  -4   4   20.53    1.04
  -4  -4   4   19.76    0.96
   3   4  -4   41.04    1.67
  -3  -4   4   44.46    1.77
  -3  -4   4   40.70    1.77
   2   4  -4  110.27    3.94
  -2  -4   4   93.60    4.05
  -2  -4   4  107.87    4.01
   1   4  -4  153.84    5.81
  -1  -4   4  158.28    5.85
  -1  -4   4  153.81    5.92
   0   4  -4    8.60    0.42
   0  -4   4    8.64    0.43
   0  -4   4    8.93    0.40
  -1   4  -4    0.41    0.10
   1  -4   4    0.46    0.09
  -2   4  -4  141.13    5.31
   2  -4   4  136.70    5.24
  -3   4  -4   76.32    2.98
  -3   4  -4   81.73    3.18
   3  -4   4   78.45    3.05
  -4   4  -4   33.74    1.59
   4  -4   4   33.01    1.42
  -5   4  -4    6.63    0.71
   5  -4   4    7.10    0.51
  -6   4  -4   21.78    1.47
   6  -4   4   26.26    1.28
  -7   4  -4   12.19    1.15
  -6  -3   4   24.49    1.33
  -5  -3   4    9.06    0.67
  -5  -3   4    9.05    0.59
  -4  -3   4    5.65    0.46
  -4  -3   4    6.42    0.43
   3   3  -4   91.85    3.48
  -3  -3   4   94.92    3.60
  -3  -3   4   88.68    3.59
   2   3  -4  247.92    9.16
  -2  -3   4  250.88    9.25
  -2  -3   4  241.49    9.30
   1   3  -4  174.85    6.40
  -1  -3   4  182.86    6.46
  -1  -3   4  158.33    6.53
   0   3  -4   20.75    0.87
   0  -3   4   21.39    0.89
  -1   3  -4   57.05    2.25
  -1   3  -4   62.28    2.33
   1  -3   4   58.69    2.27
  -2   3  -4  118.70    4.39
  -2   3  -4  110.36    4.24
   2  -3   4  111.33    4.28
  -3   3  -4   47.33    1.97
  -3   3  -4   44.15    1.77
   3  -3   4   44.28    1.80
  -4   3  -4    6.60    0.61
  -4   3  -4    6.63    0.43
   4  -3   4    7.20    0.43
  -5   3  -4   30.46    1.65
   5  -3   4   30.53    1.34
  -6   3  -4   15.99    1.22
  -7  -2   4   21.68    1.29
  -6  -2   4    8.52    0.70
  -5  -2   4    0.77    0.23
  -5  -2   4    0.65    0.19
  -4  -2   4   62.96    2.59
  -4  -2   4   62.90    2.55
   3   2  -4   55.37    2.17
  -3  -2   4   58.67    2.31
  -3  -2   4   57.08    2.31
   2   2  -4   73.84    2.80
  -2  -2   4   75.74    2.96
  -2  -2   4   75.13    2.92
   1   2  -4  103.84    3.72
  -1  -2   4   91.92    3.86
  -1  -2   4  103.27    3.80
   0   2  -4   99.65    3.89
   0  -2   4  107.45    3.93
  -1   2  -4   95.01    3.51
  -1   2  -4   95.23    3.57
   1  -2   4   88.39    3.50
  -2   2  -4   21.03    0.97
  -2   2  -4   19.71    0.84
   2  -2   4   19.93    0.84
  -3   2  -4    1.29    0.18
  -3   2  -4    1.09    0.29
   3  -2   4    1.46    0.17
  -4   2  -4   42.58    1.78
  -4   2  -4   41.76    2.02
   4  -2   4   43.89    1.74
  -5   2  -4   28.92    1.67
  -5   2  -4   31.30    1.67
  -6   2  -4    1.81    0.58
   7  -2   4    0.58    0.39
  -7  -1   4   18.32    1.13
  -6  -1   4    1.22    0.28
  -6  -1   4    1.27    0.32
  -5  -1   4   38.15    1.70
  -5  -1   4   39.12    1.74
  -4  -1   4   52.14    2.19
  -4  -1   4   52.88    2.17
  -3  -1   4   42.34    1.77
  -3  -1   4   43.05    1.77
  -2  -1   4    6.51    0.39
  -2  -1   4    6.52    0.41
  -1  -1   4  245.99    9.23
   0   1  -4  170.95    6.35
   0  -1   4  168.31    6.37
  -1   1  -4   56.49    2.17
  -1   1  -4   54.52    2.09
   1  -1   4   50.50    2.05
  -2   1  -4   27.83    1.26
  -2   1  -4   26.38    1.10
   2  -1   4   25.86    1.06
  -3   1  -4   74.13    2.87
  -3   1  -4   74.25    3.08
   3  -1   4   71.65    2.80
  -4   1  -4  110.20    4.67
  -4   1  -4  118.82    4.41
   4  -1   4  111.12    4.31
  -5   1  -4   26.12    1.27
   6  -1   4   -0.34    0.25
   7  -1   4    7.81    0.90
  -7   0   4    0.95    0.34
  -7   0   4    1.19    0.33
  -6   0   4   12.69    0.84
  -6   0   4   12.10    0.78
  -5   0   4   49.48    2.16
  -5   0   4   52.41    2.20
  -4   0   4   34.78    1.54
  -4   0   4   36.04    1.56
  -3   0   4    5.55    0.38
  -3   0   4    5.94    0.39
  -2   0   4  267.66   10.02
  -1   0   4  140.77    5.33
   0   0  -4  106.18    4.15
   0   0   4  111.22    4.13
  -1   0  -4   16.35    0.81
  -1   0  -4   16.22    0.73
   1   0   4   16.37    0.67
  -2   0  -4   38.65    1.55
  -2   0  -4   38.17    1.70
   2   0   4   37.05    1.46
  -3   0  -4   74.73    3.17
  -3   0  -4   77.17    2.96
   3   0   4   72.63    2.84
  -4   0  -4   54.57    2.28
   4   0   4   55.46    2.44
  -5   0  -4   -0.19    0.18
   5   0   4   -0.17    0.25
  -6   0  -4    2.63    0.42
   6   0   4    3.08    0.57
  -7   1   4   22.30    1.25
  -7   1   4   21.43    1.21
  -6   1   4   33.25    1.59
  -6   1   4   32.89    1.56
  -5   1   4   11.30    0.70
  -5   1   4   11.51    0.71
  -4   1   4    2.50    0.30
  -3   1   4   58.77    2.37
  -2   1   4  245.89    9.22
  -1   1   4   69.30    2.56
  -1   1   4   66.29    2.63
   0  -1  -4    0.51    0.14
   0   1   4    0.67    0.12
   0   1   4    0.70    0.11
  -1  -1  -4  119.77    4.29
   1   1   4  112.81    4.33
   1   1   4  104.14    4.20
  -2  -1  -4   66.87    2.60
   2   1   4   64.45    2.68
  -3  -1  -4   58.30    2.37
   3   1   4   58.52    2.50
  -4  -1  -4    3.60    0.42
   4   1   4    4.22    0.56
  -5  -1  -4   17.91    1.03
   5   1   4   18.36    1.15
  -6  -1  -4   16.26    1.04
   6   1   4   15.74    1.12
  -7   2   4   22.91    1.26
  -6   2   4   23.89    1.24
  -5   2   4    0.22    0.18
  -4   2   4   21.62    1.05
  -3   2   4  162.83    6.21
  -3   2   4  162.75    6.08
  -2   2   4  147.99    5.57
  -2   2   4  151.02    5.68
  -1   2   4   28.84    1.18
  -1   2   4   30.25    1.22
   0  -2  -4  158.37    5.99
   0   2   4  163.86    5.90
   0   2   4  150.62    5.95
  -1  -2  -4  152.66    5.46
   1   2   4  133.44    5.47
  -2  -2  -4   29.01    1.26
   2   2   4   28.59    1.33
  -3  -2  -4   15.93    0.83
   3   2   4   15.92    0.91
  -4  -2  -4   14.60    0.86
   4   2   4   14.88    0.95
  -5  -2  -4   13.35    0.87
   5   2   4   13.08    0.94
  -6  -2  -4   16.84    1.07
   6   2   4   14.74    1.10
  -7   3   4   16.63    1.04
  -6   3   4    0.94    0.28
  -5   3   4   17.92    0.97
  -4   3   4   46.80    1.99
  -3   3   4   63.72    2.46
  -3   3   4   63.94    2.58
  -2   3   4   10.23    0.55
  -2   3   4   10.27    0.48
   1  -3  -4   29.53    1.36
  -1   3   4   32.30    1.29
  -1   3   4   31.75    1.28
   0  -3  -4  136.68    5.39
   0   3   4  138.11    5.37
   0   3   4  148.06    5.29
  -1  -3  -4   63.09    2.44
   1   3   4   57.58    2.44
  -2  -3  -4    3.84    0.34
   2   3   4    3.35    0.35
  -3  -3  -4   23.86    1.15
   3   3   4   22.98    1.20
  -4  -3  -4   56.79    2.41
   4   3   4   54.43    2.48
  -5  -3  -4    9.31    0.74
   5   3   4    8.82    0.77
  -6  -3  -4    3.06    0.52
   6   3   4    2.02    0.51
  -7   4   4    2.26    0.45
  -6   4   4   14.59    0.91
  -5   4   4   30.11    1.43
  -4   4   4   24.17    1.16
  -3   4   4    2.74    0.24
  -3   4   4    3.07    0.31
   2  -4  -4    6.27    0.47
  -2   4   4    6.47    0.41
  -2   4   4    6.42    0.36
   1  -4  -4  105.67    4.50
  -1   4   4  122.62    4.44
  -1   4   4  121.16    4.45
   0  -4  -4   73.33    2.95
   0   4   4   74.12    2.82
   0   4   4   74.67    2.94
  -1  -4  -4    4.01    0.36
   1   4   4    4.14    0.36
  -2  -4  -4   22.94    1.08
   2   4   4   20.94    1.09
  -3  -4  -4  111.26    4.27
   3   4   4  102.43    4.30
  -4  -4  -4   22.44    1.19
   4   4   4   21.46    1.23
  -5  -4  -4    2.12    0.43
   5   4   4    1.97    0.48
  -7   5   4    4.92    0.64
  -6   5   4   22.76    1.24
  -5   5   4   29.41    1.42
  -4   5   4    5.52    0.46
  -3   5   4   42.29    1.76
  -3   5   4   39.66    1.68
   2  -5  -4  119.23    4.69
  -2   5   4  119.62    4.60
  -2   5   4  122.37    4.64
   1  -5  -4   47.15    2.10
  -1   5   4   52.72    2.07
  -1   5   4   51.96    2.02
   0  -5  -4   24.50    1.16
   0   5   4   25.62    1.16
  -1  -5  -4    0.35    0.16
   1   5   4    0.65    0.19
  -2  -5  -4   23.76    1.13
   2   5   4   21.36    1.14
  -3  -5  -4   54.81    2.30
   3   5   4   49.74    2.31
  -4  -5  -4    3.90    0.53
   4   5   4    3.00    0.51
  -5  -5  -4    0.62    0.32
   5   5   4    0.53    0.35
  -7   6   4   19.48    1.24
  -6   6   4   16.12    1.00
  -5   6   4    6.83    0.59
  -4   6   4   20.60    1.07
   3  -6  -4   61.50    2.57
  -3   6   4   62.13    2.54
  -3   6   4   61.17    2.48
   2  -6  -4   66.14    2.77
  -2   6   4   69.02    2.71
  -2   6   4   67.97    2.70
   1  -6  -4    7.04    0.51
  -1   6   4    6.28    0.39
  -1   6   4    6.95    0.46
   0  -6  -4    8.29    0.56
   0   6   4    8.48    0.56
  -1  -6  -4   59.14    2.43
   1   6   4   56.01    2.43
  -2  -6  -4   71.12    2.93
   2   6   4   69.52    2.96
  -3  -6  -4    7.76    0.65
   3   6   4    6.98    0.63
  -4  -6  -4    2.67    0.46
   4   6   4    2.83    0.48
  -6   7   4    3.67    0.53
  -5   7   4   -0.02    0.23
   4  -7  -4   29.00    1.41
  -4   7   4   28.66    1.39
   3  -7  -4   61.96    2.65
  -3   7   4   65.52    2.64
  -3   7   4   63.60    2.59
   2  -7  -4   15.77    0.90
  -2   7   4   16.57    0.85
  -2   7   4   17.18    0.84
   1  -7  -4   13.57    0.78
  -1   7   4   12.82    0.75
   0  -7  -4   44.20    1.91
   0   7   4   42.34    1.90
  -1  -7  -4   14.12    0.85
   1   7   4   14.22    0.85
  -2  -7  -4   15.51    0.92
   2   7   4   14.57    0.92
  -3  -7  -4    0.89    0.30
   3   7   4    0.74    0.31
  -4  -7  -4   24.26    1.37
   4   7   4   20.72    1.31
  -6   8   4    0.15    0.29
  -5   8   4   22.40    1.23
  -4   8   4   16.38    0.95
   3  -8  -4   15.85    0.95
  -3   8   4   17.74    0.93
  -3   8   4   18.83    0.95
   2  -8  -4    0.58    0.21
  -2   8   4    0.43    0.16
  -2   8   4    0.51    0.21
   1  -8  -4   23.57    1.18
  -1   8   4   23.07    1.17
   0  -8  -4   32.51    1.53
   0   8   4   32.20    1.54
  -1  -8  -4   12.92    0.83
   1   8   4   13.15    0.84
  -2  -8  -4    0.72    0.27
   2   8   4    0.60    0.31
  -3  -8  -4   13.72    0.96
   3   8   4   12.28    0.92
  -6   9   4    7.53    0.74
  -5   9   4   11.94    0.84
  -4   9   4    3.43    0.45
   3  -9  -4    0.80    0.27
  -3   9   4    1.41    0.29
  -3   9   4    1.01    0.25
   2  -9  -4   31.17    1.51
  -2   9   4   32.65    1.52
   1  -9  -4   39.21    1.79
  -1   9   4   38.99    1.81
   0  -9  -4    6.67    0.60
   0   9   4    7.15    0.61
  -1  -9  -4    1.00    0.29
   1   9   4    0.80    0.30
  -2  -9  -4   16.73    1.04
   2   9   4   14.70    1.00
  -5  10   4    2.76    0.46
   4 -10  -4    0.95    0.32
  -4  10   4    0.31    0.25
  -3  10   4   18.71    1.06
   2 -10  -4   26.26    1.33
  -2  10   4   25.90    1.35
   1 -10  -4    6.18    0.58
  -1  10   4    6.26    0.59
   0 -10  -4    0.56    0.25
   0  10   4    0.47    0.26
  -1 -10  -4    7.64    0.70
   1  10   4    6.61    0.67
  -2 -10  -4   16.56    1.11
   5 -11  -4    0.21    0.33
  -5  11   4    0.26    0.29
  -3  11   4   19.64    1.15
  -2  11   4   11.07    0.83
   1 -11  -4    0.41    0.25
  -1  11   4    0.38    0.27
   0 -11  -4    7.76    0.70
   0  11   4    7.12    0.70
  -1 -11  -4   21.40    1.27
  -3  12   4    6.64    1.08
  -2  12   4    0.16    0.27
  -1  12   4    3.97    0.62
   0 -12  -4    8.78    0.80
   3 -15   5    1.01    0.28
   1  14  -5    3.05    0.49
   0  14  -5   20.46    1.14
  -1  14  -5   13.45    0.87
  -2  14  -5    1.88    0.37
   2 -14   5    1.81    0.32
  -3  14  -5    2.06    0.39
   3 -14   5    2.13    0.35
   4 -14   5    8.56    0.70
   2  13  -5    0.80    0.26
   1  13  -5   16.87    0.97
   0  13  -5   26.66    1.34
  -1  13  -5    6.94    0.58
  -2  13  -5    0.87    0.27
   2 -13   5    0.72    0.22
  -3  13  -5   16.12    1.01
   3 -13   5   17.08    0.93
  -4  13  -5   12.83    0.91
   4 -13   5   12.98    0.82
  -5  13  -5    4.21    0.75
   3  12  -5    1.72    0.32
  -3 -12   5    1.18    0.31
   2  12  -5   12.29    0.77
   1  12  -5   35.09    1.62
   0  12  -5    9.43    0.64
  -1  12  -5    0.29    0.18
   1 -12   5    0.32    0.16
  -2  12  -5   17.51    1.01
   2 -12   5   18.86    0.94
  -3  12  -5   20.90    1.17
   3 -12   5   22.40    1.10
  -4  12  -5    4.70    0.55
   4 -12   5    4.56    0.49
  -5  12  -5    0.77    0.34
   5 -12   5    0.91    0.29
   3  11  -5   21.09    1.10
  -3 -11   5   21.29    1.17
   2  11  -5   22.56    1.14
  -2 -11   5   22.97    1.16
   1  11  -5    5.89    0.47
   0  11  -5    0.39    0.18
   0 -11   5    0.19    0.13
  -1  11  -5   14.19    0.80
   1 -11   5   13.18    0.72
  -2  11  -5   64.95    2.74
   2 -11   5   65.45    2.65
  -3  11  -5    9.98    0.70
   3 -11   5    9.74    0.63
  -4  11  -5    0.13    0.20
   4 -11   5    0.36    0.20
  -5  11  -5   13.33    0.98
   5 -11   5   14.28    0.88
  -6  11  -5   11.12    0.98
  -4 -10   5   15.05    0.98
   3  10  -5   27.56    1.33
  -3 -10   5   29.50    1.43
   2  10  -5   13.86    0.77
  -2 -10   5   13.66    0.79
   1  10  -5    5.03    0.41
  -1 -10   5    5.13    0.47
  -1 -10   5    4.63    0.39
   0  10  -5   22.23    1.09
   0 -10   5   23.13    1.05
  -1  10  -5   34.72    1.52
   1 -10   5   32.58    1.44
  -2  10  -5   13.35    0.77
   2 -10   5   12.77    0.70
  -3  10  -5    0.29    0.20
   3 -10   5    0.48    0.18
  -4  10  -5   10.94    0.78
   4 -10   5   10.19    0.67
  -5  10  -5   28.23    1.57
   5 -10   5   31.08    1.45
  -6  10  -5    5.99    0.75
   6 -10   5    6.18    0.62
  -4  -9   5   57.07    2.53
   3   9  -5   22.29    1.10
  -3  -9   5   23.94    1.20
   2   9  -5    0.48    0.16
  -2  -9   5    0.28    0.16
   1   9  -5   42.34    1.76
  -1  -9   5   42.05    1.79
  -1  -9   5   39.75    1.72
   0   9  -5   76.28    2.98
   0  -9   5   76.42    2.94
   0  -9   5   70.21    2.96
  -1   9  -5   49.86    2.05
   1  -9   5   47.31    1.97
  -2   9  -5    3.37    0.36
   2  -9   5    3.23    0.31
  -3   9  -5   15.82    0.90
   3  -9   5   16.69    0.84
  -4   9  -5   45.66    2.10
   4  -9   5   46.76    1.98
  -5   9  -5   12.37    0.92
   5  -9   5   13.67    0.81
  -6   9  -5    0.18    0.29
   6  -9   5    0.32    0.25
  -5  -8   5   20.05    1.20
  -4  -8   5   11.17    0.79
   3   8  -5    0.21    0.14
  -3  -8   5    0.03    0.16
   2   8  -5   28.60    1.23
  -2  -8   5   26.61    1.25
   1   8  -5  147.17    5.54
  -1  -8   5  138.40    5.51
  -1  -8   5  149.18    5.59
   0   8  -5   68.69    2.71
   0  -8   5   69.62    2.68
   0  -8   5   64.99    2.62
  -1   8  -5    0.61    0.16
   1  -8   5    0.76    0.15
  -2   8  -5   19.77    0.98
   2  -8   5   19.82    0.91
  -3   8  -5   52.76    2.25
   3  -8   5   52.06    2.15
  -4   8  -5   45.00    2.05
   4  -8   5   45.24    1.92
  -5   8  -5    1.92    0.40
   5  -8   5    2.00    0.34
  -6   8  -5    2.48    0.51
   6  -8   5    3.78    0.50
  -7   8  -5   13.92    1.36
   7  -8   5   17.26    1.03
  -5  -7   5   26.64    1.42
  -4  -7   5   -0.23    0.17
   3   7  -5   23.64    1.09
  -3  -7   5   22.86    1.17
  -3  -7   5   27.07    1.28
   2   7  -5   55.74    2.19
  -2  -7   5   53.16    2.23
   1   7  -5   54.26    2.19
  -1  -7   5   57.73    2.26
  -1  -7   5   52.37    2.18
   0   7  -5   11.34    0.59
   0  -7   5   11.56    0.54
   0  -7   5   11.48    0.58
  -1   7  -5   24.49    1.10
   1  -7   5   24.49    1.06
  -2   7  -5   52.91    2.17
   2  -7   5   51.55    2.09
  -3   7  -5   35.65    1.60
   3  -7   5   34.94    1.50
  -4   7  -5    0.25    0.22
   4  -7   5    0.38    0.16
  -5   7  -5    3.64    0.54
   5  -7   5    4.20    0.44
  -6   7  -5   17.21    1.25
   6  -7   5   19.42    1.03
  -7   7  -5    9.99    1.11
   7  -7   5   12.44    0.83
  -5  -6   5    0.44    0.25
  -4  -6   5   16.73    0.95
   3   6  -5   59.96    2.41
  -3  -6   5   63.67    2.54
  -3  -6   5   59.18    2.51
   2   6  -5   80.17    3.04
  -2  -6   5   76.46    3.09
   1   6  -5    3.39    0.26
  -1  -6   5    3.62    0.27
  -1  -6   5    4.21    0.33
   0   6  -5   53.66    2.13
   0  -6   5   53.82    2.13
   0  -6   5   53.45    2.08
  -1   6  -5  119.79    4.57
   1  -6   5  118.21    4.52
  -2   6  -5   69.10    2.74
   2  -6   5   66.93    2.66
  -3   6  -5    0.29    0.16
   3  -6   5    0.59    0.14
  -4   6  -5   14.85    0.92
   4  -6   5   17.17    0.83
  -5   6  -5   31.33    1.69
   5  -6   5   34.67    1.50
  -6   6  -5   22.07    1.47
   6  -6   5   25.55    1.22
  -7   6  -5    0.98    0.55
  -6  -5   5    1.44    0.35
  -5  -5   5    9.24    0.71
  -4  -5   5   94.90    3.75
  -4  -5   5   93.95    3.80
   3   5  -5   35.10    1.46
  -3  -5   5   38.01    1.61
  -3  -5   5   35.15    1.57
   2   5  -5    1.25    0.15
  -2  -5   5    1.01    0.21
  -2  -5   5    0.99    0.17
   1   5  -5   32.59    1.33
  -1  -5   5   33.88    1.45
  -1  -5   5   32.31    1.35
   0   5  -5  200.81    7.67
   0  -5   5  207.46    7.63
   0  -5   5  205.44    7.67
  -1   5  -5  123.41    4.66
   1  -5   5  120.23    4.61
  -2   5  -5    7.88    0.49
   2  -5   5    7.59    0.42
  -3   5  -5   18.66    0.97
   3  -5   5   19.34    0.87
  -4   5  -5   39.46    1.84
   4  -5   5   39.80    1.67
  -5   5  -5   48.88    2.32
   5  -5   5   49.64    2.06
  -6   5  -5    2.87    0.62
   6  -5   5    3.29    0.42
  -7   5  -5    0.90    0.58
  -6  -4   5    6.79    0.66
  -5  -4   5   39.54    1.80
  -5  -4   5   37.56    1.81
  -4  -4   5   68.74    2.93
  -4  -4   5   74.84    2.92
   3   4  -5    6.55    0.35
  -3  -4   5    6.32    0.45
  -3  -4   5    7.70    0.50
   2   4  -5    5.99    0.30
  -2  -4   5    5.82    0.38
  -2  -4   5    5.08    0.43
   1   4  -5  239.00    8.84
  -1  -4   5  240.52    8.88
  -1  -4   5  232.79    8.98
   0   4  -5  218.80    8.36
   0  -4   5  229.02    8.38
  -1   4  -5   40.52    1.60
   1  -4   5   37.44    1.55
  -2   4  -5   38.25    1.46
  -2   4  -5   38.69    1.62
   2  -4   5   36.62    1.52
  -3   4  -5   56.10    2.33
  -3   4  -5   53.06    2.15
   3  -4   5   55.71    2.18
  -4   4  -5   51.70    2.34
   4  -4   5   52.80    2.11
  -5   4  -5    6.03    0.76
   5  -4   5    7.89    0.51
  -6   4  -5    0.20    0.45
  -7   4  -5   11.87    1.23
  -6  -3   5   26.77    1.41
  -5  -3   5   58.45    2.52
  -5  -3   5   59.03    2.47
  -4  -3   5    0.78    0.19
  -4  -3   5    0.92    0.20
   3   3  -5   21.86    0.90
  -3  -3   5   21.47    1.03
  -3  -3   5   23.64    1.08
   2   3  -5   68.55    2.49
  -2  -3   5   70.59    2.62
  -2  -3   5   58.10    2.67
   1   3  -5  441.02   16.28
  -1  -3   5  428.47   16.42
  -1  -3   5  449.03   16.36
   0   3  -5   20.69    0.89
   0  -3   5   21.62    0.92
  -1   3  -5    8.26    0.45
  -1   3  -5   11.23    0.53
   1  -3   5    9.76    0.46
  -2   3  -5  122.47    4.66
  -2   3  -5  129.94    4.82
   2  -3   5  119.94    4.68
  -3   3  -5   56.76    2.38
  -3   3  -5   54.80    2.17
   3  -3   5   54.82    2.18
  -4   3  -5   37.47    1.80
   4  -3   5   35.82    1.51
  -5   3  -5   -0.05    0.36
   5  -3   5    0.69    0.26
  -6   3  -5   10.03    1.04
  -7  -2   5   27.09    1.51
  -6  -2   5   42.77    1.98
  -6  -2   5   46.42    2.07
  -5  -2   5   24.71    1.25
  -5  -2   5   25.20    1.22
  -4  -2   5   36.21    1.65
  -4  -2   5   39.26    1.67
  -3  -2   5   47.74    2.02
  -3  -2   5   50.10    2.05
  -2  -2   5  165.57    5.93
  -2  -2   5  146.30    5.98
   1   2  -5   25.49    1.04
  -1  -2   5   27.88    1.21
   0   2  -5    0.67    0.12
   0  -2   5    0.64    0.13
  -1   2  -5  107.41    4.32
  -1   2  -5  120.83    4.39
   1  -2   5  114.00    4.29
  -2   2  -5  164.84    6.01
  -2   2  -5  151.62    5.84
   2  -2   5  150.03    5.82
  -3   2  -5    4.83    0.33
  -3   2  -5    4.37    0.48
   3  -2   5    4.89    0.30
  -4   2  -5    9.91    0.58
  -4   2  -5    8.74    0.80
   4  -2   5    9.67    0.51
  -5   2  -5   16.60    1.24
   7  -2   5    1.90    0.74
  -7  -1   5   20.03    1.23
  -6  -1   5   27.21    1.37
  -6  -1   5   25.17    1.31
  -5  -1   5    3.25    0.42
  -5  -1   5    2.36    0.34
  -4  -1   5   79.55    3.21
  -4  -1   5   79.85    3.21
  -3  -1   5   66.78    2.65
  -3  -1   5   64.96    2.67
  -2  -1   5  132.21    5.09
   1   1  -5   53.94    2.06
   0   1  -5   29.39    1.18
   0  -1   5   26.95    1.19
  -1   1  -5  303.66   11.20
  -1   1  -5  293.38   11.12
   1  -1   5  297.24   11.06
  -2   1  -5   15.14    0.86
  -2   1  -5   16.02    0.72
   2  -1   5   15.09    0.66
  -3   1  -5    2.01    0.25
  -3   1  -5    1.89    0.36
   3  -1   5    2.09    0.19
  -4   1  -5   45.65    2.24
  -4   1  -5   47.45    1.97
  -5   1  -5   40.82    1.82
   6  -1   5    7.87    0.81
  -7   0   5    1.06    0.34
  -7   0   5    0.44    0.28
  -6   0   5    0.51    0.23
  -6   0   5    0.57    0.26
  -5   0   5   55.40    2.34
  -5   0   5   53.51    2.32
  -4   0   5   77.31    3.08
  -4   0   5   75.34    3.09
  -3   0   5   31.99    1.41
  -2   0   5   47.45    1.96
  -1   0   5  135.98    5.19
  -1   0   5  142.07    5.30
   0   0  -5  117.44    4.52
   0   0   5  123.01    4.49
   0   0   5  112.18    4.47
  -1   0  -5  188.87    7.35
  -1   0  -5  203.56    7.46
   1   0   5  193.20    7.28
  -2   0  -5    0.14    0.10
  -2   0  -5   -0.06    0.15
   2   0   5    0.13    0.06
  -3   0  -5   29.28    1.29
  -4   0  -5   91.46    3.67
   4   0   5   93.05    3.85
  -5   0  -5   29.66    1.45
   5   0   5   29.69    1.61
   6   0   5    0.31    0.36
  -7   1   5    0.82    0.31
  -6   1   5   18.59    1.05
  -5   1   5   75.59    3.12
  -4   1   5   15.86    0.85
  -3   1   5    3.27    0.31
  -2   1   5  188.32    7.13
  -1   1   5  182.62    6.60
  -1   1   5  170.20    6.66
   0  -1  -5  113.91    4.42
   0   1   5  115.62    4.35
   0   1   5  114.26    4.38
  -1  -1  -5   29.65    1.25
   1   1   5   27.45    1.15
   1   1   5   28.56    1.27
  -2  -1  -5   24.92    1.12
   2   1   5   24.75    1.19
  -3  -1  -5   36.37    1.62
   3   1   5   38.69    1.75
  -4  -1  -5   45.13    1.98
   4   1   5   45.93    2.14
  -5  -1  -5    0.15    0.21
   5   1   5   -0.14    0.25
  -6  -1  -5    6.94    0.71
   6   1   5    5.97    0.74
  -7   2   5   13.05    0.91
  -6   2   5   36.84    1.74
  -5   2   5   23.24    1.19
  -4   2   5    0.14    0.13
  -3   2   5   31.13    1.39
  -2   2   5  218.95    8.14
  -2   2   5  219.20    8.27
   1  -2  -5   67.01    2.64
  -1   2   5   62.73    2.55
  -1   2   5   65.79    2.52
   0  -2  -5    3.65    0.34
   0   2   5    4.12    0.31
   0   2   5    4.63    0.28
  -1  -2  -5   78.92    3.02
   1   2   5   72.82    3.03
  -2  -2  -5   37.23    1.61
   2   2   5   37.35    1.67
  -3  -2  -5   33.78    1.52
   3   2   5   33.76    1.61
   4   2   5    4.80    0.57
  -5  -2  -5   17.27    1.04
   5   2   5   16.57    1.11
  -6  -2  -5   12.33    0.95
   6   2   5   11.24    1.14
  -7   3   5   29.55    1.55
  -6   3   5   27.89    1.42
  -5   3   5    3.36    0.43
  -4   3   5   12.72    0.74
  -3   3   5   82.69    3.30
  -2   3   5  124.71    4.78
  -2   3   5  123.63    4.68
   1  -3  -5    7.43    0.51
  -1   3   5    7.49    0.43
  -1   3   5    7.55    0.43
   0  -3  -5   60.24    2.52
   0   3   5   65.49    2.40
   0   3   5   59.78    2.48
  -1  -3  -5  112.40    4.18
   1   3   5  100.56    4.17
  -2  -3  -5   22.91    1.10
   2   3   5   22.38    1.13
  -3  -3  -5    3.93    0.44
   3   3   5    3.72    0.46
  -4  -3  -5   17.46    1.03
   4   3   5   17.38    1.07
  -5  -3  -5   17.41    1.07
   5   3   5   15.77    1.10
  -7   4   5   13.09    0.94
  -6   4   5    0.87    0.29
  -5   4   5   16.19    0.94
  -4   4   5   32.00    1.48
  -3   4   5   46.78    1.98
   2  -4  -5    0.66    0.21
  -2   4   5    0.63    0.13
  -2   4   5    0.57    0.16
   1  -4  -5    7.27    0.52
  -1   4   5    7.95    0.47
  -1   4   5    8.09    0.45
   0  -4  -5   95.67    3.91
   0   4   5  105.84    3.77
   0   4   5   95.28    3.88
  -1  -4  -5   71.89    2.79
   1   4   5   64.02    2.77
  -2  -4  -5    0.37    0.19
   2   4   5    0.33    0.20
  -3  -4  -5    3.63    0.48
   3   4   5    4.68    0.50
  -4  -4  -5   34.75    1.69
   4   4   5   34.44    1.74
  -5  -4  -5   13.79    0.97
   5   4   5   11.96    0.96
  -7   5   5   -0.10    0.27
  -6   5   5   16.01    1.00
  -5   5   5   26.11    1.33
  -4   5   5   22.23    1.13
  -3   5   5    0.79    0.19
   2  -5  -5   50.88    2.18
  -2   5   5   52.72    2.12
  -2   5   5   50.09    2.07
   1  -5  -5   52.56    2.35
  -1   5   5   58.14    2.31
  -1   5   5   58.47    2.26
   0  -5  -5   65.86    2.76
   0   5   5   68.11    2.75
  -1  -5  -5    2.76    0.38
   1   5   5    2.24    0.34
  -2  -5  -5    6.54    0.55
   2   5   5    5.54    0.52
  -3  -5  -5   38.12    1.76
   3   5   5   36.01    1.78
  -4  -5  -5   23.02    1.28
   4   5   5   21.47    1.29
  -6   6   5   26.87    1.43
  -5   6   5   34.38    1.65
  -4   6   5    3.41    0.42
   3  -6  -5   26.68    1.32
  -3   6   5   27.00    1.28
   2  -6  -5   59.34    2.58
  -2   6   5   62.45    2.51
  -2   6   5   63.24    2.51
   1  -6  -5   58.94    2.61
  -1   6   5   66.17    2.59
   0  -6  -5   16.84    0.94
   0   6   5   17.14    0.93
  -1  -6  -5   31.69    1.45
   1   6   5   27.74    1.42
  -2  -6  -5   12.37    0.79
   2   6   5   10.33    0.76
  -3  -6  -5   26.28    1.37
   3   6   5   24.28    1.36
  -4  -6  -5    1.01    0.36
   4   6   5    1.10    0.36
  -6   7   5   11.12    0.85
  -5   7   5    1.83    0.38
   4  -7  -5    1.56    0.35
  -4   7   5    1.25    0.29
   3  -7  -5   30.02    1.45
  -3   7   5   30.46    1.42
   2  -7  -5   39.61    1.84
  -2   7   5   40.89    1.79
  -2   7   5   42.50    1.77
   1  -7  -5   12.63    0.81
  -1   7   5   13.17    0.78
   0  -7  -5    8.21    0.65
   0   7   5    7.95    0.62
  -1  -7  -5   20.98    1.14
   1   7   5   20.50    1.14
  -2  -7  -5   22.58    1.21
   2   7   5   20.06    1.18
  -3  -7  -5    5.35    0.64
   3   7   5    5.04    0.60
  -6   8   5    1.90    0.42
  -5   8   5    7.62    0.69
   4  -8  -5   18.31    1.07
  -4   8   5   18.58    1.05
   3  -8  -5   20.34    1.13
  -3   8   5   21.67    1.09
   2  -8  -5    3.83    0.48
  -2   8   5    3.94    0.44
   1  -8  -5    1.43    0.32
  -1   8   5    1.23    0.31
   0  -8  -5   34.38    1.63
   0   8   5   32.53    1.62
  -1  -8  -5   17.86    1.05
   1   8   5   15.83    1.01
  -2  -8  -5    7.07    0.69
   2   8   5    6.44    0.65
  -3  -8  -5    1.71    0.46
   3   8   5    1.64    0.48
  -5   9   5    9.16    0.76
  -4   9   5   17.86    1.05
   3  -9  -5    4.03    0.53
   2  -9  -5    6.05    0.59
  -2   9   5    5.87    0.56
   1  -9  -5   16.72    1.01
  -1   9   5   16.73    1.01
   0  -9  -5   18.72    1.09
   0   9   5   17.67    1.08
  -1  -9  -5    7.75    0.70
   1   9   5    6.78    0.66
  -2  -9  -5    1.27    0.37
   2   9   5    0.86    0.35
  -5  10   5    9.78    0.80
  -4  10   5    3.14    0.48
   2 -10  -5   14.94    0.96
  -2  10   5   14.99    0.97
   1 -10  -5   18.30    1.11
  -1  10   5   19.57    1.16
   0 -10  -5    3.50    0.51
   0  10   5    2.57    0.49
  -1 -10  -5    1.13    0.36
   1  10   5    0.35    0.31
   2 -11  -5   14.11    1.24
  -2  11   5   13.66    0.98
   1 -11  -5    6.64    0.68
  -1  11   5    6.99    0.72
   0 -11  -5   -0.10    0.24
   0  11   5   -0.08    0.24
  -2  12   5    6.61    0.74
   1 -12  -5    0.17    0.32
   3 -15   6    7.24    0.75
   1  14  -6    2.05    0.37
   0  14  -6    9.59    0.72
  -1  14  -6   15.59    0.97
  -2  14  -6   10.71    0.81
   2 -14   6   12.34    0.76
  -3  14  -6    0.69    0.28
   3 -14   6    0.52    0.24
   4 -14   6    0.58    0.41
   2  13  -6    1.53    0.31
   1  13  -6    8.12    0.62
   0  13  -6   26.90    1.35
  -1  13  -6   20.43    1.13
   1 -13   6   21.50    1.07
  -2  13  -6    8.74    0.68
   2 -13   6    8.28    0.60
  -3  13  -6    5.92    0.60
   3 -13   6    6.30    0.53
  -4  13  -6   13.42    0.96
   4 -13   6   14.24    0.87
  -3 -12   6    3.82    0.52
   2  12  -6    0.47    0.21
   1  12  -6   30.58    1.45
   0  12  -6   23.42    1.20
   0 -12   6   24.55    1.18
  -1  12  -6   15.36    0.89
   1 -12   6   14.81    0.81
  -2  12  -6    6.24    0.57
   2 -12   6    7.50    0.53
  -3  12  -6   17.76    1.06
   3 -12   6   18.38    0.97
  -4  12  -6   15.07    1.03
   4 -12   6   16.98    0.93
  -5  12  -6    2.88    0.53
   5 -12   6    2.91    0.42
  -4 -11   6    7.86    1.00
  -3 -11   6    2.23    0.37
   2  11  -6   25.62    1.24
  -2 -11   6   25.80    1.26
   1  11  -6   24.40    1.19
   0  11  -6    3.04    0.35
   0 -11   6    2.75    0.33
  -1  11  -6    1.20    0.27
   1 -11   6    0.92    0.20
  -2  11  -6   25.05    1.28
   2 -11   6   26.45    1.21
  -3  11  -6   17.62    1.03
   3 -11   6   18.04    0.93
  -4  11  -6    8.02    0.71
   4 -11   6    8.66    0.61
  -5  11  -6    2.06    0.46
   5 -11   6    2.09    0.36
  -4 -10   6    6.88    0.65
  -3 -10   6   26.04    1.31
   2  10  -6   52.08    2.21
  -2 -10   6   53.16    2.23
   1  10  -6    7.41    0.51
  -1 -10   6    7.56    0.56
  -1 -10   6    7.54    0.55
   0  10  -6    0.74    0.20
   0 -10   6    0.82    0.19
  -1  10  -6   66.39    2.72
   1 -10   6   64.97    2.64
  -2  10  -6   42.41    1.88
   2 -10   6   42.22    1.79
  -3  10  -6    7.69    0.62
   3 -10   6    7.96    0.55
  -4  10  -6    0.20    0.24
   4 -10   6    0.54    0.21
  -5  10  -6   16.17    1.11
   5 -10   6   17.31    0.97
  -6  10  -6    9.82    0.95
   6 -10   6   11.64    0.81
  -4  -9   6   17.64    1.05
  -3  -9   6   40.46    1.82
   2   9  -6   21.65    1.02
  -2  -9   6   21.12    1.04
   1   9  -6   11.70    0.65
  -1  -9   6   11.32    0.63
  -1  -9   6   12.47    0.71
   0   9  -6   34.49    1.53
   0  -9   6   35.60    1.51
  -1   9  -6   90.35    3.53
   1  -9   6   86.45    3.45
  -2   9  -6   20.31    1.04
   2  -9   6   20.42    0.96
  -3   9  -6    0.33    0.20
   3  -9   6    0.19    0.14
  -4   9  -6   22.98    1.29
   4  -9   6   24.91    1.18
  -5   9  -6   22.16    1.33
   5  -9   6   23.44    1.17
  -6   9  -6    7.02    0.81
   6  -9   6    7.01    0.63
  -5  -8   6   21.47    1.24
  -4  -8   6   30.12    1.49
  -3  -8   6   29.44    1.39
   2   8  -6    2.90    0.28
  -2  -8   6    2.11    0.35
  -2  -8   6    2.33    0.30
   1   8  -6   21.35    0.98
  -1  -8   6   20.32    0.96
  -1  -8   6   21.48    1.05
   0   8  -6   81.28    3.16
   0  -8   6   80.84    3.14
   0  -8   6   77.49    3.08
  -1   8  -6   63.90    2.54
   1  -8   6   60.67    2.47
  -2   8  -6    0.22    0.15
   2  -8   6    0.32    0.12
  -3   8  -6   30.75    1.47
   3  -8   6   31.52    1.37
  -4   8  -6   50.47    2.27
   4  -8   6   50.26    2.12
  -5   8  -6    9.54    0.81
   5  -8   6   10.95    0.69
  -6   8  -6    0.38    0.37
   6  -8   6    0.55    0.27
  -5  -7   6   38.55    1.85
  -4  -7   6   24.96    1.27
  -3  -7   6    0.77    0.20
  -3  -7   6    0.58    0.19
   2   7  -6   89.41    3.23
  -2  -7   6   70.73    3.36
  -2  -7   6   86.49    3.27
   1   7  -6   63.69    2.52
  -1  -7   6   61.24    2.51
  -1  -7   6   66.17    2.62
   0   7  -6   71.20    2.77
   0  -7   6   68.68    2.70
   0  -7   6   70.16    2.76
  -1   7  -6    7.57    0.47
   1  -7   6    6.85    0.42
  -2   7  -6   39.90    1.73
   2  -7   6   39.66    1.65
  -3   7  -6   51.41    2.18
   3  -7   6   49.17    2.05
  -4   7  -6   19.65    1.13
   4  -7   6   20.76    0.99
  -5   7  -6   -0.06    0.25
   5  -7   6    0.13    0.17
  -6   7  -6    2.69    0.58
   6  -7   6    4.38    0.49
  -5  -6   6   23.35    1.26
  -4  -6   6   11.21    0.69
  -4  -6   6    9.74    0.69
  -3  -6   6   70.20    2.97
  -3  -6   6   72.30    2.90
   2   6  -6   66.69    2.50
  -2  -6   6   66.35    2.57
  -2  -6   6   58.14    2.68
   1   6  -6   18.46    0.82
  -1  -6   6   18.73    0.93
  -1  -6   6   17.43    0.82
   0   6  -6    9.29    0.51
   0  -6   6    9.44    0.51
   0  -6   6    9.71    0.47
  -1   6  -6   11.60    0.62
   1  -6   6   11.76    0.58
  -2   6  -6   45.82    1.94
   2  -6   6   45.68    1.85
  -3   6  -6   38.33    1.70
   3  -6   6   36.45    1.56
  -4   6  -6    0.77    0.28
   4  -6   6    0.80    0.19
  -5   6  -6   16.18    1.11
   5  -6   6   17.73    0.90
  -6   6  -6   16.81    1.29
   6  -6   6   20.49    1.02
  -6  -5   6    8.22    0.73
  -5  -5   6    0.41    0.22
  -4  -5   6    9.69    0.67
  -4  -5   6   11.63    0.70
  -3  -5   6  151.88    5.97
  -3  -5   6  159.23    6.08
   2   5  -6   52.72    2.02
  -2  -5   6   52.28    2.11
  -2  -5   6   49.79    2.24
   1   5  -6    0.35    0.10
  -1  -5   6    0.36    0.15
  -1  -5   6    0.19    0.09
   0   5  -6   88.01    3.41
   0  -5   6   89.10    3.43
  -1   5  -6  244.13    9.13
   1  -5   6  241.45    9.08
  -2   5  -6   48.46    2.01
   2  -5   6   47.20    1.91
  -3   5  -6    8.09    0.58
   3  -5   6    7.97    0.47
  -4   5  -6   16.88    1.03
   4  -5   6   17.18    0.84
  -5   5  -6   26.87    1.55
   5  -5   6   27.77    1.25
  -6   5  -6   20.65    1.42
  -6  -4   6   -0.13    0.19
  -5  -4   6    1.26    0.26
  -5  -4   6    1.33    0.30
  -4  -4   6   66.20    2.86
  -4  -4   6   73.94    2.92
  -3  -4   6   55.32    2.34
  -3  -4   6   53.62    2.24
   2   4  -6    9.12    0.42
  -2  -4   6    8.18    0.60
  -2  -4   6    9.15    0.51
   1   4  -6   59.17    2.28
   0   4  -6  228.24    8.63
   0  -4   6  233.31    8.66
  -1   4  -6   69.57    2.71
  -1   4  -6   66.94    2.65
   1  -4   6   68.66    2.65
  -2   4  -6   15.28    0.79
  -2   4  -6   15.06    0.65
   2  -4   6   14.36    0.69
  -3   4  -6    2.06    0.34
   3  -4   6    2.79    0.25
  -4   4  -6   65.50    2.84
   4  -4   6   63.64    2.56
  -5   4  -6   27.23    1.58
   5  -4   6   27.82    1.24
  -6   4  -6    3.86    0.72
  -6  -3   6   20.19    1.14
  -6  -3   6   19.75    1.16
  -5  -3   6   41.82    1.95
  -5  -3   6   45.18    1.96
  -4  -3   6   61.41    2.63
  -4  -3   6   66.21    2.68
  -3  -3   6    6.15    0.49
  -3  -3   6    6.26    0.44
  -2  -3   6    1.03    0.22
  -2  -3   6    1.04    0.17
   1   3  -6   54.29    2.09
  -1  -3   6   54.53    2.28
   0   3  -6  207.51    7.99
   0  -3   6  219.45    8.03
  -1   3  -6    5.87    0.38
  -1   3  -6    7.24    0.44
   1  -3   6    7.01    0.37
  -2   3  -6   19.63    0.84
  -2   3  -6   19.40    0.98
   2  -3   6   19.58    0.85
  -3   3  -6   51.49    2.08
  -3   3  -6   52.25    2.30
   3  -3   6   53.01    2.07
  -4   3  -6    8.51    0.77
   4  -3   6    9.50    0.52
  -5   3  -6    6.08    0.80
  -6   3  -6   -0.70    0.42
  -7  -2   6   17.60    1.61
  -6  -2   6   34.73    1.72
  -6  -2   6   35.91    1.69
  -5  -2   6   61.90    2.62
  -5  -2   6   61.18    2.62
  -4  -2   6    4.31    0.41
  -4  -2   6    4.75    0.43
  -3  -2   6   27.25    1.24
  -3  -2   6   27.15    1.29
  -2  -2   6  209.50    8.01
   1   2  -6  233.87    9.17
  -1  -2   6  260.93    9.38
   0   2  -6   71.76    2.77
   0  -2   6   70.32    2.80
  -1   2  -6    7.79    0.49
  -1   2  -6    6.88    0.43
   1  -2   6    8.41    0.41
  -2   2  -6   89.33    3.55
  -2   2  -6   87.73    3.38
   2  -2   6   86.08    3.34
  -3   2  -6   63.87    2.78
  -3   2  -6   64.95    2.56
   3  -2   6   64.72    2.51
  -4   2  -6    0.44    0.35
  -4   2  -6    0.98    0.21
  -5   2  -6   -0.17    0.41
   6  -2   6   11.03    0.94
  -7  -1   6   16.10    1.02
  -7  -1   6   15.70    1.07
  -6  -1   6   29.12    1.49
  -6  -1   6   31.11    1.54
  -5  -1   6   21.17    1.13
  -5  -1   6   21.28    1.12
  -4  -1   6   13.19    0.78
  -4  -1   6   14.85    0.82
  -3  -1   6   58.43    2.44
  -2  -1   6   13.74    0.75
  -1  -1   6   47.19    1.98
   0   1  -6    0.38    0.14
   0   1  -6    0.24    0.19
   0  -1   6    0.59    0.14
  -1   1  -6  120.45    4.58
  -1   1  -6  110.21    4.50
   1  -1   6  121.15    4.45
  -2   1  -6  127.00    5.13
  -2   1  -6  134.97    4.98
   2  -1   6  127.96    4.89
  -3   1  -6    3.64    0.52
  -3   1  -6    4.87    0.38
   3  -1   6    4.77    0.30
  -4   1  -6    2.81    0.37
  -4   1  -6    2.67    0.55
   5  -1   6   19.38    1.22
   6  -1   6   20.18    1.33
  -7   0   6    7.81    0.72
  -6   0   6   10.62    0.77
  -5   0   6    2.81    0.39
  -4   0   6   53.07    2.27
  -3   0   6   78.40    3.17
  -2   0   6    3.39    0.32
  -1   0   6   10.54    0.51
  -1   0   6   11.32    0.61
   0   0  -6  107.56    4.20
   0   0   6  111.36    4.16
   0   0   6  104.59    4.14
  -1   0  -6   84.76    3.29
   1   0   6   80.24    3.21
   1   0   6   85.77    3.31
  -2   0  -6   22.52    1.02
   2   0   6   20.95    1.08
   2   0   6   22.09    0.91
  -3   0  -6    3.87    0.37
   3   0   6    3.06    0.42
  -4   0  -6   22.70    1.16
   4   0   6   24.32    1.34
  -5   0  -6   27.27    1.36
   5   0   6   25.59    1.50
   6   0   6    6.79    0.82
  -7   1   6    1.43    0.38
  -6   1   6    2.47    0.41
  -5   1   6   65.92    2.80
  -4   1   6   89.12    3.61
  -3   1   6   18.12    0.93
  -2   1   6    3.90    0.33
  -1   1   6   95.86    3.66
   0  -1  -6  141.95    5.48
   0   1   6  141.99    5.40
   0   1   6  143.15    5.44
  -1  -1  -6   68.09    2.78
   1   1   6   69.21    2.67
   1   1   6   69.50    2.79
  -2  -1  -6    0.11    0.12
   2   1   6    0.24    0.15
  -3  -1  -6   27.12    1.27
   3   1   6   26.79    1.36
  -4  -1  -6   42.41    1.93
   4   1   6   44.03    2.06
  -5  -1  -6   10.77    0.81
   5   1   6   10.09    0.87
  -7   2   6    0.09    0.28
  -6   2   6   25.12    1.34
  -5   2   6   48.31    2.16
  -4   2   6   18.29    0.98
  -3   2   6    0.89    0.19
  -2   2   6   49.16    1.89
  -2   2   6   48.78    2.03
   1  -2  -6  100.82    3.73
  -1   2   6   90.95    3.59
  -1   2   6   88.70    3.62
   0  -2  -6   26.46    1.24
   0   2   6   26.32    1.13
   0   2   6   27.17    1.19
  -1  -2  -6    0.44    0.17
   1   2   6    1.08    0.22
  -2  -2  -6   31.47    1.44
   2   2   6   31.56    1.48
  -3  -2  -6   29.32    1.41
   3   2   6   30.12    1.48
  -4  -2  -6    3.82    0.49
   4   2   6    4.15    0.54
  -5  -2  -6   -0.01    0.24
   5   2   6    0.00    0.26
  -7   3   6   11.39    0.89
  -6   3   6   35.86    1.75
  -5   3   6   18.05    1.03
  -4   3   6    0.81    0.22
  -3   3   6   44.53    1.92
  -2   3   6  129.93    5.05
  -2   3   6  131.37    4.94
   1  -3  -6   37.53    1.64
  -1   3   6   37.06    1.55
  -1   3   6   35.95    1.54
   0  -3  -6    3.91    0.40
   0   3   6    4.52    0.37
   0   3   6    5.01    0.31
  -1  -3  -6   38.90    1.68
   1   3   6   36.20    1.66
  -2  -3  -6   47.94    2.08
   2   3   6   47.66    2.10
  -3  -3  -6   26.67    1.36
   3   3   6   28.22    1.41
  -4  -3  -6   -0.16    0.21
   4   3   6    0.30    0.27
  -5  -3  -6    9.62    0.83
   5   3   6    9.19    0.84
  -7   4   6   12.34    1.11
  -6   4   6   12.61    0.89
  -5   4   6    0.61    0.24
  -4   4   6   16.53    0.93
  -3   4   6   49.65    2.12
   2  -4  -6    9.70    0.65
  -2   4   6    9.50    0.51
  -2   4   6    8.63    0.55
   1  -4  -6    1.17    0.25
  -1   4   6    0.55    0.17
  -1   4   6    0.71    0.15
   0  -4  -6   18.37    0.95
   0   4   6   16.40    0.89
  -1  -4  -6   74.10    2.95
   1   4   6   67.53    2.91
  -2  -4  -6   32.75    1.54
   2   4   6   31.40    1.53
  -3  -4  -6    0.52    0.26
   3   4   6    0.47    0.27
  -4  -4  -6    9.01    0.78
   4   4   6    9.62    0.79
  -5  -4  -6   12.08    1.11
  -6   5   6    0.13    0.24
  -5   5   6   14.01    0.90
  -4   5   6   27.26    1.35
   3  -5  -6   30.56    1.50
  -3   5   6   32.00    1.46
   2  -5  -6    6.68    0.56
  -2   5   6    6.24    0.45
  -2   5   6    5.73    0.42
   1  -5  -6   24.43    1.24
  -1   5   6   25.56    1.12
  -1   5   6   24.44    1.17
   0  -5  -6   51.01    2.20
   0   5   6   49.55    2.17
  -1  -5  -6    0.27    0.21
   1   5   6    0.31    0.20
  -2  -5  -6    0.04    0.19
   2   5   6    0.31    0.23
  -3  -5  -6    6.22    0.63
   3   5   6    5.64    0.60
  -4  -5  -6   18.20    1.16
   4   5   6   17.63    1.16
  -6   6   6   13.28    0.95
  -5   6   6   35.40    1.72
  -4   6   6   28.55    1.41
   3  -6  -6    2.70    0.40
  -3   6   6    3.26    0.38
   2  -6  -6   22.17    1.19
  -2   6   6   23.90    1.12
  -2   6   6   23.53    1.12
   1  -6  -6   62.98    2.74
  -1   6   6   66.29    2.70
   0  -6  -6   60.63    2.53
   0   6   6   55.41    2.48
  -1  -6  -6    0.90    0.29
   1   6   6    1.04    0.29
  -2  -6  -6    2.81    0.46
   2   6   6    3.56    0.51
  -3  -6  -6   24.33    1.34
   3   6   6   21.98    1.30
  -6   7   6   18.04    1.15
  -5   7   6    3.26    0.48
   4  -7  -6    2.34    0.40
  -4   7   6    2.16    0.39
   3  -7  -6    7.84    0.65
  -3   7   6    7.40    0.58
   2  -7  -6   27.20    1.41
  -2   7   6   29.11    1.36
   1  -7  -6   41.25    1.93
  -1   7   6   42.13    1.90
   0  -7  -6    0.29    0.24
   0   7   6    0.47    0.25
  -1  -7  -6    6.52    0.63
   1   7   6    5.61    0.58
  -2  -7  -6   13.45    0.94
   2   7   6   12.37    0.90
  -3  -7  -6   13.23    0.98
   3   7   6   11.87    0.92
  -6   8   6    8.85    1.07
  -5   8   6   -0.09    0.24
   4  -8  -6    2.62    0.43
  -4   8   6    2.27    0.41
   3  -8  -6   19.44    1.12
  -3   8   6   19.56    1.06
   2  -8  -6    7.12    0.66
  -2   8   6    7.45    0.61
   1  -8  -6    2.40    0.41
  -1   8   6    2.45    0.41
   0  -8  -6    7.85    0.70
   0   8   6    5.95    0.63
  -1  -8  -6   15.25    0.99
   1   8   6   13.23    0.94
  -2  -8  -6   18.38    1.16
   2   8   6   16.40    1.10
  -5   9   6    2.49    0.48
  -4   9   6   14.34    0.94
   3  -9  -6   11.19    0.84
   2  -9  -6    1.03    0.32
  -2   9   6    1.15    0.33
   1  -9  -6    2.42    0.44
  -1   9   6    1.99    0.42
   0  -9  -6   16.20    1.02
   0   9   6   13.35    0.97
  -1  -9  -6   12.53    0.92
   1   9   6    9.90    0.85
  -5  10   6    8.78    0.80
   3 -10  -6   -0.01    0.30
   2 -10  -6    3.86    0.54
  -2  10   6    3.01    0.56
   1 -10  -6   12.98    0.93
  -1  10   6   11.64    0.93
   0 -10  -6    8.34    0.78
   0  10   6    7.54    0.77
   2 -11  -6    9.76    0.87
   1 -11  -6   14.92    1.02
  -1  11   6   11.21    0.97
   2 -15   7    5.47    0.54
   1  14  -7   15.56    0.95
   0  14  -7    0.10    0.20
  -1  14  -7    6.78    0.63
   1 -14   7    7.13    0.58
  -2  14  -7   12.90    0.90
   2 -14   7   13.52    0.81
  -3  14  -7    9.09    0.77
   3 -14   7    9.44    0.69
   2  13  -7   14.45    0.89
   1  13  -7    0.49    0.22
   0  13  -7    9.71    0.70
  -1  13  -7   18.21    1.08
   1 -13   7   20.58    1.03
  -2  13  -7   19.43    1.13
   2 -13   7   20.87    1.06
  -3  13  -7    0.71    0.28
   3 -13   7    0.75    0.25
  -4  13  -7    5.90    0.67
   4 -13   7    6.45    0.60
   2  12  -7    5.46    0.49
   1  12  -7   11.56    0.73
   0  12  -7   29.01    1.44
   0 -12   7   31.73    1.44
  -1  12  -7   29.41    1.42
   1 -12   7   27.89    1.33
  -2  12  -7    5.25    0.53
   2 -12   7    5.40    0.48
  -3  12  -7    1.60    0.35
   3 -12   7    1.69    0.30
  -4  12  -7   13.76    1.00
   4 -12   7   16.22    0.92
  -5  12  -7    9.98    0.94
   5 -12   7   12.57    0.84
  -4 -11   7   11.72    0.96
  -3 -11   7    4.17    0.49
   2  11  -7    2.79    0.35
   1  11  -7   36.71    1.64
  -1 -11   7   36.05    1.71
   0  11  -7   16.27    0.90
   0 -11   7   17.13    0.90
  -1  11  -7    5.21    0.47
   1 -11   7    5.14    0.45
  -2  11  -7    2.83    0.40
   2 -11   7    2.95    0.36
  -3  11  -7    8.71    0.71
   3 -11   7   10.29    0.64
  -4  11  -7   22.75    1.33
   4 -11   7   24.46    1.21
  -5  11  -7    0.72    0.40
   5 -11   7    1.16    0.30
  -4 -10   7    0.04    0.20
  -3 -10   7    0.78    0.24
   2  10  -7   31.76    1.40
  -2 -10   7   29.68    1.40
   1  10  -7   48.31    2.05
  -1 -10   7   48.68    2.13
   0  10  -7    0.80    0.21
   0 -10   7    0.70    0.19
  -1  10  -7   18.78    1.00
   1 -10   7   20.00    0.96
  -2  10  -7   34.03    1.60
   2 -10   7   34.86    1.52
  -3  10  -7   23.36    1.25
   3 -10   7   23.60    1.13
  -4  10  -7    4.26    0.57
   4 -10   7    4.75    0.48
  -5  10  -7    2.23    0.49
   5 -10   7    3.27    0.44
  -6  10  -7   10.80    1.25
   6 -10   7   13.21    0.86
  -4  -9   7    2.12    0.37
  -3  -9   7   12.95    0.78
   2   9  -7   87.94    3.33
  -2  -9   7   84.15    3.35
  -2  -9   7   79.06    3.50
   1   9  -7   18.69    0.90
  -1  -9   7   17.46    0.86
  -1  -9   7   18.14    0.97
   0   9  -7    3.66    0.35
   0  -9   7    3.73    0.36
  -1   9  -7   52.10    2.17
   1  -9   7   50.03    2.10
  -2   9  -7   43.25    1.89
   2  -9   7   41.76    1.79
  -3   9  -7   16.33    0.95
   3  -9   7   15.64    0.84
  -4   9  -7    3.70    0.52
   4  -9   7    5.02    0.46
  -5   9  -7   11.24    0.91
  -6   9  -7   12.34    1.08
   6  -9   7   13.16    0.84
  -5  -8   7   12.12    0.87
  -4  -8   7   20.04    1.10
  -3  -8   7   17.52    0.89
  -3  -8   7   13.97    0.94
   2   8  -7   31.72    1.33
  -2  -8   7   30.20    1.36
  -2  -8   7   29.57    1.52
   1   8  -7    8.60    0.50
  -1  -8   7    8.52    0.59
  -1  -8   7    7.73    0.48
   0   8  -7   26.83    1.23
   0  -8   7   27.84    1.23
  -1   8  -7   81.20    3.21
   1  -8   7   78.74    3.14
  -2   8  -7   22.78    1.12
   2  -8   7   21.57    1.02
  -3   8  -7    0.89    0.26
   3  -8   7    1.64    0.25
  -4   8  -7   16.38    1.06
   4  -8   7   18.66    0.92
  -5   8  -7   14.17    1.03
   5  -8   7   14.28    0.81
  -6   8  -7    4.61    0.74
   6  -8   7    5.03    0.52
  -5  -7   7   35.23    1.72
  -4  -7   7   37.26    1.70
  -4  -7   7   35.61    2.05
  -3  -7   7   16.50    1.06
  -3  -7   7   21.61    1.01
   2   7  -7    8.09    0.46
  -2  -7   7    7.97    0.51
  -2  -7   7    8.85    0.66
   1   7  -7   42.41    1.73
  -1  -7   7   40.68    1.73
  -1  -7   7   43.06    1.85
   0   7  -7   67.85    2.70
   0  -7   7   67.50    2.70
  -1   7  -7   66.37    2.63
   1  -7   7   63.08    2.57
  -2   7  -7    0.03    0.13
   2  -7   7    0.35    0.13
  -3   7  -7   29.84    1.47
   3  -7   7   31.26    1.35
  -4   7  -7   34.90    1.76
   4  -7   7   36.94    1.58
  -5   7  -7    5.96    0.72
   5  -7   7    6.70    0.52
  -6   7  -7   -0.13    0.39
   6  -7   7    0.29    0.21
  -5  -6   7   35.65    1.71
  -4  -6   7   18.38    1.02
  -4  -6   7   16.38    0.94
  -3  -6   7    3.58    0.45
  -3  -6   7    4.48    0.39
   2   6  -7   73.42    2.93
  -2  -6   7   79.78    3.21
  -2  -6   7   74.79    3.01
   1   6  -7   38.00    1.58
  -1  -6   7   39.67    1.62
  -1  -6   7   39.09    1.73
   0   6  -7   21.22    0.97
   0  -6   7   21.82    0.99
  -1   6  -7    0.38    0.14
   1  -6   7    0.40    0.12
  -2   6  -7   21.15    1.06
   2  -6   7   21.38    0.96
  -3   6  -7   42.83    1.97
   3  -6   7   44.88    1.82
  -4   6  -7   19.12    1.14
   4  -6   7   19.11    0.93
  -5   6  -7    1.36    0.44
   5  -6   7    1.84    0.29
  -6   6  -7    4.51    0.73
  -6  -5   7   24.80    1.37
  -5  -5   7   21.17    1.18
  -5  -5   7   23.24    1.21
  -4  -5   7    0.45    0.20
  -4  -5   7    0.20    0.17
  -3  -5   7   28.39    1.25
  -3  -5   7   24.57    1.34
   2   5  -7   71.47    2.91
  -2  -5   7   75.20    3.03
  -2  -5   7   83.08    3.23
   1   5  -7   19.33    0.83
  -1  -5   7   18.14    0.96
   0   5  -7    0.21    0.10
   0  -5   7    0.32    0.12
  -1   5  -7   64.74    2.56
   1  -5   7   61.93    2.49
  -2   5  -7   46.98    2.00
   2  -5   7   46.28    1.89
  -3   5  -7   43.00    1.95
   3  -5   7   42.92    1.77
  -4   5  -7    1.65    0.42
   4  -5   7    2.45    0.31
  -5   5  -7   17.73    1.21
   5  -5   7   18.12    0.90
  -6   5  -7   19.13    1.38
  -6  -4   7    7.98    0.71
  -5  -4   7    0.83    0.25
  -5  -4   7    0.79    0.25
  -4  -4   7    9.17    0.66
  -4  -4   7    8.27    0.60
  -3  -4   7  124.49    4.53
  -3  -4   7  105.76    4.61
   2   4  -7  114.74    4.58
  -2  -4   7  118.85    4.67
  -2  -4   7  130.52    4.87
   1   4  -7    0.17    0.08
  -1  -4   7    0.19    0.13
   0   4  -7   47.10    1.91
   0  -4   7   47.84    1.95
  -1   4  -7   98.76    3.80
  -1   4  -7   98.29    3.75
   1  -4   7   93.99    3.72
  -2   4  -7   56.02    2.20
  -2   4  -7   55.93    2.37
   2  -4   7   56.46    2.23
  -3   4  -7   13.79    0.89
   3  -4   7   14.47    0.70
  -4   4  -7   19.44    1.20
   4  -4   7   19.51    0.92
  -5   4  -7   12.47    1.02
  -6   4  -7   16.01    1.29
  -6  -3   7    0.20    0.22
  -6  -3   7    0.06    0.22
  -5  -3   7   30.24    1.52
  -5  -3   7   32.96    1.57
  -4  -3   7   40.38    1.83
  -4  -3   7   38.59    1.76
  -3  -3   7   35.98    1.51
  -3  -3   7   30.84    1.57
  -2  -3   7    4.37    0.44
   1   3  -7   44.46    1.77
  -1  -3   7   46.34    1.97
   0   3  -7   86.62    3.30
   0  -3   7   83.01    3.33
  -1   3  -7   47.44    2.05
  -1   3  -7   54.17    2.13
   1  -3   7   51.52    2.03
  -2   3  -7   13.02    0.81
  -2   3  -7   14.36    0.68
   2  -3   7   13.80    0.65
  -3   3  -7   16.75    0.82
  -3   3  -7   16.35    1.04
   3  -3   7   17.62    0.80
  -4   3  -7   20.61    1.28
   4  -3   7   21.13    0.98
  -5   3  -7    5.67    0.78
  -6   3  -7    1.11    0.56
  -7  -2   7    0.43    0.33
  -6  -2   7   18.24    1.12
  -6  -2   7   19.38    1.12
  -5  -2   7   41.65    1.87
  -5  -2   7   37.25    1.80
  -4  -2   7   62.71    2.69
  -3  -2   7   14.56    0.86
  -2  -2   7   57.39    2.45
   1   2  -7   76.80    3.24
  -1  -2   7   94.47    3.46
   0   2  -7   74.81    2.86
   0  -2   7   70.15    2.89
  -1   2  -7    0.13    0.17
  -1   2  -7    0.44    0.15
   1  -2   7    0.48    0.12
  -2   2  -7   19.75    0.90
  -2   2  -7   17.65    1.02
   2  -2   7   19.71    0.84
  -3   2  -7   65.48    3.02
  -3   2  -7   73.34    2.81
   3  -2   7   71.29    2.73
  -4   2  -7   15.92    1.13
  -5   2  -7    2.46    0.62
   6  -2   7    5.62    0.77
  -7  -1   7    3.09    0.49
  -6  -1   7   26.09    1.40
  -5  -1   7   42.52    1.97
  -4  -1   7   17.87    1.01
  -3  -1   7   16.26    0.91
  -2  -1   7   70.61    2.91
  -1  -1   7   76.60    3.09
   0   1  -7   12.81    0.71
   0   1  -7   14.06    0.75
   0  -1   7   14.48    0.73
  -1   1  -7    8.26    0.56
  -1   1  -7    7.47    0.51
   1  -1   7    8.30    0.46
  -2   1  -7   32.55    1.58
  -2   1  -7   32.49    1.43
   2  -1   7   33.23    1.34
  -3   1  -7   34.62    1.48
  -3   1  -7   31.60    1.69
  -4   1  -7    1.93    0.31
   5  -1   7    1.80    0.49
   6  -1   7   17.35    1.29
  -7   0   7   18.94    1.18
  -6   0   7    9.76    0.77
  -5   0   7    0.47    0.24
  -4   0   7    9.82    0.69
  -3   0   7   47.51    2.07
  -2   0   7   39.67    1.74
  -1   0   7   10.05    0.59
  -1   0   7    9.20    0.48
   0   0  -7   57.26    2.39
   0   0   7   55.94    2.33
   0   0   7   61.14    2.36
  -1   0  -7   56.40    2.41
   1   0   7   62.61    2.43
   1   0   7   56.93    2.32
  -2   0  -7   38.76    1.67
   2   0   7   37.28    1.72
   2   0   7   38.69    1.68
  -3   0  -7    2.88    0.38
   3   0   7    3.25    0.48
  -4   0  -7    4.98    0.53
   4   0   7    4.94    0.60
  -5   0  -7   18.67    1.19
   5   0   7   19.87    1.26
  -7   1   7   13.64    0.99
  -6   1   7    1.68    0.38
  -5   1   7   14.42    0.92
  -4   1   7   45.44    2.04
  -3   1   7   54.93    2.34
  -2   1   7   24.18    1.15
   1  -1  -7   34.00    1.45
  -1   1   7   30.71    1.38
  -1   1   7   29.52    1.31
   0  -1  -7  129.36    5.07
   0   1   7  131.10    5.01
   0   1   7  130.13    4.98
  -1  -1  -7   61.23    2.75
   1   1   7   69.93    2.64
   1   1   7   71.44    2.77
  -2  -1  -7   10.07    0.66
   2   1   7   10.48    0.68
  -3  -1  -7    2.00    0.34
   3   1   7    2.50    0.42
  -4  -1  -7    7.69    0.66
   4   1   7    9.03    0.75
  -5  -1  -7   14.46    0.97
   5   1   7   13.19    1.02
  -7   2   7    1.39    0.51
  -6   2   7    7.94    0.72
  -5   2   7   43.55    2.02
  -4   2   7   33.72    1.60
  -3   2   7    5.16    0.45
  -2   2   7    4.78    0.40
   1  -2  -7   46.18    1.81
  -1   2   7   36.96    1.65
  -1   2   7   37.66    1.68
   0  -2  -7   78.07    3.18
   0   2   7   76.20    3.05
   0   2   7   80.30    3.13
  -1  -2  -7   29.54    1.45
   1   2   7   33.20    1.45
  -2  -2  -7    8.74    0.64
   2   2   7    8.95    0.64
  -3  -2  -7   33.67    1.63
   3   2   7   35.53    1.69
  -4  -2  -7   11.77    0.84
   4   2   7   11.92    0.88
  -5  -2  -7    1.87    0.41
   5   2   7    2.07    0.47
  -6   3   7   23.84    1.35
  -5   3   7   40.58    1.92
  -4   3   7    8.11    0.63
  -3   3   7    0.92    0.24
   2  -3  -7   35.48    1.60
  -2   3   7   33.88    1.54
   1  -3  -7   31.91    1.37
  -1   3   7   27.52    1.24
  -1   3   7   25.23    1.24
   0  -3  -7   17.49    0.95
   0   3   7   17.06    0.90
  -1  -3  -7   10.34    0.71
   1   3   7   10.35    0.67
  -2  -3  -7   42.73    1.95
   2   3   7   43.35    1.95
  -3  -3  -7   26.96    1.40
   3   3   7   26.92    1.41
  -4  -3  -7    2.67    0.46
   4   3   7    3.26    0.53
  -5  -3  -7    1.19    0.40
  -6   4   7   18.43    1.15
  -5   4   7   14.08    0.93
  -4   4   7    3.37    0.44
  -3   4   7   45.61    2.01
   2  -4  -7   26.61    1.32
  -2   4   7   26.32    1.24
   1  -4  -7   11.27    0.71
  -1   4   7    9.23    0.61
  -1   4   7   10.54    0.59
   0  -4  -7    2.49    0.37
   0   4   7    2.34    0.35
  -1  -4  -7    8.14    0.66
   1   4   7    9.49    0.64
  -2  -4  -7   24.55    1.29
   2   4   7   24.01    1.27
  -3  -4  -7    8.98    0.78
   3   4   7   10.97    0.79
  -4  -4  -7    0.38    0.30
   4   4   7    0.29    0.31
  -6   5   7    3.07    0.51
  -5   5   7    5.71    0.61
  -4   5   7   20.43    1.13
   3  -5  -7   35.44    1.67
  -3   5   7   33.93    1.60
   2  -5  -7    6.57    0.59
  -2   5   7    6.08    0.47
   1  -5  -7    5.38    0.53
  -1   5   7    3.87    0.43
   0  -5  -7   64.69    2.75
   0   5   7   62.89    2.70
  -1  -5  -7   30.02    1.51
   1   5   7   29.70    1.47
  -2  -5  -7    9.93    0.78
   2   5   7    9.35    0.73
  -3  -5  -7   -0.11    0.23
   3   5   7   -0.16    0.22
  -4  -5  -7    4.42    0.72
  -6   6   7   -0.02    0.26
  -5   6   7   13.53    0.93
   4  -6  -7   30.85    1.57
  -4   6   7   31.83    1.55
   3  -6  -7   14.13    0.90
  -3   6   7   13.29    0.83
   2  -6  -7    2.14    0.39
  -2   6   7    2.78    0.43
   1  -6  -7   32.62    1.54
  -1   6   7   28.16    1.45
   0  -6  -7   32.08    1.59
   0   6   7   31.04    1.55
  -1  -6  -7    8.14    0.73
   1   6   7    8.81    0.71
  -2  -6  -7   -0.18    0.24
   2   6   7   -0.20    0.22
  -3  -6  -7    9.52    0.86
   3   6   7    9.05    0.80
   5  -7  -7   11.86    0.90
  -5   7   7   11.76    0.87
   4  -7  -7   11.65    0.87
  -4   7   7   11.52    0.81
   3  -7  -7    1.42    0.36
  -3   7   7    0.87    0.26
   2  -7  -7    4.10    0.55
   1  -7  -7   34.07    1.63
  -1   7   7   29.68    1.55
   0  -7  -7   10.77    0.84
   0   7   7   10.85    0.80
  -1  -7  -7    0.69    0.32
   1   7   7    0.50    0.30
  -2  -7  -7    4.63    0.65
   2   7   7    5.16    0.62
  -5   8   7    4.55    0.61
   4  -8  -7    0.88    0.34
  -4   8   7    0.36    0.26
   3  -8  -7    9.71    0.80
   2  -8  -7   16.20    1.03
   1  -8  -7    8.22    0.74
  -1   8   7    7.56    0.70
   0  -8  -7    0.38    0.29
   0   8   7   -0.11    0.24
  -1  -8  -7   10.26    0.86
   1   8   7    8.36    0.78
  -5   9   7   -0.25    0.25
   4  -9  -7    8.14    1.01
   3  -9  -7   11.30    0.89
   2  -9  -7    6.16    0.68
   1  -9  -7    0.22    0.29
  -1   9   7    0.11    0.25
   0  -9  -7    3.30    0.51
   0   9   7    2.37    0.50
   1   9   7    9.02    0.86
   3 -10  -7    5.40    0.71
   2 -10  -7    0.34    0.32
   1 -10  -7    6.78    0.75
  -1  10   7    5.84    0.73
   0  10   7   17.71    1.50
   2 -15   8    1.15    0.31
   1  14  -8   12.91    0.85
   0  14  -8    8.53    0.69
  -1  14  -8   -0.03    0.20
   1 -14   8   -0.02    0.19
  -2  14  -8   14.23    0.96
   2 -14   8   14.09    0.86
  -3  14  -8   11.38    0.92
   3 -14   8   10.82    0.77
   1  13  -8    8.76    0.65
   0  13  -8    0.43    0.24
   0 -13   8    0.39    0.22
  -1  13  -8   11.14    0.79
   1 -13   8   11.16    0.73
  -2  13  -8   21.11    1.19
   2 -13   8   19.88    1.07
  -3  13  -8   10.55    0.83
   3 -13   8   10.70    0.74
  -4  13  -8   -0.15    0.25
   4 -13   8    0.36    0.25
   1  12  -8    0.55    0.22
  -1 -12   8    0.50    0.26
   0  12  -8    7.10    0.58
   0 -12   8    7.26    0.58
  -1  12  -8   48.07    2.17
   1 -12   8   49.67    2.11
  -2  12  -8   11.70    0.80
   2 -12   8   10.36    0.69
  -3  12  -8    1.75    0.40
   3 -12   8    2.05    0.34
  -4  12  -8    4.54    0.62
   4 -12   8    5.67    0.56
  -4 -11   8   21.41    1.39
  -3 -11   8   13.90    0.85
   1  11  -8    8.48    0.59
  -1 -11   8    8.80    0.67
   0  11  -8   22.35    1.15
   0 -11   8   23.33    1.15
  -1  11  -8    7.59    0.59
   1 -11   8    7.23    0.54
  -2  11  -8    1.74    0.33
   2 -11   8    1.55    0.28
  -3  11  -8    1.96    0.39
   3 -11   8    2.48    0.36
  -4  11  -8   16.93    1.12
   4 -11   8   16.91    0.96
  -5  11  -8    8.38    0.84
   5 -11   8    8.78    0.67
  -4 -10   8   15.58    0.96
  -3 -10   8    1.83    0.31
  -2 -10   8    7.41    0.67
  -2 -10   8    6.84    0.51
   1  10  -8   36.75    1.62
  -1 -10   8   36.15    1.71
   0  10  -8   49.76    2.13
   0 -10   8   50.36    2.13
  -1  10  -8    1.36    0.28
   1 -10   8    1.46    0.26
  -2  10  -8   13.03    0.82
   2 -10   8   13.13    0.74
  -3  10  -8   22.30    1.26
   3 -10   8   24.11    1.15
  -4  10  -8   12.98    0.95
   4 -10   8   13.06    0.80
  -5  10  -8    0.64    0.37
   5 -10   8    0.51    0.24
  -4  -9   8    0.43    0.22
  -3  -9   8    6.79    0.52
  -3  -9   8    4.64    0.58
  -2  -9   8   40.53    1.92
  -2  -9   8   38.45    1.71
   1   9  -8   46.08    1.91
  -1  -9   8   45.63    2.02
  -1  -9   8   43.77    2.16
   0   9  -8    1.37    0.25
   0  -9   8    1.40    0.26
  -1   9  -8   12.93    0.74
   1  -9   8   11.78    0.68
  -2   9  -8   45.51    2.07
   2  -9   8   48.11    1.98
  -3   9  -8   35.54    1.70
   3  -9   8   34.22    1.55
  -4   9  -8    5.13    0.60
   4  -9   8    5.51    0.50
  -5   9  -8    1.92    0.50
   5  -9   8    3.31    0.44
   6  -9   8   12.46    0.82
  -5  -8   8    0.31    0.23
  -4  -8   8    5.85    0.55
  -3  -8   8   24.04    1.46
  -3  -8   8   32.93    1.39
  -2  -8   8   17.80    0.91
  -2  -8   8   18.81    1.09
   1   8  -8   11.92    0.64
  -1  -8   8   11.64    0.75
  -1  -8   8   12.46    0.65
   0   8  -8    6.42    0.44
   0  -8   8    5.95    0.45
  -1   8  -8   49.44    2.09
   1  -8   8   49.03    2.04
  -2   8  -8   37.11    1.67
   2  -8   8   34.96    1.55
  -3   8  -8    5.03    0.54
   3  -8   8    4.82    0.44
  -4   8  -8    1.68    0.42
   4  -8   8    3.04    0.38
  -5   8  -8   12.19    1.02
   5  -8   8   13.09    0.78
  -6   8  -8    7.75    1.04
   6  -8   8   11.20    0.74
  -5  -7   8    5.86    0.60
  -4  -7   8   30.76    1.50
  -4  -7   8   32.89    1.63
  -3  -7   8   36.63    1.98
  -3  -7   8   47.72    1.88
  -2  -7   8   13.78    0.88
  -2  -7   8   12.35    0.70
   1   7  -8   13.08    0.66
  -1  -7   8   12.61    0.67
  -1  -7   8   12.87    0.78
   0   7  -8   55.02    2.23
   0  -7   8   54.27    2.25
  -1   7  -8   59.75    2.41
   1  -7   8   56.06    2.34
  -2   7  -8    2.29    0.36
   2  -7   8    1.73    0.25
  -3   7  -8    0.65    0.27
   3  -7   8    0.87    0.20
  -4   7  -8   22.61    1.35
   4  -7   8   25.56    1.16
  -5   7  -8   16.49    1.22
   5  -7   8   19.18    0.97
  -6   7  -8    1.71    0.63
  -5  -6   8   24.51    1.32
  -5  -6   8   25.74    1.52
  -4  -6   8   38.07    1.74
  -3  -6   8    3.70    0.51
  -3  -6   8    5.31    0.43
  -2  -6   8    1.70    0.25
  -2  -6   8    2.38    0.38
   1   6  -8   44.89    1.82
   0   6  -8   83.16    3.25
   0  -6   8   81.95    3.27
  -1   6  -8    3.20    0.34
   1  -6   8    2.90    0.28
  -2   6  -8    2.93    0.38
   2  -6   8    3.50    0.33
  -3   6  -8   17.25    1.04
   3  -6   8   19.05    0.90
  -4   6  -8   30.09    1.65
   4  -6   8   33.00    1.42
  -5   6  -8    2.29    0.58
   5  -6   8    2.24    0.31
  -6   6  -8    0.19    0.49
  -6  -5   8   17.92    1.32
  -5  -5   8   27.06    1.41
  -5  -5   8   25.10    1.34
  -4  -5   8   11.09    0.72
  -4  -5   8   11.68    0.83
  -3  -5   8   -0.02    0.17
  -3  -5   8    0.02    0.12
  -2  -5   8   61.86    2.70
   1   5  -8   67.88    2.56
  -1  -5   8   62.49    2.73
   0   5  -8   38.22    1.61
   0  -5   8   38.19    1.64
  -1   5  -8   30.62    1.27
  -1   5  -8   29.02    1.32
   1  -5   8   27.75    1.26
  -2   5  -8   41.22    1.84
   2  -5   8   40.98    1.70
  -3   5  -8   46.78    2.17
   3  -5   8   48.37    1.96
  -4   5  -8    1.21    0.44
   4  -5   8    2.57    0.33
  -5   5  -8   -0.36    0.36
  -6   5  -8    7.52    1.03
  -6  -4   8   17.53    1.12
  -6  -4   8   20.07    1.17
  -5  -4   8    1.84    0.33
  -5  -4   8    2.26    0.39
  -4  -4   8    8.70    0.62
  -4  -4   8    8.63    0.72
  -3  -4   8   27.07    1.42
  -2  -4   8   70.64    3.01
   1   4  -8   33.31    1.34
  -1  -4   8   31.36    1.51
   0   4  -8    5.60    0.38
   0  -4   8    5.24    0.41
  -1   4  -8   65.57    2.63
  -1   4  -8   65.00    2.57
   1  -4   8   61.78    2.54
  -2   4  -8   88.53    3.19
  -2   4  -8   73.25    3.23
   2  -4   8   74.51    3.07
  -3   4  -8   45.85    2.17
   3  -4   8   48.06    1.93
  -4   4  -8   -0.08    0.35
   4  -4   8    0.96    0.20
  -5   4  -8    6.02    0.83
  -6   4  -8   15.69    1.33
  -6  -3   8    9.64    0.80
  -6  -3   8    9.35    0.76
  -5  -3   8    5.25    0.57
  -5  -3   8    4.47    0.51
  -4  -3   8   41.83    1.98
  -3  -3   8   79.13    3.35
  -2  -3   8    0.76    0.23
   1   3  -8    1.23    0.16
  -1  -3   8    1.30    0.25
   0   3  -8   44.16    1.74
   0  -3   8   38.39    1.76
  -1   3  -8   74.38    3.02
  -1   3  -8   78.30    3.10
   1  -3   8   75.81    2.99
  -2   3  -8   31.49    1.39
  -2   3  -8   31.75    1.55
   2  -3   8   32.80    1.35
  -3   3  -8    4.50    0.63
   3  -3   8    6.31    0.41
  -4   3  -8   10.10    0.93
  -5   3  -8   10.43    1.03
  -6  -2   8    0.14    0.23
  -5  -2   8   25.21    1.38
  -4  -2   8   79.35    3.37
  -2  -2   8    4.05    0.44
   1   2  -8   34.17    1.49
  -1  -2   8   39.62    1.68
   0   2  -8   86.89    3.45
   0   2  -8   93.20    3.50
   0  -2   8   82.82    3.47
  -1   2  -8   11.86    0.70
  -1   2  -8   12.25    0.76
   1  -2   8   14.09    0.67
  -2   2  -8    5.03    0.41
  -2   2  -8    4.26    0.55
   2  -2   8    4.93    0.37
  -3   2  -8   27.86    1.56
  -3   2  -8   30.38    1.35
  -4   2  -8   24.24    1.49
  -6  -1   8   10.60    0.84
  -5  -1   8   27.20    1.45
  -4  -1   8   54.82    2.45
  -3  -1   8    4.82    0.49
  -2  -1   8   34.25    1.60
  -1  -1   8   74.26    3.02
  -1  -1   8   82.69    3.20
   0   1  -8   44.72    1.92
   0  -1   8   44.70    1.89
  -1   1  -8    0.29    0.21
  -1   1  -8    0.33    0.17
   1  -1   8    0.62    0.15
  -2   1  -8   14.05    0.92
  -2   1  -8   14.30    0.79
   2  -1   8   13.83    0.69
  -3   1  -8   49.66    2.13
  -4   1  -8   20.29    1.10
   4  -1   8   19.85    1.21
   5  -1   8    0.14    0.32
  -6   0   8   20.44    1.25
  -5   0   8    9.51    0.77
  -4   0   8    1.79    0.34
  -3   0   8   26.10    1.32
  -2   0   8   68.30    2.84
  -1   0   8   52.88    2.18
  -1   0   8   50.36    2.06
   0   0  -8   26.71    1.30
   0   0   8   26.58    1.22
   0   0   8   29.41    1.25
  -1   0  -8   19.46    1.06
   1   0   8   22.41    1.06
   1   0   8   21.58    0.97
  -2   0  -8   41.28    1.86
   2   0   8   43.36    1.91
  -3   0  -8   20.93    1.11
   3   0   8   21.12    1.19
  -4   0  -8    0.72    0.28
   4   0   8    1.61    0.43
   5   0   8    5.56    0.71
  -6   1   8    6.32    0.69
  -5   1   8    0.22    0.23
  -4   1   8   20.33    1.14
  -3   1   8   51.10    2.24
  -2   1   8   33.46    1.54
   1  -1  -8    3.40    0.41
  -1   1   8    3.42    0.30
   0  -1  -8   45.37    1.98
   0   1   8   46.09    1.91
   0   1   8   44.45    1.87
  -1  -1  -8   52.04    2.45
   1   1   8   64.64    2.47
  -2  -1  -8   37.54    1.75
   2   1   8   38.93    1.77
  -3  -1  -8    0.30    0.25
   3   1   8    0.64    0.27
  -4  -1  -8    4.37    0.57
   4   1   8    4.91    0.59
  -5  -1  -8   13.80    0.98
   5   1   8   12.50    1.00
  -6   2   8    0.12    0.28
  -5   2   8   14.26    0.97
  -4   2   8   52.88    2.36
  -3   2   8   48.00    2.12
  -2   2   8    1.49    0.27
   1  -2  -8   21.27    1.03
  -1   2   8   17.86    0.90
  -1   2   8   17.12    0.91
   0  -2  -8   55.67    2.37
   0   2   8   52.01    2.22
   0   2   8   57.93    2.31
  -1  -2  -8   44.12    2.14
   1   2   8   53.80    2.14
  -2  -2  -8    1.13    0.30
   2   2   8    1.22    0.30
  -3  -2  -8    9.61    0.75
   3   2   8    9.42    0.75
  -4  -2  -8    9.75    0.81
   4   2   8   10.67    0.84
  -5  -2  -8    7.04    0.77
  -6   3   8    4.68    0.63
  -5   3   8   27.06    1.46
  -4   3   8   34.62    1.68
  -3   3   8    2.17    0.35
   2  -3  -8    4.27    0.49
  -2   3   8    3.25    0.38
   1  -3  -8   38.73    1.62
  -1   3   8   30.04    1.48
  -1   3   8   32.61    1.47
   0  -3  -8   55.97    2.47
   0   3   8   57.93    2.40
  -1  -3  -8    3.22    0.47
   1   3   8    5.08    0.47
  -2  -3  -8    5.26    0.60
   2   3   8    4.65    0.54
  -3  -3  -8   20.21    1.20
   3   3   8   21.07    1.19
  -4  -3  -8   11.02    0.89
   4   3   8   10.66    0.86
  -6   4   8   14.33    1.03
  -5   4   8   15.29    1.01
  -4   4   8    4.22    0.51
  -3   4   8   19.14    1.05
   2  -4  -8   22.92    1.16
  -2   4   8   19.05    1.04
   1  -4  -8   21.61    1.11
  -1   4   8   17.49    0.99
   0  -4  -8    5.02    0.56
   0   4   8    4.77    0.49
  -1  -4  -8    6.67    0.66
   1   4   8    7.59    0.61
  -2  -4  -8   24.33    1.37
   2   4   8   25.99    1.34
  -3  -4  -8   17.55    1.15
   3   4   8   19.26    1.14
  -4  -4  -8    1.73    0.43
  -6   5   8   13.02    0.99
  -5   5   8    1.72    0.38
  -4   5   8    7.95    0.67
   3  -5  -8   34.44    1.66
  -3   5   8   32.92    1.60
   2  -5  -8   24.89    1.26
  -2   5   8   21.27    1.13
   1  -5  -8    8.55    0.70
  -1   5   8    6.92    0.59
   0  -5  -8   15.84    1.03
   0   5   8   16.92    0.98
  -1  -5  -8   22.34    1.30
   1   5   8   23.58    1.25
  -2  -5  -8   21.05    1.28
   2   5   8   22.50    1.25
  -3  -5  -8    0.63    0.34
   3   5   8    0.93    0.34
  -5   6   8    0.48    0.28
   4  -6  -8   17.98    1.15
  -4   6   8   19.99    1.13
   3  -6  -8   27.96    1.43
  -3   6   8   26.12    1.36
   2  -6  -8    7.46    0.69
   1  -6  -8    1.52    0.38
  -1   6   8    1.41    0.33
   0  -6  -8   23.17    1.37
   0   6   8   26.31    1.35
  -1  -6  -8   22.06    1.36
   1   6   8   26.10    1.36
  -2  -6  -8   10.36    0.93
   2   6   8   11.25    0.85
   5  -7  -8   13.90    1.02
  -5   7   8   13.59    0.98
   4  -7  -8   21.35    1.24
  -4   7   8   20.93    1.21
   3  -7  -8    1.47    0.38
   2  -7  -8    0.18    0.27
   1  -7  -8   11.93    0.90
  -1   7   8   11.06    0.84
   0  -7  -8   16.85    1.13
   0   7   8   18.18    1.10
  -1  -7  -8    9.40    0.87
   1   7   8   10.69    0.86
  -2  -7  -8    0.12    0.54
   2   7   8    0.61    0.34
  -5   8   8   13.19    0.99
   4  -8  -8    8.40    0.81
   3  -8  -8    2.48    0.46
   2  -8  -8    6.92    0.72
   1  -8  -8   12.31    0.94
  -1   8   8   10.84    1.18
   0  -8  -8    3.65    0.57
   0   8   8    3.37    0.54
  -1  -8  -8    0.11    0.39
   1   8   8    0.21    0.32
   4  -9  -8    0.98    0.41
   3  -9  -8    7.06    0.78
   2  -9  -8    9.71    0.87
   1  -9  -8    1.59    0.42
   0   9   8    1.59    0.47
   2 -10  -8    3.90    0.94
   0  14  -9   15.24    0.98
   0 -14   9   15.59    1.15
  -1  14  -9    6.37    0.62
   1 -14   9    6.19    0.59
  -2  14  -9    1.76    0.39
   2 -14   9    1.39    0.31
   1  13  -9   12.51    0.92
   0  13  -9    9.67    0.71
   0 -13   9    8.56    0.69
  -1  13  -9    1.57    0.34
   1 -13   9    1.25    0.30
  -2  13  -9   16.92    1.06
   2 -13   9   17.21    0.97
  -3  13  -9   16.62    1.11
   3 -13   9   17.38    0.99
   1  12  -9    6.78    0.55
  -1 -12   9    6.26    0.62
   0  12  -9   -0.06    0.17
   0 -12   9    0.02    0.17
  -1  12  -9   13.04    0.86
   1 -12   9   13.41    0.81
  -2  12  -9   18.31    1.09
   2 -12   9   18.30    0.99
  -3  12  -9   10.22    0.84
   3 -12   9   10.55    0.74
  -4  12  -9    0.05    0.30
   4 -12   9    0.29    0.24
  -2 -11   9   12.26    0.91
   1  11  -9    0.08    0.16
  -1 -11   9    0.14    0.19
   0  11  -9   23.51    1.21
   0 -11   9   25.10    1.24
  -1  11  -9   29.74    1.47
   1 -11   9   30.36    1.41
  -2  11  -9    6.71    0.63
   2 -11   9    7.43    0.56
  -3  11  -9    0.29    0.28
   3 -11   9   -0.27    0.18
  -4  11  -9    7.14    0.75
   4 -11   9    7.74    0.63
  -5  11  -9    7.05    1.24
   5 -11   9    9.15    0.74
  -4 -10   9   18.91    1.08
  -3 -10   9    8.91    0.63
  -2 -10   9    0.53    0.27
   1  10  -9   17.20    0.91
  -1 -10   9   17.88    1.03
   0  10  -9   35.72    1.63
   0 -10   9   36.85    1.65
  -1  10  -9   18.43    1.00
   1 -10   9   17.98    0.94
  -2  10  -9    0.15    0.21
   2 -10   9    0.00    0.16
  -3  10  -9   21.97    1.29
   3 -10   9   24.44    1.17
  -4  10  -9   14.47    1.05
   4 -10   9   14.10    0.85
  -5  10  -9    8.23    0.87
   5 -10   9    7.99    0.66
  -4  -9   9   10.39    0.73
  -3  -9   9   -0.09    0.12
  -3  -9   9   -0.10    0.19
  -2  -9   9   16.82    1.04
  -2  -9   9   14.77    0.83
   1   9  -9   32.71    1.46
  -1  -9   9   33.32    1.60
   0   9  -9   23.83    1.15
   0  -9   9   24.30    1.18
  -1   9  -9    0.86    0.24
   1  -9   9    0.49    0.18
  -2   9  -9   24.22    1.27
   2  -9   9   24.73    1.17
  -3   9  -9   45.01    2.15
   3  -9   9   47.41    2.00
  -4   9  -9   16.50    1.11
   4  -9   9   15.92    0.91
  -5   9  -9    0.63    0.36
   5  -9   9    0.23    0.23
  -5  -8   9   11.80    0.95
  -4  -8   9    0.35    0.25
  -4  -8   9    0.18    0.18
  -3  -8   9   23.41    1.15
  -3  -8   9   21.74    1.32
  -2  -8   9   58.51    2.54
  -2  -8   9   66.14    2.79
   1   8  -9   20.04    0.95
  -1  -8   9   19.49    1.08
   0   8  -9    0.97    0.20
   0  -8   9    0.69    0.21
  -1   8  -9   16.89    0.91
   1  -8   9   16.57    0.86
  -2   8  -9   47.70    2.15
   2  -8   9   48.97    2.04
  -3   8  -9   23.23    1.30
   3  -8   9   23.78    1.14
  -4   8  -9    2.98    0.52
   4  -8   9    3.45    0.43
  -5   8  -9    3.95    0.66
   5  -8   9    5.28    0.51
   6  -8   9   14.44    1.00
  -5  -7   9    1.35    0.33
  -4  -7   9   13.48    0.81
  -4  -7   9   11.21    0.90
  -3  -7   9   55.67    2.54
  -3  -7   9   53.13    2.30
  -2  -7   9   41.78    1.89
  -2  -7   9   48.28    2.13
   1   7  -9    0.85    0.17
  -1  -7   9    0.60    0.21
   0   7  -9   11.69    0.65
   0  -7   9   11.15    0.68
  -1   7  -9   39.07    1.71
   1  -7   9   37.08    1.63
  -2   7  -9   19.20    1.06
   2  -7   9   19.02    0.94
  -3   7  -9    5.04    0.58
   3  -7   9    6.32    0.49
  -4   7  -9    7.09    0.75
   4  -7   9    8.92    0.60
  -5   7  -9   16.16    1.25
   5  -7   9   18.29    0.96
  -5  -6   9   14.49    0.99
  -5  -6   9   12.33    0.87
  -4  -6   9   27.20    1.30
  -4  -6   9   23.46    1.41
  -3  -6   9   61.62    2.65
  -3  -6   9   66.68    2.90
  -2  -6   9   12.17    0.85
   1   6  -9   40.19    1.61
  -1  -6   9   36.02    1.75
   0   6  -9  110.46    4.20
   0  -6   9  104.21    4.22
  -1   6  -9   34.76    1.52
   1  -6   9   31.30    1.43
  -2   6  -9    0.67    0.26
   2  -6   9    0.61    0.19
  -3   6  -9    4.42    0.57
   3  -6   9    4.91    0.43
  -4   6  -9   22.75    1.40
   4  -6   9   24.08    1.13
  -5   6  -9   16.17    1.25
  -6  -5   9    3.78    0.72
  -5  -5   9   24.41    1.36
  -5  -5   9   20.96    1.21
  -4  -5   9   10.85    0.88
  -4  -5   9   12.40    0.77
  -3  -5   9   10.67    0.84
  -2  -5   9   22.94    1.27
   1   5  -9   72.99    2.80
  -1  -5   9   66.36    2.92
   0   5  -9   76.03    2.96
   0  -5   9   71.78    2.99
  -1   5  -9    1.29    0.26
  -1   5  -9    1.45    0.30
   1  -5   9    0.99    0.19
  -2   5  -9    5.99    0.56
   2  -5   9    6.85    0.47
  -3   5  -9   58.03    2.67
   3  -5   9   62.05    2.44
  -4   5  -9   22.14    1.39
   4  -5   9   23.13    1.08
  -5   5  -9    3.07    0.65
  -6  -4   9   35.81    1.87
  -5  -4   9   12.29    0.92
  -4  -4   9    1.45    0.36
  -3  -4   9    1.99    0.39
  -2  -4   9   55.98    2.50
   1   4  -9   59.42    2.46
  -1  -4   9   59.15    2.54
   0   4  -9    9.36    0.56
   0  -4   9    8.88    0.59
  -1   4  -9   26.17    1.16
  -1   4  -9   24.68    1.21
   1  -4   9   23.63    1.13
  -2   4  -9   49.78    2.25
   2  -4   9   50.87    2.06
  -3   4  -9   28.24    1.54
   3  -4   9   29.40    1.28
  -4   4  -9    4.14    0.68
  -5   4  -9   -0.58    0.40
  -6  -3   9   31.69    1.73
  -5  -3   9    0.50    0.27
  -4  -3   9   14.95    1.03
  -3  -3   9  127.63    5.19
  -2  -3   9   99.13    4.08
  -1  -3   9   34.02    1.59
   0   3  -9    9.53    0.59
   0  -3   9    9.45    0.62
  -1   3  -9   43.96    1.97
  -1   3  -9   45.47    1.91
   1  -3   9   44.31    1.87
  -2   3  -9   79.27    3.31
  -2   3  -9   71.24    3.11
   2  -3   9   83.92    3.09
  -3   3  -9    8.64    0.83
   3  -3   9   10.54    0.59
  -4   3  -9    1.06    0.47
  -5   3  -9    8.08    0.98
  -6  -2   9    4.46    0.65
  -5  -2   9    3.56    0.54
  -4  -2   9   31.66    1.66
  -3  -2   9   66.52    2.91
  -2  -2   9   24.87    1.30
  -1  -2   9    4.23    0.44
   0   2  -9   74.62    3.18
   0   2  -9   86.74    3.24
   0  -2   9   77.12    3.20
  -1   2  -9   59.09    2.46
  -1   2  -9   60.68    2.54
   1  -2   9   57.43    2.40
  -2   2  -9   17.47    0.96
  -2   2  -9   16.56    1.08
   2  -2   9   20.31    0.89
  -3   2  -9    1.47    0.27
  -3   2  -9    0.96    0.43
  -4   2  -9   16.27    1.23
   5  -2   9   15.98    1.14
  -6  -1   9    1.18    0.38
  -5  -1   9   17.01    1.12
  -4  -1   9   42.57    2.05
  -3  -1   9   12.61    0.86
  -2  -1   9    0.43    0.20
  -1  -1   9  104.54    4.18
   0   1  -9   34.05    1.51
   0  -1   9   34.79    1.48
   0  -1   9   28.96    1.40
  -1   1  -9   12.25    0.75
   1  -1   9   11.80    0.67
  -2   1  -9    0.06    0.19
  -3   1  -9   28.19    1.38
   3  -1   9   27.86    1.47
   4  -1   9   21.89    1.31
   5  -1   9    8.01    0.83
  -6   0   9   25.55    1.51
  -5   0   9   28.34    1.56
  -4   0   9   11.26    0.84
  -3   0   9    1.09    0.29
  -2   0   9   44.66    2.00
   1   0  -9   89.38    3.82
  -1   0   9  101.20    3.83
   0   0  -9   20.19    1.06
   0   0   9   20.79    1.00
   0   0   9   19.23    0.97
  -1   0  -9    0.26    0.22
   1   0   9    0.16    0.13
   1   0   9    0.15    0.16
   2   0   9   30.36    1.48
  -3   0  -9   50.58    2.25
   3   0   9   50.62    2.32
  -4   0  -9    8.63    0.73
   4   0   9    8.66    0.80
  -6   1   9   19.95    1.30
  -5   1   9    9.57    0.82
  -4   1   9    1.96    0.40
  -3   1   9   20.77    1.15
  -2   1   9   91.35    3.71
   1  -1  -9    8.31    0.64
  -1   1   9    7.75    0.55
   0  -1  -9    1.57    0.32
   0   1   9    1.74    0.25
   0   1   9    2.02    0.28
  -1  -1  -9   15.57    0.99
   1   1   9   18.52    0.94
  -2  -1  -9   50.99    2.34
   2   1   9   54.70    2.33
  -3  -1  -9    7.77    0.70
   3   1   9    8.37    0.71
  -4  -1  -9   -0.06    0.23
   4   1   9   -0.11    0.24
  -6   2   9    7.30    0.80
  -5   2   9    0.89    0.32
  -4   2   9   29.43    1.53
  -3   2   9   71.28    3.02
   2  -2  -9   47.66    2.05
  -2   2   9   42.51    1.98
   1  -2  -9    0.35    0.24
  -1   2   9    0.37    0.17
   0  -2  -9   20.04    1.14
   0   2   9   21.25    1.05
  -1  -2  -9   35.01    1.76
   1   2   9   39.20    1.71
  -2  -2  -9   40.21    1.99
   2   2   9   44.48    1.96
  -3  -2  -9    0.00    0.26
   3   2   9    0.19    0.25
  -4  -2  -9    5.39    0.69
   4   2   9    4.67    0.63
  -6   3   9    0.64    0.33
  -5   3   9   10.89    0.87
  -4   3   9   26.42    1.42
  -3   3   9   33.67    1.63
   2  -3  -9    1.10    0.30
  -2   3   9    0.68    0.22
   1  -3  -9   21.15    1.11
  -1   3   9   17.83    0.97
   0  -3  -9   40.77    1.93
   0   3   9   41.72    1.85
  -1  -3  -9   30.44    1.67
   1   3   9   37.94    1.64
  -2  -3  -9    0.67    0.31
   2   3   9    1.11    0.33
  -3  -3  -9    2.51    0.50
   3   3   9    3.34    0.55
  -4  -3  -9   12.87    1.01
  -6   4   9    3.89    0.70
  -5   4   9   10.57    0.86
  -4   4   9   15.97    1.02
   3  -4  -9    2.48    0.43
  -3   4   9    1.99    0.38
   2  -4  -9   19.12    1.08
  -2   4   9   16.34    0.95
   1  -4  -9   36.50    1.76
   0  -4  -9    0.59    0.30
   0   4   9    0.58    0.25
  -1  -4  -9    0.47    0.31
   1   4   9    0.68    0.26
  -2  -4  -9    7.02    0.75
   2   4   9    7.54    0.68
  -3  -4  -9    9.82    0.90
   3   4   9   11.12    0.86
  -5   5   9    6.44    0.70
   4  -5  -9    2.86    0.46
  -4   5   9    2.17    0.40
   3  -5  -9    6.33    0.67
  -3   5   9    6.03    0.57
   2  -5  -9   43.50    2.03
   1  -5  -9   41.53    1.99
   0  -5  -9    2.57    0.49
   0   5   9    3.03    0.47
  -1  -5  -9    8.92    0.84
   1   5   9   10.04    0.77
  -2  -5  -9   18.21    1.23
   2   5   9   19.59    1.16
   5  -6  -9    0.11    0.34
  -5   6   9    0.06    0.26
   4  -6  -9    5.29    0.67
  -4   6   9    4.25    0.57
   3  -6  -9   23.62    1.31
   2  -6  -9   29.97    1.55
   1  -6  -9    0.63    0.32
   0  -6  -9    1.30    0.42
   0   6   9    1.29    0.37
  -1  -6  -9   23.50    1.48
   1   6   9   28.12    1.45
  -2  -6  -9   12.87    1.23
   2   6   9   15.14    1.02
   5  -7  -9    2.02    0.47
  -5   7   9    2.30    0.48
   4  -7  -9   14.85    1.03
  -4   7   9   13.58    0.96
   3  -7  -9   12.83    0.95
   2  -7  -9    2.46    0.47
   1  -7  -9    1.39    0.41
   0  -7  -9   10.36    0.91
   0   7   9   11.88    0.89
  -1  -7  -9   16.42    1.27
   1   7   9   19.00    1.17
   4  -8  -9   11.91    0.95
   3  -8  -9    2.79    0.51
   2  -8  -9    1.86    0.45
   1  -8  -9    4.47    0.64
   0   8   9   12.42    0.98
   3  -9  -9    1.79    0.67
   0  14 -10    9.39    0.76
   0 -14  10    9.85    0.79
  -1  14 -10   12.49    0.89
   1 -14  10   11.76    0.83
  -2  14 -10    1.19    0.37
   2 -14  10    0.86    0.48
  -1 -13  10   18.41    1.16
   0  13 -10   25.77    1.36
   0 -13  10   26.72    1.39
  -1  13 -10    1.60    0.36
   1 -13  10    0.83    0.28
  -2  13 -10    0.72    0.30
   2 -13  10    0.41    0.26
  -3  13 -10   15.68    1.11
   3 -13  10   16.64    0.99
  -1 -12  10   20.25    1.20
   0  12 -10    7.94    0.62
   0 -12  10    7.73    0.66
  -1  12 -10    2.33    0.41
   1 -12  10    2.41    0.38
  -2  12 -10    9.49    0.79
   2 -12  10   10.87    0.73
  -3  12 -10   17.96    1.18
   3 -12  10   17.02    0.99
  -4  12 -10    2.93    0.59
   4 -12  10    2.87    0.50
  -2 -11  10   20.63    1.27
  -1 -11  10    8.73    0.72
   0  11 -10    9.04    0.64
   0 -11  10    8.62    0.67
  -1  11 -10   20.33    1.13
   1 -11  10   21.23    1.10
  -2  11 -10   25.82    1.44
   2 -11  10   28.80    1.35
  -3  11 -10    3.85    0.59
   3 -11  10    3.71    0.46
  -4  11 -10    0.99    0.42
   4 -11  10    1.17    0.31
  -4 -10  10   15.02    0.94
  -3 -10  10   29.88    1.65
  -3 -10  10   28.68    1.41
  -2 -10  10   14.27    1.00
  -1 -10  10   -0.05    0.19
   0  10 -10   28.58    1.40
   0 -10  10   31.19    1.46
  -1  10 -10   39.45    1.81
   1 -10  10   39.06    1.76
  -2  10 -10   12.41    0.86
   2 -10  10   11.85    0.75
  -3  10 -10    3.51    0.54
  -4  10 -10    9.71    0.91
   4 -10  10   11.93    0.77
   5 -10  10   12.43    0.84
  -4  -9  10   22.68    1.22
  -3  -9  10    3.11    0.39
  -3  -9  10    2.95    0.51
  -2  -9  10    0.84    0.29
  -2  -9  10    0.69    0.20
  -1  -9  10   17.72    1.05
   0   9 -10   32.70    1.50
   0  -9  10   32.97    1.54
  -1   9 -10   24.61    1.25
   1  -9  10   24.16    1.19
  -2   9 -10    0.28    0.24
   2  -9  10    0.40    0.22
  -3   9 -10   24.66    1.41
   3  -9  10   25.69    1.24
  -4   9 -10   16.68    1.18
   4  -9  10   17.60    0.96
  -5   9 -10    9.86    1.00
   5  -9  10    9.96    0.73
  -4  -8  10   10.44    0.70
  -4  -8  10    6.93    0.78
  -3  -8  10    7.01    0.56
  -3  -8  10    9.09    0.80
  -2  -8  10   33.39    1.72
  -1  -8  10   52.35    2.34
   0   8 -10   36.99    1.62
   0  -8  10   35.77    1.65
  -1   8 -10   -0.18    0.15
   1  -8  10    0.00    0.16
  -2   8 -10   28.44    1.44
   2  -8  10   27.39    1.31
  -3   8 -10   32.63    1.73
   3  -8  10   35.63    1.56
  -4   8 -10   16.14    1.16
   4  -8  10   16.61    0.92
  -5   8 -10    0.11    0.39
   5  -8  10    0.36    0.23
  -5  -7  10   17.38    1.18
  -5  -7  10   16.64    1.03
  -4  -7  10    0.18    0.25
  -4  -7  10    0.07    0.17
  -3  -7  10   37.32    1.93
  -2  -7  10   74.60    3.24
  -1  -7  10   26.88    1.38
   0   7 -10    0.24    0.16
   0  -7  10    0.15    0.17
  -1   7 -10   17.91    0.97
   1  -7  10   17.23    0.91
  -2   7 -10   40.94    1.93
   2  -7  10   41.82    1.79
  -3   7 -10   18.75    1.20
   3  -7  10   20.34    1.02
  -4   7 -10    1.37    0.47
   4  -7  10    1.51    0.31
  -5   7 -10    3.84    0.71
   5  -7  10    5.87    0.61
  -5  -6  10   -0.06    0.24
  -4  -6  10   15.75    1.11
  -3  -6  10   52.58    2.50
  -2  -6  10   40.48    1.97
  -1  -6  10    2.47    0.38
   0   6 -10   35.15    1.52
   0  -6  10   32.36    1.55
  -1   6 -10   59.28    2.49
   1  -6  10   57.27    2.41
  -2   6 -10   22.73    1.25
   2  -6  10   22.91    1.10
  -3   6 -10   -0.11    0.30
   3  -6  10    0.31    0.21
  -4   6 -10   11.14    1.00
   4  -6  10   12.81    0.75
  -5   6 -10   21.33    1.47
  -5  -5  10   10.31    0.91
  -4  -5  10   34.00    1.83
  -3  -5  10   74.57    3.31
  -2  -5  10    6.61    0.64
  -1  -5  10   15.63    0.94
   0   5 -10   71.65    2.76
   0  -5  10   62.62    2.78
  -1   5 -10   49.18    2.15
   1  -5  10   48.72    2.07
  -2   5 -10    1.59    0.39
   2  -5  10    1.71    0.29
  -3   5 -10    6.75    0.77
   3  -5  10    9.24    0.58
  -4   5 -10   22.34    1.44
  -5   5 -10   19.90    1.44
  -6  -4  10   11.10    0.98
  -5  -4  10   23.36    1.44
  -4  -4  10   14.60    1.06
  -3  -4  10    4.94    0.63
  -2  -4  10   27.42    1.45
  -1  -4  10   59.67    2.59
   0   4 -10   70.57    2.78
   0  -4  10   64.20    2.79
  -1   4 -10    2.76    0.43
  -1   4 -10    3.36    0.39
   1  -4  10    3.35    0.39
  -2   4 -10    8.60    0.75
   2  -4  10    8.81    0.59
  -3   4 -10   23.87    1.46
   3  -4  10   26.65    1.19
  -4   4 -10   18.72    1.32
  -5   4 -10    2.08    0.64
  -6  -3  10   28.99    1.70
  -5  -3  10   20.68    1.33
  -4  -3  10    6.80    0.75
  -3  -3  10   44.75    2.16
  -2  -3  10  106.77    4.39
  -1  -3  10   86.84    3.58
   0   3 -10    5.65    0.52
   0  -3  10    5.30    0.50
  -1   3 -10   33.35    1.59
  -1   3 -10   34.58    1.51
   1  -3  10   30.16    1.47
  -2   3 -10   33.48    1.74
  -2   3 -10   38.77    1.87
   2  -3  10   41.36    1.65
  -3   3 -10   26.45    1.54
  -4   3 -10    8.54    0.95
  -6  -2  10   25.46    1.57
  -5  -2  10    6.95    0.77
  -4  -2  10    9.53    0.85
  -3  -2  10   55.83    2.56
  -2  -2  10   90.48    3.77
  -1  -2  10   67.82    2.86
   0   2 -10   23.05    1.13
   0   2 -10   19.29    1.07
   0  -2  10   21.27    1.09
  -1   2 -10   33.28    1.46
  -1   2 -10   29.89    1.50
   1  -2  10   27.10    1.37
  -2   2 -10   24.91    1.34
  -2   2 -10   20.72    1.15
  -3   2 -10    9.10    0.92
   4  -2  10   -0.15    0.29
   5  -2  10   15.66    1.59
  -6  -1  10    0.54    0.35
  -5  -1  10    2.73    0.55
  -4  -1  10   30.20    1.64
  -3  -1  10   39.47    1.92
  -2  -1  10   22.00    1.20
  -1  -1  10    3.43    0.43
   0   1 -10   90.57    3.57
   0  -1  10   82.70    3.47
   0  -1  10   89.57    3.53
  -1   1 -10   30.38    1.46
   1  -1  10   28.51    1.39
   1  -1  10   29.62    1.35
  -2   1 -10    2.27    0.39
   2  -1  10    3.43    0.46
  -3   1 -10    2.47    0.42
   3  -1  10    2.63    0.49
   4  -1  10   13.34    1.00
  -6   0  10    3.41    0.62
  -5   0  10   24.18    1.46
  -4   0  10   27.10    1.50
  -3   0  10    6.93    0.66
  -2   0  10    0.49    0.23
   1   0 -10   73.27    3.16
  -1   0  10   79.00    3.14
   0   0 -10   63.72    2.60
   0   0  10   57.43    2.48
   0   0  10   60.09    2.50
  -1   0 -10   10.87    0.79
   1   0  10   11.31    0.71
  -2   0 -10   -0.01    0.25
   2   0  10    0.48    0.26
  -3   0 -10   14.16    0.97
   3   0  10   15.55    1.00
   4   0  10   13.87    1.01
  -6   1  10   16.04    1.23
  -5   1  10   25.18    1.49
  -4   1  10    2.29    0.43
  -3   1  10   17.16    1.05
  -2   1  10   11.21    0.75
   1  -1 -10   92.30    3.72
  -1   1  10   88.87    3.64
   0  -1 -10   27.43    1.37
   0   1  10   25.74    1.25
  -1  -1 -10    1.47    0.38
   1   1  10    1.15    0.27
  -2  -1 -10   24.25    1.42
   2   1  10   29.19    1.40
  -3  -1 -10   23.55    1.36
   3   1  10   25.30    1.36
  -4  -1 -10    3.86    0.58
   4   1  10    3.89    0.59
  -5   2  10   11.82    0.95
  -4   2  10    2.34    0.45
  -3   2  10   28.91    1.48
   2  -2 -10   43.17    1.98
  -2   2  10   41.70    1.91
   1  -2 -10   19.37    1.07
  -1   2  10   16.55    0.93
   0  -2 -10    5.09    0.59
   0   2  10    4.68    0.46
  -1  -2 -10   16.60    1.08
   1   2  10   17.20    0.96
  -2  -2 -10   33.31    1.81
   2   2  10   38.55    1.75
  -3  -2 -10    8.48    0.82
   3   2  10   10.05    0.79
  -4  -2 -10   -0.05    0.28
  -5   3  10    0.32    0.29
  -4   3  10   28.01    1.52
   3  -3 -10   17.71    1.13
  -3   3  10   18.82    1.08
   2  -3 -10   38.94    1.81
  -2   3  10   35.77    1.72
   1  -3 -10    4.33    0.57
   0  -3 -10    5.67    0.66
   0   3  10    6.41    0.55
  -1  -3 -10   10.35    0.89
   1   3  10   11.80    0.78
  -2  -3 -10   14.81    1.12
   2   3  10   18.38    1.05
  -3  -3 -10   -0.09    0.30
   3   3  10    0.07    0.26
  -5   4  10    7.91    0.80
  -4   4  10   18.44    1.14
   3  -4 -10   10.38    0.84
  -3   4  10   10.09    0.76
   2  -4 -10    0.71    0.33
   1  -4 -10   41.60    1.98
   0  -4 -10   19.45    1.21
   0   4  10   20.61    1.18
  -1  -4 -10    7.94    0.81
   1   4  10   10.03    0.74
  -2  -4 -10    0.05    0.30
   2   4  10    0.31    0.28
  -5   5  10   16.72    1.15
   4  -5 -10    5.26    0.68
  -4   5  10    4.51    0.59
   3  -5 -10    0.29    0.30
  -3   5  10    0.19    0.21
   2  -5 -10   14.25    0.98
   1  -5 -10   33.36    1.72
   0  -5 -10    7.11    0.75
   0   5  10    7.06    0.92
  -1  -5 -10    0.19    0.33
   1   5  10    0.77    0.31
  -2  -5 -10    7.68    0.99
   2   5  10   10.27    0.82
   5  -6 -10    4.32    0.67
  -5   6  10    4.51    0.67
   4  -6 -10    0.35    0.34
  -4   6  10    0.50    0.30
   3  -6 -10    2.94    0.49
   2  -6 -10   24.88    1.40
   1  -6 -10   14.22    1.02
   0  -6 -10    1.44    0.43
  -1  -6 -10    2.67    0.64
   1   6  10    4.02    0.59
   4  -7 -10    7.21    0.79
   3  -7 -10   14.34    1.04
   2  -7 -10   13.37    1.02
   1  -7 -10   -0.01    0.30
  -1  14 -11   13.78    0.96
  -1 -13  11    6.32    0.68
   0 -13  11   31.35    1.61
  -1  13 -11   12.11    0.87
   1 -13  11   11.77    0.82
  -2  13 -11    2.10    0.45
   2 -13  11    1.67    0.37
  -3  13 -11    3.29    0.79
  -2 -12  11    8.24    0.81
  -1 -12  11   15.94    1.07
   0  12 -11   15.42    1.28
   0 -12  11   14.58    0.95
  -1  12 -11    1.64    0.38
   1 -12  11    1.54    0.34
  -2  12 -11    0.45    0.29
   2 -12  11    0.24    0.25
  -3  12 -11   16.89    1.16
   3 -12  11   17.26    1.02
  -2 -11  11   25.58    1.49
  -1 -11  11   35.01    1.77
   0  11 -11    2.79    0.47
   0 -11  11    2.67    0.43
  -1  11 -11    4.48    0.51
   1 -11  11    4.54    0.51
  -2  11 -11   20.64    1.22
   2 -11  11   20.76    1.12
  -3  11 -11   11.69    0.96
   3 -11  11   12.84    0.83
  -4  11 -11    0.77    0.43
   4 -11  11    0.60    0.30
  -3 -10  11   34.49    1.88
  -2 -10  11   29.42    1.62
  -1 -10  11    5.86    0.61
   0  10 -11    2.43    0.39
   0 -10  11    2.52    0.40
  -1  10 -11   18.08    1.05
   1 -10  11   18.19    1.01
  -2  10 -11   41.25    1.99
   2 -10  11   41.43    1.87
  -3  10 -11    5.30    0.68
   3 -10  11    4.61    0.53
  -4  10 -11    1.65    0.49
   4 -10  11    1.97    0.39
  -4  -9  11   14.83    1.15
  -4  -9  11   17.20    1.00
  -3  -9  11   22.69    1.42
  -2  -9  11    8.57    0.77
  -1  -9  11    2.73    0.47
   0   9 -11   27.11    1.34
   0  -9  11   25.69    1.34
  -1   9 -11   30.67    1.53
   1  -9  11   31.94    1.49
  -2   9 -11    9.19    0.76
   2  -9  11    8.74    0.66
  -3   9 -11    1.33    0.42
   3  -9  11    1.61    0.34
  -4   9 -11   10.68    1.01
   4  -9  11   13.30    0.82
   5  -9  11   14.37    0.91
  -4  -8  11   30.38    1.75
  -3  -8  11    9.63    0.88
  -2  -8  11    3.23    0.51
  -1  -8  11   40.68    1.95
   0   8 -11   40.59    1.81
   0  -8  11   37.70    1.80
  -1   8 -11   15.54    0.93
   1  -8  11   15.17    0.88
  -2   8 -11    0.23    0.27
   2  -8  11    0.20    0.21
  -3   8 -11   23.96    1.45
   3  -8  11   25.83    1.25
  -4   8 -11   15.35    1.22
   4  -8  11   16.43    0.93
   5  -8  11   11.58    0.81
  -5  -7  11   17.74    1.26
  -4  -7  11    6.75    0.78
  -3  -7  11    0.31    0.29
  -2  -7  11   42.14    2.06
  -1  -7  11   60.67    2.67
   0   7 -11   17.33    0.99
   0  -7  11   17.58    0.99
  -1   7 -11   -0.01    0.20
   1  -7  11   -0.07    0.18
  -2   7 -11   18.43    1.15
   2  -7  11   19.65    1.02
  -3   7 -11   25.95    1.56
   3  -7  11   29.50    1.35
  -4   7 -11    3.86    0.72
   4  -7  11    4.97    0.52
  -5   7 -11   -0.77    0.58
  -5  -6  11   11.45    1.02
  -4  -6  11    1.03    0.39
  -3  -6  11   24.27    1.46
  -2  -6  11   77.69    3.38
  -1  -6  11   34.14    1.68
   0   6 -11    0.43    0.23
   0  -6  11    0.23    0.21
  -1   6 -11   20.07    1.10
   1  -6  11   18.55    1.01
  -2   6 -11   61.20    2.77
   2  -6  11   63.04    2.59
  -3   6 -11    0.07    0.41
   3  -6  11    1.70    0.31
  -4   6 -11   -0.48    0.39
   4  -6  11   -0.09    0.35
  -5   6 -11    5.07    1.22
  -5  -5  11   -0.33    0.27
  -4  -5  11   16.74    1.19
  -3  -5  11   54.21    2.58
  -2  -5  11   26.24    1.45
  -1  -5  11    0.54    0.24
   0   5 -11    6.94    0.63
   0  -5  11    5.39    0.56
  -1   5 -11   64.77    2.71
   1  -5  11   59.72    2.59
  -2   5 -11   51.43    2.46
   2  -5  11   55.36    2.27
  -3   5 -11   -0.77    0.34
   3  -5  11   -0.37    0.17
  -4   5 -11    5.30    0.83
  -5  -4  11   13.17    1.11
  -4  -4  11   40.02    2.10
  -3  -4  11   18.25    1.21
  -2  -4  11    2.20    0.43
  -1  -4  11   23.39    1.26
   0   4 -11   21.51    1.10
   0   4 -11   20.66    1.29
   0  -4  11   19.30    1.10
  -1   4 -11   55.58    2.25
  -1   4 -11   47.08    2.20
   1  -4  11   43.43    2.08
  -2   4 -11    0.54    0.40
   2  -4  11    1.39    0.27
  -3   4 -11    4.38    0.73
  -4   4 -11   15.04    1.25
  -5  -3  11   29.93    1.77
  -4  -3  11   39.40    2.07
  -3  -3  11    0.73    0.33
  -2  -3  11   50.56    2.33
  -1  -3  11   70.22    2.99
   0   3 -11   30.53    1.44
   0  -3  11   28.69    1.44
  -1   3 -11   10.34    0.68
  -1   3 -11    7.23    0.72
   1  -3  11    8.55    0.66
  -2   3 -11    8.77    0.87
   2  -3  11   10.81    0.68
  -3   3 -11   21.07    1.38
  -4   3 -11   15.64    1.30
  -5  -2  11   16.97    1.26
  -4  -2  11    4.41    0.65
  -3  -2  11   16.36    1.10
  -2  -2  11  102.44    4.23
  -1  -2  11   43.67    1.99
   0   2 -11   22.23    1.16
   0  -2  11   21.97    1.15
  -1   2 -11   14.05    0.85
   1  -2  11   11.11    0.75
  -2   2 -11   14.68    0.94
   3  -2  11   18.72    1.17
   4  -2  11    3.33    0.58
  -5  -1  11    0.73    0.38
  -4  -1  11    3.05    0.55
  -3  -1  11   41.05    2.01
  -2  -1  11   57.87    2.57
   1   1 -11    0.45    0.27
  -1  -1  11    0.73    0.27
   0   1 -11    4.75    0.54
   0  -1  11    5.12    0.49
  -1   1 -11   34.62    1.61
   1  -1  11   29.75    1.50
  -2   1 -11   11.42    0.87
   2  -1  11   15.04    0.90
  -3   1 -11    1.34    0.55
   3  -1  11    2.33    0.47
   4  -1  11    0.91    0.40
  -5   0  11    3.61    0.63
  -4   0  11   18.94    1.23
  -3   0  11   33.01    1.69
  -2   0  11    2.35    0.39
   1   0 -11    0.65    0.29
  -1   0  11    0.99    0.26
   0   0 -11   52.78    2.26
   0   0  11   47.66    2.13
  -1   0 -11   31.12    1.53
   1   0  11   28.19    1.41
  -2   0 -11    0.69    0.34
   2   0  11    1.50    0.35
  -3   0 -11    1.37    0.40
   3   0  11    1.51    0.39
   4   0  11    8.40    1.05
  -5   1  11   18.61    1.29
  -4   1  11   22.88    1.37
  -3   1  11    4.30    0.55
   2  -1 -11   13.87    0.95
  -2   1  11   14.39    0.90
   1  -1 -11   22.15    1.22
  -1   1  11   22.26    1.14
   0  -1 -11   37.94    1.82
  -1  -1 -11    5.35    0.66
   1   1  11    5.96    0.53
  -2  -1 -11    3.19    0.55
   2   1  11    4.34    0.52
  -3  -1 -11    6.54    0.77
   3   1  11    9.00    0.75
  -4  -1 -11    4.45    1.01
  -5   2  11   14.81    1.13
  -4   2  11    6.56    0.72
  -3   2  11    4.40    0.54
   2  -2 -11   20.68    1.24
  -2   2  11   23.43    1.20
   1  -2 -11   63.13    2.75
   0  -2 -11   12.97    0.94
  -1  -2 -11    1.07    0.40
   1   2  11    0.90    0.30
  -2  -2 -11    8.64    0.87
   2   2  11   11.03    0.79
  -3  -2 -11   10.72    0.97
   3   2  11   12.15    0.89
  -5   3  11    3.54    0.63
  -4   3  11    1.97    0.46
   3  -3 -11   14.57    1.05
  -3   3  11   16.25    1.00
   2  -3 -11   21.03    1.22
  -2   3  11   20.08    1.21
   1  -3 -11   12.07    0.89
   0  -3 -11   -0.12    0.27
  -1  -3 -11   11.95    0.98
   1   3  11   13.00    0.85
  -2  -3 -11   12.20    1.04
   2   3  11   14.32    0.93
  -5   4  11    0.65    0.35
   4  -4 -11    8.60    0.87
  -4   4  11   10.59    0.85
   3  -4 -11   10.41    0.87
  -3   4  11   10.34    0.79
   2  -4 -11   11.70    0.90
   1  -4 -11    3.62    0.53
   0  -4 -11    9.95    0.87
  -1  -4 -11   12.80    1.03
   1   4  11   13.28    0.90
  -2  -4 -11    2.03    0.79
   2   4  11    1.72    0.39
   4  -5 -11   11.91    0.98
  -4   5  11   12.39    0.93
   3  -5 -11    4.51    0.65
   2  -5 -11    1.06    0.36
   1  -5 -11    6.87    0.75
   0  -5 -11   15.56    1.12
   1   5  11   11.02    0.86
   3  -6 -11    0.14    0.32
   2  -6 -11   11.60    0.93
   1  -6 -11   10.55    0.92
   0 -13  12    9.98    0.97
  -1  13 -12   14.04    0.99
   1 -13  12   15.28    1.41
  -2  13 -12    8.99    0.84
  -2 -12  12    0.62    0.32
  -1 -12  12    8.75    0.81
   0 -12  12   20.89    1.23
  -1  12 -12   12.90    0.91
   1 -12  12   12.51    0.87
  -2  12 -12    0.73    0.36
   2 -12  12    0.41    0.29
  -3  12 -12    3.27    0.60
  -2 -11  12    8.80    0.85
  -1 -11  12   23.15    1.36
   0 -11  12   19.75    1.16
  -1  11 -12    1.87    0.40
   1 -11  12    1.87    0.38
  -2  11 -12    4.51    0.59
   2 -11  12    4.16    0.56
  -3  11 -12   14.45    1.11
   3 -11  12   16.61    0.98
  -3 -10  12    6.33    0.78
  -2 -10  12   23.29    1.41
  -1 -10  12   19.52    1.20
   0 -10  12    2.81    0.44
  -1  10 -12    4.61    0.54
   1 -10  12    4.39    0.55
  -2  10 -12   19.17    1.21
   2 -10  12   19.86    1.10
  -3  10 -12   17.55    1.21
   3 -10  12   18.37    1.04
  -4  10 -12    1.43    0.59
   4 -10  12    1.27    0.37
  -4  -9  12    1.66    0.48
  -3  -9  12   37.89    2.03
  -2  -9  12   20.16    1.27
  -1  -9  12    1.89    0.40
   0  -9  12    8.84    0.72
  -1   9 -12   12.67    0.85
   1  -9  12   11.24    0.81
  -2   9 -12   24.32    1.37
   2  -9  12   22.54    1.21
  -3   9 -12    5.38    0.72
   3  -9  12    5.49    0.57
  -4   9 -12    1.58    0.52
   4  -9  12    1.55    0.36
  -4  -8  12   17.69    1.28
  -3  -8  12   36.61    1.97
  -2  -8  12    8.20    0.78
  -1  -8  12    6.22    0.67
   0  -8  12   34.26    1.68
  -1   8 -12   13.56    0.89
   1  -8  12   12.28    0.84
  -2   8 -12    8.37    0.78
   2  -8  12    6.92    0.62
  -3   8 -12    0.84    0.42
   3  -8  12    0.50    0.28
  -4   8 -12   12.19    1.13
   4  -8  12   13.44    0.85
  -4  -7  12   33.71    1.92
  -3  -7  12   10.67    0.95
  -2  -7  12    1.57    0.41
  -1  -7  12   64.31    2.84
   0  -7  12   27.67    1.42
  -1   7 -12    9.09    0.72
   1  -7  12    8.16    0.66
  -2   7 -12    0.72    0.39
   2  -7  12    1.17    0.32
  -3   7 -12   10.54    0.98
   3  -7  12   11.73    0.78
  -4   7 -12   10.56    1.07
   4  -7  12   11.16    0.80
  -4  -6  12   10.44    0.98
  -3  -6  12    4.75    0.69
  -2  -6  12   20.88    1.28
  -1  -6  12   64.89    2.86
   0  -6  12   10.71    0.78
  -1   6 -12   -0.15    0.22
   1  -6  12   -0.28    0.20
  -2   6 -12   29.13    1.63
   2  -6  12   30.04    1.44
  -3   6 -12   19.59    1.36
   3  -6  12   20.94    1.09
  -4   6 -12    1.76    0.60
  -5  -5  12    7.60    0.94
  -4  -5  12    0.75    0.37
  -3  -5  12    8.75    0.83
  -2  -5  12   40.73    2.03
  -1  -5  12   11.73    0.85
   0   5 -12    1.01    0.37
   0  -5  12    0.83    0.29
  -1   5 -12   14.35    0.93
   1  -5  12   12.46    0.87
  -2   5 -12   22.07    1.39
   2  -5  12   23.79    1.19
  -3   5 -12    3.89    0.68
  -4   5 -12   -0.50    0.41
  -5  -4  12    0.32    0.38
  -4  -4  12   51.00    2.56
  -3  -4  12   28.98    1.64
  -2  -4  12   20.05    1.23
  -1  -4  12    2.81    0.45
   0   4 -12   14.85    0.90
   0  -4  12   14.49    0.93
  -1   4 -12   34.95    1.69
   1  -4  12   30.93    1.56
  -2   4 -12   11.27    0.97
   2  -4  12   12.49    0.78
  -3   4 -12   -0.44    0.37
  -4   4 -12    4.65    0.78
  -5  -3  12   13.68    1.18
  -4  -3  12   32.40    1.84
  -3  -3  12   26.68    1.53
  -2  -3  12    1.72    0.39
  -1  -3  12   50.05    2.26
   0   3 -12   40.89    1.87
   0  -3  12   40.76    1.88
  -1   3 -12   21.64    1.13
  -1   3 -12   18.56    1.17
   1  -3  12   18.89    1.06
  -2   3 -12   -0.59    0.31
  -3   3 -12    6.09    0.83
   4  -3  12   16.64    1.18
  -5  -2  12   26.73    1.69
  -4  -2  12   10.49    0.96
  -3  -2  12    1.62    0.42
  -2  -2  12   21.99    1.26
   1   2 -12   38.30    1.92
  -1  -2  12   44.75    1.96
   0   2 -12   21.74    1.17
   0  -2  12   19.06    1.09
  -1   2 -12    2.42    0.40
   1  -2  12    2.22    0.38
  -2   2 -12    6.96    0.98
   2  -2  12    7.92    0.69
   3  -2  12   15.27    1.06
   4  -2  12    7.38    0.96
  -5  -1  12   10.92    1.04
  -4  -1  12    0.31    0.30
  -3  -1  12   15.09    1.05
  -2  -1  12   35.15    1.74
   1   1 -12   22.50    1.27
  -1  -1  12   24.04    1.24
   0   1 -12    3.75    0.51
   0  -1  12    4.38    0.47
  -1   1 -12   10.14    0.81
   1  -1  12    8.96    0.69
  -2   1 -12   17.45    1.13
   2  -1  12   18.72    1.10
   3  -1  12    8.28    0.77
  -5   0  12    0.04    0.32
  -4   0  12    7.48    0.81
  -3   0  12   25.09    1.42
   2   0 -12    8.89    0.80
  -2   0  12   11.51    0.80
   1   0 -12    0.11    0.26
  -1   0  12    0.18    0.18
   0   0 -12    7.27    0.68
  -1   0 -12   16.58    1.07
   1   0  12   14.26    1.01
  -2   0 -12    6.51    0.77
   2   0  12    8.40    0.69
  -3   0 -12   -0.23    0.31
   3   0  12    0.41    0.30
  -5   1  12    5.08    0.79
  -4   1  12   32.83    1.79
  -3   1  12   18.53    1.15
   2  -1 -12    0.71    0.33
  -2   1  12    0.60    0.26
   1  -1 -12   10.31    0.81
   0  -1 -12   30.95    1.61
  -1  -1 -12   17.99    1.17
  -2  -1 -12    0.17    0.37
   2   1  12    1.27    0.34
  -3  -1 -12    0.37    0.37
   3   1  12    1.35    0.39
  -4   2  12   13.13    1.01
   3  -2 -12    2.75    0.50
  -3   2  12    1.75    0.39
   2  -2 -12    7.61    0.73
  -2   2  12    7.47    0.64
   1  -2 -12   41.05    1.96
   0  -2 -12   22.28    1.32
  -1  -2 -12    1.63    0.47
  -2  -2 -12    0.29    0.40
   2   2  12    0.48    0.30
   4  -3 -12    0.48    0.40
  -4   3  12    0.72    0.35
   3  -3 -12    1.76    0.44
  -3   3  12    1.84    0.40
   2  -3 -12   13.04    0.94
   1  -3 -12   14.28    1.00
   0  -3 -12    0.83    0.36
  -1  -3 -12    1.88    0.51
   2   3  12    2.94    0.49
  -4   4  12    1.48    0.43
   3  -4 -12    7.77    0.80
   2  -4 -12   20.71    1.24
   1  -4 -12    3.99    0.57
   0  -4 -12    1.62    0.46
   2  -5 -12    2.83    0.56
   0 -12  13    9.55    1.09
  -2  12 -13    4.37    0.65
  -1 -11  13    8.04    0.80
   0 -11  13   21.84    1.28
   1 -11  13   13.23    0.92
  -2  11 -13    0.54    0.34
   2 -11  13    0.33    0.28
  -3  11 -13    3.45    0.62
  -2 -10  13    8.48    0.85
  -1 -10  13   11.64    0.94
   0 -10  13   12.33    0.90
   1 -10  13    0.34    0.28
  -2  10 -13    3.62    0.60
   2 -10  13    3.83    0.52
  -3  10 -13   16.26    1.22
   3 -10  13   15.97    1.00
  -3  -9  13    8.01    0.86
  -2  -9  13   28.77    1.63
  -1  -9  13   15.67    1.07
   0  -9  13   -0.12    0.24
   1  -9  13   11.21    0.83
  -2   9 -13   13.87    1.06
   2  -9  13   14.22    0.93
  -3   9 -13   12.65    1.09
   3  -9  13   11.76    0.85
   4  -9  13    0.21    0.29
  -3  -8  13   32.03    1.82
  -2  -8  13   16.88    1.16
  -1  -8  13    0.30    0.26
   0  -8  13    8.91    0.78
   1  -8  13   19.83    1.15
  -2   8 -13   18.93    1.27
   2  -8  13   20.43    1.14
  -3   8 -13    0.35    0.42
   3  -8  13    0.68    0.29
   4  -8  13    0.84    0.33
  -4  -7  13   18.64    1.64
  -3  -7  13   21.27    1.40
  -2  -7  13    2.39    0.48
  -1  -7  13   12.24    0.92
   0  -7  13   30.02    1.56
   1  -7  13   16.09    1.01
  -2   7 -13    1.25    0.46
   2  -7  13    1.63    0.35
  -3   7 -13    4.16    0.71
   3  -7  13    4.45    0.58
  -4   7 -13   14.98    1.54
  -4  -6  13   43.29    2.32
  -3  -6  13    8.12    0.84
  -2  -6  13    5.02    0.65
  -1  -6  13   28.48    1.54
   0  -6  13   20.37    1.19
   1  -6  13    6.29    0.66
  -2   6 -13    3.96    0.64
   2  -6  13    4.44    0.57
  -3   6 -13    8.91    0.98
   3  -6  13    9.99    0.99
  -4   6 -13   13.46    1.47
  -4  -5  13    2.12    0.53
  -3  -5  13    5.81    0.72
  -2  -5  13   29.02    1.60
  -1  -5  13   25.67    1.41
   0  -5  13    4.97    0.60
   1  -5  13    0.71    0.32
  -2   5 -13    9.74    0.92
   2  -5  13    9.82    0.75
  -3   5 -13   13.03    1.14
  -4   5 -13    2.58    0.95
  -4  -4  13    3.98    0.68
  -3  -4  13   37.48    1.98
  -2  -4  13   42.53    2.09
  -1  -4  13    0.39    0.26
   0   4 -13    8.67    0.70
   0  -4  13    8.63    0.73
   1  -4  13   27.42    1.42
  -2   4 -13   12.02    1.02
  -3   4 -13    3.87    0.72
  -4  -3  13   15.62    1.20
  -3  -3  13   38.21    1.99
  -2  -3  13   20.79    1.25
   1   3 -13    4.42    0.57
  -1  -3  13    5.45    0.60
   0   3 -13   26.20    1.36
   0  -3  13   24.69    1.33
   1  -3  13   27.91    1.42
   3  -3  13    0.07    0.33
  -4  -2  13   18.59    1.32
  -3  -2  13   13.41    1.03
  -2  -2  13    2.89    0.48
   1   2 -13   16.28    1.07
  -1  -2  13   18.28    1.06
   0   2 -13   37.73    1.79
   0  -2  13   36.19    1.74
  -1   2 -13    8.57    0.75
   2  -2  13    1.58    0.38
   3  -2  13    5.45    0.68
  -4  -1  13    9.42    0.92
  -3  -1  13    0.58    0.34
  -2  -1  13   20.55    1.20
   1   1 -13   17.68    1.10
  -1  -1  13   17.86    1.05
   0   1 -13   19.40    1.16
  -1   1 -13    0.30    0.31
  -2   1 -13    7.95    0.90
   2  -1  13    8.55    0.73
   3  -1  13    9.94    0.86
  -4   0  13    1.50    0.45
  -3   0  13   16.83    1.13
   2   0 -13   14.92    1.08
  -2   0  13   17.71    1.05
   1   0 -13    8.18    0.77
  -1   0  13    9.08    0.74
   0   0 -13    1.07    0.35
  -1   0 -13   16.61    1.13
  -2   0 -13   12.56    1.02
   2   0  13   11.80    0.86
  -4   1  13   13.04    1.04
  -3   1  13   26.53    1.48
   2  -1 -13    2.95    0.52
  -2   1  13    3.26    0.47
   1  -1 -13    4.08    0.57
   0  -1 -13   12.43    0.96
  -1  -1 -13   27.24    1.57
  -2  -1 -13    8.13    0.92
   2   1  13    8.48    0.74
  -4   2  13   17.54    1.21
   3  -2 -13   13.22    1.04
  -3   2  13   15.05    1.01
   2  -2 -13    0.83    0.37
   1  -2 -13    1.51    0.40
   0  -2 -13   20.33    1.28
  -1  -2 -13   11.66    1.00
  -4   3  13    8.79    0.86
   3  -3 -13    0.43    0.51
   2  -3 -13   15.40    1.06
   1  -3 -13    9.57    0.87
   0  -3 -13   10.75    1.00
  -2  11 -14    4.37    0.72
  -1 -10  14    9.97    0.91
   0 -10  14   17.79    1.17
   1 -10  14    4.68    0.62
  -2  10 -14    0.02    0.36
   2 -10  14    0.24    0.30
  -3  10 -14    3.44    0.80
  -2  -9  14   12.67    1.03
  -1  -9  14   21.93    1.35
   0  -9  14    6.16    0.69
   1  -9  14    0.12    0.27
  -2   9 -14   11.07    1.02
   2  -9  14   10.50    0.85
   3  -9  14   12.87    0.94
  -2  -8  14   24.04    1.46
  -1  -8  14   14.46    1.04
   0  -8  14    0.44    0.32
   1  -8  14   12.79    0.94
  -2   8 -14   16.75    1.26
   2  -8  14   17.00    1.09
  -3   8 -14    4.66    0.80
   3  -8  14    6.28    0.70
  -3  -7  14   27.75    1.66
  -2  -7  14   18.61    1.24
  -1  -7  14    0.59    0.30
   0  -7  14   11.29    0.91
   1  -7  14   28.88    1.54
  -2   7 -14    7.88    0.93
   2  -7  14    8.25    0.76
  -3   7 -14   -0.40    0.43
   3  -7  14   -0.09    0.30
  -3  -6  14   15.88    1.19
  -2  -6  14    1.73    0.44
  -1  -6  14    9.33    0.82
   0  -6  14   25.14    1.41
   1  -6  14   26.20    1.43
  -2   6 -14    1.93    0.59
   2  -6  14    2.42    0.44
  -3   6 -14    3.06    0.69
  -3  -5  14    0.37    0.31
  -2  -5  14   12.21    0.96
  -1  -5  14   20.82    1.27
   0  -5  14    8.88    0.79
   1  -5  14    0.23    0.27
  -2   5 -14    0.87    0.53
  -3   5 -14    9.40    1.06
  -3  -4  14    7.48    0.81
  -2  -4  14   47.96    2.31
  -1  -4  14   17.95    1.13
   0  -4  14    0.44    0.28
   1  -4  14    4.81    0.60
  -2   4 -14   13.63    1.23
  -3  -3  14   34.26    1.86
  -2  -3  14   41.70    2.06
   1   3 -14    3.52    0.52
  -1  -3  14    3.30    0.49
   0   3 -14    9.86    0.80
   0  -3  14    9.85    0.76
   3  -3  14    3.67    0.62
  -3  -2  14   30.52    1.70
  -2  -2  14    3.16    0.52
   1   2 -14    4.28    0.58
  -1  -2  14    4.36    0.54
   0   2 -14   23.09    1.30
  -1   2 -14   22.70    1.44
  -3  -1  14    9.04    0.86
   2   1 -14    1.14    0.43
  -2  -1  14    2.11    0.43
   1   1 -14   20.68    1.25
  -1  -1  14   21.86    1.21
   0   1 -14   21.90    1.29
  -1   1 -14    5.01    0.72
  -3   0  14    2.33    0.48
   2   0 -14   10.63    0.95
  -2   0  14   13.29    0.90
   1   0 -14   16.80    1.11
   0   0 -14    1.68    0.43
  -1   0 -14    1.19    0.44
  -2   0 -14    5.02    0.75
  -3   1  14   16.75    1.13
   2  -1 -14   24.28    1.43
   1  -1 -14    7.80    0.79
   0  -1 -14    0.81    0.39
  -1  -1 -14   10.30    1.02
   0  -9  15   16.56    1.23
   1  -9  15    1.75    0.47
  -1  -8  15   21.26    1.34
   0  -8  15    9.77    0.87
   1  -8  15    1.33    0.42
   2  -8  15    8.32    0.82
  -2  -7  15   26.36    1.74
  -1  -7  15   17.04    1.15
   0  -7  15    0.18    0.30
   1  -7  15   19.82    1.27
   2  -7  15   16.58    1.11
  -2  -6  15   10.15    0.92
  -1  -6  15    1.36    0.39
   0  -6  15   10.41    0.91
   1  -6  15   16.95    1.13
  -2  -5  15    1.08    0.36
  -1  -5  15    8.40    0.80
   0  -5  15   23.14    1.35
   1  -5  15    7.30    0.73
  -2  -4  15   10.75    0.90
   1   4 -15   31.22    1.69
  -1  -4  15   34.69    1.75
   0  -4  15   13.40    0.95
  -3  -3  15    6.02    0.80
  -2  -3  15   22.39    1.35
   1   3 -15   17.88    1.18
  -1  -3  15   19.51    1.18
   0   3 -15    1.03    0.47
   0  -3  15    2.11    0.57
  -3  -2  15   18.07    1.27
   2   2 -15   19.82    1.33
  -2  -2  15   23.20    1.33
   1   2 -15    0.82    0.39
  -1  -2  15    1.63    0.37
   0   2 -15    2.55    0.49
  -3  -1  15   15.38    1.15
   2   1 -15    1.82    0.48
  -2  -1  15    1.95    0.41
   1   1 -15    1.90    0.46
   0   1 -15   10.62    0.91
  -1   1 -15   10.32    1.00
   1   0 -15    8.86    0.92
   0   0 -15   16.16    1.32
   0  -7  16    9.63    1.26
   1  -7  16    0.72    0.48
   0  -6  16    0.70    0.35
   1  -6  16    3.66    0.57
  -1  -5  16    0.15    0.28
   0  -5  16   14.86    1.06
  -1  -4  16    7.04    0.74
   0  -4  16   19.87    1.31
   1   3 -16   21.65    1.33
  -1  -3  16   22.04    1.30
   1   2 -16   15.81    1.47
   0   2 -16    1.06    0.42
   0   0   0    0.00    0.00
;
_shelx_hkl_checksum              8071
loop_
_space_group_symop_operation_xyz
'x, y, z'
'-x, -y, -z'
loop_
_atom_site_label
_atom_site_type_symbol
_atom_site_fract_x
_atom_site_fract_y
_atom_site_fract_z
_atom_site_U_iso_or_equiv
_atom_site_adp_type
_atom_site_occupancy
_atom_site_site_symmetry_order
_atom_site_calc_flag
_atom_site_refinement_flags_posn
_atom_site_refinement_flags_adp
_atom_site_refinement_flags_occupancy
_atom_site_disorder_assembly
_atom_site_disorder_group
Nd Nd 0.62255(5) 0.61403(2) 0.40400(2) 0.02416(15) Uani 1 1 d . . . . .
O1 O 0.2704(14) -0.0532(7) 0.0586(6) 0.042(2) Uani 0.619(8) 1 d . . P A 1
O1A O 0.519(2) -0.1548(10) 0.0930(11) 0.044(4) Uani 0.381(8) 1 d . . P A 2
O1W O 0.2401(7) 0.4892(5) 0.3063(4) 0.0417(11) Uani 1 1 d . . . . .
H1WA H 0.1742 0.4520 0.3471 0.062 Uiso 1 1 d R U . . .
H1WB H 0.2487 0.4348 0.2427 0.062 Uiso 1 1 d R U . . .
O2 O -0.3889(8) -0.4046(5) 0.1968(4) 0.0445(12) Uani 1 1 d . . . . .
O2W O 0.4092(9) 0.7682(5) 0.4003(5) 0.0540(14) Uani 1 1 d . . . . .
H2WA H 0.3969 0.8163 0.4707 0.081 Uiso 1 1 d R U . . .
H2WB H 0.2660 0.7301 0.3613 0.081 Uiso 1 1 d R U . . .
O3 O -0.0651(8) -0.2928(5) 0.3158(4) 0.0437(11) Uani 1 1 d . . . . .
O4 O 0.5665(7) 0.3963(4) 0.4348(3) 0.0304(9) Uani 1 1 d . . . . .
O5 O 0.7498(8) 0.4242(4) 0.2997(4) 0.0343(10) Uani 1 1 d . . . . .
O6 O 1.0352(7) 0.3510(4) 0.4566(4) 0.0351(10) Uani 1 1 d . . . . .
O7 O 1.1395(9) 0.1825(4) 0.4435(5) 0.0477(12) Uani 1 1 d . . . . .
N1 N -0.0854(16) -0.3669(7) -0.0777(6) 0.085(3) Uani 1 1 d . U . . .
C1 C 0.0408(19) -0.2503(11) -0.0601(8) 0.039(3) Uani 0.619(8) 1 d . . P A 1
H1 H 0.0655 -0.2261 -0.1217 0.047 Uiso 0.619(8) 1 calc R U P A 1
C1A C 0.194(3) -0.3054(16) -0.0399(15) 0.040(4) Uani 0.381(8) 1 d . . P A 2
H1A H 0.2901 -0.3213 -0.0944 0.047 Uiso 0.381(8) 1 calc R U P A 2
C2 C 0.1330(16) -0.1668(9) 0.0500(8) 0.029(2) Uani 0.619(8) 1 d . . P A 1
C2A C 0.288(3) -0.2307(14) 0.0714(14) 0.032(4) Uani 0.381(8) 1 d . . P A 2
C3 C 0.0687(18) -0.1973(10) 0.1414(8) 0.028(2) Uani 0.619(8) 1 d . . P A 1
H3 H 0.1258 -0.1404 0.2156 0.034 Uiso 0.619(8) 1 calc R U P A 1
C3A C 0.173(4) -0.2363(16) 0.1588(15) 0.038(4) Uani 0.381(8) 1 d . . P A 2
H3A H 0.2432 -0.1965 0.2350 0.046 Uiso 0.381(8) 1 calc R U P A 2
C4 C -0.0825(13) -0.3139(6) 0.1217(6) 0.0439(17) Uani 1 1 d . . . . .
C5 C -0.1712(14) -0.3866(7) 0.0086(6) 0.052(2) Uani 1 1 d . . . . .
H5 H -0.3000 -0.4540 -0.0076 0.062 Uiso 1 1 calc R U . . .
C6 C 0.4285(16) 0.0182(8) 0.1510(6) 0.060(3) Uani 1 1 d . . . . .
H6 H 0.3023 -0.0294 0.0938 0.073 Uiso 0.381(8) 1 calc R U P A 2
C7 C 0.4507(12) 0.1453(7) 0.2068(6) 0.0428(16) Uani 1 1 d . . . . .
H7 H 0.3421 0.1818 0.1860 0.051 Uiso 1 1 calc R U . . .
C8 C 0.6362(10) 0.2174(5) 0.2938(5) 0.0285(13) Uani 1 1 d . . . . .
C9 C 0.7985(11) 0.1597(5) 0.3218(6) 0.0335(14) Uani 1 1 d . . . . .
C10 C 0.7651(14) 0.0314(6) 0.2638(8) 0.054(2) Uani 1 1 d . . . . .
H10 H 0.8687 -0.0077 0.2846 0.064 Uiso 1 1 calc R U . . .
C11 C 0.5830(17) -0.0386(7) 0.1767(8) 0.061(3) Uani 1 1 d . . . . .
H11 H 0.5667 -0.1233 0.1364 0.073 Uiso 0.619(8) 1 calc R U P A 1
C12 C -0.1863(11) -0.3397(6) 0.2162(5) 0.0316(13) Uani 1 1 d . . . . .
C13 C 0.6580(9) 0.3545(5) 0.3486(5) 0.0256(12) Uani 1 1 d . . . . .
C14 C 1.0034(10) 0.2351(5) 0.4130(5) 0.0287(13) Uani 1 1 d . . . . .
O3W O 0.250(3) 0.9821(12) 0.4601(17) 0.170(6) Uani 1 1 d G . . . .
H3WA H 0.3348 0.9944 0.4127 0.255 Uiso 1 1 d G U . . .
H3WB H 0.2000 1.0459 0.4900 0.255 Uiso 1 1 d G U . . .
loop_
_atom_site_aniso_label
_atom_site_aniso_U_11
_atom_site_aniso_U_22
_atom_site_aniso_U_33
_atom_site_aniso_U_23
_atom_site_aniso_U_13
_atom_site_aniso_U_12
Nd 0.0229(2) 0.0261(2) 0.0244(2) 0.01230(14) 0.00788(13) 0.00259(13)
O1 0.049(5) 0.038(4) 0.020(4) 0.012(3) -0.010(3) -0.021(3)
O1A 0.050(8) 0.019(5) 0.039(7) -0.004(5) 0.013(6) -0.013(5)
O1W 0.031(2) 0.054(3) 0.032(2) 0.015(2) 0.0088(19) -0.005(2)
O2 0.030(2) 0.062(3) 0.039(3) 0.027(2) 0.004(2) -0.006(2)
O2W 0.042(3) 0.041(3) 0.074(4) 0.017(3) -0.002(3) 0.012(2)
O3 0.033(2) 0.058(3) 0.035(3) 0.022(2) 0.005(2) -0.006(2)
O4 0.029(2) 0.034(2) 0.026(2) 0.0072(18) 0.0129(18) 0.0069(17)
O5 0.039(2) 0.034(2) 0.033(2) 0.0154(19) 0.0192(19) 0.0060(18)
O6 0.031(2) 0.025(2) 0.042(3) 0.0072(18) -0.0047(19) 0.0041(17)
O7 0.045(3) 0.031(2) 0.062(3) 0.012(2) -0.001(2) 0.012(2)
N1 0.105(6) 0.067(4) 0.037(4) 0.000(3) 0.027(4) -0.040(4)
C1 0.035(6) 0.054(7) 0.010(5) 0.005(4) 0.007(4) -0.015(5)
C1A 0.038(10) 0.036(9) 0.028(9) 0.000(7) 0.012(7) -0.006(7)
C2 0.025(5) 0.028(5) 0.023(5) 0.006(4) -0.002(4) -0.007(4)
C2A 0.035(9) 0.026(8) 0.029(9) 0.009(6) 0.009(7) -0.001(6)
C3 0.026(5) 0.031(5) 0.019(5) 0.007(4) -0.001(4) -0.002(4)
C3A 0.042(11) 0.031(9) 0.027(9) 0.005(7) 0.001(8) -0.010(8)
C4 0.052(4) 0.036(3) 0.032(4) 0.008(3) 0.020(3) -0.008(3)
C5 0.061(5) 0.041(4) 0.033(4) 0.006(3) 0.017(3) -0.016(3)
C6 0.069(5) 0.047(4) 0.023(4) -0.007(3) 0.014(3) -0.038(4)
C7 0.041(4) 0.047(4) 0.027(3) 0.011(3) 0.006(3) -0.008(3)
C8 0.027(3) 0.029(3) 0.021(3) 0.006(2) 0.011(2) -0.004(2)
C9 0.030(3) 0.023(3) 0.036(4) 0.002(3) 0.012(3) 0.000(2)
C10 0.048(4) 0.025(3) 0.068(6) -0.001(3) 0.021(4) -0.002(3)
C11 0.067(6) 0.026(4) 0.057(5) -0.012(3) 0.027(4) -0.011(4)
C12 0.032(3) 0.039(3) 0.029(3) 0.020(3) 0.013(3) 0.004(3)
C13 0.022(3) 0.030(3) 0.022(3) 0.007(2) 0.005(2) 0.002(2)
C14 0.026(3) 0.025(3) 0.034(3) 0.011(3) 0.013(3) 0.003(2)
O3W 0.190(15) 0.090(7) 0.236(18) 0.068(9) 0.010(11) 0.047(8)
loop_
_atom_type_symbol
_atom_type_description
_atom_type_scat_dispersion_real
_atom_type_scat_dispersion_imag
_atom_type_scat_source
C C 0.0033 0.0016 'International Tables Vol C Tables 4.2.6.8 and 6.1.1.4'
H H 0.0000 0.0000 'International Tables Vol C Tables 4.2.6.8 and 6.1.1.4'
N N 0.0061 0.0033 'International Tables Vol C Tables 4.2.6.8 and 6.1.1.4'
Nd Nd -0.1943 3.0179 'International Tables Vol C Tables 4.2.6.8 and 6.1.1.4'
O O 0.0106 0.0060 'International Tables Vol C Tables 4.2.6.8 and 6.1.1.4'
loop_
_geom_angle_atom_site_label_1
_geom_angle_atom_site_label_2
_geom_angle_atom_site_label_3
_geom_angle
_geom_angle_site_symmetry_1
_geom_angle_site_symmetry_3
O1W Nd O4 79.34(15) . 2_666
O1W Nd O2W 75.41(18) . .
O4 Nd O2W 85.31(18) 2_666 .
O1W Nd O6 148.55(16) . 2_766
O4 Nd O6 80.73(15) 2_666 2_766
O2W Nd O6 126.75(16) . 2_766
O1W Nd O5 85.64(16) . .
O4 Nd O5 114.86(14) 2_666 .
O2W Nd O5 149.43(18) . .
O6 Nd O5 80.98(15) 2_766 .
O1W Nd O3 125.69(16) . 1_665
O4 Nd O3 153.25(15) 2_666 1_665
O2W Nd O3 91.95(19) . 1_665
O6 Nd O3 79.71(16) 2_766 1_665
O5 Nd O3 79.76(16) . 1_665
O1W Nd O7 145.80(17) . 2_766
O4 Nd O7 80.70(17) 2_666 2_766
O2W Nd O7 75.53(17) . 2_766
O6 Nd O7 51.63(14) 2_766 2_766
O5 Nd O7 128.12(16) . 2_766
O3 Nd O7 72.87(18) 1_665 2_766
O1W Nd O2 73.98(15) . 1_665
O4 Nd O2 151.77(15) 2_666 1_665
O2W Nd O2 79.28(19) . 1_665
O6 Nd O2 127.36(16) 2_766 1_665
O5 Nd O2 72.47(16) . 1_665
O3 Nd O2 51.73(14) 1_665 1_665
O7 Nd O2 117.39(17) 2_766 1_665
O1W Nd O4 74.09(15) . .
O4 Nd O4 65.21(15) 2_666 .
O2W Nd O4 140.71(16) . .
O6 Nd O4 75.54(13) 2_766 .
O5 Nd O4 49.72(13) . .
O3 Nd O4 126.10(15) 1_665 .
O7 Nd O4 121.05(15) 2_766 .
O2 Nd O4 114.70(14) 1_665 .
O1W Nd C14 159.82(17) . 2_766
O4 Nd C14 80.56(16) 2_666 2_766
O2W Nd C14 101.30(18) . 2_766
O6 Nd C14 25.79(15) 2_766 2_766
O5 Nd C14 104.44(16) . 2_766
O3 Nd C14 73.90(17) 1_665 2_766
O7 Nd C14 25.87(16) 2_766 2_766
O2 Nd C14 125.49(16) 1_665 2_766
O4 Nd C14 98.87(15) . 2_766
O1W Nd C12 99.51(17) . 1_665
O4 Nd C12 170.50(16) 2_666 1_665
O2W Nd C12 85.3(2) . 1_665
O6 Nd C12 103.98(17) 2_766 1_665
O5 Nd C12 74.29(16) . 1_665
O3 Nd C12 26.19(17) 1_665 1_665
O7 Nd C12 95.68(19) 2_766 1_665
O2 Nd C12 25.54(16) 1_665 1_665
O4 Nd C12 123.73(16) . 1_665
C14 Nd C12 100.04(18) 2_766 1_665
O1W Nd C13 77.10(16) . .
O4 Nd C13 90.35(14) 2_666 .
O2W Nd C13 152.50(16) . .
O6 Nd C13 78.96(14) 2_766 .
O5 Nd C13 24.70(15) . .
O3 Nd C13 103.55(16) 1_665 .
O7 Nd C13 130.53(15) 2_766 .
O2 Nd C13 92.52(16) 1_665 .
O4 Nd C13 25.15(14) . .
C14 Nd C13 104.74(16) 2_766 .
C12 Nd C13 98.60(16) 1_665 .
C6 O1 C2 121.2(8) . .
C11 O1A C2A 120.0(12) . .
Nd O1W H1WA 109.8 . .
Nd O1W H1WB 109.5 . .
H1WA O1W H1WB 109.3 . .
C12 O2 Nd 92.4(4) . 1_445
Nd O2W H2WA 111.7 . .
Nd O2W H2WB 111.1 . .
H2WA O2W H2WB 107.2 . .
C12 O3 Nd 93.9(4) . 1_445
C13 O4 Nd 155.4(4) . 2_666
C13 O4 Nd 89.8(3) . .
Nd O4 Nd 114.79(15) 2_666 .
C13 O5 Nd 98.8(3) . .
C14 O6 Nd 94.7(4) . 2_766
C14 O7 Nd 92.2(4) . 2_766
C5 N1 C1 117.9(7) . .
C5 N1 C1A 109.1(9) . .
N1 C1 C2 119.7(9) . .
N1 C1 H1 120.2 . .
C2 C1 H1 120.2 . .
C2A C1A N1 120.4(14) . .
C2A C1A H1A 119.8 . .
N1 C1A H1A 119.8 . .
O1 C2 C1 115.2(9) . .
O1 C2 C3 125.0(8) . .
C1 C2 C3 119.6(9) . .
C3A C2A C1A 121.7(16) . .
C3A C2A O1A 121.0(15) . .
C1A C2A O1A 117.1(15) . .
C2 C3 C4 119.8(8) . .
C2 C3 H3 120.1 . .
C4 C3 H3 120.1 . .
C2A C3A C4 114.9(14) . .
C2A C3A H3A 122.6 . .
C4 C3A H3A 122.6 . .
C5 C4 C3 115.2(7) . .
C5 C4 C12 122.2(6) . .
C3 C4 C12 120.5(7) . .
C5 C4 C3A 120.9(9) . .
C12 C4 C3A 113.0(9) . .
N1 C5 C4 124.2(7) . .
N1 C5 H5 117.9 . .
C4 C5 H5 117.9 . .
O1 C6 C11 114.5(8) . .
O1 C6 C7 122.5(10) . .
C11 C6 C7 122.5(7) . .
C11 C6 H6 118.7 . .
C7 C6 H6 118.7 . .
C8 C7 C6 119.5(8) . .
C8 C7 H7 120.3 . .
C6 C7 H7 120.3 . .
C7 C8 C9 118.8(6) . .
C7 C8 C13 117.7(6) . .
C9 C8 C13 123.5(5) . .
C10 C9 C8 119.1(6) . .
C10 C9 C14 120.7(7) . .
C8 C9 C14 120.2(5) . .
C11 C10 C9 121.7(9) . .
C11 C10 H10 119.2 . .
C9 C10 H10 119.2 . .
C6 C11 O1A 103.9(10) . .
C6 C11 C10 118.4(7) . .
O1A C11 C10 137.1(11) . .
C6 C11 H11 120.8 . .
C10 C11 H11 120.8 . .
O2 C12 O3 122.0(6) . .
O2 C12 C4 119.4(6) . .
O3 C12 C4 118.6(6) . .
O2 C12 Nd 62.1(3) . 1_445
O3 C12 Nd 59.9(3) . 1_445
C4 C12 Nd 178.5(5) . 1_445
O5 C13 O4 121.0(5) . .
O5 C13 C8 117.9(5) . .
O4 C13 C8 120.7(5) . .
O5 C13 Nd 56.5(3) . .
O4 C13 Nd 65.0(3) . .
C8 C13 Nd 165.6(4) . .
O6 C14 O7 121.3(6) . .
O6 C14 C9 118.4(5) . .
O7 C14 C9 120.3(5) . .
O6 C14 Nd 59.5(3) . 2_766
O7 C14 Nd 61.9(3) . 2_766
C9 C14 Nd 176.6(4) . 2_766
H3WA O3W H3WB 109.5 . .
loop_
_geom_bond_atom_site_label_1
_geom_bond_atom_site_label_2
_geom_bond_distance
_geom_bond_site_symmetry_2
Nd O1W 2.412(4) .
Nd O4 2.439(4) 2_666
Nd O2W 2.469(5) .
Nd O6 2.475(4) 2_766
Nd O5 2.500(4) .
Nd O3 2.501(5) 1_665
Nd O7 2.528(5) 2_766
Nd O2 2.551(5) 1_665
Nd O4 2.685(4) .
Nd C14 2.863(6) 2_766
Nd C12 2.884(6) 1_665
Nd C13 2.962(6) .
O1 C6 1.334(10) .
O1 C2 1.373(12) .
O1A C11 1.360(13) .
O1A C2A 1.43(2) .
O1W H1WA 0.8526 .
O1W H1WB 0.8535 .
O2 C12 1.244(8) .
O2 Nd 2.551(5) 1_445
O2W H2WA 0.8959 .
O2W H2WB 0.8955 .
O3 C12 1.276(8) .
O3 Nd 2.501(5) 1_445
O4 C13 1.258(7) .
O4 Nd 2.439(4) 2_666
O5 C13 1.252(7) .
O6 C14 1.250(7) .
O6 Nd 2.475(4) 2_766
O7 C14 1.250(8) .
O7 Nd 2.528(5) 2_766
N1 C5 1.313(10) .
N1 C1 1.349(13) .
N1 C1A 1.64(2) .
C1 C2 1.382(13) .
C1 H1 0.9300 .
C1A C2A 1.37(2) .
C1A H1A 0.9300 .
C2 C3 1.383(14) .
C2A C3A 1.36(2) .
C3 C4 1.398(11) .
C3 H3 0.9300 .
C3A C4 1.55(2) .
C3A H3A 0.9300 .
C4 C5 1.380(10) .
C4 C12 1.483(9) .
C5 H5 0.9300 .
C6 C11 1.349(14) .
C6 C7 1.390(12) .
C6 H6 0.9300 .
C7 C8 1.390(9) .
C7 H7 0.9300 .
C8 C9 1.403(9) .
C8 C13 1.495(8) .
C9 C10 1.396(9) .
C9 C14 1.495(9) .
C10 C11 1.373(13) .
C10 H10 0.9300 .
C11 H11 0.9300 .
C12 Nd 2.884(6) 1_445
C14 Nd 2.863(6) 2_766
O3W H3WA 0.8491 .
O3W H3WB 0.8496 .
loop_
_geom_torsion_atom_site_label_1
_geom_torsion_atom_site_label_2
_geom_torsion_atom_site_label_3
_geom_torsion_atom_site_label_4
_geom_torsion
_geom_torsion_site_symmetry_1
C5 N1 C1 C2 19.1(18) .
C5 N1 C1A C2A -30.6(19) .
C6 O1 C2 C1 -157.2(11) .
C6 O1 C2 C3 28.4(17) .
N1 C1 C2 O1 176.1(11) .
N1 C1 C2 C3 -9.1(18) .
N1 C1A C2A C3A 22(3) .
N1 C1A C2A O1A -164.0(13) .
C11 O1A C2A C3A -41(2) .
C11 O1A C2A C1A 144.3(16) .
O1 C2 C3 C4 176.5(10) .
C1 C2 C3 C4 2.3(17) .
C1A C2A C3A C4 -11(3) .
O1A C2A C3A C4 175.2(14) .
C2 C3 C4 C5 -5.1(15) .
C2 C3 C4 C12 -168.9(9) .
C2A C3A C4 C5 10(2) .
C2A C3A C4 C12 168.0(14) .
C1 N1 C5 C4 -23.5(17) .
C1A N1 C5 C4 31.3(14) .
C3 C4 C5 N1 16.2(15) .
C12 C4 C5 N1 179.7(9) .
C3A C4 C5 N1 -24.0(17) .
C2 O1 C6 C11 56.3(12) .
C2 O1 C6 C7 -132.0(9) .
O1 C6 C7 C8 -172.2(7) .
C11 C6 C7 C8 -1.1(11) .
C6 C7 C8 C9 0.9(9) .
C6 C7 C8 C13 177.8(6) .
C7 C8 C9 C10 -1.9(9) .
C13 C8 C9 C10 -178.5(6) .
C7 C8 C9 C14 178.5(6) .
C13 C8 C9 C14 1.8(9) .
C8 C9 C10 C11 3.0(12) .
C14 C9 C10 C11 -177.4(7) .
C7 C6 C11 O1A -171.0(8) .
O1 C6 C11 C10 173.8(8) .
C7 C6 C11 C10 2.1(12) .
C2A O1A C11 C6 -53.8(16) .
C2A O1A C11 C10 135.2(14) .
C9 C10 C11 C6 -3.0(13) .
C9 C10 C11 O1A 167.0(12) .
Nd O2 C12 O3 -0.9(7) 1_445
Nd O2 C12 C4 -180.0(6) 1_445
Nd O3 C12 O2 1.0(7) 1_445
Nd O3 C12 C4 180.0(5) 1_445
C5 C4 C12 O2 -19.7(11) .
C3 C4 C12 O2 142.9(9) .
C3A C4 C12 O2 -177.7(10) .
C5 C4 C12 O3 161.2(8) .
C3 C4 C12 O3 -36.2(12) .
C3A C4 C12 O3 3.2(13) .
Nd O5 C13 O4 -8.6(6) .
Nd O5 C13 C8 164.5(4) .
Nd O4 C13 O5 -174.5(6) 2_666
Nd O4 C13 O5 7.9(6) .
Nd O4 C13 C8 12.5(12) 2_666
Nd O4 C13 C8 -165.0(5) .
Nd O4 C13 Nd 177.5(9) 2_666
C7 C8 C13 O5 -82.5(7) .
C9 C8 C13 O5 94.2(7) .
C7 C8 C13 O4 90.7(7) .
C9 C8 C13 O4 -92.7(7) .
C7 C8 C13 Nd -18.8(18) .
C9 C8 C13 Nd 157.9(13) .
Nd O6 C14 O7 -3.8(7) 2_766
Nd O6 C14 C9 176.9(5) 2_766
Nd O7 C14 O6 3.7(6) 2_766
Nd O7 C14 C9 -177.0(5) 2_766
C10 C9 C14 O6 174.8(6) .
C8 C9 C14 O6 -5.6(9) .
C10 C9 C14 O7 -4.6(10) .
C8 C9 C14 O7 175.0(6) .
