#------------------------------------------------------------------------------
#$Date: 2019-11-24 11:10:46 +0200 (Sun, 24 Nov 2019) $
#$Revision: 237757 $
#$URL: file:///home/coder/svn-repositories/cod/cif/7/23/75/7237539.cif $
#------------------------------------------------------------------------------
#
# This file is available in the Crystallography Open Database (COD),
# http://www.crystallography.net/
#
# All data on this site have been placed in the public domain by the
# contributors.
#
data_7237539
loop_
_publ_author_name
'Sato, Ryonosuke'
'Kawamoto, Tadashi'
'Mori, Takehiko'
_publ_section_title
;
 Asymmetrical hole/electron transport in donor--acceptor mixed-stack
 cocrystals
;
_journal_issue                   3
_journal_name_full               'Journal of Materials Chemistry C'
_journal_page_first              567
_journal_paper_doi               10.1039/C8TC05190A
_journal_volume                  7
_journal_year                    2019
_chemical_formula_moiety         'C16 H10 S4, C12 H4 N4'
_chemical_formula_sum            'C28 H14 N4 S4'
_chemical_formula_weight         534.69
_space_group_crystal_system      triclinic
_space_group_IT_number           2
_space_group_name_Hall           '-P 1'
_space_group_name_H-M_alt        'P -1'
_atom_sites_solution_hydrogens   geom
_atom_sites_solution_primary     direct
_atom_sites_solution_secondary   difmap
_audit_update_record
;
2018-08-15 deposited with the CCDC.
2018-12-11 downloaded from the CCDC.
;
_cell_angle_alpha                109.60(4)
_cell_angle_beta                 109.29(5)
_cell_angle_gamma                98.00(4)
_cell_formula_units_Z            1
_cell_length_a                   7.861(4)
_cell_length_b                   8.890(3)
_cell_length_c                   10.291(8)
_cell_measurement_reflns_used    34
_cell_measurement_temperature    297
_cell_measurement_theta_max      12.49
_cell_measurement_theta_min      11.04
_cell_volume                     613.7(7)
_computing_cell_refinement       WinAFC
_computing_data_collection       WinAFC
_computing_data_reduction        WinAFC
_computing_molecular_graphics    'CrystalStructure 4.3'
_computing_publication_material  'CrystalStructure 4.3 (Rigaku, 2018)'
_computing_structure_refinement  'SHELXL Version 2018/1 (Sheldrick, 2008)'
_computing_structure_solution    'SHELXT Version 2014/5 (Sheldrick, 2014)'
_diffrn_ambient_temperature      297
_diffrn_measured_fraction_theta_full 1.000
_diffrn_measured_fraction_theta_max 1.000
_diffrn_measurement_device_type  'Rigaku AFC7R'
_diffrn_measurement_method       \w-2\q
_diffrn_radiation_type           'Mo K\a'
_diffrn_radiation_wavelength     0.71069
_diffrn_reflns_av_R_equivalents  0.0684
_diffrn_reflns_av_unetI/netI     0.1356
_diffrn_reflns_Laue_measured_fraction_full 1.000
_diffrn_reflns_Laue_measured_fraction_max 1.000
_diffrn_reflns_limit_h_max       10
_diffrn_reflns_limit_h_min       -11
_diffrn_reflns_limit_k_max       11
_diffrn_reflns_limit_k_min       -12
_diffrn_reflns_limit_l_max       14
_diffrn_reflns_limit_l_min       -7
_diffrn_reflns_number            4191
_diffrn_reflns_point_group_measured_fraction_full 1.000
_diffrn_reflns_point_group_measured_fraction_max 1.000
_diffrn_reflns_theta_full        25.240
_diffrn_reflns_theta_max         30.000
_diffrn_reflns_theta_min         2.534
_diffrn_standards_decay_%        0.855
_diffrn_standards_interval_count 150
_diffrn_standards_number         3
_exptl_absorpt_coefficient_mu    0.413
_exptl_absorpt_correction_T_max  0.973
_exptl_absorpt_correction_T_min  0.894
_exptl_absorpt_correction_type   psi-scan
_exptl_absorpt_process_details   '(North, Phillips & Mathews, 1968)'
_exptl_crystal_colour            black
_exptl_crystal_density_diffrn    1.447
_exptl_crystal_density_method    'not measured'
_exptl_crystal_description       needle
_exptl_crystal_F_000             274.00
_exptl_crystal_size_max          0.794
_exptl_crystal_size_mid          0.072
_exptl_crystal_size_min          0.066
_refine_diff_density_max         0.89
_refine_diff_density_min         -0.36
_refine_ls_extinction_method     none
_refine_ls_goodness_of_fit_ref   0.999
_refine_ls_hydrogen_treatment    constr
_refine_ls_number_parameters     163
_refine_ls_number_reflns         3571
_refine_ls_number_restraints     0
_refine_ls_R_factor_all          0.1761
_refine_ls_R_factor_gt           0.0624
_refine_ls_shift/su_max          0.000
_refine_ls_structure_factor_coef Fsqd
_refine_ls_weighting_details
'w = 1/[\s^2^(Fo^2^)+(0.0821P)^2^+0.0943P] where P=(Fo^2^+2Fc^2^)/3'
_refine_ls_weighting_scheme      calc
_refine_ls_wR_factor_gt          0.1530
_refine_ls_wR_factor_ref         0.1952
_reflns_Friedel_coverage         0.000
_reflns_number_gt                1650
_reflns_number_total             3571
_reflns_threshold_expression     F^2^>2.0\s(F^2^)
_cod_data_source_file            c8tc05190a2.cif
_cod_data_source_block           (4T)(TCNQ)
_cod_database_code               7237539
_shelx_res_file
;
TITL Cytidine (Rigaku Master for Mo)
    shelxl.res
    created by SHELXL-2018/1 at 19:09:44 on 10-Aug-2018
CELL  0.71069 7.86140 8.88970 10.29050 109.59610 109.29130 98.00470
ZERR  1 0.00410 0.00340 0.00780 0.04420 0.04620 0.03800
LATT 1
SFAC C H N S
UNIT 28 14 4 4
L.S. 50
FMAP 2
PLAN 25
WPDB -2
HTAB
BOND $H
CONF
LIST 4
TEMP 24.0
ACTA
SIZE 0.794 0.072 0.066
WGHT    0.082100    0.094300
FVAR       0.60791
S1    4   -0.030212    0.224332    0.711397    11.00000    0.04811    0.07453 =
         0.05512    0.02550    0.03062    0.00214
S2    4    0.420655    0.296109    0.560929    11.00000    0.04753    0.04472 =
         0.04540    0.02129    0.02964    0.00815
N1    3    0.407837    0.044541    0.133355    11.00000    0.06994    0.05340 =
         0.08548    0.04582    0.04931    0.03207
N2    3    0.028543    0.345146    0.156292    11.00000    0.05857    0.06774 =
         0.08003    0.04364    0.04981    0.03092
C1    1    0.368947    0.156807    0.115596    11.00000    0.04160    0.04223 =
         0.04816    0.02614    0.02925    0.01347
C2    1    0.155601    0.325474    0.129561    11.00000    0.04295    0.04143 =
         0.04405    0.02437    0.02540    0.01260
C3    1    0.313861    0.297754    0.096654    11.00000    0.03323    0.03132 =
         0.03590    0.01857    0.01925    0.01124
C4    1    0.406723    0.397585    0.048352    11.00000    0.03264    0.02479 =
         0.02850    0.01283    0.01592    0.00632
C5    1    0.563802    0.363907    0.014131    11.00000    0.03446    0.02733 =
         0.03789    0.01808    0.01987    0.01528
AFIX  43
H5    2    0.604542    0.273537    0.024316    11.00000   -1.20000
AFIX   0
C6    1    0.347260    0.538182    0.032556    11.00000    0.03085    0.03276 =
         0.03616    0.01783    0.01978    0.01255
AFIX  43
H6    2    0.246069    0.561964    0.054833    11.00000   -1.20000
AFIX   0
C7    1   -0.030095    0.054309    0.752568    11.00000    0.07167    0.06703 =
         0.04814    0.02033    0.02842   -0.02234
AFIX  43
H7    2   -0.117264    0.012282    0.783632    11.00000   -1.20000
AFIX   0
C8    1    0.105342   -0.012224    0.736250    11.00000    0.08228    0.04034 =
         0.05067    0.01898    0.02482   -0.00316
AFIX  43
H8    2    0.123973   -0.105326    0.754887    11.00000   -1.20000
AFIX   0
C9    1    0.218094    0.072648    0.687778    11.00000    0.04490    0.04227 =
         0.03636    0.01531    0.01779    0.00853
AFIX  43
H9    2    0.318912    0.041323    0.669642    11.00000   -1.20000
AFIX   0
C10   1    0.163738    0.206562    0.670043    11.00000    0.03157    0.04740 =
         0.02661    0.01535    0.01334   -0.00497
C11   1    0.243104    0.326224    0.621927    11.00000    0.03377    0.05365 =
         0.02781    0.01513    0.01272   -0.00215
C12   1    0.198599    0.467500    0.616539    11.00000    0.04029    0.05658 =
         0.03942    0.02541    0.01786    0.01225
AFIX  43
H12   2    0.106630    0.505007    0.645421    11.00000   -1.20000
AFIX   0
C13   1    0.305991    0.550388    0.562890    11.00000    0.04100    0.05564 =
         0.03825    0.02958    0.01801    0.01246
AFIX  43
H13   2    0.291169    0.647956    0.551767    11.00000   -1.20000
AFIX   0
C14   1    0.433546    0.474847    0.528743    11.00000    0.03427    0.04333 =
         0.02768    0.02034    0.01286    0.00590
HKLF 4




REM  Cytidine (Rigaku Master for Mo)
REM R1 =  0.0624 for    1650 Fo > 4sig(Fo)  and  0.1761 for all    3571 data
REM    163 parameters refined using      0 restraints

END

WGHT      0.0821      0.0943

REM Instructions for potential hydrogen bonds
EQIV $3 -x, -y+1, -z+1
HTAB C12 N2_$3

REM Highest difference peak  0.886,  deepest hole -0.362,  1-sigma level  0.081
Q1    1   0.2650  0.4337  0.5666  11.00000  0.05    0.89
Q2    1   0.1647  0.0123  0.7049  11.00000  0.05    0.60
Q3    1   0.3508  0.2346  0.1251  11.00000  0.05    0.38
Q4    1   0.2826  0.0641  0.6967  11.00000  0.05    0.37
Q5    1   0.3194  0.4200  0.0055  11.00000  0.05    0.36
Q6    1   0.1160  0.3170  0.1812  11.00000  0.05    0.35
Q7    1   0.2033  0.2358  0.6545  11.00000  0.05    0.32
Q8    1   0.4052  0.4831  0.0529  11.00000  0.05    0.32
Q9    1   0.1623  0.0885  0.6361  11.00000  0.05    0.30
Q10   1   0.2214  0.1451  0.7249  11.00000  0.05    0.29
Q11   1   0.3481  0.3222  0.0601  11.00000  0.05    0.29
Q12   1   0.3448  0.0375  0.1078  11.00000  0.05    0.29
Q13   1   0.3984  0.6119  0.0485  11.00000  0.05    0.27
Q14   1   0.1774  0.3267  0.5798  11.00000  0.05    0.27
Q15   1   0.4057  0.1675  0.5563  11.00000  0.05    0.27
Q16   1   0.4454  0.4436  0.5035  11.00000  0.05    0.26
Q17   1   0.2731  0.4186  0.6639  11.00000  0.05    0.26
Q18   1   0.6956  0.2758  0.6763  11.00000  0.05    0.25
Q19   1  -0.0739  0.0807  0.7249  11.00000  0.05    0.25
Q20   1   0.2776  0.1768  0.0468  11.00000  0.05    0.25
Q21   1  -0.0710  0.1281  0.7330  11.00000  0.05    0.24
Q22   1   0.5912  0.2083  0.5796  11.00000  0.05    0.24
Q23   1   0.0000  0.3019  0.0773  11.00000  0.05    0.24
Q24   1  -0.0208  0.0006  0.6790  11.00000  0.05    0.24
Q25   1  -0.0418  0.3637  0.7396  11.00000  0.05    0.24
;
_shelx_res_checksum              1392
_shelx_hkl_file
;
   0   0   2   17.29    1.42
   0   0   3   84.77    3.17
   0   0  -3  109.45    3.95
   0   0   4    1.30    1.32
   0   0  -4   -1.13    3.17
   0   0   5   75.51    3.59
   0   0  -5   95.24    4.69
   0   0   6   20.04    1.72
   0   0  -6   22.13    2.66
   0   0   7  175.97    5.86
   0   0   8    2.46    3.61
   0   0   9    4.44    3.77
   0   0  10    1.57    4.25
   0   0  11   -6.66    4.33
   0   0  12    5.59    2.82
   0  -1  12   -0.83    4.81
   0  -1  11    0.02    3.99
   0  -1  10    5.31    3.81
   0  -1   9   15.61    2.29
   0  -1   8    1.22    2.25
   0  -1   7   21.60    1.90
   0   1  -6   35.10    3.21
   0  -1   6   31.32    2.21
   0   1  -5  733.88    8.71
   0  -1   5  612.80    7.64
   0   1  -4   -0.03    3.31
   0  -1   4    1.07    1.36
   0   1  -3  200.47    4.32
   0  -1   3  176.68    3.67
   0  -1   2   71.26    2.29
   0  -1   1  143.06    1.97
   0   1   0  330.95    2.72
   0  -1   0  378.24    2.89
   0   1   1  421.78    4.01
   0   1   2 7296.73   18.93
   0  -1  -2 8887.22   20.94
   0   1   3   70.96    3.14
   0  -1  -3   83.19    3.93
   0   1   4    5.16    1.50
   0  -1  -4    6.70    1.94
   0   1   5    6.59    1.51
   0  -1  -5    3.82    4.12
   0   1   6   39.15    2.58
   0   1   7   21.67    2.19
   0   1   8    8.54    2.11
   0   1   9    2.96    2.33
   0   1  10    0.69    4.05
   0   1  11    5.21    4.54
   0  -2  13    2.98    4.68
   0  -2  12   -1.06    4.75
   0  -2  11    2.74    2.36
   0  -2  10   15.92    2.31
   0  -2   9    5.49    2.02
   0  -2   8   11.19    1.73
   0   2  -7  193.49    6.75
   0  -2   7  168.35    5.38
   0   2  -6    8.92    2.28
   0  -2   6    9.59    1.54
   0   2  -5   93.04    4.41
   0  -2   5   83.61    3.56
   0   2  -4   25.89    2.50
   0  -2   4   29.34    2.67
   0   2  -3   87.64    3.76
   0  -2   3   84.81    3.08
   0   2  -2   36.99    2.74
   0  -2   2   37.56    2.36
   0  -2   1   72.23    2.44
   0   2   0   39.33    2.40
   0  -2   0   38.41    2.55
   0   2   1  258.99    4.24
   0  -2  -1  280.62    4.64
   0   2   2   93.32    3.36
   0  -2  -2  107.22    4.07
   0   2   3   84.06    3.66
   0  -2  -3  101.31    4.23
   0   2   4  251.12    5.75
   0  -2  -4  295.81    6.56
   0   2   5   16.81    1.79
   0  -2  -5   18.81    2.60
   0   2   6    1.73    3.07
   0   2   7    3.43    3.55
   0   2   8   21.17    2.56
   0   2   9    8.69    2.48
   0   2  10    5.94    4.25
   0   2  11    1.43    4.64
   0  -3  13    8.14    2.89
   0  -3  12    8.42    2.79
   0  -3  11   -0.93    3.83
   0  -3  10    5.39    2.11
   0  -3   9   -2.93    3.14
   0  -3   8   42.92    2.76
   0   3  -7  129.04    6.06
   0  -3   7  109.05    4.85
   0   3  -6  213.03    6.33
   0  -3   6  197.95    5.31
   0   3  -5  148.88    5.06
   0  -3   5  140.37    4.28
   0   3  -4   74.78    4.02
   0  -3   4   72.95    3.39
   0   3  -3   42.25    3.36
   0  -3   3   40.23    2.80
   0   3  -2   26.92    2.15
   0  -3   2   32.89    2.55
   0   3  -1  429.86    5.53
   0  -3   1  499.68    5.78
   0   3   0  304.12    4.95
   0  -3   0  361.43    5.33
   0   3   1   14.80    1.46
   0  -3  -1   10.17    1.69
   0   3   2   53.22    3.25
   0  -3  -2   52.29    3.72
   0   3   3   83.94    3.81
   0  -3  -3   91.29    4.51
   0   3   4    3.63    2.62
   0  -3  -4    3.04    3.91
   0   3   5   -5.67    3.19
   0   3   6    3.95    3.13
   0   3   7   -1.70    3.63
   0   3   8    7.03    2.27
   0   3   9    3.71    4.50
   0   3  10    5.31    2.60
   0  -4  13    4.01    4.73
   0  -4  12    0.77    4.82
   0  -4  11   46.84    3.94
   0  -4  10    7.16    2.23
   0  -4   9    5.31    2.08
   0  -4   8   -1.64    2.95
   0  -4   7   16.18    1.79
   0   4  -6   53.25    4.57
   0  -4   6   47.00    3.56
   0   4  -5  355.47    7.02
   0  -4   5  353.72    6.38
   0   4  -4  357.79    6.40
   0  -4   4  367.60    6.14
   0   4  -3   -0.87    3.02
   0  -4   3   -2.21    2.57
   0   4  -2  104.02    3.94
   0  -4   2  117.80    3.85
   0   4  -1  110.35    3.91
   0  -4   1  145.32    4.19
   0   4   0  150.77    4.40
   0  -4   0  189.98    4.86
   0   4   1  274.89    5.72
   0  -4  -1  284.04    5.96
   0   4   2  233.43    5.64
   0  -4  -2  237.81    6.07
   0   4   3   24.11    2.07
   0  -4  -3   32.96    3.11
   0   4   4   16.47    2.01
   0   4   5    4.08    1.99
   0   4   6   -3.71    4.07
   0   4   7    8.28    2.40
   0   4   8    0.75    4.51
   0   4   9   -2.17    4.48
   0   4  10   -3.66    5.15
   0  -5  13    6.68    2.76
   0  -5  12    3.06    4.00
   0  -5  11   38.88    3.60
   0  -5  10    0.82    3.57
   0  -5   9   69.69    4.91
   0  -5   8    1.38    2.46
   0  -5   7   24.96    2.13
   0   5  -6   69.02    5.25
   0  -5   6   77.55    3.97
   0   5  -5   59.07    4.58
   0  -5   5   63.84    3.77
   0   5  -4   -5.91    3.49
   0  -5   4   -0.80    2.64
   0   5  -3  152.75    5.04
   0  -5   3  174.25    4.74
   0   5  -2  165.92    4.96
   0  -5   2  200.48    5.18
   0   5  -1    6.74    1.76
   0  -5   1   14.49    1.70
   0   5   0   25.22    2.41
   0  -5   0   35.86    2.67
   0   5   1  276.27    6.49
   0  -5  -1  299.00    6.91
   0   5   2   63.56    4.35
   0   5   3   36.30    2.87
   0   5   4   53.94    4.50
   0   5   5   -2.25    3.56
   0   5   6   -1.07    4.09
   0   5   7    3.08    2.38
   0   5   8    5.39    4.21
   0   5   9   -7.26    5.12
   0  -6  13   -6.63    5.00
   0  -6  12   -1.05    3.98
   0  -6  11    0.48    3.91
   0  -6  10   -0.24    3.91
   0  -6   9   61.06    4.89
   0  -6   8   81.21    5.28
   0  -6   7   30.32    2.75
   0  -6   6   21.39    2.05
   0  -6   5   74.25    4.24
   0   6  -4  325.52    7.29
   0  -6   4  350.77    7.13
   0   6  -3   30.04    2.80
   0  -6   3   34.49    2.54
   0   6  -2    6.52    2.03
   0  -6   2    8.82    1.84
   0   6  -1   -6.80    3.53
   0  -6   1   -1.61    3.30
   0   6   0   18.81    2.04
   0  -6   0   22.76    2.19
   0   6   1    3.00    3.67
   0   6   2   11.63    2.04
   0   6   3  110.17    5.78
   0   6   4    4.20    2.36
   0   6   5    5.63    2.47
   0   6   6    3.90    4.23
   0   6   7   -2.45    4.80
   0   6   8   -4.23    5.24
   0  -7  13    3.86    5.15
   0  -7  12    3.20    4.57
   0  -7  11    2.44    3.95
   0  -7  10    4.99    4.14
   0  -7   9    8.84    2.19
   0  -7   8    8.59    2.14
   0  -7   7   24.56    2.26
   0  -7   6  377.89    8.64
   0  -7   5   17.60    2.12
   0  -7   4    1.29    3.45
   0  -7   3  108.05    5.15
   0  -7   2  236.70    6.78
   0  -7   1    2.72    3.55
   0   7   0   -3.48    3.66
   0  -7   0   -0.14    3.75
   0   7   1   10.27    2.32
   0   7   2    1.64    3.75
   0   7   3   -0.43    4.00
   0   7   4   -1.58    4.37
   0   7   5    2.71    5.09
   0   7   6    4.68    4.30
   0   7   7   -8.52    5.22
   0  -8  13    4.28    4.83
   0  -8  12    2.96    2.66
   0  -8  11   34.39    2.97
   0  -8  10   -2.31    4.32
   0  -8   9   11.59    2.51
   0  -8   8   13.43    2.36
   0  -8   7   15.21    2.32
   0  -8   6   16.58    2.23
   0  -8   5   -7.70    3.85
   0  -8   4  259.18    7.65
   0  -8   3    3.56    2.71
   0  -8   2    0.86    3.72
   0  -8   1   59.80    5.22
   0   8   0   19.99    2.68
   0  -8   0   23.40    2.79
   0   8   1    0.61    3.91
   0   8   2    2.36    4.31
   0   8   3    2.59    4.02
   0   8   4    5.33    2.71
   0   8   5   -4.77    4.65
   0  -9  12    3.66    2.76
   0  -9  11    5.39    4.70
   0  -9  10   22.02    2.86
   0  -9   9   11.40    2.66
   0  -9   8    1.34    4.45
   0  -9   7   10.71    2.39
   0  -9   6    0.40    4.03
   0  -9   5    0.26    2.74
   0  -9   4    7.49    2.41
   0  -9   3    9.05    2.57
   0  -9   2   38.69    3.69
   0  -9   1   -1.66    4.45
   0   9   0    3.12    4.14
   0  -9   0   -2.86    4.79
   0   9   1    4.01    4.28
   0   9   2    1.03    4.23
   0   9   3   -7.03    5.06
   0   9   4    3.55    2.76
   0 -10  11   -1.18    4.83
   0 -10  10   -9.48    4.90
   0 -10   9    3.60    4.97
   0 -10   8   25.39    2.94
   0 -10   7    3.54    4.06
   0 -10   6   16.65    2.81
   0 -10   5    1.57    4.01
   0 -10   4    3.15    4.69
   0 -10   3   -4.31    4.80
   0 -10   2    7.31    2.59
   0 -10   1    6.86    4.63
   0  10   0    3.60    4.56
   0 -10   0    2.57    4.91
   0  10   1    1.40    4.98
   0  10   2   -6.98    5.27
   0 -11  10    3.28    4.91
   0 -11   9   -2.23    4.63
   0 -11   8   -3.77    4.89
   0 -11   7    3.46    3.44
   0 -11   6   11.76    2.95
   0 -11   5    2.57    4.90
   0 -11   4   40.18    3.33
   0 -11   3    1.87    4.94
   0 -11   2    7.83    5.49
   0 -11   1   -0.90    5.47
   0  11   0    2.38    4.75
   0 -11   0   -6.46    5.70
   0 -12   8   -6.11    5.44
   0 -12   7    5.64    4.49
   0 -12   6   -9.64    5.31
   0 -12   5   -5.24    5.08
   0 -12   4    3.87    3.59
   0 -12   3    6.62    4.83
   1 -12   2    2.99    3.38
   1 -12   3    9.45    3.09
   1 -12   4   19.46    3.28
   1 -12   5   -0.31    5.06
   1 -12   6    1.44    5.04
   1 -12   7    4.46    4.94
   1 -12   8   -2.39    4.91
  -1  11   1    7.78    2.82
   1 -11   0    2.30    3.01
  -1  11   0    5.43    2.80
   1 -11   1    3.32    5.05
   1 -11   2   -0.24    5.29
   1 -11   3    4.63    4.83
   1 -11   4   19.86    3.04
   1 -11   5    7.76    2.76
   1 -11   6   39.17    3.43
   1 -11   7    5.59    5.01
   1 -11   8    9.16    2.80
   1 -11   9    6.02    4.46
   1 -11  10   -0.02    4.89
  -1  10   3   -5.02    5.25
  -1  10   2    7.50    5.07
  -1  10   1    2.79    3.50
   1 -10   0    4.19    3.54
  -1  10   0    4.44    4.46
   1 -10   1   14.28    2.88
   1 -10   2    2.49    4.24
   1 -10   3   -2.92    4.60
   1 -10   4    3.13    2.64
   1 -10   5   -2.70    4.30
   1 -10   6   13.95    2.65
   1 -10   7    2.59    4.42
   1 -10   8   29.47    3.00
   1 -10   9    6.75    2.67
   1 -10  10   11.48    2.87
   1 -10  11    4.77    4.86
  -1   9   5   -7.86    5.30
  -1   9   4    7.28    5.12
  -1   9   3    4.40    4.50
  -1   9   2    3.40    4.55
  -1   9   1    4.73    4.23
   1  -9   0    0.14    2.70
  -1   9   0   -3.84    4.34
   1  -9   1    4.07    4.09
   1  -9   2   -0.63    4.00
   1  -9   3   11.82    2.50
   1  -9   4    4.07    4.09
   1  -9   5   15.89    2.53
   1  -9   6   10.35    2.45
   1  -9   7    2.35    3.85
   1  -9   8   -2.25    3.98
   1  -9   9   -1.00    4.41
   1  -9  10    8.66    2.62
   1  -9  11   -2.53    4.81
   1  -9  12   13.06    2.89
  -1   8   6    2.97    4.59
  -1   8   5    0.25    4.56
  -1   8   4   -1.72    4.53
  -1   8   3   -0.90    4.14
  -1   8   2   18.03    2.53
  -1   8   1    2.70    3.79
   1  -8   0   23.84    2.84
  -1   8   0   23.90    2.46
   1  -8   1    2.42    3.92
   1  -8   2   -4.32    3.95
   1  -8   3   40.11    3.24
   1  -8   4    2.97    3.57
   1  -8   5    0.34    3.60
   1  -8   6   70.43    5.17
   1  -8   7   15.26    2.29
   1  -8   8    3.46    4.56
   1  -8   9    4.45    4.03
   1  -8  10    2.45    4.20
   1  -8  11   -1.30    4.24
   1  -8  12    2.60    4.61
  -1   7   7    4.88    4.96
  -1   7   6    6.04    2.73
  -1   7   5   14.03    2.68
  -1   7   4    0.00    4.11
  -1   7   3   -6.77    4.16
  -1   7   2    5.44    3.88
  -1   7   1   -4.24    3.61
   1  -7   0   17.80    2.36
  -1   7   0   13.48    2.21
   1  -7   1   14.55    2.21
   1  -7   2    4.96    3.70
   1  -7   3   -1.25    3.24
   1  -7   4  104.45    5.05
   1  -7   5  106.70    5.14
   1  -7   6    4.01    3.28
   1  -7   7   -0.17    3.68
   1  -7   8  165.30    6.93
   1  -7   9   -4.36    4.04
   1  -7  10    2.70    4.19
   1  -7  11   -8.30    4.72
   1  -7  12   -0.57    4.57
  -1   6   8    3.14    4.45
  -1   6   7    5.87    4.09
  -1   6   6    1.56    4.28
  -1   6   5   16.83    2.51
  -1   6   4   -4.03    3.68
  -1   6   3   18.85    2.23
  -1   6   2    4.18    3.37
  -1   6   1  175.74    5.93
   1  -6   0   20.07    2.26
  -1   6   0   18.48    2.05
   1  -6   1    4.23    1.86
  -1   6  -1    1.00    3.33
   1  -6   2    4.04    1.77
  -1   6  -2   -0.14    3.41
   1  -6   3   11.24    1.86
  -1   6  -3    7.36    2.08
   1  -6   4    5.46    1.71
  -1   6  -4    2.96    3.77
   1  -6   5    7.21    1.78
   1  -6   6  257.85    6.77
   1  -6   7   63.85    4.65
   1  -6   8   10.57    2.25
   1  -6   9    2.66    2.19
   1  -6  10   80.57    5.95
   1  -6  11   23.55    2.75
   1  -6  12    2.62    3.20
   1  -6  13   -9.73    5.23
  -1   5   9    2.58    2.53
  -1   5   8    4.01    2.41
  -1   5   7    3.38    4.06
  -1   5   6    5.43    4.21
  -1   5   5    4.21    3.79
  -1   5   4    2.16    2.28
  -1   5   3    0.04    3.18
   1  -5  -2   55.77    4.44
  -1   5   2   53.19    3.83
   1  -5  -1   38.38    3.80
  -1   5   1   29.73    2.40
   1  -5   0   61.65    3.88
  -1   5   0   63.68    3.77
   1  -5   1  811.92    9.30
  -1   5  -1  659.59    8.48
   1  -5   2   11.31    1.75
  -1   5  -2   14.09    1.81
   1  -5   3    3.54    2.80
  -1   5  -3    3.27    1.89
   1  -5   4   83.99    3.88
  -1   5  -4   88.11    4.54
   1  -5   5    7.14    1.74
  -1   5  -5    7.47    2.33
   1  -5   6    6.32    1.75
   1  -5   7   17.43    2.16
   1  -5   8   93.26    5.39
   1  -5   9   18.33    2.28
   1  -5  10    8.88    2.40
   1  -5  11   -0.68    4.80
   1  -5  12    5.38    2.72
   1  -5  13   16.85    3.04
  -1   4  10    0.27    4.33
  -1   4   9    1.79    4.15
  -1   4   8    3.86    3.98
  -1   4   7   -0.18    4.04
  -1   4   6   17.00    2.10
  -1   4   5   33.31    2.81
  -1   4   4   35.93    2.62
   1  -4  -3    4.14    3.91
  -1   4   3    5.86    1.59
   1  -4  -2   23.03    2.13
  -1   4   2   23.02    2.05
   1  -4  -1   56.26    3.66
  -1   4   1   48.54    3.35
   1  -4   0  446.62    6.63
  -1   4   0  417.30    6.32
   1  -4   1  306.37    5.44
  -1   4  -1  259.75    5.13
   1  -4   2  251.84    5.09
  -1   4  -2  223.21    5.08
   1  -4   3  534.46    7.10
  -1   4  -3  490.56    7.04
   1  -4   4   16.11    1.62
  -1   4  -4   22.04    2.04
   1  -4   5    3.38    2.65
  -1   4  -5   -4.43    3.75
   1  -4   6  152.06    4.97
  -1   4  -6  157.08    6.11
   1  -4   7   72.78    4.38
   1  -4   8   -1.13    3.43
   1  -4   9   10.48    2.32
   1  -4  10    8.33    2.39
   1  -4  11    2.36    4.31
   1  -4  12  -10.33    4.72
   1  -4  13    9.14    3.00
  -1   3  11   15.53    2.70
  -1   3  10    3.73    4.96
  -1   3   9   12.63    2.49
  -1   3   8    0.80    3.64
  -1   3   7   16.76    2.22
  -1   3   6   26.36    2.22
  -1   3   5   18.19    1.92
   1  -3  -4  108.83    5.05
  -1   3   4   83.07    3.93
   1  -3  -3   41.01    3.95
  -1   3   3   41.37    2.78
   1  -3  -2   13.67    1.83
  -1   3   2    7.81    1.45
   1  -3  -1   50.78    3.35
  -1   3   1   45.03    2.93
   1  -3   0   61.02    3.15
  -1   3   0   57.31    3.02
   1  -3   1   83.65    3.20
  -1   3  -1   75.88    3.28
   1  -3   2  611.43    6.54
  -1   3  -2  605.01    6.63
   1  -3   3  609.61    6.94
  -1   3  -3  616.18    7.21
   1  -3   4   81.82    3.50
  -1   3  -4   89.43    4.11
   1  -3   5   14.53    1.57
  -1   3  -5   19.30    2.11
   1  -3   6   13.75    1.69
  -1   3  -6   18.78    2.41
   1  -3   7    9.27    1.85
   1  -3   8   93.09    5.00
   1  -3   9   38.08    3.31
   1  -3  10    0.00    4.21
   1  -3  11   -3.63    4.15
   1  -3  12   -0.53    4.30
  -1   2  11    3.87    3.85
  -1   2  10    2.45    4.20
  -1   2   9   30.24    2.79
  -1   2   8   -2.60    3.75
  -1   2   7    3.51    3.66
  -1   2   6   49.64    3.96
   1  -2  -5   36.37    2.69
  -1   2   5   30.97    2.29
   1  -2  -4   30.17    2.78
  -1   2   4   28.24    2.04
   1  -2  -3    9.72    1.94
  -1   2   3   10.26    1.45
   1  -2  -2   42.20    3.31
  -1   2   2   31.81    2.65
   1  -2  -1   58.77    3.18
  -1   2   1   52.56    2.66
   1  -2   0  126.31    3.15
  -1   2   0  133.15    3.09
   1  -2   1  224.47    3.66
  -1   2  -1  216.25    3.75
   1  -2   2    3.31    2.29
  -1   2  -2    4.32    1.57
   1  -2   3    3.47    1.37
  -1   2  -3    1.19    3.06
   1  -2   4  147.74    4.07
  -1   2  -4  168.49    4.82
   1  -2   5   68.17    3.59
  -1   2  -5   78.86    4.48
   1  -2   6    0.10    2.76
  -1   2  -6    2.08    4.08
   1  -2   7   14.03    1.87
   1  -2   8    2.77    3.13
   1  -2   9   26.60    2.53
   1  -2  10   13.98    2.46
   1  -2  11    1.47    4.16
   1  -2  12   -1.38    4.86
  -1   1  12   -4.68    4.75
  -1   1  11   13.03    2.72
  -1   1  10   22.31    2.85
  -1   1   9    4.68    3.92
  -1   1   8   -2.49    3.46
  -1   1   7   13.59    1.93
   1  -1  -6   45.74    3.46
  -1   1   6   33.59    2.38
   1  -1  -5   29.44    2.85
  -1   1   5   24.59    2.04
   1  -1  -4  234.93    5.29
  -1   1   4  194.15    4.51
   1  -1  -3   21.64    1.94
  -1   1   3   16.18    1.43
   1  -1  -2    0.30    2.63
  -1   1   2   -1.47    2.09
  -1   1   1    5.75    0.94
   1  -1   0 2882.48    8.68
  -1   1   0 3093.02    8.99
   1  -1   1  542.51    4.51
   1  -1   2  334.50    4.42
  -1   1  -2  387.31    4.92
   1  -1   3   98.81    3.40
  -1   1  -3  119.20    4.05
   1  -1   4   12.94    1.45
  -1   1  -4   14.24    1.91
   1  -1   5    3.53    1.45
  -1   1  -5   -6.31    3.74
   1  -1   6    9.18    1.72
  -1   1  -6   10.67    2.57
   1  -1   7   26.27    2.59
   1  -1   8   12.37    2.19
   1  -1   9    5.80    4.26
   1  -1  10    2.25    3.91
   1  -1  11    3.88    4.17
   1  -1  12    4.44    4.65
  -1   0  12   -9.04    4.78
  -1   0  11   -0.22    4.38
  -1   0  10   12.79    2.42
  -1   0   9   35.29    3.00
  -1   0   8   32.56    2.77
  -1   0   7   11.68    1.77
   1   0  -6    0.29    4.07
  -1   0   6    3.35    2.54
   1   0  -5  247.26    5.79
  -1   0   5  211.20    4.85
   1   0  -4  268.09    5.29
  -1   0   4  218.35    4.46
   1   0  -3  189.76    4.24
  -1   0   3  157.20    3.50
  -1   0   2   49.10    2.16
  -1   0   1  226.37    2.50
   1   0   0   25.29    1.36
  -1   0   0   32.40    1.40
   1   0   1   24.67    2.04
   1   0   2 8382.02   20.68
  -1   0  -2 9999.00   22.61
   1   0   3  118.25    3.67
  -1   0  -3  150.83    4.34
   1   0   4   35.85    2.99
  -1   0  -4   45.70    3.82
   1   0   5   41.74    3.46
  -1   0  -5   48.12    4.44
   1   0   6   -1.56    2.93
   1   0   7    8.70    2.00
   1   0   8    4.55    2.06
   1   0   9   35.42    3.23
   1   0  10   -1.43    4.43
   1   0  11    3.04    4.25
  -1  -1  13   -0.28    4.85
  -1  -1  12   -0.75    4.36
  -1  -1  11   12.20    2.42
  -1  -1  10   -3.37    3.94
  -1  -1   9   -0.17    3.34
  -1  -1   8   56.69    4.39
   1   1  -7   -2.47    4.38
  -1  -1   7    0.74    2.62
   1   1  -6   26.46    2.35
  -1  -1   6   22.22    2.00
   1   1  -5   34.03    2.67
  -1  -1   5   33.44    2.86
   1   1  -4   10.05    1.91
  -1  -1   4   12.99    1.36
   1   1  -3 2474.29   11.22
  -1  -1   3 2433.72   11.00
  -1  -1   2   43.23    2.14
  -1  -1   1  434.67    3.88
   1   1   0   41.95    2.14
  -1  -1   0   51.00    2.25
   1   1   1   67.80    2.78
  -1  -1  -1   73.87    3.00
   1   1   2  109.27    3.49
  -1  -1  -2  125.90    4.06
   1   1   3  120.65    3.97
  -1  -1  -3  137.25    4.48
   1   1   4 2609.10   16.44
  -1  -1  -4 3289.64   18.56
   1   1   5    2.00    1.68
  -1  -1  -5   -1.42    4.19
   1   1   6    4.32    2.94
   1   1   7    8.77    2.05
   1   1   8    4.49    3.88
   1   1   9    4.17    2.86
   1   1  10   -0.53    4.14
   1   1  11   -2.38    5.10
  -1  -2  13   -3.69    4.51
  -1  -2  12    3.56    4.46
  -1  -2  11    2.89    3.94
  -1  -2  10    5.38    3.84
  -1  -2   9   23.20    2.27
  -1  -2   8    6.47    1.77
   1   2  -7   -1.96    4.40
  -1  -2   7    2.31    2.72
   1   2  -6   12.30    2.26
  -1  -2   6   13.94    1.52
   1   2  -5  555.59    7.57
  -1  -2   5  551.28    7.10
   1   2  -4    4.84    3.26
  -1  -2   4    5.66    1.34
   1   2  -3   86.82    3.68
  -1  -2   3   90.47    3.00
   1   2  -2   31.67    2.95
  -1  -2   2   34.29    2.46
   1   2  -1 1383.12    8.27
  -1  -2   1 1574.11    8.70
   1   2   0   13.41    1.49
  -1  -2   0   18.58    1.82
   1   2   1  131.41    3.69
  -1  -2  -1  144.92    4.03
   1   2   2   50.54    3.15
  -1  -2  -2   60.91    3.58
   1   2   3   67.12    3.53
  -1  -2  -3   80.00    4.21
   1   2   4   36.45    3.57
  -1  -2  -4   46.63    4.31
   1   2   5   40.35    3.94
   1   2   6  282.31    7.64
   1   2   7   10.37    2.19
   1   2   8   -3.03    3.83
   1   2   9    0.49    4.19
   1   2  10    8.26    2.76
  -1  -3  13    0.00    4.30
  -1  -3  12    2.21    4.19
  -1  -3  11    8.62    2.55
  -1  -3  10   61.00    5.10
  -1  -3   9    0.97    3.08
  -1  -3   8   17.19    2.00
   1   3  -7   19.29    2.68
  -1  -3   7   16.12    1.74
   1   3  -6   70.53    4.76
  -1  -3   6   73.80    3.68
   1   3  -5  111.64    4.53
  -1  -3   5  103.01    3.84
   1   3  -4  178.89    4.98
  -1  -3   4  182.28    4.38
   1   3  -3  758.53    7.75
  -1  -3   3  824.02    7.71
   1   3  -2   15.02    1.74
  -1  -3   2   17.62    1.50
   1   3  -1   73.23    3.39
  -1  -3   1   77.36    3.35
   1   3   0   -0.60    2.54
  -1  -3   0    0.19    2.55
   1   3   1    2.04    2.69
  -1  -3  -1    2.62    2.86
   1   3   2    1.45    2.55
  -1  -3  -2    1.15    2.99
   1   3   3    1.85    2.69
  -1  -3  -3   -4.15    3.73
   1   3   4   37.98    2.59
   1   3   5   29.94    2.85
   1   3   6   -3.26    3.95
   1   3   7    5.51    2.29
   1   3   8   10.01    2.57
   1   3   9    6.42    4.56
   1   3  10    2.40    4.45
  -1  -4  14   -4.28    4.91
  -1  -4  13    4.68    4.97
  -1  -4  12    8.30    2.71
  -1  -4  11   -0.02    4.02
  -1  -4  10   27.01    2.41
  -1  -4   9  133.91    5.92
  -1  -4   8   97.57    4.85
   1   4  -7    4.76    4.54
  -1  -4   7    2.64    2.91
   1   4  -6   34.22    3.17
  -1  -4   6   29.37    2.19
   1   4  -5   -3.65    3.76
  -1  -4   5    2.82    2.49
   1   4  -4  168.31    5.15
  -1  -4   4  161.08    4.44
   1   4  -3  433.84    6.77
  -1  -4   3  436.01    6.53
   1   4  -2  374.54    6.22
  -1  -4   2  369.89    6.00
   1   4  -1  114.63    4.09
  -1  -4   1  114.03    3.98
   1   4   0   45.91    3.46
  -1  -4   0   55.72    3.56
   1   4   1   -0.84    2.00
  -1  -4  -1   -0.84    3.05
   1   4   2   26.45    2.41
  -1  -4  -2   28.33    2.29
   1   4   3   52.40    4.29
   1   4   4   25.91    2.26
   1   4   5    5.05    3.85
   1   4   6   19.29    2.49
   1   4   7    4.43    3.06
   1   4   8   -5.72    4.81
   1   4   9    3.27    4.76
  -1  -5  14   -0.29    4.78
  -1  -5  13    4.96    4.61
  -1  -5  12    0.73    4.22
  -1  -5  11   29.83    2.85
  -1  -5  10    1.16    3.79
  -1  -5   9   21.07    2.09
  -1  -5   8   57.21    4.10
  -1  -5   7  194.74    5.94
   1   5  -6    0.40    4.21
  -1  -5   6   -0.60    2.94
   1   5  -5   23.84    2.35
  -1  -5   5   21.71    2.16
   1   5  -4   -3.26    3.53
  -1  -5   4    1.05    2.41
   1   5  -3   60.25    4.11
  -1  -5   3   59.93    3.49
   1   5  -2   66.22    4.01
  -1  -5   2   69.73    3.77
   1   5  -1  255.12    6.01
  -1  -5   1  272.44    6.12
   1   5   0  155.83    5.23
  -1  -5   0  149.04    5.43
   1   5   1    1.33    3.17
   1   5   2   16.94    2.12
   1   5   3   49.08    4.60
   1   5   4   25.01    2.39
   1   5   5   17.74    2.44
   1   5   6   16.45    2.78
   1   5   7    2.06    4.82
   1   5   8    1.72    4.66
  -1  -6  13    3.06    5.09
  -1  -6  12   -1.79    4.41
  -1  -6  11    1.35    4.19
  -1  -6  10   -0.40    3.72
  -1  -6   9   19.43    2.37
  -1  -6   8    0.15    3.39
  -1  -6   7   41.65    4.06
  -1  -6   6   -0.37    3.38
  -1  -6   5   68.22    4.16
   1   6  -4   16.40    2.40
  -1  -6   4   20.06    1.85
   1   6  -3   60.56    4.51
  -1  -6   3   56.83    4.01
   1   6  -2  103.05    5.14
  -1  -6   2  110.42    4.78
  -1  -6   1   58.17    4.36
   1   6   0    0.14    3.50
  -1  -6   0   -6.28    3.73
   1   6   1   31.67    3.05
   1   6   2   20.35    2.39
   1   6   3    1.15    3.59
   1   6   4    7.47    2.45
   1   6   5   28.17    3.07
   1   6   6   -0.30    4.38
   1   6   7    4.33    4.90
  -1  -7  13   -3.40    4.74
  -1  -7  12   -2.09    4.33
  -1  -7  11    4.70    4.00
  -1  -7  10    1.71    3.82
  -1  -7   9    2.39    2.15
  -1  -7   8    3.61    3.36
  -1  -7   7    0.64    3.35
  -1  -7   6   17.21    2.03
  -1  -7   5   33.22    2.72
  -1  -7   4  211.86    6.39
  -1  -7   3   28.02    2.70
  -1  -7   2    3.21    3.66
  -1  -7   1   66.34    5.17
   1   7   0  117.95    6.03
  -1  -7   0  107.03    5.86
   1   7   1   10.79    2.28
   1   7   2   -1.98    4.18
   1   7   3   -3.92    4.37
   1   7   4    1.95    3.00
   1   7   5    3.20    4.71
   1   7   6    1.21    4.96
  -1  -8  13    8.99    2.76
  -1  -8  12    1.59    4.79
  -1  -8  11    7.29    2.44
  -1  -8  10    0.42    4.11
  -1  -8   9   65.04    5.58
  -1  -8   8   -3.94    3.85
  -1  -8   7   18.19    2.37
  -1  -8   6   16.28    2.06
  -1  -8   5   14.84    2.29
  -1  -8   4   15.96    2.32
  -1  -8   3    5.25    3.84
  -1  -8   2  250.41    7.96
  -1  -8   1   13.25    2.53
   1   8   0   -0.58    4.25
  -1  -8   0   -0.58    4.25
   1   8   1   40.77    3.79
   1   8   2   24.35    2.80
   1   8   3   -2.51    4.49
   1   8   4    0.00    4.93
   1   8   5   -2.73    5.09
  -1  -9  12    9.85    3.04
  -1  -9  11    4.80    4.33
  -1  -9  10   11.91    2.69
  -1  -9   9    4.92    4.33
  -1  -9   8   13.06    2.56
  -1  -9   7   68.46    5.66
  -1  -9   6   -1.87    3.65
  -1  -9   5   13.86    2.52
  -1  -9   4   -1.01    4.59
  -1  -9   3   -0.02    4.01
  -1  -9   2   -4.04    4.80
  -1  -9   1   -3.31    4.85
   1   9   0   60.94    4.31
  -1  -9   0   61.65    4.39
   1   9   1    5.22    4.49
   1   9   2   -0.55    4.59
   1   9   3    2.58    5.04
  -1 -10  12    4.14    3.12
  -1 -10  11   -2.87    4.74
  -1 -10  10    9.36    2.64
  -1 -10   9    0.24    4.38
  -1 -10   8    2.70    4.44
  -1 -10   7  -10.34    4.97
  -1 -10   6   26.74    2.85
  -1 -10   5   14.39    2.59
  -1 -10   4   -2.35    4.31
  -1 -10   3   -1.00    4.48
  -1 -10   2   -5.95    4.61
  -1 -10   1   -2.34    5.07
   1  10   0   -1.13    5.37
  -1 -10   0    0.77    5.13
   1  10   1    5.36    2.83
   1  10   2    7.16    2.95
  -1 -11  10    1.79    4.53
  -1 -11   9    3.43    3.21
  -1 -11   8    3.60    4.33
  -1 -11   7    3.76    4.40
  -1 -11   6   -4.53    4.85
  -1 -11   5   -5.32    4.73
  -1 -11   4    7.78    5.71
  -1 -11   3    3.32    4.81
  -1 -11   2   15.54    3.04
  -1 -11   1    6.22    5.24
  -1 -12   8    2.16    4.76
  -1 -12   7    6.61    5.17
  -1 -12   6   -4.23    5.55
  -1 -12   5    4.51    4.76
  -1 -12   4    2.77    5.11
   2 -12   1   -5.49    5.61
   2 -12   2   -3.57    5.31
   2 -12   3    0.26    4.71
   2 -12   4  -11.04    5.71
   2 -12   5    4.91    5.12
   2 -12   6    2.10    5.52
   2 -12   7    6.89    5.07
  -2  11   1   -3.27    5.60
   2 -11   0    4.99    6.16
  -2  11   0   -0.30    5.07
   2 -11   1   -2.71    5.16
   2 -11   2    3.18    4.79
   2 -11   3    1.80    4.76
   2 -11   4    6.40    4.70
   2 -11   5   -2.60    4.98
   2 -11   6   19.28    3.15
   2 -11   7    2.95    4.99
   2 -11   8   20.64    3.11
   2 -11   9    4.44    4.80
  -2  10   3   -8.93    5.17
  -2  10   2    3.23    4.39
  -2  10   1    5.62    4.62
   2 -10   0   -1.43    5.09
  -2  10   0    0.26    4.58
   2 -10   1   23.31    2.95
   2 -10   2    4.99    3.42
   2 -10   3   11.76    2.87
   2 -10   4    0.22    4.01
   2 -10   5    4.08    4.25
   2 -10   6    3.98    4.13
   2 -10   7   -4.84    4.75
   2 -10   8   22.73    2.89
   2 -10   9   -6.78    5.04
   2 -10  10   19.40    3.14
  -2   9   5    3.27    4.92
  -2   9   4    9.83    2.82
  -2   9   3    5.57    2.46
  -2   9   2    9.39    2.56
  -2   9   1    3.55    4.31
   2  -9   0    2.33    4.78
  -2   9   0    2.33    4.17
   2  -9   1   -1.39    4.41
   2  -9   2    2.91    4.41
   2  -9   3   19.02    2.52
   2  -9   4    2.73    3.95
   2  -9   5   18.24    2.49
   2  -9   6    6.09    4.08
   2  -9   7    4.65    4.25
   2  -9   8    1.40    4.57
   2  -9   9   -2.04    4.23
   2  -9  10    4.57    4.37
   2  -9  11    3.19    4.03
  -2   8   6   10.68    2.78
  -2   8   5    4.89    4.53
  -2   8   4   -1.44    4.65
  -2   8   3    9.19    2.58
  -2   8   2    4.85    3.93
  -2   8   1   -1.12    3.67
   2  -8   0   34.31    3.37
  -2   8   0   28.79    2.58
   2  -8   1   -0.34    3.95
   2  -8   2   31.97    3.11
   2  -8   3    0.38    3.94
   2  -8   4    5.14    3.70
   2  -8   5    6.66    2.21
   2  -8   6    3.70    3.76
   2  -8   7    6.13    2.36
   2  -8   8   -0.66    3.89
   2  -8   9    7.02    4.81
   2  -8  10   -3.54    4.39
   2  -8  11   -0.83    4.69
   2  -8  12    0.95    5.12
  -2   7   8    6.21    2.71
  -2   7   7   -0.81    4.50
  -2   7   6   -2.78    4.16
  -2   7   5   18.98    2.62
  -2   7   4   30.38    2.73
  -2   7   3   34.53    3.37
  -2   7   2    8.67    2.11
  -2   7   1    4.51    3.78
   2  -7   0    7.61    2.33
  -2   7   0    6.91    2.04
   2  -7   1    0.42    3.61
   2  -7   2   42.31    3.13
   2  -7   3    2.97    1.98
   2  -7   4   41.82    4.07
   2  -7   5    2.56    3.56
   2  -7   6   12.71    2.28
   2  -7   7   51.34    3.42
   2  -7   8   -2.78    3.81
   2  -7   9    3.00    2.76
   2  -7  10   32.84    2.96
   2  -7  11    2.14    4.47
   2  -7  12    3.86    5.32
  -2   6   9   12.34    3.20
  -2   6   8   -1.60    4.52
  -2   6   7   -1.96    4.43
  -2   6   6    1.79    4.24
  -2   6   5    0.95    3.70
  -2   6   4    3.85    3.64
  -2   6   3   56.98    4.36
  -2   6   2   21.05    2.16
  -2   6   1   38.28    2.80
   2  -6   0    4.39    3.41
  -2   6   0    3.14    1.79
   2  -6   1   34.90    2.69
  -2   6  -1   26.01    2.49
   2  -6   2   50.60    3.95
  -2   6  -2   35.29    2.69
   2  -6   3    1.98    2.92
  -2   6  -3    0.12    3.37
   2  -6   4    8.20    1.82
   2  -6   5    1.57    3.37
   2  -6   6    6.03    2.01
   2  -6   7    7.20    2.11
   2  -6   8   62.84    5.31
   2  -6   9   35.33    2.87
   2  -6  10   -2.11    4.39
   2  -6  11   -1.61    4.53
   2  -6  12   26.88    3.20
  -2   5  10   -4.52    4.97
  -2   5   9    0.31    4.83
  -2   5   8    3.18    4.22
  -2   5   7   11.39    2.47
  -2   5   6    0.77    3.64
  -2   5   5   10.57    1.96
  -2   5   4    1.22    3.25
  -2   5   3    3.30    1.72
   2  -5  -2   -4.80    3.78
  -2   5   2    4.69    1.63
   2  -5  -1   30.30    2.81
  -2   5   1   27.08    2.34
   2  -5   0   -0.18    3.27
  -2   5   0    1.47    2.77
   2  -5   1   27.77    2.43
  -2   5  -1   22.25    2.22
   2  -5   2   15.73    1.72
  -2   5  -2   10.52    1.78
   2  -5   3  456.50    7.50
  -2   5  -3  386.62    7.21
   2  -5   4   25.89    2.36
  -2   5  -4   24.21    2.26
   2  -5   5   -0.29    2.94
  -2   5  -5    3.26    2.65
   2  -5   6    8.36    1.94
   2  -5   7    0.02    3.26
   2  -5   8    5.09    3.45
   2  -5   9    5.31    4.04
   2  -5  10   41.22    3.65
   2  -5  11   11.35    2.65
   2  -5  12    5.20    4.90
  -2   4  10    3.88    3.25
  -2   4   9    4.69    4.45
  -2   4   8    4.33    3.97
  -2   4   7    1.73    2.01
  -2   4   6    3.50    1.88
  -2   4   5   -0.47    3.11
  -2   4   4    1.51    2.74
   2  -4  -3   79.36    4.71
  -2   4   3   54.69    3.44
   2  -4  -2  119.39    4.80
  -2   4   2   90.73    3.88
   2  -4  -1   38.29    2.60
  -2   4   1   31.76    2.93
   2  -4   0   39.86    3.32
  -2   4   0   35.55    3.04
   2  -4   1   22.63    2.06
  -2   4  -1   20.42    1.98
   2  -4   2  139.65    4.47
  -2   4  -2  125.20    4.29
   2  -4   3   76.91    3.79
  -2   4  -3   71.09    3.99
   2  -4   4   96.55    4.27
  -2   4  -4   95.73    4.67
   2  -4   5  404.23    7.61
  -2   4  -5  408.46    8.06
   2  -4   6   12.77    1.77
   2  -4   7   -2.81    3.34
   2  -4   8   33.17    2.42
   2  -4   9   10.04    2.34
   2  -4  10   -1.11    4.17
   2  -4  11    0.76    3.31
   2  -4  12    6.86    2.86
  -2   3  11    0.88    4.67
  -2   3  10    2.43    3.27
  -2   3   9   34.63    2.86
  -2   3   8   41.06    3.39
  -2   3   7   32.13    2.43
  -2   3   6    0.85    3.06
   2  -3  -5   36.11    2.85
  -2   3   5   28.71    2.33
   2  -3  -4   75.04    4.64
  -2   3   4   61.32    3.56
   2  -3  -3   54.89    4.09
  -2   3   3   35.94    3.23
   2  -3  -2  129.60    4.36
  -2   3   2  107.62    3.77
   2  -3  -1  182.44    4.53
  -2   3   1  159.79    4.10
   2  -3   0  158.34    4.25
  -2   3   0  143.54    3.91
   2  -3   1   12.85    1.56
  -2   3  -1    9.04    1.57
   2  -3   2   96.61    3.62
  -2   3  -2   92.40    3.62
   2  -3   3   78.44    3.55
  -2   3  -3   74.69    3.92
   2  -3   4  188.89    4.95
  -2   3  -4  183.94    5.34
   2  -3   5  183.41    5.29
  -2   3  -5  175.57    5.86
   2  -3   6   76.32    4.26
   2  -3   7   59.48    4.65
   2  -3   8    3.94    3.42
   2  -3   9    4.63    2.17
   2  -3  10   19.56    2.81
   2  -3  11   10.21    2.72
   2  -3  12   -2.06    4.80
  -2   2  12    2.23    3.21
  -2   2  11    0.29    4.90
  -2   2  10   24.78    2.76
  -2   2   9    9.57    2.32
  -2   2   8   -1.27    3.65
  -2   2   7  167.59    6.18
  -2   2   6   50.33    3.77
   2  -2  -5   47.42    3.22
  -2   2   5   34.66    3.22
   2  -2  -4   17.80    2.11
  -2   2   4   11.20    1.50
   2  -2  -3  161.78    4.70
  -2   2   3  123.28    3.75
   2  -2  -2  173.45    4.49
  -2   2   2  135.93    3.75
   2  -2  -1  138.80    3.86
  -2   2   1  105.52    3.22
   2  -2   0  539.48    5.89
  -2   2   0  463.79    5.37
   2  -2   1   13.70    1.53
  -2   2  -1   13.03    1.55
   2  -2   2   -2.34    2.56
  -2   2  -2    1.77    2.67
   2  -2   3    7.29    1.45
  -2   2  -3    4.70    1.72
   2  -2   4   21.96    2.04
  -2   2  -4   24.98    2.07
   2  -2   5   33.50    3.25
  -2   2  -5   24.68    2.45
   2  -2   6   63.51    4.20
   2  -2   7   61.24    4.54
   2  -2   8    4.92    3.44
   2  -2   9    4.42    4.03
   2  -2  10    3.56    4.00
   2  -2  11   -6.02    4.95
   2  -2  12    8.57    2.89
  -2   1  12    6.13    4.57
  -2   1  11   -0.74    4.37
  -2   1  10   -4.55    4.01
  -2   1   9   33.40    3.30
  -2   1   8   99.21    5.40
  -2   1   7   26.65    2.48
   2  -1  -6    8.72    2.55
  -2   1   6    4.23    1.69
   2  -1  -5  489.66    7.78
  -2   1   5  407.49    6.68
   2  -1  -4   23.41    2.01
  -2   1   4   17.73    1.52
   2  -1  -3    4.65    3.17
  -2   1   3    5.44    1.28
   2  -1  -2  318.73    4.90
  -2   1   2  246.77    4.16
   2  -1  -1    2.01    2.55
  -2   1   1    2.30    2.08
   2  -1   0   54.38    2.78
  -2   1   0   43.45    2.60
   2  -1   1   52.11    2.94
  -2   1  -1   51.22    2.93
   2  -1   2    8.00    1.44
  -2   1  -2    4.03    2.82
   2  -1   3  119.76    3.86
  -2   1  -3  135.37    4.27
   2  -1   4  113.32    4.08
  -2   1  -4  123.13    4.77
   2  -1   5   11.11    1.71
  -2   1  -5   17.54    2.33
   2  -1   6   11.13    1.87
   2  -1   7    1.95    3.37
   2  -1   8   -2.64    4.21
   2  -1   9   -6.53    4.15
   2  -1  10   -5.54    4.56
   2  -1  11    1.17    4.63
  -2   0  13    5.95    4.68
  -2   0  12    3.79    2.51
  -2   0  11   -0.44    2.93
  -2   0  10   -0.20    3.86
  -2   0   9   11.93    2.00
  -2   0   8    4.81    3.33
   2   0  -7  324.67    7.79
  -2   0   7  263.58    6.37
   2   0  -6  184.23    5.93
  -2   0   6  147.06    4.66
   2   0  -5   54.30    4.02
  -2   0   5   50.22    2.94
   2   0  -4   18.42    1.97
  -2   0   4   19.06    1.82
   2   0  -3  117.77    3.89
  -2   0   3   95.14    3.17
   2   0  -2  679.64    6.11
  -2   0   2  608.49    5.70
   2   0  -1    6.54    1.34
  -2   0   1    4.22    1.16
   2   0   0  197.04    3.78
  -2   0   0  209.68    3.73
   2   0   1   69.30    3.09
  -2   0  -1   62.32    3.05
   2   0   2   31.30    2.93
  -2   0  -2   29.01    2.28
   2   0   3   33.55    3.00
  -2   0  -3   36.07    3.46
   2   0   4  774.85    9.50
  -2   0  -4  851.81   10.16
   2   0   5   86.91    4.49
  -2   0  -5   97.31    5.38
   2   0   6   37.07    2.84
   2   0   7   12.76    2.21
   2   0   8    9.04    2.14
   2   0   9    0.02    3.90
   2   0  10   -2.09    4.91
   2   0  11   -5.66    5.10
  -2  -1  13    0.87    4.59
  -2  -1  12   28.53    2.79
  -2  -1  11   17.01    2.66
  -2  -1  10    6.72    2.18
  -2  -1   9   10.82    2.09
  -2  -1   8   -1.14    2.78
   2   1  -7   48.92    3.41
  -2  -1   7   38.37    3.44
   2   1  -6  128.81    5.15
  -2  -1   6  110.75    4.16
   2   1  -5  238.20    5.51
  -2  -1   5  218.83    4.90
   2   1  -4   80.49    4.02
  -2  -1   4   87.64    3.22
   2   1  -3   54.40    3.52
  -2  -1   3   43.09    2.77
   2   1  -2   10.85    1.68
  -2  -1   2    9.65    1.28
   2   1  -1  726.81    6.49
  -2  -1   1  721.15    6.33
   2   1   0  293.13    4.79
  -2  -1   0  307.33    4.81
   2   1   1   60.60    3.17
  -2  -1  -1   53.09    3.14
   2   1   2    7.34    1.53
  -2  -1  -2    6.33    1.68
   2   1   3   24.12    2.14
  -2  -1  -3   25.17    2.05
   2   1   4   35.39    3.48
  -2  -1  -4   40.45    3.20
   2   1   5   44.55    3.84
   2   1   6  541.41   10.35
   2   1   7    0.21    3.84
   2   1   8    5.71    2.23
   2   1   9    4.71    4.32
   2   1  10    1.37    4.52
  -2  -2  13    5.52    5.14
  -2  -2  12    5.76    2.34
  -2  -2  11   13.51    2.27
  -2  -2  10    7.12    2.03
  -2  -2   9   14.55    2.05
  -2  -2   8    8.52    1.71
   2   2  -7   48.85    3.42
  -2  -2   7   47.83    3.54
   2   2  -6   -0.46    3.58
  -2  -2   6    1.93    1.64
   2   2  -5   13.47    2.06
  -2  -2   5   13.96    1.45
   2   2  -4  132.46    4.47
  -2  -2   4  131.75    3.85
   2   2  -3  198.83    4.73
  -2  -2   3  197.14    4.19
   2   2  -2   22.90    1.83
  -2  -2   2   21.69    1.83
   2   2  -1   22.91    2.11
  -2  -2   1   22.25    1.92
   2   2   0   21.03    2.02
  -2  -2   0   22.40    2.03
   2   2   1  727.95    8.22
  -2  -2  -1  743.68    8.27
   2   2   2    1.94    2.66
  -2  -2  -2    3.20    1.76
   2   2   3   49.75    3.62
  -2  -2  -3   43.22    4.11
   2   2   4    2.00    3.14
   2   2   5   21.07    2.22
   2   2   6   21.32    2.31
   2   2   7   13.96    2.65
   2   2   8  119.32    6.92
   2   2   9   -2.44    5.12
   2   2  10    0.87    5.05
  -2  -3  14   -1.23    5.03
  -2  -3  13   14.50    2.87
  -2  -3  12   41.41    3.74
  -2  -3  11    2.11    3.73
  -2  -3  10   -0.57    3.44
  -2  -3   9    0.50    3.18
  -2  -3   8  106.69    4.81
   2   3  -7   16.25    2.55
  -2  -3   7    9.83    1.72
   2   3  -6    4.08    3.97
  -2  -3   6    9.21    1.49
   2   3  -5   32.05    2.78
  -2  -3   5   30.85    2.12
   2   3  -4   16.11    1.98
  -2  -3   4   13.05    1.50
   2   3  -3   42.31    3.35
  -2  -3   3   43.37    2.89
   2   3  -2   15.86    1.76
  -2  -3   2   16.02    1.53
   2   3  -1  628.27    7.65
  -2  -3   1  740.95    8.09
   2   3   0    2.03    2.80
  -2  -3   0    0.79    2.61
   2   3   1   17.90    1.83
  -2  -3  -1   24.30    2.31
   2   3   2   13.69    1.79
  -2  -3  -2   12.64    2.07
   2   3   3   67.79    4.39
   2   3   4    1.52    3.37
   2   3   5    2.62    3.67
   2   3   6   12.32    2.34
   2   3   7   14.20    2.46
   2   3   8    3.88    4.48
   2   3   9    3.46    5.11
  -2  -4  14    3.37    2.58
  -2  -4  13   24.33    2.80
  -2  -4  12    4.96    4.08
  -2  -4  11   58.17    5.20
  -2  -4  10   54.33    4.78
  -2  -4   9    1.79    3.25
  -2  -4   8   19.41    1.98
   2   4  -7  190.19    6.51
  -2  -4   7  191.12    5.84
   2   4  -6  362.59    7.56
  -2  -4   6  367.71    6.98
   2   4  -5    9.53    2.21
  -2  -4   5    9.20    1.57
   2   4  -4   35.59    2.67
  -2  -4   4   33.47    3.14
   2   4  -3    3.66    3.37
  -2  -4   3    7.85    1.51
   2   4  -2   60.26    3.91
  -2  -4   2   65.64    3.52
   2   4  -1  132.91    4.69
  -2  -4   1  162.54    4.74
   2   4   0  117.04    4.85
  -2  -4   0  139.57    4.84
   2   4   1  188.30    5.74
  -2  -4  -1  196.71    5.84
   2   4   2    3.12    2.45
   2   4   3   -1.58    3.59
   2   4   4   -6.23    3.81
   2   4   5   -0.58    3.94
   2   4   6   -0.25    4.32
   2   4   7    1.02    4.31
   2   4   8    6.29    4.29
  -2  -5  14    4.46    4.46
  -2  -5  13   17.92    2.77
  -2  -5  12   21.84    2.81
  -2  -5  11   34.32    2.88
  -2  -5  10   16.32    2.23
  -2  -5   9   98.08    5.30
  -2  -5   8   23.15    2.05
  -2  -5   7    2.80    2.91
   2   5  -6  116.25    5.80
  -2  -5   6  129.23    5.00
   2   5  -5  324.32    7.35
  -2  -5   5  364.74    7.16
   2   5  -4   85.54    5.03
  -2  -5   4   90.45    4.15
   2   5  -3    2.18    3.55
  -2  -5   3   -0.10    2.64
   2   5  -2    9.68    2.08
  -2  -5   2   14.91    1.86
   2   5  -1    8.05    2.04
  -2  -5   1   17.86    1.98
   2   5   0   46.44    3.85
  -2  -5   0   66.34    4.30
   2   5   1  102.53    5.21
   2   5   2   70.15    5.02
   2   5   3   22.82    2.42
   2   5   4    4.15    2.82
   2   5   5   -0.47    4.40
   2   5   6    2.30    2.56
   2   5   7   -4.48    5.01
  -2  -6  14    4.20    4.57
  -2  -6  13   -5.41    4.70
  -2  -6  12   -1.97    4.07
  -2  -6  11   57.15    3.98
  -2  -6  10   22.88    2.50
  -2  -6   9   12.07    2.25
  -2  -6   8    0.63    3.57
  -2  -6   7  100.14    4.94
  -2  -6   6    0.71    3.09
  -2  -6   5    3.14    3.00
  -2  -6   4   44.24    3.91
  -2  -6   3  161.99    5.72
  -2  -6   2   -1.94    3.37
  -2  -6   1   13.23    2.16
   2   6   0    4.80    4.07
  -2  -6   0   12.09    2.37
   2   6   1   28.80    2.52
   2   6   2    4.82    2.43
   2   6   3   23.18    2.77
   2   6   4   14.76    2.54
   2   6   5    2.31    4.72
   2   6   6    4.28    4.84
  -2  -7  13    8.41    2.60
  -2  -7  12    1.28    4.42
  -2  -7  11   -2.10    3.81
  -2  -7  10    4.06    3.85
  -2  -7   9   16.44    2.38
  -2  -7   8    4.39    3.20
  -2  -7   7    2.24    3.50
  -2  -7   6   -2.98    3.35
  -2  -7   5   12.64    2.02
  -2  -7   4   35.40    2.88
  -2  -7   3    8.60    2.10
  -2  -7   2   32.91    3.07
  -2  -7   1   36.15    3.29
   2   7   0    4.63    4.26
  -2  -7   0    7.25    2.44
   2   7   1   18.98    2.70
   2   7   2   23.33    2.98
   2   7   3    4.69    2.71
   2   7   4    3.18    3.14
   2   7   5    3.18    4.85
  -2  -8  13    2.31    4.67
  -2  -8  12   14.35    2.84
  -2  -8  11   16.64    2.60
  -2  -8  10    8.87    2.59
  -2  -8   9   10.89    2.29
  -2  -8   8   -5.48    3.84
  -2  -8   7   17.26    2.50
  -2  -8   6    5.35    2.12
  -2  -8   5   13.98    2.23
  -2  -8   4   12.59    2.25
  -2  -8   3    3.23    3.72
  -2  -8   2   28.35    2.71
  -2  -8   1    1.41    4.54
   2   8   0   76.39    6.04
  -2  -8   0   81.39    6.71
   2   8   1    3.98    4.65
   2   8   2   -3.01    4.83
   2   8   3   13.45    3.00
   2   8   4   -0.30    5.78
  -2  -9  12    2.31    4.51
  -2  -9  11    1.34    4.08
  -2  -9  10   34.89    2.95
  -2  -9   9    4.01    4.46
  -2  -9   8   20.45    2.63
  -2  -9   7    9.89    2.44
  -2  -9   6    6.65    2.23
  -2  -9   5   76.52    5.67
  -2  -9   4   -1.74    4.14
  -2  -9   3   13.38    2.76
  -2  -9   2    6.13    4.69
  -2  -9   1   -9.33    4.91
   2   9   0    9.28    2.87
  -2  -9   0    1.79    5.40
   2   9   1    5.64    4.83
   2   9   2   30.11    3.46
  -2 -10  12    2.47    4.58
  -2 -10  11    1.73    4.64
  -2 -10  10    3.58    4.61
  -2 -10   9    4.76    4.36
  -2 -10   8   21.81    2.83
  -2 -10   7    3.69    4.43
  -2 -10   6   11.40    2.51
  -2 -10   5    4.40    2.68
  -2 -10   4    3.93    5.17
  -2 -10   3   26.47    3.22
  -2 -10   2    3.72    4.99
  -2 -10   1   -1.90    5.33
   2  10   0    1.43    3.57
  -2 -10   0   -0.31    5.05
   2  10   1    4.92    4.42
  -2 -11  10   -0.32    4.94
  -2 -11   9    4.05    4.52
  -2 -11   8    0.61    4.87
  -2 -11   7    6.96    2.61
  -2 -11   6   -1.39    4.46
  -2 -11   5  -12.52    5.43
  -2 -11   4    3.99    4.55
  -2 -11   3    1.43    5.11
  -2 -11   2    7.17    5.69
   3 -12   1    7.56    3.37
   3 -12   2   -0.90    5.40
   3 -12   3   10.23    3.02
   3 -12   4    5.62    5.53
   3 -12   5    4.45    5.24
   3 -12   6   -4.52    4.90
  -3  11   2   -3.00    4.89
  -3  11   1    7.61    3.05
   3 -11   0    0.00    5.94
  -3  11   0    6.67    5.05
   3 -11   1   -5.41    5.10
   3 -11   2   16.62    3.08
   3 -11   3    4.91    3.55
   3 -11   4    7.27    2.70
   3 -11   5    0.02    4.97
   3 -11   6   -0.29    5.12
   3 -11   7   -1.14    4.90
   3 -11   8    6.97    3.01
   3 -11   9    2.16    5.03
  -3  10   4    2.69    4.94
  -3  10   3    0.89    4.68
  -3  10   2   -3.74    4.66
  -3  10   1    5.69    2.67
   3 -10   0    0.27    5.23
  -3  10   0    2.21    4.43
   3 -10   1    9.65    2.89
   3 -10   2    2.91    3.20
   3 -10   3   16.71    2.71
   3 -10   4    4.42    5.31
   3 -10   5   -2.36    4.87
   3 -10   6    6.10    4.58
   3 -10   7   -4.04    4.54
   3 -10   8   -1.61    4.90
   3 -10   9    2.87    4.59
   3 -10  10   12.77    3.12
  -3   9   5   -1.44    4.52
  -3   9   4    2.93    3.06
  -3   9   3    3.95    3.23
  -3   9   2   20.21    2.82
  -3   9   1    2.66    4.14
   3  -9   0    0.24    4.96
  -3   9   0    5.71    4.40
   3  -9   1   -2.27    4.62
   3  -9   2    3.84    4.04
   3  -9   3    3.64    4.15
   3  -9   4    3.26    4.17
   3  -9   5   24.27    2.83
   3  -9   6    0.92    4.35
   3  -9   7   -4.61    4.77
   3  -9   8    6.16    4.29
   3  -9   9    1.61    4.40
   3  -9  10   -0.84    4.66
  -3   8   7   -9.66    5.46
  -3   8   6    1.10    4.52
  -3   8   5   -5.30    4.54
  -3   8   4   18.44    2.76
  -3   8   3    5.52    2.48
  -3   8   2    5.66    4.23
  -3   8   1    8.76    2.31
   3  -8   0   33.24    2.87
  -3   8   0   23.97    2.50
   3  -8   1    2.25    2.94
   3  -8   2   20.05    2.52
   3  -8   3    3.09    2.11
   3  -8   4   -1.96    4.26
   3  -8   5    2.29    2.21
   3  -8   6   -7.12    3.99
   3  -8   7    3.69    2.29
   3  -8   8    0.72    4.08
   3  -8   9    0.96    4.40
   3  -8  10    4.04    4.49
   3  -8  11    5.65    4.98
  -3   7   8    1.20    4.99
  -3   7   7    3.75    4.28
  -3   7   6   18.32    2.75
  -3   7   5    7.79    2.45
  -3   7   4   -3.45    3.98
  -3   7   3   16.11    2.45
  -3   7   2   96.97    5.26
  -3   7   1   55.07    4.55
   3  -7   0   21.92    2.63
  -3   7   0   16.59    2.40
   3  -7   1   40.35    3.15
   3  -7   2    3.49    2.50
   3  -7   3    5.93    2.07
   3  -7   4   34.84    3.03
   3  -7   5    4.59    3.44
   3  -7   6   23.26    2.50
   3  -7   7    3.46    2.24
   3  -7   8   -3.05    4.13
   3  -7   9    4.49    4.55
   3  -7  10    2.52    3.36
   3  -7  11    0.86    4.08
  -3   6   9    2.38    4.84
  -3   6   8    2.93    4.04
  -3   6   7   78.24    6.29
  -3   6   6   -0.43    4.03
  -3   6   5   -1.16    4.08
  -3   6   4   63.60    4.61
  -3   6   3   -1.90    3.36
  -3   6   2   -1.65    3.29
  -3   6   1  128.81    5.35
   3  -6   0   82.13    5.10
  -3   6   0   90.30    4.93
   3  -6   1   85.38    4.85
   3  -6   2    6.11    2.01
   3  -6   3    2.95    3.71
   3  -6   4   26.14    2.60
   3  -6   5    4.72    1.95
   3  -6   6   12.41    2.22
   3  -6   7   -0.97    3.57
   3  -6   8    9.20    2.42
   3  -6   9   -4.63    4.52
   3  -6  10    7.23    2.77
   3  -6  11   -1.74    5.45
  -3   5  10   -0.57    4.56
  -3   5   9    3.73    2.43
  -3   5   8    4.96    4.17
  -3   5   7   22.38    2.48
  -3   5   6   14.18    2.21
  -3   5   5   93.31    5.47
  -3   5   4   -6.01    3.35
  -3   5   3    1.62    2.94
   3  -5  -2   30.62    2.53
  -3   5   2   30.09    2.43
   3  -5  -1    2.06    3.65
  -3   5   1    1.49    2.79
   3  -5   0    0.36    3.49
  -3   5   0    2.91    2.90
   3  -5   1  107.17    4.62
  -3   5  -1   89.75    4.29
   3  -5   2    5.75    1.86
  -3   5  -2    2.85    2.27
   3  -5   3   38.50    3.57
  -3   5  -3   39.71    3.74
   3  -5   4   -0.24    3.19
   3  -5   5   41.84    4.13
   3  -5   6   33.68    2.77
   3  -5   7    1.11    3.66
   3  -5   8    1.82    3.62
   3  -5   9    2.36    2.60
   3  -5  10    5.57    4.63
   3  -5  11   -8.73    5.23
  -3   4  11   -3.63    4.78
  -3   4  10    3.76    4.14
  -3   4   9    1.88    4.61
  -3   4   8   15.17    2.39
  -3   4   7   21.02    2.39
  -3   4   6    2.75    1.86
  -3   4   5   21.38    2.05
  -3   4   4    3.64    2.64
   3  -4  -3   24.69    2.48
  -3   4   3   19.55    1.79
   3  -4  -2    1.36    3.60
  -3   4   2    1.25    2.63
   3  -4  -1   28.05    2.53
  -3   4   1   25.34    2.10
   3  -4   0   36.22    3.42
  -3   4   0   35.84    3.23
   3  -4   1    1.34    2.76
  -3   4  -1    0.11    2.71
   3  -4   2   14.71    1.64
  -3   4  -2    9.30    1.75
   3  -4   3    0.09    2.89
  -3   4  -3    1.61    2.97
   3  -4   4   17.65    1.87
  -3   4  -4   10.93    2.21
   3  -4   5   20.71    2.01
   3  -4   6   18.22    2.08
   3  -4   7  110.24    5.53
   3  -4   8    7.17    2.47
   3  -4   9    0.45    3.97
   3  -4  10    0.29    4.28
   3  -4  11    1.09    4.83
  -3   3  11   -0.83    4.69
  -3   3  10    2.71    4.00
  -3   3   9    0.84    4.12
  -3   3   8    1.15    4.03
  -3   3   7   52.65    4.54
  -3   3   6  125.83    5.28
   3  -3  -5  154.16    6.19
  -3   3   5  130.79    4.95
   3  -3  -4   14.12    2.41
  -3   3   4   13.53    1.63
   3  -3  -3   13.74    2.11
  -3   3   3   12.28    1.56
   3  -3  -2   54.04    3.96
  -3   3   2   60.15    3.31
   3  -3  -1    8.22    1.73
  -3   3   1    3.47    2.53
   3  -3   0    3.97    2.95
  -3   3   0    2.70    2.65
   3  -3   1  134.22    4.36
  -3   3  -1  110.43    4.02
   3  -3   2  146.55    4.43
  -3   3  -2  132.39    4.47
   3  -3   3    7.98    1.69
  -3   3  -3    6.57    1.83
   3  -3   4   41.23    3.24
  -3   3  -4   34.03    2.87
   3  -3   5   12.72    1.91
   3  -3   6   37.72    2.84
   3  -3   7   36.80    3.08
   3  -3   8   13.72    2.55
   3  -3   9   36.48    3.43
   3  -3  10   -2.31    4.50
   3  -3  11   -2.02    4.67
  -3   2  12   11.18    2.89
  -3   2  11   15.95    2.99
  -3   2  10    3.54    2.35
  -3   2   9   -0.57    3.63
  -3   2   8   45.31    4.29
  -3   2   7   15.08    1.92
  -3   2   6   25.82    2.29
   3  -2  -5  366.05    7.49
  -3   2   5  328.04    6.69
   3  -2  -4  377.47    7.07
  -3   2   4  342.24    6.19
   3  -2  -3  216.22    5.38
  -3   2   3  202.18    4.85
   3  -2  -2   37.42    3.54
  -3   2   2   40.93    2.91
   3  -2  -1  229.23    4.93
  -3   2   1  266.75    4.94
   3  -2   0  197.57    4.63
  -3   2   0  217.19    4.63
   3  -2   1   35.46    3.12
  -3   2  -1   29.03    2.12
   3  -2   2  150.91    4.29
  -3   2  -2  122.80    4.29
   3  -2   3   73.00    3.74
  -3   2  -3   59.30    3.97
   3  -2   4   20.79    1.83
  -3   2  -4   21.41    2.16
   3  -2   5    1.19    3.15
   3  -2   6   16.47    2.13
   3  -2   7   10.70    2.26
   3  -2   8   10.23    2.51
   3  -2   9   18.67    2.69
   3  -2  10    3.72    4.81
   3  -2  11    5.06    4.92
  -3   1  13   -4.55    5.15
  -3   1  12    4.32    3.63
  -3   1  11    6.04    4.40
  -3   1  10   13.16    2.55
  -3   1   9   25.25    2.40
  -3   1   8    3.21    3.23
  -3   1   7   21.45    1.91
   3  -1  -6  343.35    7.65
  -3   1   6  323.38    6.76
   3  -1  -5   61.48    4.29
  -3   1   5   52.00    3.32
   3  -1  -4   34.99    2.65
  -3   1   4   32.89    2.76
   3  -1  -3 1329.15   10.38
  -3   1   3 1243.02    9.79
   3  -1  -2   87.41    3.85
  -3   1   2   89.94    3.33
   3  -1  -1   13.86    1.77
  -3   1   1   21.90    1.79
   3  -1   0    1.48    1.60
  -3   1   0    0.52    2.59
   3  -1   1  113.51    3.83
  -3   1  -1   94.99    3.64
   3  -1   2   77.59    3.58
  -3   1  -2   61.80    3.66
   3  -1   3   17.43    1.72
  -3   1  -3   16.55    1.94
   3  -1   4   31.79    2.53
  -3   1  -4   31.50    2.83
   3  -1   5    2.77    1.78
   3  -1   6   12.72    2.06
   3  -1   7    2.02    3.89
   3  -1   8    7.21    2.38
   3  -1   9    5.38    2.44
   3  -1  10    0.02    4.67
  -3   0  13    2.88    4.74
  -3   0  12   25.28    2.70
  -3   0  11   28.38    2.79
  -3   0  10    5.19    2.10
  -3   0   9    7.77    2.01
  -3   0   8   16.62    2.02
  -3   0   7    2.15    2.81
   3   0  -6    5.61    4.03
  -3   0   6    8.64    1.57
   3   0  -5  599.09    8.20
  -3   0   5  546.01    7.45
   3   0  -4  523.93    7.19
  -3   0   4  500.05    6.77
   3   0  -3   74.10    3.82
  -3   0   3   77.07    3.26
   3   0  -2   35.79    3.43
  -3   0   2   44.43    2.79
   3   0  -1  729.43    7.42
  -3   0   1  918.09    8.03
   3   0   0  177.37    4.46
  -3   0   0  198.97    4.50
   3   0   1   15.33    1.64
  -3   0  -1   11.83    1.56
   3   0   2   35.34    3.33
  -3   0  -2   33.94    3.37
   3   0   3    4.57    1.66
  -3   0  -3    3.46    3.41
   3   0   4   26.50    2.53
   3   0   5   12.88    2.00
   3   0   6   46.30    3.08
   3   0   7   16.48    2.49
   3   0   8    8.23    2.59
   3   0   9   -6.47    4.72
   3   0  10    6.37    4.54
  -3  -1  13   41.57    3.31
  -3  -1  12    2.71    4.34
  -3  -1  11   -3.92    3.90
  -3  -1  10  174.28    6.84
  -3  -1   9   73.92    4.80
  -3  -1   8    4.57    3.08
   3   1  -7    2.21    3.04
  -3  -1   7    3.24    1.54
   3   1  -6   17.70    2.31
  -3  -1   6   17.35    1.59
   3   1  -5  137.96    5.05
  -3  -1   5  154.59    4.36
   3   1  -4   20.03    1.98
  -3  -1   4   19.08    1.54
   3   1  -3 1011.06    9.06
  -3  -1   3 1159.10    9.37
   3   1  -2  129.55    4.22
  -3  -1   2  151.70    4.02
   3   1  -1   20.47    1.78
  -3  -1   1   28.35    2.82
   3   1   0   16.77    1.66
  -3  -1   0   17.17    1.61
   3   1   1    2.85    2.52
  -3  -1  -1    0.25    2.66
   3   1   2  194.09    5.17
  -3  -1  -2  180.22    5.15
   3   1   3    3.78    2.78
  -3  -1  -3    2.45    3.41
   3   1   4    4.96    3.47
   3   1   5   -0.24    2.40
   3   1   6   12.10    2.36
   3   1   7    4.50    4.41
   3   1   8   76.04    6.26
   3   1   9   -3.28    5.09
  -3  -2  14    0.59    4.46
  -3  -2  13   11.92    2.71
  -3  -2  12   23.14    2.71
  -3  -2  11   82.53    5.79
  -3  -2  10   -0.57    3.25
  -3  -2   9   36.01    2.85
  -3  -2   8  227.37    6.32
   3   2  -7   25.49    2.72
  -3  -2   7   28.28    2.27
   3   2  -6   -4.63    3.96
  -3  -2   6   -1.08    2.67
   3   2  -5   23.68    2.24
  -3  -2   5   26.75    2.09
   3   2  -4    8.81    1.95
  -3  -2   4    8.51    1.40
   3   2  -3  136.60    4.41
  -3  -2   3  161.68    4.22
   3   2  -2   95.33    3.98
  -3  -2   2  119.24    3.92
   3   2  -1   59.15    3.67
  -3  -2   1   84.01    3.62
   3   2   0    3.73    2.91
  -3  -2   0    2.68    1.59
   3   2   1    2.52    2.99
  -3  -2  -1    0.18    2.08
   3   2   2   17.94    1.86
  -3  -2  -2   13.26    2.07
   3   2   3  119.08    5.16
   3   2   4   17.74    2.31
   3   2   5    1.28    3.80
   3   2   6   -6.19    4.03
   3   2   7    5.14    4.15
   3   2   8    3.45    5.01
   3   2   9    5.63    4.59
  -3  -3  14    9.08    2.85
  -3  -3  13    1.34    4.38
  -3  -3  12    2.82    3.99
  -3  -3  11   45.34    3.46
  -3  -3  10   96.46    5.74
  -3  -3   9   51.03    4.32
  -3  -3   8   -2.00    2.98
   3   3  -7   21.81    2.69
  -3  -3   7   22.04    1.83
   3   3  -6   -1.09    4.22
  -3  -3   6    8.91    1.48
   3   3  -5    3.71    3.85
  -3  -3   5    6.55    1.43
   3   3  -4   -4.06    3.51
  -3  -3   4   -1.51    2.49
   3   3  -3   35.23    2.61
  -3  -3   3   40.30    3.12
   3   3  -2    1.62    3.00
  -3  -3   2   -0.08    2.55
   3   3  -1   48.97    3.70
  -3  -3   1   65.95    3.71
   3   3   0    4.11    3.20
  -3  -3   0   10.46    1.77
   3   3   1   67.94    4.34
  -3  -3  -1   70.87    4.23
   3   3   2    1.28    3.23
   3   3   3    0.59    3.59
   3   3   4    5.18    3.81
   3   3   5   25.83    2.69
   3   3   6    4.53    4.10
   3   3   7    3.84    4.32
   3   3   8   -8.31    5.36
  -3  -4  14    2.08    4.49
  -3  -4  13    7.11    2.36
  -3  -4  12   -0.24    3.98
  -3  -4  11   26.77    2.54
  -3  -4  10    7.19    2.16
  -3  -4   9  105.06    5.21
  -3  -4   8  156.69    5.84
  -3  -4   7   18.09    1.81
   3   4  -6    4.42    4.07
  -3  -4   6   -5.04    2.86
   3   4  -5   62.93    4.87
  -3  -4   5   69.92    3.70
   3   4  -4  305.82    6.99
  -3  -4   4  356.07    6.86
   3   4  -3    8.07    2.12
  -3  -4   3    9.66    1.66
   3   4  -2    4.52    3.53
  -3  -4   2   -1.55    2.95
   3   4  -1   22.76    2.08
  -3  -4   1   29.04    2.47
   3   4   0    1.36    1.90
  -3  -4   0   -3.87    3.36
   3   4   1   37.87    2.96
   3   4   2    9.70    2.19
   3   4   3   60.98    5.14
   3   4   4    3.23    4.16
   3   4   5    0.45    4.39
   3   4   6    1.28    4.44
   3   4   7   -3.70    4.82
  -3  -5  14    0.91    4.46
  -3  -5  13    6.92    4.92
  -3  -5  12    3.78    4.45
  -3  -5  11   24.84    2.58
  -3  -5  10   46.84    4.51
  -3  -5   9   97.83    5.54
  -3  -5   8   37.78    2.84
  -3  -5   7  154.82    5.83
  -3  -5   6   79.34    4.53
  -3  -5   5    1.98    3.00
  -3  -5   4   63.31    4.14
  -3  -5   3  262.50    6.59
  -3  -5   2  211.91    6.37
  -3  -5   1    9.68    2.00
   3   5   0    8.05    2.21
  -3  -5   0    3.82    3.84
   3   5   1    0.13    3.76
   3   5   2    5.88    4.30
   3   5   3   24.71    2.76
   3   5   4    5.43    4.59
   3   5   5   10.79    2.80
   3   5   6    6.15    4.54
  -3  -6  14    1.19    4.61
  -3  -6  13    3.50    3.95
  -3  -6  12    1.23    4.22
  -3  -6  11    6.57    2.33
  -3  -6  10    1.02    3.80
  -3  -6   9  123.82    5.94
  -3  -6   8   73.54    4.97
  -3  -6   7   47.96    4.49
  -3  -6   6   41.65    3.96
  -3  -6   5  114.25    5.23
  -3  -6   4    2.41    3.03
  -3  -6   3    0.61    3.30
  -3  -6   2   53.99    4.52
  -3  -6   1  115.21    5.97
   3   6   0   13.38    2.33
  -3  -6   0    9.92    2.38
   3   6   1    0.56    3.85
   3   6   2    1.27    4.41
   3   6   3    3.52    4.40
   3   6   4   -2.82    4.54
   3   6   5   11.15    2.89
  -3  -7  14   14.72    2.99
  -3  -7  13    5.88    4.64
  -3  -7  12    5.91    3.98
  -3  -7  11    0.46    4.07
  -3  -7  10   -5.29    4.08
  -3  -7   9    2.85    3.32
  -3  -7   8    3.65    2.57
  -3  -7   7  116.68    5.86
  -3  -7   6   11.29    2.18
  -3  -7   5    9.76    1.97
  -3  -7   4    5.14    2.20
  -3  -7   3   27.69    2.48
  -3  -7   2   11.43    2.41
  -3  -7   1   -2.36    4.11
   3   7   0    1.83    4.31
  -3  -7   0    3.70    4.14
   3   7   1   19.57    2.87
   3   7   2    4.15    4.24
   3   7   3    3.73    4.55
   3   7   4    7.22    2.87
  -3  -8  13    7.28    2.65
  -3  -8  12   33.59    3.03
  -3  -8  11    2.29    3.02
  -3  -8  10    8.82    2.35
  -3  -8   9   24.60    2.69
  -3  -8   8    9.27    2.27
  -3  -8   7    9.75    2.27
  -3  -8   6   -3.19    3.75
  -3  -8   5   -2.77    4.16
  -3  -8   4   -9.23    4.13
  -3  -8   3    0.19    4.17
  -3  -8   2    0.64    4.12
  -3  -8   1   -2.51    4.53
   3   8   0   13.55    2.93
  -3  -8   0   18.03    3.02
   3   8   1    1.80    4.67
   3   8   2   10.70    3.07
   3   8   3    3.29    5.12
  -3  -9  12   -3.21    4.62
  -3  -9  11    9.85    2.67
  -3  -9  10   10.90    2.72
  -3  -9   9    5.90    3.95
  -3  -9   8   22.64    2.84
  -3  -9   7   21.49    2.75
  -3  -9   6   14.88    2.60
  -3  -9   5    6.81    4.58
  -3  -9   4    3.95    2.97
  -3  -9   3   14.25    2.82
  -3  -9   2    0.97    4.56
  -3  -9   1   -0.02    4.93
   3   9   0    0.02    5.42
  -3  -9   0   -1.08    4.86
   3   9   1    4.06    4.83
  -3 -10  11    9.57    2.91
  -3 -10  10    4.48    4.52
  -3 -10   9    2.76    4.64
  -3 -10   8    3.98    4.17
  -3 -10   7   -1.08    4.39
  -3 -10   6   22.48    3.12
  -3 -10   5    2.82    4.77
  -3 -10   4    6.90    4.73
  -3 -10   3    0.04    4.71
  -3 -10   2    3.44    5.40
  -3 -10   1    6.82    5.36
  -3 -11   9   -0.93    5.29
  -3 -11   8    5.91    4.47
  -3 -11   7    1.72    4.75
  -3 -11   6   -2.08    4.46
  -3 -11   5   -4.70    4.64
  -3 -11   4    5.53    3.77
   4 -12   2    0.96    5.49
   4 -12   3   16.55    3.30
   4 -12   4    3.00    5.26
   4 -12   5    4.29    3.20
  -4  11   2    0.95    4.91
  -4  11   1   -8.77    5.30
   4 -11   0    0.51    5.71
  -4  11   0   -2.58    5.19
   4 -11   1    4.42    5.77
   4 -11   2   11.68    3.30
   4 -11   3   -1.37    5.15
   4 -11   4   11.34    3.03
   4 -11   5   -1.90    5.03
   4 -11   6    7.67    5.33
   4 -11   7    1.13    5.06
   4 -11   8   -4.87    5.42
  -4  10   4    6.81    2.78
  -4  10   3    2.01    4.00
  -4  10   2    4.55    4.70
  -4  10   1    1.28    4.44
   4 -10   0   -1.01    4.95
  -4  10   0    4.70    4.17
   4 -10   1   -5.53    5.37
   4 -10   2    8.31    2.84
   4 -10   3    9.51    2.95
   4 -10   4    3.65    5.08
   4 -10   5   -0.27    5.01
   4 -10   6   12.34    3.06
   4 -10   7    0.79    4.59
   4 -10   8    4.85    5.24
   4 -10   9    5.11    4.83
  -4   9   5    1.45    4.74
  -4   9   4    4.26    4.21
  -4   9   3    2.97    4.06
  -4   9   2    2.12    4.42
  -4   9   1   -3.15    4.00
   4  -9   0   19.43    2.90
  -4   9   0   18.07    2.53
   4  -9   1    1.30    4.65
   4  -9   2   -3.13    4.33
   4  -9   3    1.72    4.38
   4  -9   4    2.14    4.65
   4  -9   5    6.88    2.65
   4  -9   6    2.58    4.30
   4  -9   7   14.31    2.77
   4  -9   8    2.14    4.96
   4  -9   9   -0.83    4.85
   4  -9  10   -7.93    5.22
  -4   8   7    4.76    4.17
  -4   8   6   -0.80    4.77
  -4   8   5    5.58    4.49
  -4   8   4    2.34    4.28
  -4   8   3    0.84    3.89
  -4   8   2   11.50    2.43
  -4   8   1   -2.57    4.15
   4  -8   0    3.05    4.36
  -4   8   0    2.48    3.88
   4  -8   1   -2.07    4.41
   4  -8   2   41.22    3.72
   4  -8   3    0.42    3.97
   4  -8   4    3.68    3.93
   4  -8   5   -3.06    4.45
   4  -8   6   -3.47    4.01
   4  -8   7    0.48    4.32
   4  -8   8    2.23    4.25
   4  -8   9   -2.45    4.93
   4  -8  10   -1.43    3.50
  -4   7   8   -2.35    4.39
  -4   7   7   34.07    3.22
  -4   7   6   -4.60    4.76
  -4   7   5   -4.21    4.45
  -4   7   4   22.26    2.55
  -4   7   3   25.95    2.59
  -4   7   2    2.71    3.69
  -4   7   1    9.87    2.14
   4  -7   0  116.53    6.38
  -4   7   0  114.07    5.75
   4  -7   1   20.83    2.58
   4  -7   2   20.30    2.41
   4  -7   3    9.00    2.25
   4  -7   4   21.95    2.41
   4  -7   5    5.00    2.25
   4  -7   6   11.85    2.38
   4  -7   7   -2.20    4.31
   4  -7   8    6.15    2.63
   4  -7   9    0.50    4.51
   4  -7  10    4.56    4.44
  -4   6   9   -0.02    5.11
  -4   6   8   -3.38    4.15
  -4   6   7   11.22    2.40
  -4   6   6   -6.90    4.07
  -4   6   5  204.28    7.65
  -4   6   4    2.16    3.45
  -4   6   3    5.10    3.62
  -4   6   2   96.15    5.36
  -4   6   1    6.52    2.07
   4  -6   0   -1.28    3.98
  -4   6   0   -1.57    3.15
   4  -6   1   69.64    4.87
   4  -6   2  140.00    5.68
   4  -6   3   49.13    4.55
   4  -6   4    8.32    2.26
   4  -6   5   23.74    2.25
   4  -6   6    0.21    3.73
   4  -6   7    9.02    2.28
   4  -6   8    5.91    4.28
   4  -6   9    2.54    4.27
   4  -6  10    1.65    4.93
  -4   5  10    2.60    5.02
  -4   5   9   -6.25    4.40
  -4   5   8    3.53    4.14
  -4   5   7   -1.89    3.79
  -4   5   6   11.49    2.12
  -4   5   5   39.98    3.02
  -4   5   4   18.78    2.20
  -4   5   3  282.85    7.16
  -4   5   2   -4.27    3.20
   4  -5  -1   -2.57    3.94
  -4   5   1   -3.58    3.02
   4  -5   0  154.97    5.75
  -4   5   0  148.87    5.28
   4  -5   1    2.86    3.77
  -4   5  -1    4.37    1.81
   4  -5   2   -2.44    3.71
   4  -5   3   93.47    5.01
   4  -5   4   33.17    2.91
   4  -5   5   22.96    2.28
   4  -5   6   -1.61    3.56
   4  -5   7    3.03    3.80
   4  -5   8    4.48    4.76
   4  -5   9    2.97    4.40
   4  -5  10   -2.49    4.77
   4  -5  11  -10.10    5.12
  -4   4  11   -3.54    4.92
  -4   4  10    4.79    4.70
  -4   4   9    6.41    2.35
  -4   4   8   -4.01    3.99
  -4   4   7    4.17    3.48
  -4   4   6    3.56    3.37
  -4   4   5   12.69    2.03
  -4   4   4   29.90    2.57
   4  -4  -3   91.47    5.51
  -4   4   3   84.77    4.40
   4  -4  -2   39.98    3.07
  -4   4   2   41.36    3.36
   4  -4  -1  113.94    5.00
  -4   4   1  118.90    4.62
   4  -4   0    1.70    3.39
  -4   4   0    7.45    1.59
   4  -4   1    1.71    3.33
  -4   4  -1   -3.91    2.87
   4  -4   2   10.57    1.84
  -4   4  -2    5.15    1.84
   4  -4   3   19.35    2.06
   4  -4   4   -3.12    3.48
   4  -4   5   18.38    2.22
   4  -4   6    4.92    3.49
   4  -4   7   10.62    2.20
   4  -4   8    2.38    2.47
   4  -4   9    3.95    5.14
   4  -4  10    3.05    2.67
  -4   3  12    4.80    2.87
  -4   3  11   15.26    2.77
  -4   3  10   16.28    2.69
  -4   3   9    4.83    2.08
  -4   3   8   13.39    2.14
  -4   3   7    1.72    3.52
  -4   3   6   10.80    1.98
  -4   3   5   45.01    3.96
   4  -3  -4  116.39    5.68
  -4   3   4  109.42    4.55
   4  -3  -3  183.58    5.95
  -4   3   3  153.28    5.00
   4  -3  -2    9.34    2.00
  -4   3   2    4.08    1.51
   4  -3  -1   13.89    1.95
  -4   3   1   11.56    1.61
   4  -3   0    2.54    3.02
  -4   3   0   -1.40    2.76
   4  -3   1    4.36    3.13
  -4   3  -1    0.33    2.74
   4  -3   2    2.42    2.17
  -4   3  -2    2.48    2.12
   4  -3   3   23.27    2.03
  -4   3  -3   21.58    2.13
   4  -3   4   33.06    2.71
   4  -3   5    4.66    3.66
   4  -3   6    2.43    4.06
   4  -3   7   -4.98    3.97
   4  -3   8   -0.47    4.38
   4  -3   9    4.84    2.66
   4  -3  10    4.65    2.67
  -4   2  12    6.30    4.40
  -4   2  11    3.33    4.19
  -4   2  10   28.06    2.73
  -4   2   9   85.00    5.53
  -4   2   8   18.78    2.29
  -4   2   7    2.77    3.15
  -4   2   6   14.97    1.82
   4  -2  -5   11.13    2.42
  -4   2   5    3.03    2.72
   4  -2  -4   51.13    3.14
  -4   2   4   43.89    3.51
   4  -2  -3  297.72    6.47
  -4   2   3  265.20    5.68
   4  -2  -2  499.05    7.62
  -4   2   2  500.54    7.18
   4  -2  -1  312.26    6.04
  -4   2   1  331.67    5.96
   4  -2   0   19.73    1.88
  -4   2   0   21.59    1.72
   4  -2   1   44.21    3.63
  -4   2  -1   37.29    3.22
   4  -2   2   47.26    3.73
  -4   2  -2   38.17    3.62
   4  -2   3    2.71    3.30
  -4   2  -3    6.90    1.96
   4  -2   4   10.74    2.09
   4  -2   5   26.11    2.37
   4  -2   6   17.14    2.33
   4  -2   7    1.83    3.88
   4  -2   8    5.82    4.41
   4  -2   9    2.06    2.55
   4  -2  10    6.11    5.00
  -4   1  13    2.99    4.46
  -4   1  12    2.13    4.43
  -4   1  11    2.37    4.08
  -4   1  10    6.06    2.17
  -4   1   9   17.93    2.31
  -4   1   8   47.73    4.18
  -4   1   7  183.25    6.06
   4  -1  -6    2.97    4.32
  -4   1   6    3.11    1.55
   4  -1  -5    6.02    4.11
  -4   1   5    8.77    1.54
   4  -1  -4  497.34    7.79
  -4   1   4  441.68    7.03
   4  -1  -3   58.42    3.95
  -4   1   3   57.26    3.24
   4  -1  -2   26.52    2.48
  -4   1   2   30.50    2.91
   4  -1  -1  674.54    8.24
  -4   1   1  790.92    8.62
   4  -1   0  263.72    5.71
  -4   1   0  304.72    5.86
   4  -1   1   47.32    3.77
  -4   1  -1   43.03    3.50
   4  -1   2    9.91    1.86
  -4   1  -2    9.57    1.87
   4  -1   3   62.55    4.05
  -4   1  -3   45.00    4.12
   4  -1   4   30.12    2.28
   4  -1   5    5.61    2.11
   4  -1   6    3.06    4.25
   4  -1   7    0.21    4.10
   4  -1   8    1.47    3.80
   4  -1   9   -3.50    4.71
   4  -1  10  -15.83    5.19
  -4   0  13   16.44    2.90
  -4   0  12    3.57    2.62
  -4   0  11   14.31    2.55
  -4   0  10   15.65    2.45
  -4   0   9   71.42    4.99
  -4   0   8    2.29    3.12
  -4   0   7   40.73    3.63
   4   0  -6   41.29    3.35
  -4   0   6   38.73    3.38
   4   0  -5   68.87    4.61
  -4   0   5   64.99    3.69
   4   0  -4   24.69    2.22
  -4   0   4   36.00    2.90
   4   0  -3  117.07    4.71
  -4   0   3  125.10    4.17
   4   0  -2  717.38    8.47
  -4   0   2  820.35    8.69
   4   0  -1   43.02    3.64
  -4   0   1   52.21    3.40
   4   0   0    6.98    1.74
  -4   0   0    6.16    1.60
   4   0   1  401.86    7.11
  -4   0  -1  343.63    6.61
   4   0   2   -4.21    3.17
  -4   0  -2   -2.06    3.14
   4   0   3    1.47    3.18
   4   0   4   -3.73    3.43
   4   0   5   12.52    2.33
   4   0   6    9.10    2.41
   4   0   7    3.24    2.42
   4   0   8    2.82    4.43
   4   0   9   -8.62    5.22
  -4  -1  13    3.04    4.15
  -4  -1  12   -1.47    5.10
  -4  -1  11  110.01    6.90
  -4  -1  10   -8.84    3.77
  -4  -1   9    4.59    3.38
  -4  -1   8  314.29    7.59
  -4  -1   7  231.87    6.39
   4   1  -6    3.92    4.19
  -4  -1   6    2.90    2.73
   4   1  -5    8.89    2.19
  -4  -1   5    8.51    1.55
   4   1  -4   25.21    2.19
  -4  -1   4   30.88    3.03
   4   1  -3   38.31    2.58
  -4  -1   3   42.74    3.00
   4   1  -2    8.13    1.87
  -4  -1   2    9.10    1.52
   4   1  -1  469.16    7.44
  -4  -1   1  567.20    7.84
   4   1   0  204.22    5.57
  -4  -1   0  277.75    5.99
   4   1   1    5.27    1.91
  -4  -1  -1    6.70    1.76
   4   1   2   -1.41    3.31
   4   1   3   23.81    2.31
   4   1   4   33.33    3.01
   4   1   5    4.84    2.16
   4   1   6   -3.04    4.31
   4   1   7   -3.38    4.68
   4   1   8    5.96    2.75
   4   1   9    6.73    4.99
  -4  -2  14    2.54    3.84
  -4  -2  13   23.85    3.00
  -4  -2  12   -7.22    4.65
  -4  -2  11    5.95    4.47
  -4  -2  10    4.62    2.11
  -4  -2   9  227.64    7.01
  -4  -2   8   -0.70    3.39
  -4  -2   7   38.72    2.50
   4   2  -6  701.36   10.25
  -4  -2   6  758.29    9.96
   4   2  -5   73.87    4.81
  -4  -2   5   77.83    3.90
   4   2  -4   -3.25    3.74
  -4  -2   4    0.22    2.46
   4   2  -3    2.25    3.42
  -4  -2   3    2.03    1.80
   4   2  -2    4.31    3.36
  -4  -2   2    0.12    2.71
   4   2  -1   97.12    4.60
  -4  -2   1  110.47    4.53
   4   2   0   10.24    2.03
  -4  -2   0   11.68    1.89
   4   2   1  134.61    5.33
   4   2   2   16.64    2.15
   4   2   3   -1.17    3.63
   4   2   4    1.45    4.03
   4   2   5    5.80    3.98
   4   2   6    4.69    4.61
   4   2   7    3.17    4.32
   4   2   8    2.98    5.02
  -4  -3  14    1.50    4.54
  -4  -3  13  -10.56    4.50
  -4  -3  12   46.02    3.72
  -4  -3  11   27.78    2.56
  -4  -3  10   -4.68    3.60
  -4  -3   9   54.37    4.31
  -4  -3   8  127.04    5.39
  -4  -3   7  165.65    5.53
   4   3  -6   -2.56    4.37
  -4  -3   6    2.51    2.75
   4   3  -5   76.55    5.09
  -4  -3   5   79.06    4.15
   4   3  -4  161.38    5.79
  -4  -3   4  180.37    5.39
   4   3  -3    2.07    3.66
  -4  -3   3   -0.21    2.71
   4   3  -2    5.37    2.15
  -4  -3   2    9.04    1.61
   4   3  -1   18.73    2.15
  -4  -3   1   19.60    1.94
   4   3   0   -2.01    3.60
  -4  -3   0    4.55    3.29
   4   3   1   41.67    3.11
   4   3   2    4.73    3.74
   4   3   3   -5.86    4.22
   4   3   4  -11.09    4.38
   4   3   5    2.79    4.28
   4   3   6    4.11    3.21
   4   3   7    4.31    3.48
  -4  -4  14    2.60    4.90
  -4  -4  13   31.64    3.00
  -4  -4  12    5.70    3.91
  -4  -4  11    4.71    3.58
  -4  -4  10   18.91    2.27
  -4  -4   9   -0.89    3.66
  -4  -4   8   -5.23    3.29
  -4  -4   7  111.47    5.06
  -4  -4   6  250.01    6.48
  -4  -4   5   65.32    4.09
  -4  -4   4   -0.10    2.87
  -4  -4   3    2.22    2.79
  -4  -4   2   41.28    3.90
  -4  -4   1    2.64    2.38
   4   4   0    1.75    2.72
  -4  -4   0    1.52    3.62
   4   4   1   16.87    2.42
   4   4   2   -7.08    4.17
   4   4   3   17.07    2.60
   4   4   4   -1.41    4.45
   4   4   5   -0.48    4.93
   4   4   6   -2.01    4.83
  -4  -5  14   -1.75    4.62
  -4  -5  13    5.36    2.46
  -4  -5  12   14.02    2.41
  -4  -5  11   70.16    5.67
  -4  -5  10    4.44    3.96
  -4  -5   9    8.52    2.09
  -4  -5   8   19.50    2.17
  -4  -5   7  103.65    5.32
  -4  -5   6   15.92    2.11
  -4  -5   5  128.12    5.27
  -4  -5   4  137.79    5.64
  -4  -5   3    9.30    1.97
  -4  -5   2    9.06    2.25
  -4  -5   1   53.27    4.75
   4   5   0   66.56    5.59
  -4  -5   0   77.37    5.49
   4   5   1    3.60    2.37
   4   5   2   -5.25    4.47
   4   5   3    1.41    3.02
   4   5   4   -0.26    4.64
   4   5   5    3.34    5.08
  -4  -6  14    2.19    2.55
  -4  -6  13   17.15    2.88
  -4  -6  12   -1.97    4.55
  -4  -6  11    9.63    2.45
  -4  -6  10   10.50    2.12
  -4  -6   9   48.01    4.45
  -4  -6   8    3.32    3.69
  -4  -6   7   59.26    5.05
  -4  -6   6   90.80    5.25
  -4  -6   5   67.60    5.06
  -4  -6   4   56.72    4.60
  -4  -6   3   83.28    5.36
  -4  -6   2   19.22    2.39
  -4  -6   1    3.25    3.84
   4   6   0   11.68    2.70
  -4  -6   0   22.28    2.63
   4   6   1   34.88    3.02
   4   6   2   12.32    2.81
   4   6   3   -3.97    5.06
   4   6   4    4.30    4.61
  -4  -7  13    2.30    4.27
  -4  -7  12   21.29    2.80
  -4  -7  11   26.17    2.77
  -4  -7  10   -2.09    4.24
  -4  -7   9   -2.58    3.90
  -4  -7   8   -0.82    3.65
  -4  -7   7   -0.43    3.82
  -4  -7   6    3.66    2.62
  -4  -7   5   97.47    5.93
  -4  -7   4   37.56    3.47
  -4  -7   3   12.04    2.31
  -4  -7   2   19.38    2.72
  -4  -7   1   17.99    2.79
   4   7   0   -2.07    4.83
  -4  -7   0   -2.08    4.66
   4   7   1   -4.06    5.00
   4   7   2    5.92    4.72
   4   7   3    3.17    3.20
  -4  -8  13   18.65    3.11
  -4  -8  12    5.30    4.23
  -4  -8  11   10.86    2.54
  -4  -8  10   45.95    3.92
  -4  -8   9   -4.23    4.46
  -4  -8   8   -1.38    4.37
  -4  -8   7   12.07    2.52
  -4  -8   6    8.46    2.39
  -4  -8   5    3.46    4.06
  -4  -8   4    6.22    4.23
  -4  -8   3   26.50    2.89
  -4  -8   2    4.97    4.75
  -4  -8   1   -4.80    4.75
   4   8   0   -0.53    5.11
  -4  -8   0   -8.77    5.35
   4   8   1   -6.76    5.29
   4   8   2    9.27    3.06
  -4  -9  12   51.47    4.39
  -4  -9  11   19.16    3.16
  -4  -9  10    6.45    4.38
  -4  -9   9   14.15    2.79
  -4  -9   8   33.52    2.94
  -4  -9   7    1.96    4.39
  -4  -9   6    6.40    4.64
  -4  -9   5   20.96    2.89
  -4  -9   4   -0.99    4.96
  -4  -9   3    2.31    4.54
  -4  -9   2    1.86    4.89
  -4  -9   1   -1.97    5.01
   4   9   0  -12.65    5.56
  -4  -9   0   -0.92    4.75
  -4 -10  11   15.53    3.05
  -4 -10  10   38.33    3.41
  -4 -10   9   18.32    2.81
  -4 -10   8   -7.59    5.30
  -4 -10   7    6.66    4.76
  -4 -10   6   -1.94    4.60
  -4 -10   5   10.36    2.71
  -4 -10   4    7.65    2.97
  -4 -10   3   -2.34    5.24
  -4 -10   2    4.93    5.34
  -5  11   1   -5.07    5.17
   5 -11   0    2.87    3.89
  -5  11   0    4.76    3.28
   5 -11   1    3.71    3.58
   5 -11   2   -0.59    5.99
   5 -11   3    7.55    5.41
   5 -11   4    3.44    5.91
   5 -11   5    2.30    5.29
   5 -11   6    3.29    5.67
  -5  10   4    8.05    2.87
  -5  10   3   -0.58    4.50
  -5  10   2    4.42    3.47
  -5  10   1   -6.86    4.92
   5 -10   0    7.21    5.41
  -5  10   0   -0.51    4.49
   5 -10   1   -2.25    5.16
   5 -10   2    2.56    3.62
   5 -10   3    7.78    2.87
   5 -10   4    1.78    4.81
   5 -10   5    4.35    2.97
   5 -10   6   11.22    2.90
   5 -10   7    1.44    5.29
   5 -10   8   -3.94    5.47
  -5   9   5   -3.46    4.85
  -5   9   4    1.32    4.08
  -5   9   3    5.46    2.49
  -5   9   2    9.52    2.73
  -5   9   1    4.21    4.21
   5  -9   0    1.57    5.09
  -5   9   0    6.59    4.86
   5  -9   1    9.14    2.70
   5  -9   2    3.14    3.23
   5  -9   3    1.12    4.59
   5  -9   4   -1.63    4.82
   5  -9   5    6.33    4.84
   5  -9   6   -1.27    5.04
   5  -9   7    4.92    2.89
   5  -9   8   -6.61    5.23
  -5   8   7    1.49    4.44
  -5   8   6    1.11    4.68
  -5   8   5    2.57    4.06
  -5   8   4    6.44    4.46
  -5   8   3   12.33    2.62
  -5   8   2   -4.94    4.11
  -5   8   1   -3.32    3.73
   5  -8   0   -1.18    4.91
  -5   8   0    0.62    2.75
   5  -8   1   -3.37    4.32
   5  -8   2   -0.78    4.24
   5  -8   3   -1.26    4.27
   5  -8   4   15.77    2.72
   5  -8   5   -7.16    4.67
   5  -8   6   -4.54    4.89
   5  -8   7    0.53    4.62
   5  -8   8    3.18    3.49
   5  -8   9   -3.22    5.01
  -5   7   8    5.53    4.31
  -5   7   7    4.28    4.30
  -5   7   6    4.92    4.42
  -5   7   5   30.91    2.77
  -5   7   4    2.35    4.12
  -5   7   3   -0.37    3.67
  -5   7   2    6.57    2.23
  -5   7   1   49.91    4.52
   5  -7   0   -6.90    4.44
  -5   7   0   -1.21    3.80
   5  -7   1   -4.04    4.32
   5  -7   2   48.12    3.70
   5  -7   3    6.00    2.37
   5  -7   4    6.06    4.28
   5  -7   5    1.84    4.00
   5  -7   6   14.90    2.72
   5  -7   7    2.19    4.41
   5  -7   8    1.08    4.43
   5  -7   9   -1.98    4.89
  -5   6   9    0.85    4.52
  -5   6   8   -2.36    4.64
  -5   6   7   -0.20    4.44
  -5   6   6    4.34    2.26
  -5   6   5    2.02    4.11
  -5   6   4    3.62    2.67
  -5   6   3  258.03    7.90
  -5   6   2    3.13    3.64
  -5   6   1    3.88    3.72
   5  -6   0   43.99    3.62
  -5   6   0   49.06    3.19
   5  -6   1   42.84    3.45
   5  -6   2   -5.28    4.04
   5  -6   3   17.06    2.56
   5  -6   4   93.31    5.70
   5  -6   5   13.73    2.44
   5  -6   6   -2.35    4.44
   5  -6   7    1.89    4.71
   5  -6   8   -1.53    4.59
   5  -6   9   -0.58    4.79
  -5   5  10   -1.76    4.57
  -5   5   9    2.13    4.39
  -5   5   8    5.77    2.53
  -5   5   7    5.39    3.72
  -5   5   6    8.75    2.30
  -5   5   5    3.07    2.47
  -5   5   4    4.13    3.21
  -5   5   3   35.66    2.93
  -5   5   2    6.37    1.89
  -5   5   1  458.20    8.91
   5  -5   0    1.28    3.99
  -5   5   0    3.13    3.41
   5  -5   1    2.01    4.00
   5  -5   2  100.23    5.41
   5  -5   3    1.15    3.81
   5  -5   4   -5.53    3.88
   5  -5   5   29.50    2.66
   5  -5   6   32.72    2.84
   5  -5   7    9.40    2.49
   5  -5   8   -0.72    4.20
   5  -5   9   -3.06    4.72
   5  -5  10   -0.59    5.18
  -5   4  11    7.81    2.70
  -5   4  10    4.72    2.48
  -5   4   9    4.84    4.10
  -5   4   8   11.46    2.49
  -5   4   7    8.05    2.25
  -5   4   6   11.15    2.13
  -5   4   5    3.23    3.25
  -5   4   4    2.55    3.19
  -5   4   3   -1.21    3.05
  -5   4   2   49.08    3.99
  -5   4   1   93.35    4.69
   5  -4   0   38.65    2.94
  -5   4   0   33.06    2.59
   5  -4   1  196.35    6.54
   5  -4   2   13.30    2.16
   5  -4   3    3.75    2.54
   5  -4   4   29.45    2.49
   5  -4   5    6.37    2.23
   5  -4   6  -10.21    4.54
   5  -4   7    8.07    2.50
   5  -4   8   -3.98    4.98
   5  -4   9    3.89    4.71
  -5   3  12    7.03    5.11
  -5   3  11   -5.47    4.83
  -5   3  10    9.21    2.51
  -5   3   9    5.32    4.19
  -5   3   8   38.42    3.21
  -5   3   7   13.64    2.11
  -5   3   6   53.27    4.37
  -5   3   5   27.86    2.51
  -5   3   4    0.53    2.94
   5  -3  -3   29.34    2.65
  -5   3   3   28.55    2.31
   5  -3  -2   20.15    2.37
  -5   3   2   14.68    1.79
   5  -3  -1   68.03    4.40
  -5   3   1   56.04    3.83
   5  -3   0   58.13    4.43
  -5   3   0   72.68    4.16
   5  -3   1   41.62    3.06
  -5   3  -1   34.37    2.62
   5  -3   2    0.63    3.86
   5  -3   3   11.50    2.30
   5  -3   4    8.47    2.22
   5  -3   5    2.93    3.76
   5  -3   6    0.39    3.78
   5  -3   7    9.06    2.53
   5  -3   8   -6.90    4.75
   5  -3   9    1.16    4.76
  -5   2  12   -3.12    5.06
  -5   2  11   15.39    2.71
  -5   2  10   25.88    2.68
  -5   2   9   -3.91    3.82
  -5   2   8   52.83    4.70
  -5   2   7  113.78    5.56
  -5   2   6   90.06    4.81
  -5   2   5    3.47    1.60
   5  -2  -4   21.83    2.55
  -5   2   4   20.48    1.80
   5  -2  -3    5.07    3.68
  -5   2   3    2.77    2.47
   5  -2  -2   44.77    4.27
  -5   2   2   42.96    3.47
   5  -2  -1  110.97    4.92
  -5   2   1  105.99    4.45
   5  -2   0  138.89    5.37
  -5   2   0  160.21    5.27
   5  -2   1  117.99    5.30
  -5   2  -1  108.00    4.76
   5  -2   2    2.43    3.55
   5  -2   3    1.83    3.38
   5  -2   4    0.37    3.73
   5  -2   5    1.91    3.83
   5  -2   6    0.86    3.88
   5  -2   7    4.71    4.37
   5  -2   8   -1.82    4.55
   5  -2   9   -7.87    4.94
  -5   1  13    2.39    4.68
  -5   1  12   18.73    2.82
  -5   1  11    2.67    3.88
  -5   1  10    4.94    4.22
  -5   1   9    4.61    3.74
  -5   1   8   20.63    2.21
  -5   1   7    4.14    3.55
  -5   1   6   90.38    4.71
   5  -1  -5  399.62    8.32
  -5   1   5  330.68    7.13
   5  -1  -4   55.31    4.72
  -5   1   4   37.85    3.37
   5  -1  -3   21.82    2.33
  -5   1   3   20.95    2.08
   5  -1  -2   98.43    4.90
  -5   1   2   85.89    4.00
   5  -1  -1   21.62    2.18
  -5   1   1   23.32    2.08
   5  -1   0   18.15    2.21
  -5   1   0   23.37    1.95
   5  -1   1  184.72    6.06
  -5   1  -1  162.11    5.45
   5  -1   2  122.21    5.53
   5  -1   3   47.57    4.64
   5  -1   4   -5.94    3.92
   5  -1   5    5.84    3.97
   5  -1   6    4.93    2.50
   5  -1   7    1.72    4.34
   5  -1   8   -7.11    5.14
   5  -1   9   -3.03    4.80
  -5   0  13    3.74    4.41
  -5   0  12   27.68    2.98
  -5   0  11    7.11    2.38
  -5   0  10   35.99    3.36
  -5   0   9   20.85    2.19
  -5   0   8   -0.83    3.11
  -5   0   7   66.87    4.12
  -5   0   6   -1.20    2.78
   5   0  -5   40.90    3.39
  -5   0   5   42.53    3.48
   5   0  -4   54.48    4.52
  -5   0   4   48.29    3.66
   5   0  -3  262.23    6.62
  -5   0   3  242.57    5.76
   5   0  -2    0.17    3.64
  -5   0   2    2.08    1.83
   5   0  -1    4.25    3.48
  -5   0   1   -2.53    2.94
   5   0   0  258.59    6.62
  -5   0   0  282.60    6.71
   5   0   1   22.87    2.27
   5   0   2   -0.69    3.63
   5   0   3  131.89    5.74
   5   0   4   11.70    2.40
   5   0   5    4.74    3.85
   5   0   6    0.95    4.42
   5   0   7   -2.09    4.34
   5   0   8    1.15    5.03
  -5  -1  13    5.56    4.05
  -5  -1  12    1.21    4.53
  -5  -1  11    0.89    3.89
  -5  -1  10   61.88    5.16
  -5  -1   9  167.34    6.65
  -5  -1   8   21.60    2.14
  -5  -1   7   32.95    2.58
  -5  -1   6  131.01    5.19
   5   1  -5  365.43    7.86
  -5  -1   5  354.09    7.19
   5   1  -4   -6.50    4.16
  -5  -1   4    6.80    1.57
   5   1  -3   26.25    2.44
  -5  -1   3   31.99    3.13
   5   1  -2   14.87    2.19
  -5  -1   2   10.89    1.75
   5   1  -1    9.13    2.16
  -5  -1   1   12.60    1.80
   5   1   0    8.63    2.13
  -5  -1   0    5.55    1.94
   5   1   1   62.32    4.68
   5   1   2  145.71    6.24
   5   1   3   -6.61    4.10
   5   1   4    0.83    4.05
   5   1   5   21.81    2.85
   5   1   6   -7.70    4.85
   5   1   7   -3.59    4.82
   5   1   8    3.08    5.07
  -5  -2  14   -8.45    4.63
  -5  -2  13   -0.57    4.09
  -5  -2  12   17.52    2.61
  -5  -2  11   46.90    3.66
  -5  -2  10   17.38    2.42
  -5  -2   9   15.36    2.16
  -5  -2   8   12.67    1.90
  -5  -2   7  374.21    8.14
  -5  -2   6   -3.15    2.97
  -5  -2   5    1.06    2.81
   5   2  -4  576.13    9.52
  -5  -2   4  595.72    9.19
   5   2  -3  181.90    6.30
  -5  -2   3  188.50    5.72
   5   2  -2   -4.67    3.95
  -5  -2   2   -2.59    3.02
  -5  -2   1    2.54    3.35
   5   2   0    0.85    3.78
  -5  -2   0   -7.71    3.39
   5   2   1   11.66    2.39
   5   2   2   -0.72    3.81
   5   2   3   42.72    3.52
   5   2   4   19.74    2.75
   5   2   5   -5.24    4.64
   5   2   6    3.47    4.77
   5   2   7    3.87    3.41
  -5  -3  14    2.53    3.13
  -5  -3  13   -4.86    4.47
  -5  -3  12   10.87    2.53
  -5  -3  11    3.32    3.78
  -5  -3  10   95.21    5.79
  -5  -3   9  101.71    5.85
  -5  -3   8   -4.48    3.45
  -5  -3   7   33.71    2.80
  -5  -3   6   34.96    2.55
  -5  -3   5  280.49    6.99
  -5  -3   4    0.66    3.06
  -5  -3   3   45.08    3.99
  -5  -3   2  290.97    7.33
  -5  -3   1   -0.73    3.54
   5   3   0    1.62    4.17
  -5  -3   0   -0.16    3.88
   5   3   1    4.90    3.91
   5   3   2    4.39    2.31
   5   3   3   14.39    2.60
   5   3   4   -3.33    4.36
   5   3   5   -4.41    4.76
   5   3   6   -3.50    3.59
  -5  -4  14    3.86    4.73
  -5  -4  13   -2.45    4.27
  -5  -4  12    8.35    2.53
  -5  -4  11   34.74    3.42
  -5  -4  10    5.99    2.26
  -5  -4   9    2.28    3.58
  -5  -4   8   96.18    5.51
  -5  -4   7   20.43    2.18
  -5  -4   6    9.49    1.97
  -5  -4   5   63.74    4.45
  -5  -4   4  129.99    5.47
  -5  -4   3  115.55    5.33
  -5  -4   2    4.83    3.68
  -5  -4   1   13.83    2.28
   5   4   0    1.28    4.47
  -5  -4   0    5.83    3.95
   5   4   1    1.54    2.53
   5   4   2    2.36    4.33
   5   4   3    3.06    4.80
   5   4   4    5.97    4.52
   5   4   5    4.12    2.88
  -5  -5  14    4.64    3.15
  -5  -5  13    6.34    4.35
  -5  -5  12   -0.97    4.37
  -5  -5  11    0.71    4.02
  -5  -5  10   33.47    2.66
  -5  -5   9  110.67    6.10
  -5  -5   8   -0.41    3.62
  -5  -5   7    2.34    3.45
  -5  -5   6    1.20    3.84
  -5  -5   5   26.22    2.37
  -5  -5   4   -7.30    3.46
  -5  -5   3   62.43    5.11
  -5  -5   2   95.46    5.59
  -5  -5   1   21.73    2.61
   5   5   0    6.50    2.51
  -5  -5   0    0.60    4.24
   5   5   1   -0.86    4.88
   5   5   2    5.34    5.31
   5   5   3    2.92    4.65
   5   5   4  -10.38    5.04
  -5  -6  14   13.01    2.93
  -5  -6  13   -2.79    4.66
  -5  -6  12   -0.49    4.28
  -5  -6  11   14.39    2.65
  -5  -6  10   -7.48    3.90
  -5  -6   9    7.16    2.39
  -5  -6   8   23.27    2.50
  -5  -6   7   71.98    5.31
  -5  -6   6    2.50    3.77
  -5  -6   5   19.98    2.41
  -5  -6   4   24.44    2.48
  -5  -6   3   57.03    5.31
  -5  -6   2    8.86    2.57
  -5  -6   1   39.34    3.74
   5   6   0   23.46    2.99
  -5  -6   0   21.13    2.99
   5   6   1    5.97    4.63
   5   6   2    2.95    5.09
   5   6   3    4.14    5.19
  -5  -7  13    5.32    4.27
  -5  -7  12    5.87    2.49
  -5  -7  11    4.12    3.87
  -5  -7  10    5.76    2.49
  -5  -7   9   46.28    3.80
  -5  -7   8    5.34    3.60
  -5  -7   7    5.60    4.25
  -5  -7   6   -5.77    3.97
  -5  -7   5   15.71    2.44
  -5  -7   4    2.80    2.88
  -5  -7   3   43.90    3.74
  -5  -7   2   21.25    2.88
  -5  -7   1   10.85    2.89
   5   7   0   14.30    3.13
  -5  -7   0   10.79    2.82
   5   7   1   11.60    3.10
   5   7   2   -6.36    5.31
  -5  -8  12    1.73    4.74
  -5  -8  11   14.61    2.81
  -5  -8  10    7.63    2.34
  -5  -8   9    6.57    2.58
  -5  -8   8   27.76    2.83
  -5  -8   7   21.86    2.78
  -5  -8   6   -0.76    4.45
  -5  -8   5   -5.53    4.51
  -5  -8   4    4.43    4.31
  -5  -8   3   -5.32    4.80
  -5  -8   2   -4.22    5.04
  -5  -8   1   15.23    3.03
   5   8   0   -4.41    5.48
  -5  -8   0    6.22    5.34
  -5  -9  11   -2.36    4.52
  -5  -9  10   58.81    5.06
  -5  -9   9   28.05    3.12
  -5  -9   8   -1.94    4.60
  -5  -9   7    9.10    2.76
  -5  -9   6   23.79    3.00
  -5  -9   5    0.77    4.87
  -5  -9   4   -1.11    4.63
  -5  -9   3    1.43    4.91
  -5  -9   2    3.28    3.50
  -5 -10   9    5.51    5.05
  -5 -10   8   50.24    4.39
  -5 -10   7   13.64    2.86
  -5 -10   6    1.78    4.82
  -5 -10   5   10.38    2.83
   6 -11   0   -3.05    6.02
  -6  11   0   -3.04    4.70
   6 -11   1   -4.76    6.07
   6 -11   2    2.10    5.34
   6 -11   3   -0.30    5.31
   6 -11   4    1.47    5.29
  -6  10   3    3.87    2.83
  -6  10   2   10.60    2.91
  -6  10   1    0.28    4.56
   6 -10   0    3.48    5.49
  -6  10   0    3.22    3.52
   6 -10   1    7.40    3.11
   6 -10   2    5.79    2.99
   6 -10   3   -2.49    5.09
   6 -10   4   -3.33    5.04
   6 -10   5    7.18    5.06
   6 -10   6    7.45    5.17
  -6   9   5    0.31    4.71
  -6   9   4   -1.14    4.82
  -6   9   3    3.73    4.44
  -6   9   2   -0.26    4.47
  -6   9   1   13.05    2.61
   6  -9   0   26.40    3.34
  -6   9   0   27.61    3.00
   6  -9   1    4.13    4.95
   6  -9   2    3.67    5.04
   6  -9   3    7.91    2.78
   6  -9   4    3.57    4.52
   6  -9   5   -2.66    5.18
   6  -9   6   -0.58    4.91
   6  -9   7    3.26    5.15
  -6   8   7    3.98    4.42
  -6   8   6    4.57    4.43
  -6   8   5    3.46    5.09
  -6   8   4   -2.54    4.22
  -6   8   3   -0.73    4.54
  -6   8   2    4.54    4.13
  -6   8   1    2.02    4.43
   6  -8   0   -3.55    4.78
  -6   8   0   -5.51    4.25
   6  -8   1    8.84    2.74
   6  -8   2   18.83    2.87
   6  -8   3   -0.93    4.40
   6  -8   4    2.11    4.19
   6  -8   5    3.70    3.20
   6  -8   6    1.33    4.68
   6  -8   7   -1.71    5.19
   6  -8   8    0.58    4.96
  -6   7   8    0.30    5.21
  -6   7   7    3.59    4.58
  -6   7   6    5.62    4.41
  -6   7   5    2.60    4.20
  -6   7   4   -1.79    3.98
  -6   7   3    0.11    2.88
  -6   7   2   -2.88    3.93
  -6   7   1    2.01    3.57
   6  -7   0    1.13    4.66
  -6   7   0    1.15    3.68
   6  -7   1   18.30    2.88
   6  -7   2    3.65    4.27
   6  -7   3    4.22    3.09
   6  -7   4   -7.92    4.65
   6  -7   5    2.11    4.57
   6  -7   6    6.73    4.54
   6  -7   7   -0.83    4.74
   6  -7   8   10.47    2.95
  -6   6   9    4.58    3.29
  -6   6   8    5.94    4.01
  -6   6   7    3.72    4.07
  -6   6   6    4.41    3.14
  -6   6   5   -1.71    4.28
  -6   6   4   12.26    2.34
  -6   6   3   10.18    2.26
  -6   6   2   12.85    2.26
  -6   6   1  107.00    5.94
   6  -6   0    4.68    4.28
  -6   6   0    1.99    3.61
   6  -6   1    3.73    3.18
   6  -6   2    9.93    2.57
   6  -6   3   25.59    2.93
   6  -6   4   -0.16    4.36
   6  -6   5    1.79    4.36
   6  -6   6   22.02    2.88
   6  -6   7    5.55    4.61
   6  -6   8    5.45    5.15
  -6   5  10    2.08    4.04
  -6   5   9    7.90    2.64
  -6   5   8    5.42    3.71
  -6   5   7    3.83    3.79
  -6   5   6    7.94    2.27
  -6   5   5   -2.51    3.78
  -6   5   4   13.47    2.19
  -6   5   3   -1.89    3.56
  -6   5   2    4.46    3.47
  -6   5   1   16.26    2.30
   6  -5   0    2.44    3.14
  -6   5   0    1.96    3.66
   6  -5   1  340.79    9.08
   6  -5   2    5.60    4.11
   6  -5   3   -3.79    4.46
   6  -5   4   35.54    3.33
   6  -5   5   11.57    2.71
   6  -5   6   -6.41    4.62
   6  -5   7    2.05    5.20
   6  -5   8   11.29    3.14
  -6   4  11   -5.12    4.66
  -6   4  10   -2.70    4.35
  -6   4   9    7.43    2.70
  -6   4   8   -6.11    3.97
  -6   4   7    3.63    2.14
  -6   4   6    7.91    2.16
  -6   4   5    0.86    3.35
  -6   4   4   42.06    3.07
  -6   4   3   -4.44    3.41
  -6   4   2    9.72    2.02
  -6   4   1    3.79    3.11
   6  -4   0    5.73    2.37
  -6   4   0    3.68    2.61
   6  -4   1   46.19    3.42
   6  -4   2    2.73    4.30
   6  -4   3  181.58    7.39
   6  -4   4   12.15    2.54
   6  -4   5   -5.36    4.54
   6  -4   6   23.92    2.90
   6  -4   7   -0.28    4.74
   6  -4   8   -3.68    4.92
  -6   3  11    9.13    2.70
  -6   3  10   20.06    2.89
  -6   3   9   -6.86    3.94
  -6   3   8   15.18    2.26
  -6   3   7    0.21    3.52
  -6   3   6   36.68    2.94
  -6   3   5   15.63    2.18
  -6   3   4   55.07    4.51
  -6   3   3   22.15    2.01
  -6   3   2   14.01    1.92
  -6   3   1    3.30    3.06
   6  -3   0    5.22    3.95
  -6   3   0   -3.35    3.37
   6  -3   1   13.15    2.41
   6  -3   2   33.10    3.29
   6  -3   3   28.17    2.62
   6  -3   4    2.92    4.33
   6  -3   5   29.63    2.89
   6  -3   6    9.57    2.63
   6  -3   7    3.18    4.16
   6  -3   8    7.22    5.17
  -6   2  12   -0.02    4.51
  -6   2  11    3.18    4.56
  -6   2  10    2.12    4.26
  -6   2   9   50.71    3.53
  -6   2   8   60.56    4.98
  -6   2   7    3.04    3.22
  -6   2   6   54.28    4.77
  -6   2   5   32.29    2.88
  -6   2   4   95.53    4.74
  -6   2   3   28.35    2.07
  -6   2   2   75.60    4.47
  -6   2   1    6.71    1.91
   6  -2   0   -4.24    4.34
  -6   2   0    4.67    1.93
   6  -2   1   16.56    2.38
   6  -2   2   19.73    2.47
   6  -2   3   33.30    2.75
   6  -2   4    9.92    2.58
   6  -2   5    3.10    4.36
   6  -2   6   -0.47    4.61
   6  -2   7   -1.64    4.99
   6  -2   8    5.36    5.36
  -6   1  13    4.29    4.98
  -6   1  12    4.56    3.15
  -6   1  11    6.79    2.51
  -6   1  10   31.47    2.60
  -6   1   9   10.87    2.34
  -6   1   8   -2.24    3.73
  -6   1   7   96.18    5.08
  -6   1   6   48.84    4.28
  -6   1   5    0.42    2.98
  -6   1   4  115.43    5.11
  -6   1   3  185.85    6.03
  -6   1   2   71.70    4.23
  -6   1   1   -4.73    3.25
   6  -1   0    2.30    3.95
  -6   1   0   -0.18    3.31
   6  -1   1   -1.15    4.00
   6  -1   2    0.88    4.44
   6  -1   3   36.85    3.38
   6  -1   4   31.52    2.87
   6  -1   5   20.01    2.81
   6  -1   6    4.83    4.73
   6  -1   7    0.82    3.24
  -6   0  13    2.39    4.94
  -6   0  12   10.45    2.64
  -6   0  11   -4.84    4.58
  -6   0  10   21.08    2.58
  -6   0   9   -4.53    3.76
  -6   0   8   93.10    5.41
  -6   0   7    3.10    3.29
  -6   0   6   29.46    2.55
  -6   0   5   -2.16    3.14
  -6   0   4    3.77    3.10
  -6   0   3    2.71    3.03
  -6   0   2   71.73    4.34
  -6   0   1  177.23    5.93
   6   0   0    1.98    4.08
  -6   0   0    6.77    2.07
   6   0   1    2.94    3.67
   6   0   2   29.67    2.74
   6   0   3    9.35    2.48
   6   0   4    3.22    4.45
   6   0   5   28.79    3.21
   6   0   6   10.93    2.85
   6   0   7    7.38    5.01
  -6  -1  13    3.25    2.71
  -6  -1  12   -2.60    4.26
  -6  -1  11    1.87    3.77
  -6  -1  10   -1.04    3.92
  -6  -1   9    3.28    3.56
  -6  -1   8   73.55    5.07
  -6  -1   7   70.34    4.89
  -6  -1   6   78.80    4.98
  -6  -1   5   28.61    2.64
  -6  -1   4    1.43    3.15
  -6  -1   3  130.28    5.51
  -6  -1   2    2.46    3.57
  -6  -1   1    7.22    2.01
   6   1   0   17.77    2.53
  -6  -1   0   16.79    2.21
   6   1   1   31.59    2.67
   6   1   2   -0.38    4.11
   6   1   3    2.97    4.41
   6   1   4   35.79    3.07
   6   1   5   -6.67    4.85
   6   1   6    1.46    5.09
  -6  -2  13   23.87    3.10
  -6  -2  12    2.81    4.17
  -6  -2  11    5.57    4.31
  -6  -2  10   11.81    2.30
  -6  -2   9   20.91    2.38
  -6  -2   8   57.07    4.69
  -6  -2   7   14.68    2.08
  -6  -2   6   64.60    4.31
  -6  -2   5  310.11    7.67
  -6  -2   4   29.15    2.67
  -6  -2   3   -3.80    3.41
  -6  -2   2  142.50    5.87
  -6  -2   1  139.16    6.10
   6   2   0    0.30    4.22
  -6  -2   0    2.95    3.86
   6   2   1    3.90    2.52
   6   2   2   -5.86    4.54
   6   2   3   -0.25    4.21
   6   2   4   -2.30    4.82
   6   2   5    3.61    5.45
   6   2   6    9.96    3.15
  -6  -3  14   12.62    2.94
  -6  -3  13   14.58    2.79
  -6  -3  12   -4.30    4.09
  -6  -3  11   21.40    2.72
  -6  -3  10   16.79    2.54
  -6  -3   9   -3.78    3.61
  -6  -3   8   68.23    4.95
  -6  -3   7  118.32    5.88
  -6  -3   6   30.65    2.84
  -6  -3   5   22.28    2.13
  -6  -3   4    3.42    3.32
  -6  -3   3  249.34    7.50
  -6  -3   2    4.58    2.13
  -6  -3   1    8.71    2.24
   6   3   0  119.37    6.68
  -6  -3   0  128.08    6.24
   6   3   1   14.11    2.79
   6   3   2   -0.48    4.48
   6   3   3    3.21    4.18
   6   3   4   -6.21    4.99
   6   3   5    0.15    3.54
  -6  -4  14    4.60    4.46
  -6  -4  13   38.90    3.18
  -6  -4  12   13.90    2.70
  -6  -4  11   -4.53    4.15
  -6  -4  10    3.98    3.57
  -6  -4   9    2.65    3.73
  -6  -4   8   39.57    3.16
  -6  -4   7    0.73    3.32
  -6  -4   6  111.83    5.69
  -6  -4   5   63.78    4.82
  -6  -4   4    0.21    3.60
  -6  -4   3   20.15    2.37
  -6  -4   2   21.62    2.43
  -6  -4   1   94.34    6.37
   6   4   0    2.36    4.26
  -6  -4   0    3.43    4.25
   6   4   1    4.64    3.33
   6   4   2    5.70    5.65
   6   4   3    6.57    5.03
   6   4   4    3.28    5.42
  -6  -5  13    1.45    4.37
  -6  -5  12    0.55    4.37
  -6  -5  11   24.12    2.83
  -6  -5  10    0.49    4.03
  -6  -5   9    2.15    4.28
  -6  -5   8   25.01    2.51
  -6  -5   7   68.74    5.25
  -6  -5   6    9.06    2.29
  -6  -5   5    4.08    3.56
  -6  -5   4   34.74    3.26
  -6  -5   3    4.88    3.79
  -6  -5   2    4.61    2.41
  -6  -5   1   15.58    2.71
   6   5   0   18.65    3.28
  -6  -5   0   29.31    3.10
   6   5   1   22.87    3.17
   6   5   2    7.64    2.66
   6   5   3   -4.78    5.30
  -6  -6  13   18.05    3.02
  -6  -6  12   25.48    3.09
  -6  -6  11    0.76    3.83
  -6  -6  10    1.97    3.93
  -6  -6   9   -4.17    4.06
  -6  -6   8    4.25    3.68
  -6  -6   7    1.06    4.00
  -6  -6   6   25.59    2.59
  -6  -6   5   67.95    5.70
  -6  -6   4   -0.75    2.80
  -6  -6   3    2.03    4.36
  -6  -6   2   -1.44    4.19
  -6  -6   1   10.88    2.81
   6   6   0    0.80    4.94
  -6  -6   0    0.00    5.13
   6   6   1   10.25    3.22
   6   6   2   16.80    3.18
  -6  -7  12    2.59    4.79
  -6  -7  11   12.26    2.68
  -6  -7  10   15.21    2.79
  -6  -7   9    3.30    4.31
  -6  -7   8   -0.24    4.05
  -6  -7   7   20.85    2.83
  -6  -7   6   -3.39    4.25
  -6  -7   5   -2.61    4.34
  -6  -7   4    1.97    4.69
  -6  -7   3   18.67    2.80
  -6  -7   2   -2.65    4.43
  -6  -7   1    8.92    2.98
   6   7   0    4.46    5.40
  -6  -7   0    8.50    2.94
  -6  -8  11    5.61    5.28
  -6  -8  10   -0.32    4.93
  -6  -8   9    1.66    4.29
  -6  -8   8   -2.68    4.32
  -6  -8   7   -3.43    4.72
  -6  -8   6   12.48    2.63
  -6  -8   5   15.49    3.04
  -6  -8   4   -2.18    4.60
  -6  -8   3   -5.95    4.80
  -6  -8   2   -1.16    5.45
  -6  -9  10   32.71    3.17
  -6  -9   9    3.88    4.64
  -6  -9   8   12.59    3.04
  -6  -9   7   10.30    2.95
  -6  -9   6   -1.45    4.80
  -6  -9   5    1.50    5.02
  -6  -9   4    7.08    5.30
  -7  10   2   -2.13    4.83
  -7  10   1    3.26    4.48
   7 -10   0    8.09    5.44
  -7  10   0    0.56    5.09
   7 -10   1    2.79    3.21
   7 -10   2   -6.12    6.00
   7 -10   3    5.34    5.29
   7 -10   4   -2.43    5.26
  -7   9   4    0.92    4.95
  -7   9   3   -0.31    4.46
  -7   9   2   -1.60    4.32
  -7   9   1   -2.13    4.41
   7  -9   0   -4.19    5.45
  -7   9   0   -0.24    4.55
   7  -9   1    8.98    3.10
   7  -9   2   20.41    3.26
   7  -9   3    1.96    5.46
   7  -9   4    6.44    5.28
   7  -9   5   -0.34    3.69
   7  -9   6    4.31    2.93
  -7   8   6    4.15    4.65
  -7   8   5   -2.25    4.36
  -7   8   4   -1.06    4.43
  -7   8   3   15.47    2.78
  -7   8   2    3.44    4.21
  -7   8   1    7.92    2.65
   7  -8   0    3.09    2.98
  -7   8   0    7.24    2.46
   7  -8   1   -1.19    4.81
   7  -8   2   -8.61    5.12
   7  -8   3   12.68    2.91
   7  -8   4   12.06    3.18
   7  -8   5    7.19    4.86
   7  -8   6    4.35    5.05
  -7   7   7    3.44    4.60
  -7   7   6    9.20    2.59
  -7   7   5    6.09    4.16
  -7   7   4    5.81    4.36
  -7   7   3    3.02    4.16
  -7   7   2    4.71    3.94
  -7   7   1   12.31    2.60
   7  -7   0    1.35    5.09
  -7   7   0   -3.07    4.10
   7  -7   1    2.90    4.77
   7  -7   2   -2.80    5.02
   7  -7   3    4.97    4.82
   7  -7   4    2.21    4.64
   7  -7   5    1.87    4.81
   7  -7   6    5.03    4.88
   7  -7   7    4.91    2.83
  -7   6   9   -0.87    4.96
  -7   6   8   -4.54    4.60
  -7   6   7   -3.37    4.14
  -7   6   6   18.02    2.91
  -7   6   5   -2.49    4.19
  -7   6   4    4.20    4.32
  -7   6   3    5.49    3.97
  -7   6   2   10.31    2.48
  -7   6   1    9.00    2.35
   7  -6   0   -2.45    4.53
  -7   6   0    2.86    2.76
   7  -6   1    4.74    4.67
   7  -6   2   -3.47    4.67
   7  -6   3    4.95    4.78
   7  -6   4   -8.66    4.76
   7  -6   5    6.13    2.91
   7  -6   6    5.23    2.84
   7  -6   7    6.82    5.21
  -7   5  10   -3.31    4.66
  -7   5   9   -0.30    4.76
  -7   5   8    8.44    2.73
  -7   5   7   24.37    2.77
  -7   5   6   -1.34    4.14
  -7   5   5    3.39    3.67
  -7   5   4   -3.59    3.68
  -7   5   3    2.32    3.55
  -7   5   2    8.17    2.16
  -7   5   1    3.04    2.57
   7  -5   0   16.35    2.72
  -7   5   0   12.65    2.45
   7  -5   1   13.74    2.78
   7  -5   2   -2.49    4.51
   7  -5   3   80.91    6.40
   7  -5   4    5.14    4.58
   7  -5   5    3.34    3.34
   7  -5   6    5.12    5.27
   7  -5   7    5.52    3.11
  -7   4  10   -1.66    4.81
  -7   4   9    5.70    2.31
  -7   4   8  -12.03    4.65
  -7   4   7   23.39    2.60
  -7   4   6    3.30    3.71
  -7   4   5   12.46    2.38
  -7   4   4   -3.55    3.75
  -7   4   3   -0.70    3.65
  -7   4   2   26.64    2.38
  -7   4   1   -3.35    3.68
   7  -4   0    5.47    4.40
  -7   4   0    7.42    2.20
   7  -4   1    2.49    4.08
   7  -4   2    3.82    4.24
   7  -4   3   15.99    2.81
   7  -4   4    0.73    4.65
   7  -4   5   63.60    6.26
   7  -4   6    7.19    2.76
   7  -4   7   -9.69    5.65
  -7   3  11    5.79    4.57
  -7   3  10    2.39    2.51
  -7   3   9    0.26    4.26
  -7   3   8   20.37    2.58
  -7   3   7    3.90    4.00
  -7   3   6   -0.97    3.79
  -7   3   5   14.13    2.30
  -7   3   4    4.36    3.49
  -7   3   3   -4.08    3.47
  -7   3   2   10.31    2.12
  -7   3   1    2.23    3.63
   7  -3   0   35.35    3.53
  -7   3   0   33.56    3.09
   7  -3   1   -2.07    4.11
   7  -3   2   -0.24    4.41
   7  -3   3   -0.42    4.31
   7  -3   4   -7.08    4.84
   7  -3   5    6.47    2.95
   7  -3   6  -10.64    5.63
   7  -3   7   18.24    3.33
  -7   2  12    3.59    4.54
  -7   2  11   -1.91    4.24
  -7   2  10    3.29    4.17
  -7   2   9    0.96    4.31
  -7   2   8   -2.10    3.78
  -7   2   7   43.41    3.39
  -7   2   6   65.19    5.13
  -7   2   5    0.68    3.38
  -7   2   4   31.81    2.95
  -7   2   3    1.64    2.91
  -7   2   2   53.63    4.66
  -7   2   1   20.84    2.28
   7  -2   0   29.86    2.78
  -7   2   0   28.05    2.53
   7  -2   1    5.55    4.04
   7  -2   2    0.42    4.51
   7  -2   3   -5.42    4.45
   7  -2   4    1.41    4.45
   7  -2   5    1.28    4.86
   7  -2   6   -1.99    5.09
  -7   1  12   19.25    3.09
  -7   1  11   24.78    2.80
  -7   1  10   -0.75    4.18
  -7   1   9   14.48    2.49
  -7   1   8   12.11    2.27
  -7   1   7   36.83    3.14
  -7   1   6   -4.94    3.43
  -7   1   5  138.21    6.12
  -7   1   4   78.38    4.89
  -7   1   3   -0.51    3.44
  -7   1   2   73.81    4.75
  -7   1   1   37.92    3.26
   7  -1   0   71.68    5.47
  -7   1   0   52.86    4.79
   7  -1   1    4.60    4.55
   7  -1   2    2.85    4.70
   7  -1   3    0.69    4.58
   7  -1   4    4.39    4.68
   7  -1   5   -3.72    5.11
   7  -1   6    2.01    5.80
  -7   0  13    3.07    4.85
  -7   0  12    4.72    4.40
  -7   0  11    1.29    4.43
  -7   0  10   48.24    3.68
  -7   0   9    8.62    2.51
  -7   0   8    5.18    3.73
  -7   0   7   30.39    2.93
  -7   0   6   68.70    4.89
  -7   0   5    8.03    1.98
  -7   0   4   15.91    2.13
  -7   0   3   57.93    4.59
  -7   0   2   13.97    2.19
  -7   0   1   -1.98    3.94
   7   0   0   46.55    3.78
  -7   0   0   51.11    4.73
   7   0   1   51.24    3.85
   7   0   2   16.89    2.72
   7   0   3   -2.55    4.13
   7   0   4    5.60    4.70
   7   0   5    1.93    4.84
   7   0   6   -7.60    5.00
  -7  -1  13    2.39    4.78
  -7  -1  12   57.23    4.30
  -7  -1  11   14.57    2.72
  -7  -1  10    3.40    3.95
  -7  -1   9   14.97    2.51
  -7  -1   8   10.82    2.24
  -7  -1   7    1.10    3.38
  -7  -1   6   15.14    2.19
  -7  -1   5    3.46    3.55
  -7  -1   4   67.89    4.96
  -7  -1   3   10.18    2.03
  -7  -1   2    0.75    3.73
  -7  -1   1    4.56    2.20
   7   1   0    1.32    4.60
  -7  -1   0   -5.16    4.36
   7   1   1    4.03    4.56
   7   1   2   13.64    2.83
   7   1   3    4.68    5.26
   7   1   4    1.60    5.17
   7   1   5   -4.11    5.29
  -7  -2  13   20.25    2.91
  -7  -2  12    3.48    4.43
  -7  -2  11   44.77    3.72
  -7  -2  10   30.78    2.69
  -7  -2   9    9.87    2.37
  -7  -2   8    4.42    3.75
  -7  -2   7   -4.17    3.56
  -7  -2   6   23.49    2.42
  -7  -2   5   20.08    2.28
  -7  -2   4   24.25    2.41
  -7  -2   3   62.74    5.01
  -7  -2   2   31.10    2.57
  -7  -2   1    7.45    2.31
   7   2   0   14.50    2.96
  -7  -2   0   13.73    2.61
   7   2   1   28.93    3.08
   7   2   2    2.69    4.75
   7   2   3    3.45    4.70
   7   2   4   -6.35    5.45
  -7  -3  13   12.83    2.91
  -7  -3  12   20.94    2.74
  -7  -3  11   40.36    3.21
  -7  -3  10    1.41    3.90
  -7  -3   9   70.05    5.55
  -7  -3   8    4.33    3.85
  -7  -3   7    3.47    2.09
  -7  -3   6   14.19    2.32
  -7  -3   5   37.62    3.24
  -7  -3   4   45.27    3.36
  -7  -3   3   11.26    2.47
  -7  -3   2    6.12    2.41
  -7  -3   1   76.36    6.17
   7   3   0    2.46    5.32
  -7  -3   0    4.08    4.34
   7   3   1   -6.13    5.02
   7   3   2   29.56    3.23
   7   3   3    7.18    3.00
  -7  -4  13    8.79    2.97
  -7  -4  12    2.49    4.53
  -7  -4  11   40.83    3.82
  -7  -4  10   25.18    2.80
  -7  -4   9   17.57    2.53
  -7  -4   8   -5.04    4.10
  -7  -4   7   13.92    2.20
  -7  -4   6   31.01    2.66
  -7  -4   5    2.26    3.68
  -7  -4   4   44.66    3.39
  -7  -4   3   40.05    3.47
  -7  -4   2    3.58    4.16
  -7  -4   1    2.59    4.42
   7   4   0   -3.56    5.33
  -7  -4   0   -1.54    4.79
   7   4   1   28.64    3.70
   7   4   2    0.86    5.35
  -7  -5  13    0.27    4.81
  -7  -5  12   -4.76    4.80
  -7  -5  11   -2.39    4.24
  -7  -5  10   -4.74    4.30
  -7  -5   9   52.26    3.90
  -7  -5   8    6.27    4.26
  -7  -5   7    2.02    3.66
  -7  -5   6    0.90    4.06
  -7  -5   5   10.50    2.47
  -7  -5   4   17.82    2.72
  -7  -5   3    2.36    4.27
  -7  -5   2   19.68    2.88
  -7  -5   1    2.83    4.70
   7   5   0    3.32    5.34
  -7  -5   0   -4.65    4.95
   7   5   1    0.63    5.43
  -7  -6  12    1.78    4.32
  -7  -6  11    7.23    5.31
  -7  -6  10   21.12    2.87
  -7  -6   9    0.26    4.31
  -7  -6   8   -1.03    4.25
  -7  -6   7   16.62    2.62
  -7  -6   6    4.41    3.93
  -7  -6   5   -1.01    4.50
  -7  -6   4   11.45    2.56
  -7  -6   3   18.63    2.92
  -7  -6   2   -2.49    4.78
  -7  -6   1    1.73    5.09
   7   6   0    0.56    5.56
  -7  -6   0    1.47    4.90
  -7  -7  11   -2.93    4.82
  -7  -7  10   -6.52    4.68
  -7  -7   9   25.58    3.04
  -7  -7   8   18.56    2.77
  -7  -7   7    4.28    3.98
  -7  -7   6    1.95    2.47
  -7  -7   5   -2.96    4.22
  -7  -7   4    2.23    4.23
  -7  -7   3    3.46    4.83
  -7  -7   2    6.28    5.01
  -7  -8  10   17.02    3.06
  -7  -8   9    1.79    4.85
  -7  -8   8   -4.99    4.69
  -7  -8   7    3.36    2.71
  -7  -8   6    6.52    4.50
  -7  -8   5   -4.82    4.73
  -8   9   3    6.30    4.33
  -8   9   2   -5.25    4.65
  -8   9   1    5.20    4.53
   8  -9   0   -6.33    5.69
  -8   9   0   -8.63    4.88
   8  -9   1    5.39    3.20
   8  -9   2    4.44    3.62
   8  -9   3   -0.62    5.39
  -8   8   5    1.20    4.46
  -8   8   4   -4.25    4.65
  -8   8   3    3.05    4.21
  -8   8   2   -0.56    4.75
  -8   8   1    6.39    4.57
   8  -8   0   -0.27    5.82
  -8   8   0    5.59    5.07
   8  -8   1    5.08    5.79
   8  -8   2   -6.29    5.43
   8  -8   3   -4.48    5.20
   8  -8   4    5.32    5.05
  -8   7   7   -2.76    4.89
  -8   7   6   20.99    3.18
  -8   7   5    5.21    4.67
  -8   7   4   11.27    2.56
  -8   7   3    3.57    4.32
  -8   7   2   -4.74    4.30
  -8   7   1   -1.74    4.18
   8  -7   0    1.21    5.32
  -8   7   0   -1.01    4.60
   8  -7   1   26.74    3.29
   8  -7   2   -4.95    5.23
   8  -7   3   -2.45    5.34
   8  -7   4   -2.02    5.17
   8  -7   5   -2.98    5.53
  -8   6   8    2.38    4.56
  -8   6   7   -7.56    5.19
  -8   6   6   -1.83    4.32
  -8   6   5    1.04    4.37
  -8   6   4   44.68    4.11
  -8   6   3   -1.17    4.31
  -8   6   2    3.25    4.36
  -8   6   1   -2.04    4.13
   8  -6   0   -1.60    5.35
  -8   6   0    2.58    4.07
   8  -6   1    0.91    4.52
   8  -6   2   -0.52    5.09
   8  -6   3   -3.39    5.27
   8  -6   4   -4.35    5.28
   8  -6   5   -6.12    4.96
  -8   5   9    4.15    4.05
  -8   5   8   -4.14    4.25
  -8   5   7   -1.31    4.12
  -8   5   6   20.79    2.85
  -8   5   5   22.48    2.75
  -8   5   4   -2.25    4.28
  -8   5   3    2.45    4.15
  -8   5   2   21.84    2.56
  -8   5   1   -3.75    4.14
   8  -5   0   -3.75    4.98
  -8   5   0    3.35    4.19
   8  -5   1   -2.80    4.83
   8  -5   2    5.46    4.79
   8  -5   3   -2.24    5.11
   8  -5   4   -0.56    4.94
   8  -5   5    9.55    3.18
  -8   4  10    0.00    5.21
  -8   4   9   -5.54    4.32
  -8   4   8    3.86    3.98
  -8   4   7    4.37    3.98
  -8   4   6    1.57    3.98
  -8   4   5    9.88    2.46
  -8   4   4   19.42    2.57
  -8   4   3   26.07    2.50
  -8   4   2    4.88    2.18
  -8   4   1   -4.97    4.31
   8  -4   0    4.72    4.86
  -8   4   0    2.90    2.77
   8  -4   1   -0.67    4.93
   8  -4   2    0.23    4.81
   8  -4   3    6.70    4.67
   8  -4   4   -7.19    5.40
   8  -4   5    9.37    2.98
  -8   3  11    5.91    2.69
  -8   3  10    8.22    2.80
  -8   3   9    7.27    5.23
  -8   3   8    9.92    2.56
  -8   3   7   -1.63    3.88
  -8   3   6    3.45    4.31
  -8   3   5    9.68    2.31
  -8   3   4    2.83    2.14
  -8   3   3   16.73    2.40
  -8   3   2    0.42    3.87
  -8   3   1    2.04    4.05
   8  -3   0    2.13    4.55
  -8   3   0    0.86    4.05
   8  -3   1   -0.64    4.70
   8  -3   2    2.57    5.05
   8  -3   3   -4.04    5.02
   8  -3   4   -1.36    4.97
   8  -3   5    2.29    4.93
  -8   2  11   11.20    2.78
  -8   2  10    5.62    4.58
  -8   2   9    1.89    2.46
  -8   2   8   17.00    2.50
  -8   2   7    0.47    3.65
  -8   2   6   -0.60    3.66
  -8   2   5   -3.20    3.92
  -8   2   4   35.67    3.37
  -8   2   3    5.26    4.08
  -8   2   2    6.95    2.21
  -8   2   1    0.41    3.82
   8  -2   0   14.93    2.88
  -8   2   0   10.08    2.56
   8  -2   1    4.69    4.63
   8  -2   2    6.60    4.87
   8  -2   3    0.53    5.06
   8  -2   4    4.13    5.08
   8  -2   5   -5.30    5.42
  -8   1  12    1.18    4.30
  -8   1  11    9.58    2.51
  -8   1  10   31.89    2.92
  -8   1   9   31.64    2.91
  -8   1   8    4.94    4.01
  -8   1   7    2.99    3.67
  -8   1   6    3.06    3.79
  -8   1   5   28.87    2.60
  -8   1   4    1.16    3.51
  -8   1   3   40.41    3.38
  -8   1   2   52.10    5.14
  -8   1   1    2.03    2.78
   8  -1   0   17.53    3.00
  -8   1   0   19.11    2.65
   8  -1   1   -4.12    4.96
   8  -1   2   21.02    3.12
   8  -1   3    3.57    3.40
   8  -1   4    3.53    2.94
   8  -1   5    5.63    3.07
  -8   0  12   23.06    2.96
  -8   0  11    5.20    4.42
  -8   0  10   14.16    2.74
  -8   0   9   13.76    2.51
  -8   0   8   87.05    5.99
  -8   0   7   30.92    2.64
  -8   0   6    0.00    3.52
  -8   0   5   24.48    2.59
  -8   0   4   16.07    2.39
  -8   0   3   14.89    2.51
  -8   0   2    0.82    4.10
  -8   0   1   49.24    3.81
   8   0   0   14.80    2.98
  -8   0   0   13.46    2.80
   8   0   1    4.71    4.72
   8   0   2    7.21    3.13
   8   0   3    5.10    3.74
   8   0   4    2.97    5.25
  -8  -1  12    3.76    4.49
  -8  -1  11   -0.02    4.21
  -8  -1  10   93.01    6.72
  -8  -1   9   11.90    2.57
  -8  -1   8    3.24    2.87
  -8  -1   7   22.42    2.46
  -8  -1   6   48.62    3.61
  -8  -1   5    2.24    3.75
  -8  -1   4    2.84    3.74
  -8  -1   3    3.28    3.97
  -8  -1   2   22.67    2.72
  -8  -1   1   -5.75    4.26
   8   1   0   10.38    2.87
  -8  -1   0    8.59    2.43
   8   1   1   -0.27    5.07
   8   1   2    0.27    5.20
   8   1   3   -4.32    5.67
  -8  -2  12   -8.91    4.77
  -8  -2  11   15.89    2.76
  -8  -2  10   -1.48    4.13
  -8  -2   9   20.48    2.61
  -8  -2   8  106.62    6.36
  -8  -2   7   15.62    2.44
  -8  -2   6   -3.84    3.77
  -8  -2   5    9.40    2.28
  -8  -2   4  -10.01    4.01
  -8  -2   3   10.19    2.43
  -8  -2   2    4.73    4.11
  -8  -2   1   -4.95    4.56
   8   2   0   12.44    3.03
  -8  -2   0    8.95    2.92
   8   2   1   -0.26    4.95
   8   2   2    3.15    4.92
   8   2   3   -3.04    5.32
  -8  -3  12   -0.31    4.37
  -8  -3  11   -4.93    4.66
  -8  -3  10   13.59    2.80
  -8  -3   9   52.32    4.00
  -8  -3   8    2.11    3.70
  -8  -3   7   51.67    3.88
  -8  -3   6   19.21    2.49
  -8  -3   5    3.13    2.84
  -8  -3   4    4.52    3.94
  -8  -3   3   -2.07    4.39
  -8  -3   2   15.47    2.65
  -8  -3   1   14.44    2.83
   8   3   0   -2.94    5.04
  -8  -3   0   -1.61    4.82
   8   3   1   15.32    3.15
   8   3   2   -1.20    5.35
  -8  -4  12   49.49    4.17
  -8  -4  11   17.55    3.00
  -8  -4  10   -3.43    4.44
  -8  -4   9   20.92    2.83
  -8  -4   8   23.10    2.89
  -8  -4   7   40.46    3.75
  -8  -4   6    8.89    2.44
  -8  -4   5   22.96    2.90
  -8  -4   4    5.62    4.25
  -8  -4   3   -2.97    4.47
  -8  -4   2    4.48    2.73
  -8  -4   1   12.34    2.98
   8   4   0    7.50    3.20
  -8  -4   0    6.35    4.84
  -8  -5  12    2.77    4.44
  -8  -5  11    6.06    5.09
  -8  -5  10    6.65    2.83
  -8  -5   9    2.67    4.23
  -8  -5   8    0.22    4.53
  -8  -5   7   38.56    3.14
  -8  -5   6   14.44    2.87
  -8  -5   5    4.12    4.51
  -8  -5   4    2.92    4.23
  -8  -5   3    4.11    4.19
  -8  -5   2    4.58    5.08
  -8  -5   1   -4.17    5.34
  -8  -6  11    3.61    4.34
  -8  -6  10    0.26    4.60
  -8  -6   9    1.15    4.50
  -8  -6   8    5.66    2.74
  -8  -6   7    0.00    4.65
  -8  -6   6    3.15    2.69
  -8  -6   5   12.35    3.03
  -8  -6   4    4.32    3.33
  -8  -6   3   -4.16    5.03
  -8  -7   9   -2.70    5.19
  -8  -7   8   -6.93    4.24
  -8  -7   7    8.68    2.94
  -8  -7   6    5.11    5.38
  -8  -7   5    4.00    4.99
  -9   8   3    0.58    4.85
  -9   8   2    1.50    4.91
  -9   8   1   -1.16    4.69
   9  -8   0    6.83    5.79
  -9   8   0   -1.46    5.03
   9  -8   1   -1.83    5.69
   9  -8   2    4.94    6.00
  -9   7   5   -0.87    4.61
  -9   7   4   13.37    2.90
  -9   7   3    4.47    4.94
  -9   7   2    6.37    4.89
  -9   7   1    3.32    4.39
   9  -7   0    2.21    5.49
  -9   7   0    5.85    4.46
   9  -7   1   -0.83    5.56
   9  -7   2   -3.76    5.60
   9  -7   3    3.70    5.47
  -9   6   7    2.09    4.55
  -9   6   6    1.72    4.39
  -9   6   5   -3.87    4.62
  -9   6   4   -1.63    4.69
  -9   6   3    2.38    4.44
  -9   6   2   41.31    3.20
  -9   6   1    4.75    3.26
   9  -6   0    3.99    5.40
  -9   6   0    2.93    4.74
   9  -6   1    3.06    5.58
   9  -6   2   -5.88    5.77
   9  -6   3   -4.41    5.67
  -9   5   8   -0.60    4.58
  -9   5   7    2.51    4.45
  -9   5   6   -4.87    4.38
  -9   5   5   -4.18    4.47
  -9   5   4   22.12    2.83
  -9   5   3    6.22    4.62
  -9   5   2   -3.50    4.63
  -9   5   1    0.79    4.28
   9  -5   0   40.94    3.76
  -9   5   0   33.59    3.26
   9  -5   1   -8.18    5.76
   9  -5   2   -1.93    5.73
   9  -5   3   -0.60    5.40
   9  -5   4    1.86    5.31
  -9   4   9   29.46    3.27
  -9   4   8    5.04    4.87
  -9   4   7   -1.07    4.15
  -9   4   6   -0.77    4.17
  -9   4   5    2.21    4.08
  -9   4   4   -2.88    4.34
  -9   4   3   -0.76    4.52
  -9   4   2   28.83    2.84
  -9   4   1   14.88    2.74
   9  -4   0    4.20    5.35
  -9   4   0    1.72    3.17
   9  -4   1   -5.52    5.58
   9  -4   2    8.24    5.67
   9  -4   3   -2.59    5.67
   9  -4   4   -5.18    5.31
  -9   3  10    7.83    2.91
  -9   3   9    6.56    4.75
  -9   3   8    7.32    2.70
  -9   3   7   54.66    4.14
  -9   3   6   19.01    2.48
  -9   3   5   -1.92    4.10
  -9   3   4    0.47    3.94
  -9   3   3   -3.01    3.94
  -9   3   2   -2.35    4.43
  -9   3   1    2.83    4.78
   9  -3   0    3.69    5.28
  -9   3   0    9.57    2.74
   9  -3   1    1.27    5.27
   9  -3   2   -7.05    5.38
   9  -3   3   -8.14    5.09
  -9   2  10    1.72    4.66
  -9   2   9    6.30    4.27
  -9   2   8   14.02    2.78
  -9   2   7    9.86    2.66
  -9   2   6   12.58    2.71
  -9   2   5    9.53    2.49
  -9   2   4    4.33    3.90
  -9   2   3    1.19    4.24
  -9   2   2   10.28    2.47
  -9   2   1    3.80    4.54
   9  -2   0    6.96    5.06
  -9   2   0    4.22    4.44
   9  -2   1    3.98    3.88
   9  -2   2   -4.71    5.60
   9  -2   3   -0.57    5.24
  -9   1  11    0.58    4.90
  -9   1  10    4.20    4.06
  -9   1   9   -2.66    4.71
  -9   1   8   11.37    2.52
  -9   1   7   33.09    2.92
  -9   1   6   12.20    2.46
  -9   1   5    0.72    3.88
  -9   1   4    9.81    2.24
  -9   1   3    4.03    2.47
  -9   1   2   -0.82    3.08
  -9   1   1    1.48    4.34
   9  -1   0   22.66    3.16
  -9   1   0   12.91    2.98
   9  -1   1    4.27    4.72
   9  -1   2    1.45    5.34
   9  -1   3    1.56    5.40
  -9   0  11    0.02    4.56
  -9   0  10    8.68    2.55
  -9   0   9    0.04    4.40
  -9   0   8    6.96    5.01
  -9   0   7   -0.20    4.60
  -9   0   6   49.01    3.66
  -9   0   5   35.76    3.47
  -9   0   4   -0.22    3.97
  -9   0   3   -1.65    4.15
  -9   0   2    5.33    4.04
  -9   0   1   12.49    2.74
   9   0   0    7.65    5.26
  -9   0   0    4.49    2.55
   9   0   1    9.73    3.14
   9   0   2   -0.56    5.78
  -9  -1  11    3.47    2.67
  -9  -1  10    2.36    3.11
  -9  -1   9    5.89    2.64
  -9  -1   8   67.98    5.91
  -9  -1   7    8.96    2.51
  -9  -1   6   14.33    2.59
  -9  -1   5   15.83    2.53
  -9  -1   4   43.49    3.95
  -9  -1   3   -0.22    4.62
  -9  -1   2    0.53    4.19
  -9  -1   1    5.88    2.66
   9   1   0    4.42    5.16
  -9  -1   0    0.29    4.63
   9   1   1    5.80    5.45
  -9  -2  11   -3.55    4.76
  -9  -2  10   -5.01    4.62
  -9  -2   9   -3.73    4.50
  -9  -2   8   -4.11    4.28
  -9  -2   7    1.22    4.11
  -9  -2   6  100.87    6.75
  -9  -2   5    6.82    2.60
  -9  -2   4    0.46    4.43
  -9  -2   3    6.90    4.71
  -9  -2   2    4.78    4.63
  -9  -2   1   -0.28    4.68
   9   2   0    0.56    5.40
  -9  -2   0   -4.09    4.65
  -9  -3  11   70.80    6.21
  -9  -3  10    1.16    4.85
  -9  -3   9   -9.28    4.51
  -9  -3   8    5.49    2.58
  -9  -3   7   12.04    2.80
  -9  -3   6    3.35    4.40
  -9  -3   5    2.84    5.21
  -9  -3   4   36.20    3.12
  -9  -3   3   -6.83    5.06
  -9  -3   2    4.47    4.56
  -9  -3   1    2.98    4.81
  -9  -4  11    7.66    5.40
  -9  -4  10   44.50    4.17
  -9  -4   9   44.22    4.06
  -9  -4   8    1.94    4.57
  -9  -4   7    4.68    4.55
  -9  -4   6   14.35    2.84
  -9  -4   5   24.60    3.08
  -9  -4   4    5.04    4.42
  -9  -4   3   15.07    2.76
  -9  -4   2   -0.92    4.87
  -9  -5  10    4.00    5.09
  -9  -5   9   16.52    3.12
  -9  -5   8   29.38    3.03
  -9  -5   7    5.52    2.57
  -9  -5   6   -1.80    5.22
  -9  -5   5    5.05    5.17
  -9  -5   4   11.36    2.91
 -10   6   5   -3.64    4.89
 -10   6   4    1.49    4.56
 -10   6   3   -2.64    5.24
 -10   6   2   -0.28    4.72
 -10   6   1    4.46    4.69
  10  -6   0   13.87    3.42
 -10   6   0   -0.95    5.47
 -10   5   6    3.38    2.60
 -10   5   5    3.76    4.39
 -10   5   4    4.01    4.60
 -10   5   3    5.13    4.70
 -10   5   2   -0.55    4.59
 -10   5   1    0.00    5.32
  10  -5   0   -0.86    5.83
 -10   5   0    2.08    4.95
  10  -5   1   -1.77    5.81
 -10   4   7   19.10    3.19
 -10   4   6    3.31    3.56
 -10   4   5    1.65    4.69
 -10   4   4   -3.56    4.46
 -10   4   3    2.49    4.58
 -10   4   2   -4.15    4.42
 -10   4   1   -5.11    4.78
  10  -4   0    7.99    3.47
 -10   4   0    3.74    5.37
  10  -4   1   11.39    3.34
 -10   3   8   10.76    2.66
 -10   3   7    8.18    2.74
 -10   3   6    0.00    4.79
 -10   3   5   51.33    4.25
 -10   3   4    8.93    2.83
 -10   3   3    2.14    4.14
 -10   3   2   -3.78    4.56
 -10   3   1   -5.60    4.72
  10  -3   0    2.40    3.27
 -10   3   0    4.90    4.29
  10  -3   1    4.48    5.68
 -10   2   9   -3.92    4.98
 -10   2   8    1.44    4.87
 -10   2   7   -1.39    4.72
 -10   2   6   15.86    2.77
 -10   2   5   11.38    2.65
 -10   2   4    4.52    4.55
 -10   2   3   26.40    3.05
 -10   2   2   -1.05    4.96
 -10   2   1   -5.07    5.09
  10  -2   0    1.14    3.94
 -10   2   0    1.14    4.97
  10  -2   1    5.21    5.41
 -10   1   9   10.52    2.78
 -10   1   8    4.00    3.21
 -10   1   7    3.31    4.36
 -10   1   6   -3.52    4.83
 -10   1   5    0.80    4.86
 -10   1   4    6.22    2.84
 -10   1   3    2.41    3.35
 -10   1   2    5.81    4.75
 -10   1   1    1.30    3.32
  10  -1   0   -0.57    5.47
 -10   1   0   -2.06    4.64
 -10   0  10    6.73    5.21
 -10   0   9   -9.10    4.64
 -10   0   8   -3.14    4.49
 -10   0   7    2.76    4.13
 -10   0   6    2.96    4.49
 -10   0   5    5.19    2.53
 -10   0   4    7.63    2.77
 -10   0   3   12.68    2.98
 -10   0   2    1.17    4.97
 -10   0   1    0.04    4.97
  10   0   0   -1.20    5.72
 -10   0   0    5.22    4.61
 -10  -1  10    3.98    4.49
 -10  -1   9    5.02    4.53
 -10  -1   8    9.60    2.69
 -10  -1   7    5.19    2.76
 -10  -1   6    6.09    2.84
 -10  -1   5    0.01    3.99
 -10  -1   4    6.39    5.28
 -10  -1   3    3.53    2.80
 -10  -1   2   10.69    3.03
 -10  -1   1    2.15    5.07
 -10  -2   9    2.39    4.58
 -10  -2   8   -1.18    4.80
 -10  -2   7    0.88    3.21
 -10  -2   6   -0.84    4.38
 -10  -2   5    0.30    4.54
 -10  -2   4   33.44    3.24
 -10  -2   3   -9.21    4.87
 -10  -2   2    5.85    5.43
 -10  -3   9   45.36    4.01
 -10  -3   8   -1.82    5.10
 -10  -3   7    0.30    4.78
 -10  -3   6    1.79    4.24
 -10  -3   5    8.38    2.63
 -10  -3   4   -3.03    4.85
 -11   3   4    3.70    4.87
 -11   2   5    2.45    4.68
 -11   2   4    3.07    5.21
 -11   1   6    5.74    2.76
 -11   1   5   -7.31    4.48
 -11   1   4   -1.52    4.46
   0   0   0    0.00    0.00

_computing_structure_solution     'SHELXT 2014/5 (Sheldrick, 2014)'
;
_shelx_hkl_checksum              38063
loop_
_space_group_symop_id
_space_group_symop_operation_xyz
1 +X,+Y,+Z
2 -X,-Y,-Z
loop_
_atom_site_label
_atom_site_type_symbol
_atom_site_fract_x
_atom_site_fract_y
_atom_site_fract_z
_atom_site_U_iso_or_equiv
_atom_site_adp_type
_atom_site_occupancy
_atom_site_site_symmetry_order
_atom_site_calc_flag
_atom_site_refinement_flags_posn
_atom_site_refinement_flags_adp
S1 S -0.03021(16) 0.22433(16) 0.71140(13) 0.0585(4) Uani 1 1 d . .
S2 S 0.42066(14) 0.29611(13) 0.56093(11) 0.0425(3) Uani 1 1 d . .
N1 N 0.4078(5) 0.0445(5) 0.1334(4) 0.0579(10) Uani 1 1 d . .
N2 N 0.0285(5) 0.3451(5) 0.1563(4) 0.0573(10) Uani 1 1 d . .
C1 C 0.3689(5) 0.1568(5) 0.1156(4) 0.0385(8) Uani 1 1 d . .
C2 C 0.1556(5) 0.3255(5) 0.1296(4) 0.0385(8) Uani 1 1 d . .
C3 C 0.3139(4) 0.2978(4) 0.0967(4) 0.0304(7) Uani 1 1 d . .
C4 C 0.4067(5) 0.3976(4) 0.0484(3) 0.0273(7) Uani 1 1 d . .
C5 C 0.5638(5) 0.3639(4) 0.0141(4) 0.0296(7) Uani 1 1 d . .
H5 H 0.604542 0.273537 0.024316 0.036 Uiso 1 1 calc R U
C6 C 0.3473(5) 0.5382(4) 0.0326(4) 0.0300(7) Uani 1 1 d . .
H6 H 0.246069 0.561964 0.054833 0.036 Uiso 1 1 calc R U
C7 C -0.0301(7) 0.0543(6) 0.7526(5) 0.0667(15) Uani 1 1 d . .
H7 H -0.117264 0.012282 0.783632 0.080 Uiso 1 1 calc R U
C8 C 0.1053(7) -0.0122(6) 0.7363(5) 0.0605(13) Uani 1 1 d . .
H8 H 0.123973 -0.105326 0.754887 0.073 Uiso 1 1 calc R U
C9 C 0.2181(5) 0.0726(5) 0.6878(4) 0.0414(9) Uani 1 1 d . .
H9 H 0.318912 0.041323 0.669642 0.050 Uiso 1 1 calc R U
C10 C 0.1637(5) 0.2066(5) 0.6700(4) 0.0365(9) Uani 1 1 d . .
C11 C 0.2431(5) 0.3262(5) 0.6219(4) 0.0404(9) Uani 1 1 d . .
C12 C 0.1986(5) 0.4675(5) 0.6165(4) 0.0434(9) Uani 1 1 d . .
H12 H 0.106630 0.505007 0.645421 0.052 Uiso 1 1 calc R U
C13 C 0.3060(5) 0.5504(5) 0.5629(4) 0.0415(9) Uani 1 1 d . .
H13 H 0.291169 0.647956 0.551767 0.050 Uiso 1 1 calc R U
C14 C 0.4335(5) 0.4748(5) 0.5287(4) 0.0339(8) Uani 1 1 d . .
loop_
_atom_site_aniso_label
_atom_site_aniso_U_11
_atom_site_aniso_U_22
_atom_site_aniso_U_33
_atom_site_aniso_U_23
_atom_site_aniso_U_13
_atom_site_aniso_U_12
S1 0.0481(6) 0.0745(9) 0.0551(7) 0.0255(6) 0.0306(5) 0.0021(6)
S2 0.0475(6) 0.0447(6) 0.0454(5) 0.0213(4) 0.0296(5) 0.0082(4)
N1 0.070(3) 0.053(2) 0.085(3) 0.046(2) 0.049(2) 0.032(2)
N2 0.059(2) 0.068(3) 0.080(3) 0.044(2) 0.050(2) 0.031(2)
C1 0.042(2) 0.042(2) 0.048(2) 0.0261(18) 0.0292(18) 0.0135(17)
C2 0.043(2) 0.041(2) 0.044(2) 0.0244(17) 0.0254(18) 0.0126(17)
C3 0.0332(18) 0.0313(18) 0.0359(18) 0.0186(15) 0.0193(15) 0.0112(15)
C4 0.0326(17) 0.0248(16) 0.0285(16) 0.0128(13) 0.0159(14) 0.0063(13)
C5 0.0345(18) 0.0273(17) 0.0379(18) 0.0181(15) 0.0199(15) 0.0153(14)
C6 0.0309(17) 0.0328(18) 0.0362(17) 0.0178(15) 0.0198(15) 0.0125(14)
C7 0.072(3) 0.067(3) 0.048(3) 0.020(2) 0.028(2) -0.022(3)
C8 0.082(4) 0.040(2) 0.051(3) 0.019(2) 0.025(3) -0.003(2)
C9 0.045(2) 0.042(2) 0.036(2) 0.0153(17) 0.0178(18) 0.0085(18)
C10 0.0316(19) 0.047(2) 0.0266(16) 0.0154(16) 0.0133(14) -0.0050(16)
C11 0.0338(19) 0.054(2) 0.0278(18) 0.0151(17) 0.0127(16) -0.0022(18)
C12 0.040(2) 0.057(3) 0.039(2) 0.0254(19) 0.0179(17) 0.0123(19)
C13 0.041(2) 0.056(2) 0.0383(19) 0.0296(19) 0.0180(17) 0.0125(18)
C14 0.0343(19) 0.043(2) 0.0277(16) 0.0203(15) 0.0129(14) 0.0059(16)
loop_
_atom_type_symbol
_atom_type_description
_atom_type_scat_dispersion_real
_atom_type_scat_dispersion_imag
_atom_type_scat_source
C C 0.0033 0.0016
;
International Tables for Crystallography
(Vol. C, Tables 4.2.6.8 and 6.1.1.4)
;
H H 0.0000 0.0000
;
International Tables for Crystallography
(Vol. C, Table 6.1.1.4)
;
N N 0.0061 0.0033
;
International Tables for Crystallography
(Vol. C, Tables 4.2.6.8 and 6.1.1.4)
;
S S 0.1246 0.1234
;
International Tables for Crystallography
(Vol. C, Tables 4.2.6.8 and 6.1.1.4)
;
loop_
_geom_angle_atom_site_label_1
_geom_angle_atom_site_label_2
_geom_angle_atom_site_label_3
_geom_angle
_geom_angle_site_symmetry_1
_geom_angle_site_symmetry_3
C7 S1 C10 90.5(2) . .
C14 S2 C11 91.87(19) . .
N1 C1 C3 177.3(4) . .
N2 C2 C3 178.8(4) . .
C4 C3 C2 123.0(3) . .
C4 C3 C1 122.3(3) . .
C2 C3 C1 114.8(3) . .
C3 C4 C6 120.2(3) . .
C3 C4 C5 121.2(3) . .
C6 C4 C5 118.6(3) . .
C6 C5 C4 120.6(3) 2_665 .
C6 C5 H5 119.7 2_665 .
C4 C5 H5 119.7 . .
C5 C6 C4 120.7(3) 2_665 .
C5 C6 H6 119.6 2_665 .
C4 C6 H6 119.6 . .
C8 C7 S1 113.6(3) . .
C8 C7 H7 123.2 . .
S1 C7 H7 123.2 . .
C7 C8 C9 112.6(4) . .
C7 C8 H8 123.7 . .
C9 C8 H8 123.7 . .
C10 C9 C8 112.6(4) . .
C10 C9 H9 123.7 . .
C8 C9 H9 123.7 . .
C9 C10 C11 129.8(3) . .
C9 C10 S1 110.6(3) . .
C11 C10 S1 119.5(3) . .
C12 C11 C10 129.6(3) . .
C12 C11 S2 110.8(3) . .
C10 C11 S2 119.7(3) . .
C11 C12 C13 113.0(4) . .
C11 C12 H12 123.5 . .
C13 C12 H12 123.5 . .
C14 C13 C12 113.7(4) . .
C14 C13 H13 123.2 . .
C12 C13 H13 123.2 . .
C13 C14 C14 128.6(4) . 2_666
C13 C14 S2 110.7(3) . .
C14 C14 S2 120.7(4) 2_666 .
loop_
_geom_bond_atom_site_label_1
_geom_bond_atom_site_label_2
_geom_bond_distance
_geom_bond_site_symmetry_2
S1 C7 1.701(5) .
S1 C10 1.727(4) .
S2 C14 1.725(4) .
S2 C11 1.727(4) .
N1 C1 1.137(5) .
N2 C2 1.141(5) .
C1 C3 1.433(5) .
C2 C3 1.425(5) .
C3 C4 1.387(4) .
C4 C6 1.434(5) .
C4 C5 1.435(4) .
C5 C6 1.345(4) 2_665
C5 H5 0.9300 .
C6 H6 0.9300 .
C7 C8 1.319(7) .
C7 H7 0.9300 .
C8 C9 1.401(5) .
C8 H8 0.9300 .
C9 C10 1.367(5) .
C9 H9 0.9300 .
C10 C11 1.462(5) .
C11 C12 1.363(6) .
C12 C13 1.403(5) .
C12 H12 0.9300 .
C13 C14 1.357(5) .
C13 H13 0.9300 .
C14 C14 1.448(6) 2_666
loop_
_geom_torsion_atom_site_label_1
_geom_torsion_atom_site_label_2
_geom_torsion_atom_site_label_3
_geom_torsion_atom_site_label_4
_geom_torsion
_geom_torsion_site_symmetry_4
C2 C3 C4 C6 1.4(5) .
C1 C3 C4 C6 -179.4(3) .
C2 C3 C4 C5 -179.0(3) .
C1 C3 C4 C5 0.2(5) .
C3 C4 C5 C6 -180.0(3) 2_665
C6 C4 C5 C6 -0.3(5) 2_665
C3 C4 C6 C5 180.0(3) 2_665
C5 C4 C6 C5 0.3(5) 2_665
C10 S1 C7 C8 -0.2(4) .
S1 C7 C8 C9 -0.3(5) .
C7 C8 C9 C10 0.7(5) .
C8 C9 C10 C11 180.0(4) .
C8 C9 C10 S1 -0.9(4) .
C7 S1 C10 C9 0.6(3) .
C7 S1 C10 C11 179.9(3) .
C9 C10 C11 C12 -173.8(4) .
S1 C10 C11 C12 7.1(5) .
C9 C10 C11 S2 6.1(5) .
S1 C10 C11 S2 -173.02(19) .
C14 S2 C11 C12 0.0(3) .
C14 S2 C11 C10 -179.9(3) .
C10 C11 C12 C13 -179.8(3) .
S2 C11 C12 C13 0.3(4) .
C11 C12 C13 C14 -0.7(5) .
C12 C13 C14 C14 -180.0(4) 2_666
C12 C13 C14 S2 0.7(4) .
C11 S2 C14 C13 -0.4(3) .
C11 S2 C14 C14 -179.8(4) 2_666
